MODEL 1
REMARK VINA RESULT:     -11.7      0.000      0.000
REMARK SMILES CC[C@](C)([NH3+])C(=O)N1CC[NH+]([C@H](C)C(=O)NCCCCNC(=O)c2ccc(-c3c4nc(c(-c5cc(S(=O)(=O)[O-])ccc5F)c5ccc([nH]5)c(-c5cc(S(=O)(=O)[O-])ccc5F)c5nc(c(-c6cc(S(=O)(=O)[O-])ccc6F)c6ccc3[nH]6)C=C5)C=C4)cc2)CC1
REMARK SMILES IDX 18 1 17 2 16 3 14 4 15 5 12 7 13 8 11 9 6 10 7 11 8 12 9 13
REMARK SMILES IDX 88 14 10 15 87 16 3 18 4 19 2 20 1 21 5 22 19 26 20 27 21 28
REMARK SMILES IDX 22 29 23 31 24 32 25 33 86 34 26 35 85 36 27 37 28 38 29 39
REMARK SMILES IDX 79 40 30 41 84 42 78 43 80 44 31 45 83 46 77 47 76 48 32 50
REMARK SMILES IDX 64 51 44 52 63 53 45 54 48 55 62 56 81 57 46 58 47 59 61 61
REMARK SMILES IDX 82 62 49 63 33 64 34 65 42 66 35 67 41 68 43 69 40 70 36 71
REMARK SMILES IDX 37 72 38 73 39 74 65 75 66 76 74 77 67 78 73 79 75 80 72 81
REMARK SMILES IDX 68 82 69 83 70 84 71 85 50 86 51 87 59 88 52 89 58 90 60 91
REMARK SMILES IDX 57 92 53 93 54 94 55 95 56 96
REMARK H PARENT 16 6 11 17 5 23 5 24 5 25 21 30 80 49 48 60
REMARK Flexibility Score: inf
ROOT
ATOM      1  C   UNL A   1      34.916  22.392  26.669  1.00  0.00     0.023 C 
ENDROOT
BRANCH   1   2
ATOM      2  C   UNL A   1      34.188  23.580  26.057  1.00  0.00     0.116 C 
BRANCH   2   3
ATOM      3  N   UNL A   1      32.901  23.859  26.661  1.00  0.00    -0.351 N 
ATOM      4  C   UNL A   1      31.738  24.310  26.100  1.00  0.00     0.278 C 
ATOM      5  O   UNL A   1      30.721  24.253  26.800  1.00  0.00    -0.268 OA
ATOM      6  H   UNL A   1      32.856  23.697  27.631  1.00  0.00     0.163 HD
BRANCH   4   7
ATOM      7  C   UNL A   1      31.675  24.891  24.664  1.00  0.00     0.271 C 
ATOM      8  C   UNL A   1      30.430  24.441  23.888  1.00  0.00     0.086 C 
BRANCH   7   9
ATOM      9  N   UNL A   1      32.073  26.328  24.573  1.00  0.00    -0.322 N 
ATOM     10  C   UNL A   1      30.498  30.085  23.931  1.00  0.00     0.283 C 
ATOM     11  O   UNL A   1      30.224  30.819  24.892  1.00  0.00    -0.268 OA
ATOM     12  N   UNL A   1      31.492  29.132  24.077  1.00  0.00    -0.326 N 
ATOM     13  C   UNL A   1      31.851  28.704  25.426  1.00  0.00     0.181 C 
ATOM     14  C   UNL A   1      32.222  28.372  23.067  1.00  0.00     0.181 C 
ATOM     15  C   UNL A   1      31.466  27.218  25.580  1.00  0.00     0.284 C 
ATOM     16  C   UNL A   1      31.935  26.862  23.200  1.00  0.00     0.284 C 
ATOM     17  H   UNL A   1      33.066  26.325  24.810  1.00  0.00     0.348 HD
BRANCH  10  18
ATOM     18  C   UNL A   1      29.557  30.123  22.672  1.00  0.00     0.171 C 
ATOM     19  C   UNL A   1      28.613  31.341  22.797  1.00  0.00     0.090 C 
BRANCH  18  20
ATOM     20  C   UNL A   1      28.726  28.816  22.579  1.00  0.00     0.075 C 
ATOM     21  C   UNL A   1      27.292  28.914  23.094  1.00  0.00     0.011 C 
ENDBRANCH  18  20
BRANCH  18  22
ATOM     22  N   UNL A   1      30.302  30.316  21.402  1.00  0.00    -0.345 N 
ATOM     23  H   UNL A   1      30.701  29.425  21.104  1.00  0.00     0.345 HD
ATOM     24  H   UNL A   1      31.050  30.993  21.545  1.00  0.00     0.345 HD
ATOM     25  H   UNL A   1      29.665  30.661  20.683  1.00  0.00     0.345 HD
ENDBRANCH  18  22
ENDBRANCH  10  18
ENDBRANCH   7   9
ENDBRANCH   4   7
ENDBRANCH   2   3
ENDBRANCH   1   2
BRANCH   1  26
ATOM     26  C   UNL A   1      35.517  21.411  25.666  1.00  0.00     0.023 C 
BRANCH  26  27
ATOM     27  C   UNL A   1      36.924  21.740  25.174  1.00  0.00     0.116 C 
BRANCH  27  28
ATOM     28  N   UNL A   1      37.888  20.677  25.417  1.00  0.00    -0.352 N 
ATOM     29  C   UNL A   1      39.139  20.738  25.988  1.00  0.00     0.251 C 
ATOM     30  H   UNL A   1      37.601  19.779  25.130  1.00  0.00     0.163 HD
ATOM     31  O   UNL A   1      39.852  19.743  26.000  1.00  0.00    -0.269 OA
BRANCH  29  32
ATOM     32  C   UNL A   1      39.631  22.021  26.536  1.00  0.00     0.039 A 
ATOM     33  C   UNL A   1      40.707  22.004  27.426  1.00  0.00     0.014 A 
ATOM     34  C   UNL A   1      39.068  23.235  26.136  1.00  0.00     0.014 A 
ATOM     35  C   UNL A   1      41.281  23.209  27.838  1.00  0.00     0.010 A 
ATOM     36  C   UNL A   1      39.691  24.430  26.481  1.00  0.00     0.010 A 
ATOM     37  C   UNL A   1      40.813  24.430  27.326  1.00  0.00    -0.014 A 
BRANCH  37  38
ATOM     38  C   UNL A   1      41.491  25.716  27.646  1.00  0.00     0.031 A 
ATOM     39  C   UNL A   1      40.761  26.778  28.424  1.00  0.00     0.074 A 
ATOM     40  C   UNL A   1      42.728  25.956  27.165  1.00  0.00     0.049 A 
ATOM     41  N   UNL A   1      41.136  27.998  28.711  1.00  0.00    -0.248 NA
ATOM     42  C   UNL A   1      39.419  26.431  28.915  1.00  0.00     0.031 C 
ATOM     43  C   UNL A   1      43.518  25.025  26.354  1.00  0.00     0.029 A 
ATOM     44  N   UNL A   1      43.535  27.062  27.273  1.00  0.00    -0.354 N 
ATOM     45  C   UNL A   1      40.070  28.572  29.393  1.00  0.00     0.074 A 
ATOM     46  C   UNL A   1      39.015  27.582  29.432  1.00  0.00     0.031 C 
ATOM     47  C   UNL A   1      44.698  25.591  26.056  1.00  0.00     0.029 A 
ATOM     48  C   UNL A   1      44.736  26.940  26.611  1.00  0.00     0.049 A 
ATOM     49  H   UNL A   1      43.280  27.868  27.779  1.00  0.00     0.167 HD
ATOM     50  C   UNL A   1      39.986  29.804  29.954  1.00  0.00     0.034 A 
ATOM     51  C   UNL A   1      45.746  27.819  26.455  1.00  0.00     0.034 A 
ATOM     52  C   UNL A   1      41.059  30.769  29.935  1.00  0.00     0.049 A 
ATOM     53  C   UNL A   1      45.631  29.181  27.095  1.00  0.00     0.074 A 
ATOM     54  C   UNL A   1      41.105  32.016  30.533  1.00  0.00     0.029 A 
ATOM     55  N   UNL A   1      42.271  30.599  29.279  1.00  0.00    -0.354 N 
ATOM     56  N   UNL A   1      44.637  29.685  27.790  1.00  0.00    -0.248 NA
ATOM     57  C   UNL A   1      46.777  30.086  26.941  1.00  0.00     0.031 C 
ATOM     58  C   UNL A   1      42.317  32.623  30.192  1.00  0.00     0.029 A 
ATOM     59  C   UNL A   1      43.060  31.728  29.439  1.00  0.00     0.049 A 
ATOM     60  H   UNL A   1      42.532  29.794  28.776  1.00  0.00     0.167 HD
ATOM     61  C   UNL A   1      45.055  30.953  28.182  1.00  0.00     0.074 A 
ATOM     62  C   UNL A   1      46.394  31.129  27.662  1.00  0.00     0.031 C 
ATOM     63  C   UNL A   1      44.394  31.888  28.911  1.00  0.00     0.034 A 
BRANCH  50  64
ATOM     64  C   UNL A   1      38.685  30.183  30.618  1.00  0.00     0.023 A 
ATOM     65  C   UNL A   1      37.672  30.867  29.923  1.00  0.00     0.031 A 
ATOM     66  C   UNL A   1      38.458  29.860  31.967  1.00  0.00     0.131 A 
ATOM     67  C   UNL A   1      36.507  31.263  30.597  1.00  0.00     0.055 A 
ATOM     68  C   UNL A   1      37.263  30.190  32.611  1.00  0.00     0.041 A 
ATOM     69  F   UNL A   1      39.397  29.224  32.685  1.00  0.00    -0.206 F 
ATOM     70  C   UNL A   1      36.284  30.906  31.929  1.00  0.00     0.022 A 
BRANCH  67  71
ATOM     71  S   UNL A   1      35.338  32.351  29.740  1.00  0.00     0.124 S 
ATOM     72  O   UNL A   1      34.389  32.663  30.808  1.00  0.00    -0.237 OA
ATOM     73  O   UNL A   1      36.190  33.450  29.302  1.00  0.00    -0.237 OA
ATOM     74  O   UNL A   1      34.807  31.509  28.670  1.00  0.00    -0.744 OA
ENDBRANCH  67  71
ENDBRANCH  50  64
BRANCH  51  75
ATOM     75  C   UNL A   1      46.951  27.462  25.650  1.00  0.00     0.023 A 
ATOM     76  C   UNL A   1      47.076  27.871  24.313  1.00  0.00     0.031 A 
ATOM     77  C   UNL A   1      47.968  26.652  26.188  1.00  0.00     0.131 A 
ATOM     78  C   UNL A   1      48.159  27.422  23.541  1.00  0.00     0.055 A 
ATOM     79  C   UNL A   1      49.072  26.255  25.432  1.00  0.00     0.041 A 
ATOM     80  F   UNL A   1      47.902  26.237  27.463  1.00  0.00    -0.206 F 
ATOM     81  C   UNL A   1      49.163  26.626  24.094  1.00  0.00     0.022 A 
BRANCH  78  82
ATOM     82  S   UNL A   1      48.179  27.809  21.768  1.00  0.00     0.124 S 
ATOM     83  O   UNL A   1      46.872  28.429  21.584  1.00  0.00    -0.237 OA
ATOM     84  O   UNL A   1      49.331  28.697  21.667  1.00  0.00    -0.237 OA
ATOM     85  O   UNL A   1      48.344  26.501  21.137  1.00  0.00    -0.744 OA
ENDBRANCH  78  82
ENDBRANCH  51  75
BRANCH  63  86
ATOM     86  C   UNL A   1      45.136  33.162  29.228  1.00  0.00     0.023 A 
ATOM     87  C   UNL A   1      45.117  34.267  28.361  1.00  0.00     0.031 A 
ATOM     88  C   UNL A   1      45.885  33.264  30.415  1.00  0.00     0.131 A 
ATOM     89  C   UNL A   1      45.875  35.408  28.665  1.00  0.00     0.055 A 
ATOM     90  C   UNL A   1      46.590  34.423  30.741  1.00  0.00     0.041 A 
ATOM     91  F   UNL A   1      45.939  32.237  31.278  1.00  0.00    -0.206 F 
ATOM     92  C   UNL A   1      46.597  35.499  29.858  1.00  0.00     0.022 A 
BRANCH  89  93
ATOM     93  S   UNL A   1      45.972  36.741  27.441  1.00  0.00     0.124 S 
ATOM     94  O   UNL A   1      44.564  37.032  27.195  1.00  0.00    -0.237 OA
ATOM     95  O   UNL A   1      46.721  37.769  28.156  1.00  0.00    -0.237 OA
ATOM     96  O   UNL A   1      46.683  36.127  26.320  1.00  0.00    -0.744 OA
ENDBRANCH  89  93
ENDBRANCH  63  86
ENDBRANCH  37  38
ENDBRANCH  29  32
ENDBRANCH  27  28
ENDBRANCH  26  27
ENDBRANCH   1  26
TORSDOF 18
ENDMDL
MODEL 2
REMARK VINA RESULT:     -11.6      5.594     11.063
REMARK SMILES CC[C@](C)([NH3+])C(=O)N1CC[NH+]([C@H](C)C(=O)NCCCCNC(=O)c2ccc(-c3c4nc(c(-c5cc(S(=O)(=O)[O-])ccc5F)c5ccc([nH]5)c(-c5cc(S(=O)(=O)[O-])ccc5F)c5nc(c(-c6cc(S(=O)(=O)[O-])ccc6F)c6ccc3[nH]6)C=C5)C=C4)cc2)CC1
REMARK SMILES IDX 18 1 17 2 16 3 14 4 15 5 12 7 13 8 11 9 6 10 7 11 8 12 9 13
REMARK SMILES IDX 88 14 10 15 87 16 3 18 4 19 2 20 1 21 5 22 19 26 20 27 21 28
REMARK SMILES IDX 22 29 23 31 24 32 25 33 86 34 26 35 85 36 27 37 28 38 29 39
REMARK SMILES IDX 79 40 30 41 84 42 78 43 80 44 31 45 83 46 77 47 76 48 32 50
REMARK SMILES IDX 64 51 44 52 63 53 45 54 48 55 62 56 81 57 46 58 47 59 61 61
REMARK SMILES IDX 82 62 49 63 33 64 34 65 42 66 35 67 41 68 43 69 40 70 36 71
REMARK SMILES IDX 37 72 38 73 39 74 65 75 66 76 74 77 67 78 73 79 75 80 72 81
REMARK SMILES IDX 68 82 69 83 70 84 71 85 50 86 51 87 59 88 52 89 58 90 60 91
REMARK SMILES IDX 57 92 53 93 54 94 55 95 56 96
REMARK H PARENT 16 6 11 17 5 23 5 24 5 25 21 30 80 49 48 60
REMARK Flexibility Score: inf
ROOT
ATOM      1  C   UNL A   1      31.766  30.529  26.885  1.00  0.00     0.023 C 
ENDROOT
BRANCH   1   2
ATOM      2  C   UNL A   1      32.467  30.071  25.615  1.00  0.00     0.116 C 
BRANCH   2   3
ATOM      3  N   UNL A   1      31.565  29.636  24.567  1.00  0.00    -0.351 N 
ATOM      4  C   UNL A   1      31.035  28.401  24.313  1.00  0.00     0.278 C 
ATOM      5  O   UNL A   1      30.117  28.347  23.486  1.00  0.00    -0.268 OA
ATOM      6  H   UNL A   1      31.290  30.341  23.939  1.00  0.00     0.163 HD
BRANCH   4   7
ATOM      7  C   UNL A   1      31.556  27.111  24.997  1.00  0.00     0.271 C 
ATOM      8  C   UNL A   1      30.735  26.712  26.230  1.00  0.00     0.086 C 
BRANCH   7   9
ATOM      9  N   UNL A   1      31.949  26.034  24.039  1.00  0.00    -0.322 N 
ATOM     10  C   UNL A   1      34.075  22.505  23.838  1.00  0.00     0.283 C 
ATOM     11  O   UNL A   1      33.487  21.417  23.924  1.00  0.00    -0.268 OA
ATOM     12  N   UNL A   1      33.386  23.603  23.350  1.00  0.00    -0.326 N 
ATOM     13  C   UNL A   1      31.927  23.583  23.394  1.00  0.00     0.181 C 
ATOM     14  C   UNL A   1      33.884  24.883  22.857  1.00  0.00     0.181 C 
ATOM     15  C   UNL A   1      31.457  24.683  24.369  1.00  0.00     0.284 C 
ATOM     16  C   UNL A   1      33.400  26.044  23.750  1.00  0.00     0.284 C 
ATOM     17  H   UNL A   1      31.455  26.275  23.180  1.00  0.00     0.348 HD
BRANCH  10  18
ATOM     18  C   UNL A   1      35.499  22.636  24.491  1.00  0.00     0.171 C 
ATOM     19  C   UNL A   1      36.550  22.757  23.365  1.00  0.00     0.090 C 
BRANCH  18  20
ATOM     20  C   UNL A   1      35.806  21.395  25.371  1.00  0.00     0.075 C 
ATOM     21  C   UNL A   1      36.962  20.521  24.889  1.00  0.00     0.011 C 
ENDBRANCH  18  20
BRANCH  18  22
ATOM     22  N   UNL A   1      35.644  23.863  25.315  1.00  0.00    -0.345 N 
ATOM     23  H   UNL A   1      34.728  24.294  25.446  1.00  0.00     0.345 HD
ATOM     24  H   UNL A   1      36.264  24.519  24.842  1.00  0.00     0.345 HD
ATOM     25  H   UNL A   1      36.037  23.617  26.224  1.00  0.00     0.345 HD
ENDBRANCH  18  22
ENDBRANCH  10  18
ENDBRANCH   7   9
ENDBRANCH   4   7
ENDBRANCH   2   3
ENDBRANCH   1   2
BRANCH   1  26
ATOM     26  C   UNL A   1      31.465  32.025  26.959  1.00  0.00     0.023 C 
BRANCH  26  27
ATOM     27  C   UNL A   1      32.681  32.948  26.959  1.00  0.00     0.116 C 
BRANCH  27  28
ATOM     28  N   UNL A   1      32.492  34.156  27.749  1.00  0.00    -0.352 N 
ATOM     29  C   UNL A   1      33.194  34.609  28.844  1.00  0.00     0.251 C 
ATOM     30  H   UNL A   1      31.752  34.736  27.457  1.00  0.00     0.163 HD
ATOM     31  O   UNL A   1      32.807  35.601  29.448  1.00  0.00    -0.269 OA
BRANCH  29  32
ATOM     32  C   UNL A   1      34.383  33.861  29.311  1.00  0.00     0.039 A 
ATOM     33  C   UNL A   1      35.652  34.357  29.008  1.00  0.00     0.014 A 
ATOM     34  C   UNL A   1      34.245  32.707  30.085  1.00  0.00     0.014 A 
ATOM     35  C   UNL A   1      36.781  33.751  29.563  1.00  0.00     0.010 A 
ATOM     36  C   UNL A   1      35.362  32.154  30.704  1.00  0.00     0.010 A 
ATOM     37  C   UNL A   1      36.642  32.678  30.460  1.00  0.00    -0.014 A 
BRANCH  37  38
ATOM     38  C   UNL A   1      37.818  32.101  31.166  1.00  0.00     0.031 A 
ATOM     39  C   UNL A   1      38.602  30.983  30.533  1.00  0.00     0.074 A 
ATOM     40  C   UNL A   1      38.126  32.526  32.409  1.00  0.00     0.049 A 
ATOM     41  N   UNL A   1      39.587  30.279  31.029  1.00  0.00    -0.248 NA
ATOM     42  C   UNL A   1      38.203  30.584  29.175  1.00  0.00     0.031 C 
ATOM     43  C   UNL A   1      37.408  33.568  33.150  1.00  0.00     0.029 A 
ATOM     44  N   UNL A   1      39.111  32.127  33.277  1.00  0.00    -0.354 N 
ATOM     45  C   UNL A   1      39.909  29.340  30.056  1.00  0.00     0.074 A 
ATOM     46  C   UNL A   1      38.980  29.532  28.963  1.00  0.00     0.031 C 
ATOM     47  C   UNL A   1      37.988  33.736  34.349  1.00  0.00     0.029 A 
ATOM     48  C   UNL A   1      39.088  32.787  34.486  1.00  0.00     0.049 A 
ATOM     49  H   UNL A   1      39.775  31.433  33.057  1.00  0.00     0.167 HD
ATOM     50  C   UNL A   1      40.901  28.415  30.066  1.00  0.00     0.034 A 
ATOM     51  C   UNL A   1      39.854  32.634  35.585  1.00  0.00     0.034 A 
ATOM     52  C   UNL A   1      41.839  28.256  31.150  1.00  0.00     0.049 A 
ATOM     53  C   UNL A   1      40.955  31.602  35.566  1.00  0.00     0.074 A 
ATOM     54  C   UNL A   1      42.924  27.400  31.229  1.00  0.00     0.029 A 
ATOM     55  N   UNL A   1      41.802  28.962  32.345  1.00  0.00    -0.354 N 
ATOM     56  N   UNL A   1      41.284  30.763  34.612  1.00  0.00    -0.248 NA
ATOM     57  C   UNL A   1      41.797  31.507  36.767  1.00  0.00     0.031 C 
ATOM     58  C   UNL A   1      43.507  27.546  32.492  1.00  0.00     0.029 A 
ATOM     59  C   UNL A   1      42.830  28.543  33.177  1.00  0.00     0.049 A 
ATOM     60  H   UNL A   1      41.143  29.657  32.568  1.00  0.00     0.167 HD
ATOM     61  C   UNL A   1      42.390  30.064  35.086  1.00  0.00     0.074 A 
ATOM     62  C   UNL A   1      42.681  30.592  36.403  1.00  0.00     0.031 C 
ATOM     63  C   UNL A   1      43.105  29.078  34.488  1.00  0.00     0.034 A 
BRANCH  50  64
ATOM     64  C   UNL A   1      41.008  27.494  28.876  1.00  0.00     0.023 A 
ATOM     65  C   UNL A   1      42.010  27.656  27.903  1.00  0.00     0.031 A 
ATOM     66  C   UNL A   1      40.091  26.440  28.709  1.00  0.00     0.131 A 
ATOM     67  C   UNL A   1      42.031  26.822  26.775  1.00  0.00     0.055 A 
ATOM     68  C   UNL A   1      40.165  25.566  27.622  1.00  0.00     0.041 A 
ATOM     69  F   UNL A   1      39.102  26.249  29.596  1.00  0.00    -0.206 F 
ATOM     70  C   UNL A   1      41.132  25.761  26.640  1.00  0.00     0.022 A 
BRANCH  67  71
ATOM     71  S   UNL A   1      43.179  27.216  25.428  1.00  0.00     0.124 S 
ATOM     72  O   UNL A   1      43.470  25.887  24.891  1.00  0.00    -0.237 OA
ATOM     73  O   UNL A   1      42.381  28.088  24.576  1.00  0.00    -0.237 OA
ATOM     74  O   UNL A   1      44.298  27.862  26.110  1.00  0.00    -0.744 OA
ENDBRANCH  67  71
ENDBRANCH  50  64
BRANCH  51  75
ATOM     75  C   UNL A   1      39.609  33.456  36.806  1.00  0.00     0.023 A 
ATOM     76  C   UNL A   1      38.960  32.914  37.926  1.00  0.00     0.031 A 
ATOM     77  C   UNL A   1      39.965  34.817  36.847  1.00  0.00     0.131 A 
ATOM     78  C   UNL A   1      38.633  33.738  39.014  1.00  0.00     0.055 A 
ATOM     79  C   UNL A   1      39.688  35.619  37.956  1.00  0.00     0.041 A 
ATOM     80  F   UNL A   1      40.594  35.386  35.806  1.00  0.00    -0.206 F 
ATOM     81  C   UNL A   1      39.002  35.084  39.041  1.00  0.00     0.022 A 
BRANCH  78  82
ATOM     82  S   UNL A   1      37.621  33.046  40.352  1.00  0.00     0.124 S 
ATOM     83  O   UNL A   1      38.473  31.971  40.844  1.00  0.00    -0.237 OA
ATOM     84  O   UNL A   1      37.462  34.196  41.235  1.00  0.00    -0.237 OA
ATOM     85  O   UNL A   1      36.403  32.615  39.667  1.00  0.00    -0.744 OA
ENDBRANCH  78  82
ENDBRANCH  51  75
BRANCH  63  86
ATOM     86  C   UNL A   1      44.302  28.547  35.237  1.00  0.00     0.023 A 
ATOM     87  C   UNL A   1      44.180  27.542  36.211  1.00  0.00     0.031 A 
ATOM     88  C   UNL A   1      45.583  29.066  34.976  1.00  0.00     0.131 A 
ATOM     89  C   UNL A   1      45.311  27.124  36.928  1.00  0.00     0.055 A 
ATOM     90  C   UNL A   1      46.713  28.605  35.652  1.00  0.00     0.041 A 
ATOM     91  F   UNL A   1      45.755  30.029  34.057  1.00  0.00    -0.206 F 
ATOM     92  C   UNL A   1      46.579  27.637  36.643  1.00  0.00     0.022 A 
BRANCH  89  93
ATOM     93  S   UNL A   1      45.092  25.959  38.300  1.00  0.00     0.124 S 
ATOM     94  O   UNL A   1      46.282  26.210  39.106  1.00  0.00    -0.237 OA
ATOM     95  O   UNL A   1      43.825  26.392  38.880  1.00  0.00    -0.237 OA
ATOM     96  O   UNL A   1      45.054  24.655  37.640  1.00  0.00    -0.744 OA
ENDBRANCH  89  93
ENDBRANCH  63  86
ENDBRANCH  37  38
ENDBRANCH  29  32
ENDBRANCH  27  28
ENDBRANCH  26  27
ENDBRANCH   1  26
TORSDOF 18
ENDMDL
MODEL 3
REMARK VINA RESULT:     -11.5      5.647     10.946
REMARK SMILES CC[C@](C)([NH3+])C(=O)N1CC[NH+]([C@H](C)C(=O)NCCCCNC(=O)c2ccc(-c3c4nc(c(-c5cc(S(=O)(=O)[O-])ccc5F)c5ccc([nH]5)c(-c5cc(S(=O)(=O)[O-])ccc5F)c5nc(c(-c6cc(S(=O)(=O)[O-])ccc6F)c6ccc3[nH]6)C=C5)C=C4)cc2)CC1
REMARK SMILES IDX 18 1 17 2 16 3 14 4 15 5 12 7 13 8 11 9 6 10 7 11 8 12 9 13
REMARK SMILES IDX 88 14 10 15 87 16 3 18 4 19 2 20 1 21 5 22 19 26 20 27 21 28
REMARK SMILES IDX 22 29 23 31 24 32 25 33 86 34 26 35 85 36 27 37 28 38 29 39
REMARK SMILES IDX 79 40 30 41 84 42 78 43 80 44 31 45 83 46 77 47 76 48 32 50
REMARK SMILES IDX 64 51 44 52 63 53 45 54 48 55 62 56 81 57 46 58 47 59 61 61
REMARK SMILES IDX 82 62 49 63 33 64 34 65 42 66 35 67 41 68 43 69 40 70 36 71
REMARK SMILES IDX 37 72 38 73 39 74 65 75 66 76 74 77 67 78 73 79 75 80 72 81
REMARK SMILES IDX 68 82 69 83 70 84 71 85 50 86 51 87 59 88 52 89 58 90 60 91
REMARK SMILES IDX 57 92 53 93 54 94 55 95 56 96
REMARK H PARENT 16 6 11 17 5 23 5 24 5 25 21 30 80 49 48 60
REMARK Flexibility Score: inf
ROOT
ATOM      1  C   UNL A   1      31.633  30.562  26.822  1.00  0.00     0.023 C 
ENDROOT
BRANCH   1   2
ATOM      2  C   UNL A   1      32.569  30.112  25.709  1.00  0.00     0.116 C 
BRANCH   2   3
ATOM      3  N   UNL A   1      31.888  29.669  24.509  1.00  0.00    -0.351 N 
ATOM      4  C   UNL A   1      31.464  28.421  24.142  1.00  0.00     0.278 C 
ATOM      5  O   UNL A   1      30.712  28.353  23.163  1.00  0.00    -0.268 OA
ATOM      6  H   UNL A   1      31.701  30.378  23.854  1.00  0.00     0.163 HD
BRANCH   4   7
ATOM      7  C   UNL A   1      31.907  27.135  24.887  1.00  0.00     0.271 C 
ATOM      8  C   UNL A   1      31.063  26.843  26.135  1.00  0.00     0.086 C 
BRANCH   7   9
ATOM      9  N   UNL A   1      32.235  25.994  23.981  1.00  0.00    -0.322 N 
ATOM     10  C   UNL A   1      34.032  22.281  23.981  1.00  0.00     0.283 C 
ATOM     11  O   UNL A   1      33.342  21.255  24.076  1.00  0.00    -0.268 OA
ATOM     12  N   UNL A   1      33.467  23.419  23.430  1.00  0.00    -0.326 N 
ATOM     13  C   UNL A   1      32.012  23.535  23.413  1.00  0.00     0.181 C 
ATOM     14  C   UNL A   1      34.101  24.631  22.919  1.00  0.00     0.181 C 
ATOM     15  C   UNL A   1      31.608  24.706  24.332  1.00  0.00     0.284 C 
ATOM     16  C   UNL A   1      33.692  25.861  23.754  1.00  0.00     0.284 C 
ATOM     17  H   UNL A   1      31.801  26.249  23.094  1.00  0.00     0.348 HD
BRANCH  10  18
ATOM     18  C   UNL A   1      35.434  22.304  24.689  1.00  0.00     0.171 C 
ATOM     19  C   UNL A   1      35.835  20.853  25.040  1.00  0.00     0.090 C 
BRANCH  18  20
ATOM     20  C   UNL A   1      35.375  23.164  25.980  1.00  0.00     0.075 C 
ATOM     21  C   UNL A   1      34.195  22.875  26.905  1.00  0.00     0.011 C 
ENDBRANCH  18  20
BRANCH  18  22
ATOM     22  N   UNL A   1      36.515  22.823  23.811  1.00  0.00    -0.345 N 
ATOM     23  H   UNL A   1      37.066  22.042  23.454  1.00  0.00     0.345 HD
ATOM     24  H   UNL A   1      37.117  23.448  24.346  1.00  0.00     0.345 HD
ATOM     25  H   UNL A   1      36.102  23.333  23.031  1.00  0.00     0.345 HD
ENDBRANCH  18  22
ENDBRANCH  10  18
ENDBRANCH   7   9
ENDBRANCH   4   7
ENDBRANCH   2   3
ENDBRANCH   1   2
BRANCH   1  26
ATOM     26  C   UNL A   1      31.390  32.068  26.898  1.00  0.00     0.023 C 
BRANCH  26  27
ATOM     27  C   UNL A   1      32.640  32.944  26.911  1.00  0.00     0.116 C 
BRANCH  27  28
ATOM     28  N   UNL A   1      32.476  34.178  27.665  1.00  0.00    -0.352 N 
ATOM     29  C   UNL A   1      33.180  34.643  28.753  1.00  0.00     0.251 C 
ATOM     30  H   UNL A   1      31.754  34.768  27.350  1.00  0.00     0.163 HD
ATOM     31  O   UNL A   1      32.815  35.661  29.326  1.00  0.00    -0.269 OA
BRANCH  29  32
ATOM     32  C   UNL A   1      34.345  33.877  29.252  1.00  0.00     0.039 A 
ATOM     33  C   UNL A   1      35.629  34.312  28.917  1.00  0.00     0.014 A 
ATOM     34  C   UNL A   1      34.171  32.769  30.084  1.00  0.00     0.014 A 
ATOM     35  C   UNL A   1      36.739  33.694  29.497  1.00  0.00     0.010 A 
ATOM     36  C   UNL A   1      35.273  32.210  30.725  1.00  0.00     0.010 A 
ATOM     37  C   UNL A   1      36.569  32.674  30.448  1.00  0.00    -0.014 A 
BRANCH  37  38
ATOM     38  C   UNL A   1      37.729  32.092  31.177  1.00  0.00     0.031 A 
ATOM     39  C   UNL A   1      38.529  30.981  30.552  1.00  0.00     0.074 A 
ATOM     40  C   UNL A   1      38.005  32.506  32.430  1.00  0.00     0.049 A 
ATOM     41  N   UNL A   1      39.503  30.274  31.065  1.00  0.00    -0.248 NA
ATOM     42  C   UNL A   1      38.163  30.595  29.181  1.00  0.00     0.031 C 
ATOM     43  C   UNL A   1      37.269  33.540  33.164  1.00  0.00     0.029 A 
ATOM     44  N   UNL A   1      38.970  32.100  33.319  1.00  0.00    -0.354 N 
ATOM     45  C   UNL A   1      39.849  29.344  30.091  1.00  0.00     0.074 A 
ATOM     46  C   UNL A   1      38.947  29.546  28.978  1.00  0.00     0.031 C 
ATOM     47  C   UNL A   1      37.819  33.696  34.378  1.00  0.00     0.029 A 
ATOM     48  C   UNL A   1      38.917  32.748  34.532  1.00  0.00     0.049 A 
ATOM     49  H   UNL A   1      39.640  31.409  33.107  1.00  0.00     0.167 HD
ATOM     50  C   UNL A   1      40.842  28.421  30.116  1.00  0.00     0.034 A 
ATOM     51  C   UNL A   1      39.657  32.586  35.648  1.00  0.00     0.034 A 
ATOM     52  C   UNL A   1      41.755  28.252  31.221  1.00  0.00     0.049 A 
ATOM     53  C   UNL A   1      40.759  31.556  35.646  1.00  0.00     0.074 A 
ATOM     54  C   UNL A   1      42.839  27.398  31.318  1.00  0.00     0.029 A 
ATOM     55  N   UNL A   1      41.688  28.947  32.421  1.00  0.00    -0.354 N 
ATOM     56  N   UNL A   1      41.113  30.726  34.692  1.00  0.00    -0.248 NA
ATOM     57  C   UNL A   1      41.572  31.450  36.866  1.00  0.00     0.031 C 
ATOM     58  C   UNL A   1      43.391  27.532  32.596  1.00  0.00     0.029 A 
ATOM     59  C   UNL A   1      42.696  28.522  33.273  1.00  0.00     0.049 A 
ATOM     60  H   UNL A   1      41.022  29.639  32.635  1.00  0.00     0.167 HD
ATOM     61  C   UNL A   1      42.208  30.024  35.186  1.00  0.00     0.074 A 
ATOM     62  C   UNL A   1      42.467  30.540  36.514  1.00  0.00     0.031 C 
ATOM     63  C   UNL A   1      42.939  29.045  34.596  1.00  0.00     0.034 A 
BRANCH  50  64
ATOM     64  C   UNL A   1      40.980  27.511  28.920  1.00  0.00     0.023 A 
ATOM     65  C   UNL A   1      41.953  27.733  27.930  1.00  0.00     0.031 A 
ATOM     66  C   UNL A   1      40.121  26.409  28.764  1.00  0.00     0.131 A 
ATOM     67  C   UNL A   1      42.001  26.905  26.798  1.00  0.00     0.055 A 
ATOM     68  C   UNL A   1      40.224  25.544  27.673  1.00  0.00     0.041 A 
ATOM     69  F   UNL A   1      39.160  26.159  29.668  1.00  0.00    -0.206 F 
ATOM     70  C   UNL A   1      41.161  25.796  26.675  1.00  0.00     0.022 A 
BRANCH  67  71
ATOM     71  S   UNL A   1      43.101  27.367  25.433  1.00  0.00     0.124 S 
ATOM     72  O   UNL A   1      44.221  27.974  26.151  1.00  0.00    -0.237 OA
ATOM     73  O   UNL A   1      43.372  26.084  24.796  1.00  0.00    -0.237 OA
ATOM     74  O   UNL A   1      42.297  28.298  24.645  1.00  0.00    -0.744 OA
ENDBRANCH  67  71
ENDBRANCH  50  64
BRANCH  51  75
ATOM     75  C   UNL A   1      39.381  33.396  36.870  1.00  0.00     0.023 A 
ATOM     76  C   UNL A   1      40.060  34.602  37.108  1.00  0.00     0.031 A 
ATOM     77  C   UNL A   1      38.480  32.945  37.852  1.00  0.00     0.131 A 
ATOM     78  C   UNL A   1      39.874  35.285  38.320  1.00  0.00     0.055 A 
ATOM     79  C   UNL A   1      38.256  33.657  39.031  1.00  0.00     0.041 A 
ATOM     80  F   UNL A   1      37.800  31.801  37.674  1.00  0.00    -0.206 F 
ATOM     81  C   UNL A   1      38.969  34.826  39.278  1.00  0.00     0.022 A 
BRANCH  78  82
ATOM     82  S   UNL A   1      40.915  36.728  38.671  1.00  0.00     0.124 S 
ATOM     83  O   UNL A   1      39.918  37.771  38.879  1.00  0.00    -0.237 OA
ATOM     84  O   UNL A   1      41.646  36.292  39.855  1.00  0.00    -0.237 OA
ATOM     85  O   UNL A   1      41.721  36.868  37.459  1.00  0.00    -0.744 OA
ENDBRANCH  78  82
ENDBRANCH  51  75
BRANCH  63  86
ATOM     86  C   UNL A   1      44.118  28.509  35.368  1.00  0.00     0.023 A 
ATOM     87  C   UNL A   1      43.973  27.503  36.339  1.00  0.00     0.031 A 
ATOM     88  C   UNL A   1      45.406  29.022  35.133  1.00  0.00     0.131 A 
ATOM     89  C   UNL A   1      45.087  27.080  37.079  1.00  0.00     0.055 A 
ATOM     90  C   UNL A   1      46.521  28.556  35.831  1.00  0.00     0.041 A 
ATOM     91  F   UNL A   1      45.601  29.985  34.218  1.00  0.00    -0.206 F 
ATOM     92  C   UNL A   1      46.363  27.588  36.819  1.00  0.00     0.022 A 
BRANCH  89  93
ATOM     93  S   UNL A   1      44.835  25.916  38.445  1.00  0.00     0.124 S 
ATOM     94  O   UNL A   1      44.837  24.631  37.754  1.00  0.00    -0.237 OA
ATOM     95  O   UNL A   1      45.987  26.182  39.300  1.00  0.00    -0.237 OA
ATOM     96  O   UNL A   1      43.545  26.317  39.005  1.00  0.00    -0.744 OA
ENDBRANCH  89  93
ENDBRANCH  63  86
ENDBRANCH  37  38
ENDBRANCH  29  32
ENDBRANCH  27  28
ENDBRANCH  26  27
ENDBRANCH   1  26
TORSDOF 18
ENDMDL
