MODEL 1
REMARK VINA RESULT:     -12.6      0.000      0.000
REMARK SMILES Cc1ccc(Nc2c(F)cccc2Cl)c(CC(=O)NCCCCNC(=O)c2ccc(-c3c4nc(c(-c5cc(S(=O)(=O)[O-])ccc5F)c5ccc([nH]5)c(-c5cc(S(=O)(=O)[O-])ccc5F)c5nc(c(-c6cc(S(=O)(=O)[O-])ccc6F)c6ccc3[nH]6)C=C5)C=C4)cc2)c1
REMARK SMILES IDX 21 1 20 2 19 3 17 4 18 5 16 7 15 8 1 9 2 10 3 11 90 12 4 13
REMARK SMILES IDX 5 14 6 15 7 17 8 18 13 19 9 20 10 21 12 22 14 23 11 24 22 25
REMARK SMILES IDX 23 26 24 27 25 28 26 30 27 31 28 32 89 33 29 34 88 35 30 36
REMARK SMILES IDX 31 37 32 38 82 39 33 40 87 41 81 42 83 43 34 44 86 45 80 46
REMARK SMILES IDX 79 47 35 49 67 50 47 51 66 52 48 53 51 54 65 55 84 56 49 57
REMARK SMILES IDX 50 58 64 60 85 61 52 62 36 63 37 64 45 65 38 66 44 67 46 68
REMARK SMILES IDX 43 69 39 70 40 71 41 72 42 73 68 74 69 75 77 76 70 77 76 78
REMARK SMILES IDX 78 79 75 80 71 81 72 82 73 83 74 84 53 85 54 86 62 87 55 88
REMARK SMILES IDX 61 89 63 90 60 91 56 92 57 93 58 94 59 95
REMARK H PARENT 19 6 6 16 24 29 83 48 51 59
REMARK Flexibility Score: inf
ROOT
ATOM      1  C   UNL A   1      36.949  21.493  25.070  1.00  0.00     0.023 C 
ENDROOT
BRANCH   1   2
ATOM      2  C   UNL A   1      36.171  22.813  25.202  1.00  0.00     0.116 C 
BRANCH   2   3
ATOM      3  N   UNL A   1      35.514  23.208  23.958  1.00  0.00    -0.356 N 
ATOM      4  C   UNL A   1      34.676  24.253  23.717  1.00  0.00     0.224 C 
ATOM      5  O   UNL A   1      34.121  24.330  22.614  1.00  0.00    -0.275 OA
ATOM      6  H   UNL A   1      35.706  22.635  23.182  1.00  0.00     0.163 HD
BRANCH   4   7
ATOM      7  C   UNL A   1      34.391  25.297  24.780  1.00  0.00     0.137 C 
BRANCH   7   8
ATOM      8  C   UNL A   1      32.962  25.282  25.274  1.00  0.00    -0.015 A 
ATOM      9  C   UNL A   1      30.509  22.513  26.219  1.00  0.00     0.044 C 
ATOM     10  C   UNL A   1      31.087  23.877  25.984  1.00  0.00    -0.051 A 
ATOM     11  C   UNL A   1      30.268  25.002  25.984  1.00  0.00     0.005 A 
ATOM     12  C   UNL A   1      32.437  24.033  25.669  1.00  0.00     0.009 A 
ATOM     13  C   UNL A   1      30.789  26.257  25.648  1.00  0.00     0.026 A 
ATOM     14  C   UNL A   1      32.129  26.426  25.262  1.00  0.00     0.042 A 
BRANCH  14  15
ATOM     15  N   UNL A   1      32.624  27.692  24.871  1.00  0.00    -0.352 N 
ATOM     16  H   UNL A   1      32.970  27.741  23.951  1.00  0.00     0.167 HD
BRANCH  15  17
ATOM     17  C   UNL A   1      32.697  28.899  25.607  1.00  0.00     0.094 A 
ATOM     18  C   UNL A   1      33.657  29.111  26.607  1.00  0.00     0.148 A 
ATOM     19  C   UNL A   1      31.729  29.906  25.427  1.00  0.00     0.067 A 
ATOM     20  F   UNL A   1      34.627  28.209  26.822  1.00  0.00    -0.205 F 
ATOM     21  C   UNL A   1      33.659  30.259  27.401  1.00  0.00     0.041 A 
ATOM     22  C   UNL A   1      31.723  31.062  26.222  1.00  0.00     0.023 A 
ATOM     23  Cl  UNL A   1      30.475  29.747  24.246  1.00  0.00    -0.082 Cl
ATOM     24  C   UNL A   1      32.686  31.236  27.214  1.00  0.00     0.005 A 
ENDBRANCH  15  17
ENDBRANCH  14  15
ENDBRANCH   7   8
ENDBRANCH   4   7
ENDBRANCH   2   3
ENDBRANCH   1   2
BRANCH   1  25
ATOM     25  C   UNL A   1      38.362  21.496  25.654  1.00  0.00     0.023 C 
BRANCH  25  26
ATOM     26  C   UNL A   1      38.852  22.877  26.061  1.00  0.00     0.116 C 
BRANCH  26  27
ATOM     27  N   UNL A   1      40.265  22.946  26.411  1.00  0.00    -0.352 N 
ATOM     28  C   UNL A   1      40.994  24.063  26.794  1.00  0.00     0.251 C 
ATOM     29  H   UNL A   1      40.763  22.099  26.370  1.00  0.00     0.163 HD
ATOM     30  O   UNL A   1      42.199  24.021  26.975  1.00  0.00    -0.269 OA
BRANCH  28  31
ATOM     31  C   UNL A   1      40.241  25.300  27.120  1.00  0.00     0.039 A 
ATOM     32  C   UNL A   1      40.577  26.449  26.395  1.00  0.00     0.014 A 
ATOM     33  C   UNL A   1      39.467  25.388  28.274  1.00  0.00     0.014 A 
ATOM     34  C   UNL A   1      40.354  27.699  26.964  1.00  0.00     0.010 A 
ATOM     35  C   UNL A   1      39.325  26.625  28.880  1.00  0.00     0.010 A 
ATOM     36  C   UNL A   1      39.842  27.768  28.259  1.00  0.00    -0.014 A 
BRANCH  36  37
ATOM     37  C   UNL A   1      39.971  28.961  29.092  1.00  0.00     0.031 A 
ATOM     38  C   UNL A   1      38.976  30.048  29.022  1.00  0.00     0.074 A 
ATOM     39  C   UNL A   1      41.007  29.073  29.955  1.00  0.00     0.049 A 
ATOM     40  N   UNL A   1      39.182  31.237  29.477  1.00  0.00    -0.248 NA
ATOM     41  C   UNL A   1      37.692  29.913  28.339  1.00  0.00     0.031 C 
ATOM     42  C   UNL A   1      41.174  30.049  31.029  1.00  0.00     0.029 A 
ATOM     43  N   UNL A   1      42.272  28.504  29.805  1.00  0.00    -0.354 N 
ATOM     44  C   UNL A   1      37.986  31.906  29.448  1.00  0.00     0.074 A 
ATOM     45  C   UNL A   1      37.146  31.108  28.593  1.00  0.00     0.031 C 
ATOM     46  C   UNL A   1      42.485  30.231  31.246  1.00  0.00     0.029 A 
ATOM     47  C   UNL A   1      43.201  29.476  30.236  1.00  0.00     0.049 A 
ATOM     48  H   UNL A   1      42.477  27.603  29.466  1.00  0.00     0.167 HD
ATOM     49  C   UNL A   1      37.816  32.976  30.273  1.00  0.00     0.034 A 
ATOM     50  C   UNL A   1      44.142  29.971  29.380  1.00  0.00     0.034 A 
ATOM     51  C   UNL A   1      39.105  33.500  30.749  1.00  0.00     0.049 A 
ATOM     52  C   UNL A   1      44.046  31.469  29.147  1.00  0.00     0.074 A 
ATOM     53  C   UNL A   1      39.750  33.606  31.969  1.00  0.00     0.029 A 
ATOM     54  N   UNL A   1      40.051  33.860  29.796  1.00  0.00    -0.354 N 
ATOM     55  N   UNL A   1      43.162  32.253  29.706  1.00  0.00    -0.248 NA
ATOM     56  C   UNL A   1      44.887  32.185  28.188  1.00  0.00     0.031 C 
ATOM     57  C   UNL A   1      41.107  33.993  31.723  1.00  0.00     0.029 A 
ATOM     58  C   UNL A   1      41.275  34.158  30.360  1.00  0.00     0.049 A 
ATOM     59  H   UNL A   1      39.868  33.900  28.830  1.00  0.00     0.167 HD
ATOM     60  C   UNL A   1      43.246  33.508  29.155  1.00  0.00     0.074 A 
ATOM     61  C   UNL A   1      44.346  33.413  28.211  1.00  0.00     0.031 C 
ATOM     62  C   UNL A   1      42.375  34.515  29.471  1.00  0.00     0.034 A 
BRANCH  49  63
ATOM     63  C   UNL A   1      36.468  33.470  30.774  1.00  0.00     0.023 A 
ATOM     64  C   UNL A   1      35.579  34.084  29.863  1.00  0.00     0.031 A 
ATOM     65  C   UNL A   1      36.048  33.506  32.126  1.00  0.00     0.131 A 
ATOM     66  C   UNL A   1      34.377  34.683  30.297  1.00  0.00     0.055 A 
ATOM     67  C   UNL A   1      34.823  34.042  32.545  1.00  0.00     0.041 A 
ATOM     68  F   UNL A   1      36.818  33.097  33.139  1.00  0.00    -0.206 F 
ATOM     69  C   UNL A   1      33.983  34.643  31.631  1.00  0.00     0.022 A 
BRANCH  66  70
ATOM     70  S   UNL A   1      33.364  35.614  29.114  1.00  0.00     0.124 S 
ATOM     71  O   UNL A   1      32.599  34.554  28.466  1.00  0.00    -0.237 OA
ATOM     72  O   UNL A   1      32.619  36.515  29.985  1.00  0.00    -0.237 OA
ATOM     73  O   UNL A   1      34.355  36.265  28.257  1.00  0.00    -0.744 OA
ENDBRANCH  66  70
ENDBRANCH  49  63
BRANCH  50  74
ATOM     74  C   UNL A   1      44.619  28.943  28.406  1.00  0.00     0.023 A 
ATOM     75  C   UNL A   1      45.459  27.931  28.922  1.00  0.00     0.031 A 
ATOM     76  C   UNL A   1      43.982  28.700  27.183  1.00  0.00     0.131 A 
ATOM     77  C   UNL A   1      45.473  26.657  28.341  1.00  0.00     0.055 A 
ATOM     78  C   UNL A   1      44.088  27.457  26.545  1.00  0.00     0.041 A 
ATOM     79  F   UNL A   1      43.144  29.602  26.653  1.00  0.00    -0.206 F 
ATOM     80  C   UNL A   1      44.789  26.412  27.150  1.00  0.00     0.022 A 
BRANCH  77  81
ATOM     81  S   UNL A   1      46.105  25.265  29.332  1.00  0.00     0.124 S 
ATOM     82  O   UNL A   1      46.675  24.394  28.312  1.00  0.00    -0.237 OA
ATOM     83  O   UNL A   1      47.064  25.911  30.227  1.00  0.00    -0.237 OA
ATOM     84  O   UNL A   1      44.912  24.758  30.005  1.00  0.00    -0.744 OA
ENDBRANCH  77  81
ENDBRANCH  50  74
BRANCH  62  85
ATOM     85  C   UNL A   1      42.463  35.914  28.894  1.00  0.00     0.023 A 
ATOM     86  C   UNL A   1      43.153  36.955  29.538  1.00  0.00     0.031 A 
ATOM     87  C   UNL A   1      41.796  36.267  27.698  1.00  0.00     0.131 A 
ATOM     88  C   UNL A   1      43.248  38.234  28.954  1.00  0.00     0.055 A 
ATOM     89  C   UNL A   1      41.826  37.558  27.160  1.00  0.00     0.041 A 
ATOM     90  F   UNL A   1      41.112  35.368  26.976  1.00  0.00    -0.206 F 
ATOM     91  C   UNL A   1      42.571  38.548  27.779  1.00  0.00     0.022 A 
BRANCH  88  92
ATOM     92  S   UNL A   1      44.335  39.461  29.727  1.00  0.00     0.124 S 
ATOM     93  O   UNL A   1      43.721  39.651  31.037  1.00  0.00    -0.237 OA
ATOM     94  O   UNL A   1      45.618  38.763  29.724  1.00  0.00    -0.237 OA
ATOM     95  O   UNL A   1      44.253  40.610  28.830  1.00  0.00    -0.744 OA
ENDBRANCH  88  92
ENDBRANCH  62  85
ENDBRANCH  36  37
ENDBRANCH  28  31
ENDBRANCH  26  27
ENDBRANCH  25  26
ENDBRANCH   1  25
TORSDOF 17
ENDMDL
MODEL 2
REMARK VINA RESULT:     -12.4      1.662      3.014
REMARK SMILES Cc1ccc(Nc2c(F)cccc2Cl)c(CC(=O)NCCCCNC(=O)c2ccc(-c3c4nc(c(-c5cc(S(=O)(=O)[O-])ccc5F)c5ccc([nH]5)c(-c5cc(S(=O)(=O)[O-])ccc5F)c5nc(c(-c6cc(S(=O)(=O)[O-])ccc6F)c6ccc3[nH]6)C=C5)C=C4)cc2)c1
REMARK SMILES IDX 21 1 20 2 19 3 17 4 18 5 16 7 15 8 1 9 2 10 3 11 90 12 4 13
REMARK SMILES IDX 5 14 6 15 7 17 8 18 13 19 9 20 10 21 12 22 14 23 11 24 22 25
REMARK SMILES IDX 23 26 24 27 25 28 26 30 27 31 28 32 89 33 29 34 88 35 30 36
REMARK SMILES IDX 31 37 32 38 82 39 33 40 87 41 81 42 83 43 34 44 86 45 80 46
REMARK SMILES IDX 79 47 35 49 67 50 47 51 66 52 48 53 51 54 65 55 84 56 49 57
REMARK SMILES IDX 50 58 64 60 85 61 52 62 36 63 37 64 45 65 38 66 44 67 46 68
REMARK SMILES IDX 43 69 39 70 40 71 41 72 42 73 68 74 69 75 77 76 70 77 76 78
REMARK SMILES IDX 78 79 75 80 71 81 72 82 73 83 74 84 53 85 54 86 62 87 55 88
REMARK SMILES IDX 61 89 63 90 60 91 56 92 57 93 58 94 59 95
REMARK H PARENT 19 6 6 16 24 29 83 48 51 59
REMARK Flexibility Score: inf
ROOT
ATOM      1  C   UNL A   1      37.128  21.830  24.557  1.00  0.00     0.023 C 
ENDROOT
BRANCH   1   2
ATOM      2  C   UNL A   1      36.196  23.020  24.838  1.00  0.00     0.116 C 
BRANCH   2   3
ATOM      3  N   UNL A   1      35.492  23.481  23.644  1.00  0.00    -0.356 N 
ATOM      4  C   UNL A   1      34.537  24.444  23.520  1.00  0.00     0.224 C 
ATOM      5  O   UNL A   1      33.972  24.586  22.430  1.00  0.00    -0.275 OA
ATOM      6  H   UNL A   1      35.746  23.031  22.807  1.00  0.00     0.163 HD
BRANCH   4   7
ATOM      7  C   UNL A   1      34.139  25.314  24.697  1.00  0.00     0.137 C 
BRANCH   7   8
ATOM      8  C   UNL A   1      32.657  25.610  24.755  1.00  0.00    -0.015 A 
ATOM      9  C   UNL A   1      30.517  28.641  23.853  1.00  0.00     0.044 C 
ATOM     10  C   UNL A   1      30.911  27.269  24.314  1.00  0.00    -0.051 A 
ATOM     11  C   UNL A   1      29.996  26.455  24.974  1.00  0.00     0.005 A 
ATOM     12  C   UNL A   1      32.225  26.821  24.173  1.00  0.00     0.009 A 
ATOM     13  C   UNL A   1      30.399  25.226  25.507  1.00  0.00     0.026 A 
ATOM     14  C   UNL A   1      31.731  24.786  25.437  1.00  0.00     0.042 A 
BRANCH  14  15
ATOM     15  N   UNL A   1      32.131  23.565  26.031  1.00  0.00    -0.352 N 
ATOM     16  H   UNL A   1      32.141  23.562  27.015  1.00  0.00     0.167 HD
BRANCH  15  17
ATOM     17  C   UNL A   1      32.520  22.349  25.420  1.00  0.00     0.094 A 
ATOM     18  C   UNL A   1      32.035  21.951  24.166  1.00  0.00     0.148 A 
ATOM     19  C   UNL A   1      33.343  21.435  26.106  1.00  0.00     0.067 A 
ATOM     20  F   UNL A   1      31.265  22.777  23.440  1.00  0.00    -0.205 F 
ATOM     21  C   UNL A   1      32.338  20.704  23.616  1.00  0.00     0.041 A 
ATOM     22  C   UNL A   1      33.650  20.179  25.562  1.00  0.00     0.023 A 
ATOM     23  Cl  UNL A   1      33.978  21.798  27.674  1.00  0.00    -0.082 Cl
ATOM     24  C   UNL A   1      33.143  19.812  24.317  1.00  0.00     0.005 A 
ENDBRANCH  15  17
ENDBRANCH  14  15
ENDBRANCH   7   8
ENDBRANCH   4   7
ENDBRANCH   2   3
ENDBRANCH   1   2
BRANCH   1  25
ATOM     25  C   UNL A   1      38.303  21.666  25.520  1.00  0.00     0.023 C 
BRANCH  25  26
ATOM     26  C   UNL A   1      38.758  22.970  26.157  1.00  0.00     0.116 C 
BRANCH  26  27
ATOM     27  N   UNL A   1      40.169  23.016  26.520  1.00  0.00    -0.352 N 
ATOM     28  C   UNL A   1      40.916  24.122  26.896  1.00  0.00     0.251 C 
ATOM     29  H   UNL A   1      40.650  22.158  26.494  1.00  0.00     0.163 HD
ATOM     30  O   UNL A   1      42.119  24.059  27.089  1.00  0.00    -0.269 OA
BRANCH  28  31
ATOM     31  C   UNL A   1      40.185  25.378  27.198  1.00  0.00     0.039 A 
ATOM     32  C   UNL A   1      40.546  26.509  26.458  1.00  0.00     0.014 A 
ATOM     33  C   UNL A   1      39.409  25.499  28.348  1.00  0.00     0.014 A 
ATOM     34  C   UNL A   1      40.344  27.772  27.006  1.00  0.00     0.010 A 
ATOM     35  C   UNL A   1      39.287  26.747  28.934  1.00  0.00     0.010 A 
ATOM     36  C   UNL A   1      39.829  27.871  28.298  1.00  0.00    -0.014 A 
BRANCH  36  37
ATOM     37  C   UNL A   1      39.976  29.074  29.112  1.00  0.00     0.031 A 
ATOM     38  C   UNL A   1      38.986  30.166  29.042  1.00  0.00     0.074 A 
ATOM     39  C   UNL A   1      41.026  29.192  29.958  1.00  0.00     0.049 A 
ATOM     40  N   UNL A   1      39.206  31.360  29.479  1.00  0.00    -0.248 NA
ATOM     41  C   UNL A   1      37.692  30.029  28.380  1.00  0.00     0.031 C 
ATOM     42  C   UNL A   1      41.214  30.181  31.017  1.00  0.00     0.029 A 
ATOM     43  N   UNL A   1      42.285  28.613  29.798  1.00  0.00    -0.354 N 
ATOM     44  C   UNL A   1      38.014  32.035  29.458  1.00  0.00     0.074 A 
ATOM     45  C   UNL A   1      37.157  31.230  28.626  1.00  0.00     0.031 C 
ATOM     46  C   UNL A   1      42.529  30.358  31.212  1.00  0.00     0.029 A 
ATOM     47  C   UNL A   1      43.225  29.586  30.202  1.00  0.00     0.049 A 
ATOM     48  H   UNL A   1      42.480  27.706  29.469  1.00  0.00     0.167 HD
ATOM     49  C   UNL A   1      37.861  33.117  30.271  1.00  0.00     0.034 A 
ATOM     50  C   UNL A   1      44.156  30.064  29.326  1.00  0.00     0.034 A 
ATOM     51  C   UNL A   1      39.160  33.640  30.721  1.00  0.00     0.049 A 
ATOM     52  C   UNL A   1      44.065  31.558  29.074  1.00  0.00     0.074 A 
ATOM     53  C   UNL A   1      39.823  33.758  31.930  1.00  0.00     0.029 A 
ATOM     54  N   UNL A   1      40.094  33.982  29.750  1.00  0.00    -0.354 N 
ATOM     55  N   UNL A   1      43.194  32.355  29.636  1.00  0.00    -0.248 NA
ATOM     56  C   UNL A   1      44.896  32.256  28.094  1.00  0.00     0.031 C 
ATOM     57  C   UNL A   1      41.179  34.133  31.659  1.00  0.00     0.029 A 
ATOM     58  C   UNL A   1      41.328  34.279  30.292  1.00  0.00     0.049 A 
ATOM     59  H   UNL A   1      39.897  34.009  28.786  1.00  0.00     0.167 HD
ATOM     60  C   UNL A   1      43.277  33.602  29.067  1.00  0.00     0.074 A 
ATOM     61  C   UNL A   1      44.363  33.489  28.108  1.00  0.00     0.031 C 
ATOM     62  C   UNL A   1      42.417  34.618  29.382  1.00  0.00     0.034 A 
BRANCH  49  63
ATOM     63  C   UNL A   1      36.524  33.625  30.785  1.00  0.00     0.023 A 
ATOM     64  C   UNL A   1      35.603  34.183  29.870  1.00  0.00     0.031 A 
ATOM     65  C   UNL A   1      36.143  33.729  32.145  1.00  0.00     0.131 A 
ATOM     66  C   UNL A   1      34.408  34.795  30.307  1.00  0.00     0.055 A 
ATOM     67  C   UNL A   1      34.926  34.276  32.571  1.00  0.00     0.041 A 
ATOM     68  F   UNL A   1      36.945  33.380  33.155  1.00  0.00    -0.206 F 
ATOM     69  C   UNL A   1      34.053  34.821  31.652  1.00  0.00     0.022 A 
BRANCH  66  70
ATOM     70  S   UNL A   1      33.352  35.654  29.107  1.00  0.00     0.124 S 
ATOM     71  O   UNL A   1      32.577  36.544  29.964  1.00  0.00    -0.237 OA
ATOM     72  O   UNL A   1      34.330  36.284  28.229  1.00  0.00    -0.237 OA
ATOM     73  O   UNL A   1      32.582  34.570  28.496  1.00  0.00    -0.744 OA
ENDBRANCH  66  70
ENDBRANCH  49  63
BRANCH  50  74
ATOM     74  C   UNL A   1      44.613  29.020  28.359  1.00  0.00     0.023 A 
ATOM     75  C   UNL A   1      45.430  27.992  28.884  1.00  0.00     0.031 A 
ATOM     76  C   UNL A   1      43.975  28.784  27.136  1.00  0.00     0.131 A 
ATOM     77  C   UNL A   1      45.417  26.715  28.309  1.00  0.00     0.055 A 
ATOM     78  C   UNL A   1      44.055  27.535  26.504  1.00  0.00     0.041 A 
ATOM     79  F   UNL A   1      43.158  29.701  26.598  1.00  0.00    -0.206 F 
ATOM     80  C   UNL A   1      44.731  26.478  27.118  1.00  0.00     0.022 A 
BRANCH  77  81
ATOM     81  S   UNL A   1      46.015  25.315  29.309  1.00  0.00     0.124 S 
ATOM     82  O   UNL A   1      46.041  24.230  28.337  1.00  0.00    -0.237 OA
ATOM     83  O   UNL A   1      47.319  25.782  29.779  1.00  0.00    -0.237 OA
ATOM     84  O   UNL A   1      45.010  25.197  30.364  1.00  0.00    -0.744 OA
ENDBRANCH  77  81
ENDBRANCH  50  74
BRANCH  62  85
ATOM     85  C   UNL A   1      42.504  36.009  28.785  1.00  0.00     0.023 A 
ATOM     86  C   UNL A   1      43.014  37.107  29.499  1.00  0.00     0.031 A 
ATOM     87  C   UNL A   1      42.014  36.293  27.489  1.00  0.00     0.131 A 
ATOM     88  C   UNL A   1      43.117  38.378  28.900  1.00  0.00     0.055 A 
ATOM     89  C   UNL A   1      42.045  37.573  26.925  1.00  0.00     0.041 A 
ATOM     90  F   UNL A   1      41.513  35.336  26.695  1.00  0.00    -0.206 F 
ATOM     91  C   UNL A   1      42.617  38.623  27.624  1.00  0.00     0.022 A 
BRANCH  88  92
ATOM     92  S   UNL A   1      43.986  39.691  29.798  1.00  0.00     0.124 S 
ATOM     93  O   UNL A   1      43.487  40.901  29.154  1.00  0.00    -0.237 OA
ATOM     94  O   UNL A   1      43.529  39.467  31.166  1.00  0.00    -0.237 OA
ATOM     95  O   UNL A   1      45.397  39.398  29.560  1.00  0.00    -0.744 OA
ENDBRANCH  88  92
ENDBRANCH  62  85
ENDBRANCH  36  37
ENDBRANCH  28  31
ENDBRANCH  26  27
ENDBRANCH  25  26
ENDBRANCH   1  25
TORSDOF 17
ENDMDL
MODEL 3
REMARK VINA RESULT:     -11.7      1.954      2.290
REMARK SMILES Cc1ccc(Nc2c(F)cccc2Cl)c(CC(=O)NCCCCNC(=O)c2ccc(-c3c4nc(c(-c5cc(S(=O)(=O)[O-])ccc5F)c5ccc([nH]5)c(-c5cc(S(=O)(=O)[O-])ccc5F)c5nc(c(-c6cc(S(=O)(=O)[O-])ccc6F)c6ccc3[nH]6)C=C5)C=C4)cc2)c1
REMARK SMILES IDX 21 1 20 2 19 3 17 4 18 5 16 7 15 8 1 9 2 10 3 11 90 12 4 13
REMARK SMILES IDX 5 14 6 15 7 17 8 18 13 19 9 20 10 21 12 22 14 23 11 24 22 25
REMARK SMILES IDX 23 26 24 27 25 28 26 30 27 31 28 32 89 33 29 34 88 35 30 36
REMARK SMILES IDX 31 37 32 38 82 39 33 40 87 41 81 42 83 43 34 44 86 45 80 46
REMARK SMILES IDX 79 47 35 49 67 50 47 51 66 52 48 53 51 54 65 55 84 56 49 57
REMARK SMILES IDX 50 58 64 60 85 61 52 62 36 63 37 64 45 65 38 66 44 67 46 68
REMARK SMILES IDX 43 69 39 70 40 71 41 72 42 73 68 74 69 75 77 76 70 77 76 78
REMARK SMILES IDX 78 79 75 80 71 81 72 82 73 83 74 84 53 85 54 86 62 87 55 88
REMARK SMILES IDX 61 89 63 90 60 91 56 92 57 93 58 94 59 95
REMARK H PARENT 19 6 6 16 24 29 83 48 51 59
REMARK Flexibility Score: inf
ROOT
ATOM      1  C   UNL A   1      36.781  23.067  25.136  1.00  0.00     0.023 C 
ENDROOT
BRANCH   1   2
ATOM      2  C   UNL A   1      35.513  22.419  24.554  1.00  0.00     0.116 C 
BRANCH   2   3
ATOM      3  N   UNL A   1      34.973  23.158  23.416  1.00  0.00    -0.356 N 
ATOM      4  C   UNL A   1      34.384  24.386  23.382  1.00  0.00     0.224 C 
ATOM      5  O   UNL A   1      33.872  24.772  22.325  1.00  0.00    -0.275 OA
ATOM      6  H   UNL A   1      35.044  22.703  22.547  1.00  0.00     0.163 HD
BRANCH   4   7
ATOM      7  C   UNL A   1      34.321  25.264  24.617  1.00  0.00     0.137 C 
BRANCH   7   8
ATOM      8  C   UNL A   1      32.946  25.328  25.243  1.00  0.00    -0.015 A 
ATOM      9  C   UNL A   1      30.392  22.699  26.314  1.00  0.00     0.044 C 
ATOM     10  C   UNL A   1      31.045  24.028  26.076  1.00  0.00    -0.051 A 
ATOM     11  C   UNL A   1      30.315  25.207  26.195  1.00  0.00     0.005 A 
ATOM     12  C   UNL A   1      32.368  24.103  25.640  1.00  0.00     0.009 A 
ATOM     13  C   UNL A   1      30.895  26.435  25.857  1.00  0.00     0.026 A 
ATOM     14  C   UNL A   1      32.202  26.527  25.353  1.00  0.00     0.042 A 
BRANCH  14  15
ATOM     15  N   UNL A   1      32.752  27.771  24.964  1.00  0.00    -0.352 N 
ATOM     16  H   UNL A   1      33.080  27.813  24.037  1.00  0.00     0.167 HD
BRANCH  15  17
ATOM     17  C   UNL A   1      32.901  28.965  25.710  1.00  0.00     0.094 A 
ATOM     18  C   UNL A   1      33.914  29.130  26.666  1.00  0.00     0.148 A 
ATOM     19  C   UNL A   1      31.961  30.007  25.588  1.00  0.00     0.067 A 
ATOM     20  F   UNL A   1      34.861  28.192  26.824  1.00  0.00    -0.205 F 
ATOM     21  C   UNL A   1      33.993  30.267  27.472  1.00  0.00     0.041 A 
ATOM     22  C   UNL A   1      32.032  31.150  26.396  1.00  0.00     0.023 A 
ATOM     23  Cl  UNL A   1      30.649  29.906  24.466  1.00  0.00    -0.082 Cl
ATOM     24  C   UNL A   1      33.046  31.278  27.343  1.00  0.00     0.005 A 
ENDBRANCH  15  17
ENDBRANCH  14  15
ENDBRANCH   7   8
ENDBRANCH   4   7
ENDBRANCH   2   3
ENDBRANCH   1   2
BRANCH   1  25
ATOM     25  C   UNL A   1      37.694  22.137  25.933  1.00  0.00     0.023 C 
BRANCH  25  26
ATOM     26  C   UNL A   1      39.168  22.283  25.587  1.00  0.00     0.116 C 
BRANCH  26  27
ATOM     27  N   UNL A   1      40.086  21.988  26.680  1.00  0.00    -0.352 N 
ATOM     28  C   UNL A   1      40.671  22.882  27.565  1.00  0.00     0.251 C 
ATOM     29  H   UNL A   1      40.320  21.041  26.805  1.00  0.00     0.163 HD
ATOM     30  O   UNL A   1      41.501  22.532  28.387  1.00  0.00    -0.269 OA
BRANCH  28  31
ATOM     31  C   UNL A   1      40.155  24.274  27.583  1.00  0.00     0.039 A 
ATOM     32  C   UNL A   1      40.945  25.245  26.958  1.00  0.00     0.014 A 
ATOM     33  C   UNL A   1      39.109  24.642  28.425  1.00  0.00     0.014 A 
ATOM     34  C   UNL A   1      40.849  26.568  27.375  1.00  0.00     0.010 A 
ATOM     35  C   UNL A   1      39.073  25.940  28.904  1.00  0.00     0.010 A 
ATOM     36  C   UNL A   1      39.999  26.881  28.436  1.00  0.00    -0.014 A 
BRANCH  36  37
ATOM     37  C   UNL A   1      40.134  28.106  29.217  1.00  0.00     0.031 A 
ATOM     38  C   UNL A   1      39.301  29.289  28.928  1.00  0.00     0.074 A 
ATOM     39  C   UNL A   1      41.026  28.164  30.233  1.00  0.00     0.049 A 
ATOM     40  N   UNL A   1      39.572  30.477  29.351  1.00  0.00    -0.248 NA
ATOM     41  C   UNL A   1      38.135  29.249  28.049  1.00  0.00     0.031 C 
ATOM     42  C   UNL A   1      41.136  29.187  31.270  1.00  0.00     0.029 A 
ATOM     43  N   UNL A   1      42.222  27.450  30.324  1.00  0.00    -0.354 N 
ATOM     44  C   UNL A   1      38.486  31.269  29.090  1.00  0.00     0.074 A 
ATOM     45  C   UNL A   1      37.703  30.511  28.149  1.00  0.00     0.031 C 
ATOM     46  C   UNL A   1      42.407  29.238  31.692  1.00  0.00     0.029 A 
ATOM     47  C   UNL A   1      43.179  28.342  30.854  1.00  0.00     0.049 A 
ATOM     48  H   UNL A   1      42.369  26.511  30.070  1.00  0.00     0.167 HD
ATOM     49  C   UNL A   1      38.315  32.406  29.821  1.00  0.00     0.034 A 
ATOM     50  C   UNL A   1      44.297  28.670  30.143  1.00  0.00     0.034 A 
ATOM     51  C   UNL A   1      39.565  32.817  30.478  1.00  0.00     0.049 A 
ATOM     52  C   UNL A   1      44.419  30.149  29.822  1.00  0.00     0.074 A 
ATOM     53  C   UNL A   1      40.016  32.936  31.781  1.00  0.00     0.029 A 
ATOM     54  N   UNL A   1      40.687  33.005  29.679  1.00  0.00    -0.354 N 
ATOM     55  N   UNL A   1      43.558  31.062  30.187  1.00  0.00    -0.248 NA
ATOM     56  C   UNL A   1      45.482  30.701  28.982  1.00  0.00     0.031 C 
ATOM     57  C   UNL A   1      41.432  33.153  31.745  1.00  0.00     0.029 A 
ATOM     58  C   UNL A   1      41.833  33.204  30.422  1.00  0.00     0.049 A 
ATOM     59  H   UNL A   1      40.667  32.997  28.695  1.00  0.00     0.167 HD
ATOM     60  C   UNL A   1      43.878  32.259  29.596  1.00  0.00     0.074 A 
ATOM     61  C   UNL A   1      45.095  31.980  28.853  1.00  0.00     0.031 C 
ATOM     62  C   UNL A   1      43.095  33.375  29.712  1.00  0.00     0.034 A 
BRANCH  49  63
ATOM     63  C   UNL A   1      36.974  33.079  30.066  1.00  0.00     0.023 A 
ATOM     64  C   UNL A   1      36.495  33.196  31.391  1.00  0.00     0.031 A 
ATOM     65  C   UNL A   1      36.059  33.493  29.068  1.00  0.00     0.131 A 
ATOM     66  C   UNL A   1      35.200  33.685  31.666  1.00  0.00     0.055 A 
ATOM     67  C   UNL A   1      34.800  34.040  29.347  1.00  0.00     0.041 A 
ATOM     68  F   UNL A   1      36.284  33.330  27.761  1.00  0.00    -0.206 F 
ATOM     69  C   UNL A   1      34.359  34.132  30.651  1.00  0.00     0.022 A 
BRANCH  66  70
ATOM     70  S   UNL A   1      34.571  33.644  33.367  1.00  0.00     0.124 S 
ATOM     71  O   UNL A   1      34.704  35.037  33.777  1.00  0.00    -0.237 OA
ATOM     72  O   UNL A   1      33.213  33.146  33.184  1.00  0.00    -0.237 OA
ATOM     73  O   UNL A   1      35.481  32.718  34.043  1.00  0.00    -0.744 OA
ENDBRANCH  66  70
ENDBRANCH  49  63
BRANCH  50  74
ATOM     74  C   UNL A   1      44.797  27.531  29.315  1.00  0.00     0.023 A 
ATOM     75  C   UNL A   1      44.549  27.609  27.925  1.00  0.00     0.031 A 
ATOM     76  C   UNL A   1      45.799  26.655  29.750  1.00  0.00     0.131 A 
ATOM     77  C   UNL A   1      45.423  27.001  27.015  1.00  0.00     0.055 A 
ATOM     78  C   UNL A   1      46.602  25.960  28.835  1.00  0.00     0.041 A 
ATOM     79  F   UNL A   1      46.110  26.558  31.050  1.00  0.00    -0.206 F 
ATOM     80  C   UNL A   1      46.453  26.174  27.463  1.00  0.00     0.022 A 
BRANCH  77  81
ATOM     81  S   UNL A   1      45.402  27.575  25.287  1.00  0.00     0.124 S 
ATOM     82  O   UNL A   1      46.042  26.470  24.586  1.00  0.00    -0.237 OA
ATOM     83  O   UNL A   1      43.976  27.758  25.020  1.00  0.00    -0.237 OA
ATOM     84  O   UNL A   1      46.163  28.822  25.333  1.00  0.00    -0.744 OA
ENDBRANCH  77  81
ENDBRANCH  50  74
BRANCH  62  85
ATOM     85  C   UNL A   1      43.440  34.713  29.088  1.00  0.00     0.023 A 
ATOM     86  C   UNL A   1      43.725  35.855  29.857  1.00  0.00     0.031 A 
ATOM     87  C   UNL A   1      43.432  34.903  27.686  1.00  0.00     0.131 A 
ATOM     88  C   UNL A   1      44.080  37.073  29.244  1.00  0.00     0.055 A 
ATOM     89  C   UNL A   1      43.709  36.134  27.082  1.00  0.00     0.041 A 
ATOM     90  F   UNL A   1      43.190  33.896  26.836  1.00  0.00    -0.206 F 
ATOM     91  C   UNL A   1      44.055  37.226  27.861  1.00  0.00     0.022 A 
BRANCH  88  92
ATOM     92  S   UNL A   1      44.649  38.437  30.294  1.00  0.00     0.124 S 
ATOM     93  O   UNL A   1      43.416  39.169  30.561  1.00  0.00    -0.237 OA
ATOM     94  O   UNL A   1      45.218  37.718  31.432  1.00  0.00    -0.237 OA
ATOM     95  O   UNL A   1      45.620  39.137  29.457  1.00  0.00    -0.744 OA
ENDBRANCH  88  92
ENDBRANCH  62  85
ENDBRANCH  36  37
ENDBRANCH  28  31
ENDBRANCH  26  27
ENDBRANCH  25  26
ENDBRANCH   1  25
TORSDOF 17
ENDMDL
