MODEL 1
REMARK VINA RESULT:     -13.3      0.000      0.000
REMARK SMILES Nc1oc2ccc(F)cc2c(=O)c1[C@@H]1[NH2+][C@H](C(=O)NCCCCNC(=O)c2ccc(-c3c4nc(c(-c5cc(S(=O)(=O)[O-])ccc5F)c5ccc([nH]5)c(-c5cc(S(=O)(=O)[O-])ccc5F)c5nc(c(-c6cc(S(=O)(=O)[O-])ccc6F)c6ccc3[nH]6)C=C5)C=C4)cc2)CS1
REMARK SMILES IDX 22 1 21 2 20 3 19 4 17 5 18 6 16 8 14 9 15 10 91 11 90 14
REMARK SMILES IDX 13 15 2 16 3 17 4 18 11 19 5 20 10 21 12 22 6 23 9 24 7 25
REMARK SMILES IDX 8 26 1 27 23 30 24 31 25 32 26 34 27 35 28 36 89 37 29 38
REMARK SMILES IDX 88 39 30 40 31 41 32 42 82 43 33 44 87 45 81 46 83 47 34 48
REMARK SMILES IDX 86 49 80 50 79 51 35 53 67 54 47 55 66 56 48 57 51 58 65 59
REMARK SMILES IDX 84 60 49 61 50 62 64 64 85 65 52 66 36 67 37 68 45 69 38 70
REMARK SMILES IDX 44 71 46 72 43 73 39 74 40 75 41 76 42 77 68 78 69 79 77 80
REMARK SMILES IDX 70 81 76 82 78 83 75 84 71 85 72 86 73 87 74 88 53 89 54 90
REMARK SMILES IDX 62 91 55 92 61 93 63 94 60 95 56 96 57 97 58 98 59 99
REMARK H PARENT 19 7 15 12 15 13 1 28 1 29 24 33 83 52 51 63
REMARK Flexibility Score: inf
ROOT
ATOM      1  C   UNL A   1      36.132  20.659  25.010  1.00  0.00     0.023 C 
ENDROOT
BRANCH   1   2
ATOM      2  C   UNL A   1      34.971  21.649  25.065  1.00  0.00     0.023 C 
BRANCH   2   3
ATOM      3  C   UNL A   1      35.391  23.105  24.860  1.00  0.00     0.116 C 
BRANCH   3   4
ATOM      4  N   UNL A   1      34.905  23.662  23.614  1.00  0.00    -0.351 N 
ATOM      5  C   UNL A   1      34.126  24.766  23.402  1.00  0.00     0.279 C 
ATOM      6  O   UNL A   1      33.939  25.115  22.233  1.00  0.00    -0.268 OA
ATOM      7  H   UNL A   1      35.175  23.175  22.802  1.00  0.00     0.163 HD
BRANCH   5   8
ATOM      8  C   UNL A   1      33.579  25.631  24.557  1.00  0.00     0.283 C 
ATOM      9  C   UNL A   1      32.185  27.598  24.895  1.00  0.00     0.283 C 
ATOM     10  N   UNL A   1      33.301  27.018  24.136  1.00  0.00    -0.320 N 
ATOM     11  S   UNL A   1      31.476  26.314  25.968  1.00  0.00    -0.087 SA
ATOM     12  H   UNL A   1      34.136  27.584  24.290  1.00  0.00     0.348 HD
ATOM     13  H   UNL A   1      33.045  27.009  23.149  1.00  0.00     0.348 HD
ATOM     14  C   UNL A   1      32.337  24.970  25.131  1.00  0.00     0.151 C 
BRANCH   9  15
ATOM     15  C   UNL A   1      31.204  28.251  23.938  1.00  0.00     0.128 A 
ATOM     16  C   UNL A   1      30.722  27.805  22.752  1.00  0.00     0.205 A 
ATOM     17  O   UNL A   1      29.923  28.557  21.909  1.00  0.00    -0.440 OA
ATOM     18  C   UNL A   1      29.547  29.815  22.270  1.00  0.00     0.140 A 
ATOM     19  C   UNL A   1      30.768  29.610  24.384  1.00  0.00     0.205 A 
ATOM     20  C   UNL A   1      28.757  30.526  21.365  1.00  0.00     0.051 A 
ATOM     21  C   UNL A   1      29.911  30.384  23.480  1.00  0.00     0.068 A 
ATOM     22  O   UNL A   1      31.105  30.083  25.465  1.00  0.00    -0.288 OA
ATOM     23  C   UNL A   1      28.317  31.808  21.689  1.00  0.00     0.043 A 
ATOM     24  C   UNL A   1      29.468  31.666  23.816  1.00  0.00     0.055 A 
ATOM     25  C   UNL A   1      28.669  32.362  22.916  1.00  0.00     0.124 A 
ATOM     26  F   UNL A   1      28.228  33.585  23.235  1.00  0.00    -0.207 F 
BRANCH  16  27
ATOM     27  N   UNL A   1      30.991  26.589  22.197  1.00  0.00    -0.369 N 
ATOM     28  H   UNL A   1      30.566  25.778  22.559  1.00  0.00     0.159 HD
ATOM     29  H   UNL A   1      31.611  26.522  21.435  1.00  0.00     0.159 HD
ENDBRANCH  16  27
ENDBRANCH   9  15
ENDBRANCH   5   8
ENDBRANCH   3   4
ENDBRANCH   2   3
ENDBRANCH   1   2
BRANCH   1  30
ATOM     30  C   UNL A   1      37.515  21.252  25.259  1.00  0.00     0.116 C 
BRANCH  30  31
ATOM     31  N   UNL A   1      38.586  20.275  25.411  1.00  0.00    -0.352 N 
ATOM     32  C   UNL A   1      39.775  20.433  26.104  1.00  0.00     0.251 C 
ATOM     33  H   UNL A   1      38.448  19.404  24.972  1.00  0.00     0.163 HD
ATOM     34  O   UNL A   1      40.614  19.555  26.145  1.00  0.00    -0.269 OA
BRANCH  32  35
ATOM     35  C   UNL A   1      40.011  21.741  26.752  1.00  0.00     0.039 A 
ATOM     36  C   UNL A   1      39.414  22.883  26.218  1.00  0.00     0.014 A 
ATOM     37  C   UNL A   1      40.972  21.833  27.759  1.00  0.00     0.014 A 
ATOM     38  C   UNL A   1      39.937  24.126  26.542  1.00  0.00     0.010 A 
ATOM     39  C   UNL A   1      41.426  23.093  28.154  1.00  0.00     0.010 A 
ATOM     40  C   UNL A   1      40.963  24.243  27.498  1.00  0.00    -0.014 A 
BRANCH  40  41
ATOM     41  C   UNL A   1      41.542  25.581  27.782  1.00  0.00     0.031 A 
ATOM     42  C   UNL A   1      42.891  25.972  27.242  1.00  0.00     0.074 A 
ATOM     43  C   UNL A   1      40.805  26.468  28.477  1.00  0.00     0.049 A 
ATOM     44  N   UNL A   1      43.539  27.099  27.388  1.00  0.00    -0.248 NA
ATOM     45  C   UNL A   1      43.606  24.973  26.432  1.00  0.00     0.031 C 
ATOM     46  C   UNL A   1      39.474  26.193  29.017  1.00  0.00     0.029 A 
ATOM     47  N   UNL A   1      41.044  27.773  28.820  1.00  0.00    -0.354 N 
ATOM     48  C   UNL A   1      44.740  26.944  26.702  1.00  0.00     0.074 A 
ATOM     49  C   UNL A   1      44.747  25.598  26.171  1.00  0.00     0.031 C 
ATOM     50  C   UNL A   1      38.985  27.311  29.565  1.00  0.00     0.029 A 
ATOM     51  C   UNL A   1      40.003  28.357  29.502  1.00  0.00     0.049 A 
ATOM     52  H   UNL A   1      41.879  28.246  28.600  1.00  0.00     0.167 HD
ATOM     53  C   UNL A   1      45.734  27.847  26.522  1.00  0.00     0.034 A 
ATOM     54  C   UNL A   1      39.882  29.587  30.039  1.00  0.00     0.034 A 
ATOM     55  C   UNL A   1      45.701  29.184  27.060  1.00  0.00     0.049 A 
ATOM     56  C   UNL A   1      41.021  30.554  29.881  1.00  0.00     0.074 A 
ATOM     57  C   UNL A   1      46.659  30.177  26.947  1.00  0.00     0.029 A 
ATOM     58  N   UNL A   1      44.658  29.721  27.804  1.00  0.00    -0.354 N 
ATOM     59  N   UNL A   1      42.154  30.389  29.238  1.00  0.00    -0.248 NA
ATOM     60  C   UNL A   1      40.881  31.866  30.523  1.00  0.00     0.031 C 
ATOM     61  C   UNL A   1      46.219  31.291  27.667  1.00  0.00     0.029 A 
ATOM     62  C   UNL A   1      44.958  31.020  28.177  1.00  0.00     0.049 A 
ATOM     63  H   UNL A   1      43.826  29.245  28.034  1.00  0.00     0.167 HD
ATOM     64  C   UNL A   1      42.864  31.572  29.400  1.00  0.00     0.074 A 
ATOM     65  C   UNL A   1      42.017  32.459  30.174  1.00  0.00     0.031 C 
ATOM     66  C   UNL A   1      44.107  31.890  28.958  1.00  0.00     0.034 A 
BRANCH  53  67
ATOM     67  C   UNL A   1      46.940  27.439  25.708  1.00  0.00     0.023 A 
ATOM     68  C   UNL A   1      47.058  27.836  24.362  1.00  0.00     0.031 A 
ATOM     69  C   UNL A   1      47.921  26.578  26.233  1.00  0.00     0.131 A 
ATOM     70  C   UNL A   1      48.123  27.359  23.584  1.00  0.00     0.055 A 
ATOM     71  C   UNL A   1      48.998  26.133  25.464  1.00  0.00     0.041 A 
ATOM     72  F   UNL A   1      47.856  26.169  27.511  1.00  0.00    -0.206 F 
ATOM     73  C   UNL A   1      49.096  26.515  24.130  1.00  0.00     0.022 A 
BRANCH  70  74
ATOM     74  S   UNL A   1      48.258  27.765  21.822  1.00  0.00     0.124 S 
ATOM     75  O   UNL A   1      46.966  28.396  21.563  1.00  0.00    -0.237 OA
ATOM     76  O   UNL A   1      49.407  28.667  21.801  1.00  0.00    -0.237 OA
ATOM     77  O   UNL A   1      48.461  26.472  21.177  1.00  0.00    -0.744 OA
ENDBRANCH  70  74
ENDBRANCH  53  67
BRANCH  54  78
ATOM     78  C   UNL A   1      38.609  29.935  30.734  1.00  0.00     0.023 A 
ATOM     79  C   UNL A   1      37.591  30.630  30.053  1.00  0.00     0.031 A 
ATOM     80  C   UNL A   1      38.475  29.751  32.118  1.00  0.00     0.131 A 
ATOM     81  C   UNL A   1      36.547  31.219  30.778  1.00  0.00     0.055 A 
ATOM     82  C   UNL A   1      37.386  30.266  32.824  1.00  0.00     0.041 A 
ATOM     83  F   UNL A   1      39.425  29.103  32.809  1.00  0.00    -0.206 F 
ATOM     84  C   UNL A   1      36.429  31.028  32.158  1.00  0.00     0.022 A 
BRANCH  81  85
ATOM     85  S   UNL A   1      35.420  32.399  29.983  1.00  0.00     0.124 S 
ATOM     86  O   UNL A   1      35.038  31.686  28.768  1.00  0.00    -0.237 OA
ATOM     87  O   UNL A   1      34.373  32.533  30.993  1.00  0.00    -0.237 OA
ATOM     88  O   UNL A   1      36.245  33.586  29.786  1.00  0.00    -0.744 OA
ENDBRANCH  81  85
ENDBRANCH  54  78
BRANCH  66  89
ATOM     89  C   UNL A   1      44.665  33.244  29.312  1.00  0.00     0.023 A 
ATOM     90  C   UNL A   1      44.514  34.326  28.423  1.00  0.00     0.031 A 
ATOM     91  C   UNL A   1      45.477  33.420  30.446  1.00  0.00     0.131 A 
ATOM     92  C   UNL A   1      45.203  35.521  28.661  1.00  0.00     0.055 A 
ATOM     93  C   UNL A   1      46.126  34.628  30.701  1.00  0.00     0.041 A 
ATOM     94  F   UNL A   1      45.656  32.413  31.317  1.00  0.00    -0.206 F 
ATOM     95  C   UNL A   1      46.002  35.680  29.798  1.00  0.00     0.022 A 
BRANCH  92  96
ATOM     96  S   UNL A   1      45.154  36.882  27.463  1.00  0.00     0.124 S 
ATOM     97  O   UNL A   1      43.748  36.884  27.064  1.00  0.00    -0.237 OA
ATOM     98  O   UNL A   1      45.574  38.020  28.277  1.00  0.00    -0.237 OA
ATOM     99  O   UNL A   1      46.092  36.472  26.424  1.00  0.00    -0.744 OA
ENDBRANCH  92  96
ENDBRANCH  66  89
ENDBRANCH  40  41
ENDBRANCH  32  35
ENDBRANCH  30  31
ENDBRANCH   1  30
TORSDOF 16
ENDMDL
MODEL 2
REMARK VINA RESULT:     -13.2      5.346     11.071
REMARK SMILES Nc1oc2ccc(F)cc2c(=O)c1[C@@H]1[NH2+][C@H](C(=O)NCCCCNC(=O)c2ccc(-c3c4nc(c(-c5cc(S(=O)(=O)[O-])ccc5F)c5ccc([nH]5)c(-c5cc(S(=O)(=O)[O-])ccc5F)c5nc(c(-c6cc(S(=O)(=O)[O-])ccc6F)c6ccc3[nH]6)C=C5)C=C4)cc2)CS1
REMARK SMILES IDX 22 1 21 2 20 3 19 4 17 5 18 6 16 8 14 9 15 10 91 11 90 14
REMARK SMILES IDX 13 15 2 16 3 17 4 18 11 19 5 20 10 21 12 22 6 23 9 24 7 25
REMARK SMILES IDX 8 26 1 27 23 30 24 31 25 32 26 34 27 35 28 36 89 37 29 38
REMARK SMILES IDX 88 39 30 40 31 41 32 42 82 43 33 44 87 45 81 46 83 47 34 48
REMARK SMILES IDX 86 49 80 50 79 51 35 53 67 54 47 55 66 56 48 57 51 58 65 59
REMARK SMILES IDX 84 60 49 61 50 62 64 64 85 65 52 66 36 67 37 68 45 69 38 70
REMARK SMILES IDX 44 71 46 72 43 73 39 74 40 75 41 76 42 77 68 78 69 79 77 80
REMARK SMILES IDX 70 81 76 82 78 83 75 84 71 85 72 86 73 87 74 88 53 89 54 90
REMARK SMILES IDX 62 91 55 92 61 93 63 94 60 95 56 96 57 97 58 98 59 99
REMARK H PARENT 19 7 15 12 15 13 1 28 1 29 24 33 83 52 51 63
REMARK Flexibility Score: inf
ROOT
ATOM      1  C   UNL A   1      31.409  30.688  25.661  1.00  0.00     0.023 C 
ENDROOT
BRANCH   1   2
ATOM      2  C   UNL A   1      31.672  29.309  25.062  1.00  0.00     0.023 C 
BRANCH   2   3
ATOM      3  C   UNL A   1      32.433  28.366  25.994  1.00  0.00     0.116 C 
BRANCH   3   4
ATOM      4  N   UNL A   1      31.640  27.230  26.418  1.00  0.00    -0.351 N 
ATOM      5  C   UNL A   1      31.911  25.894  26.312  1.00  0.00     0.279 C 
ATOM      6  O   UNL A   1      31.130  25.109  26.858  1.00  0.00    -0.268 OA
ATOM      7  H   UNL A   1      30.781  27.452  26.846  1.00  0.00     0.163 HD
BRANCH   5   8
ATOM      8  C   UNL A   1      33.190  25.357  25.638  1.00  0.00     0.283 C 
ATOM      9  C   UNL A   1      34.230  23.229  25.070  1.00  0.00     0.283 C 
ATOM     10  N   UNL A   1      33.553  24.008  26.116  1.00  0.00    -0.320 N 
ATOM     11  S   UNL A   1      34.225  24.191  23.528  1.00  0.00    -0.087 SA
ATOM     12  H   UNL A   1      34.178  24.098  26.918  1.00  0.00     0.348 HD
ATOM     13  H   UNL A   1      32.697  23.519  26.375  1.00  0.00     0.348 HD
ATOM     14  C   UNL A   1      33.008  25.376  24.129  1.00  0.00     0.151 C 
BRANCH   9  15
ATOM     15  C   UNL A   1      33.598  21.852  24.973  1.00  0.00     0.128 A 
ATOM     16  C   UNL A   1      32.298  21.485  25.087  1.00  0.00     0.205 A 
ATOM     17  O   UNL A   1      31.864  20.171  25.102  1.00  0.00    -0.440 OA
ATOM     18  C   UNL A   1      32.761  19.156  24.964  1.00  0.00     0.140 A 
ATOM     19  C   UNL A   1      34.600  20.762  24.769  1.00  0.00     0.205 A 
ATOM     20  C   UNL A   1      32.259  17.854  25.008  1.00  0.00     0.051 A 
ATOM     21  C   UNL A   1      34.115  19.378  24.776  1.00  0.00     0.068 A 
ATOM     22  O   UNL A   1      35.794  20.994  24.600  1.00  0.00    -0.288 OA
ATOM     23  C   UNL A   1      33.122  16.773  24.843  1.00  0.00     0.043 A 
ATOM     24  C   UNL A   1      34.988  18.300  24.603  1.00  0.00     0.055 A 
ATOM     25  C   UNL A   1      34.478  17.007  24.633  1.00  0.00     0.124 A 
ATOM     26  F   UNL A   1      35.304  15.968  24.454  1.00  0.00    -0.207 F 
BRANCH  16  27
ATOM     27  N   UNL A   1      31.248  22.337  25.255  1.00  0.00    -0.369 N 
ATOM     28  H   UNL A   1      30.541  22.387  24.572  1.00  0.00     0.159 HD
ATOM     29  H   UNL A   1      31.197  22.904  26.059  1.00  0.00     0.159 HD
ENDBRANCH  16  27
ENDBRANCH   9  15
ENDBRANCH   5   8
ENDBRANCH   3   4
ENDBRANCH   2   3
ENDBRANCH   1   2
BRANCH   1  30
ATOM     30  C   UNL A   1      32.291  31.071  26.845  1.00  0.00     0.116 C 
BRANCH  30  31
ATOM     31  N   UNL A   1      32.246  32.480  27.216  1.00  0.00    -0.352 N 
ATOM     32  C   UNL A   1      33.277  33.243  27.741  1.00  0.00     0.251 C 
ATOM     33  H   UNL A   1      31.388  32.941  27.077  1.00  0.00     0.163 HD
ATOM     34  O   UNL A   1      33.122  34.411  28.039  1.00  0.00    -0.269 OA
BRANCH  32  35
ATOM     35  C   UNL A   1      34.569  32.564  27.977  1.00  0.00     0.039 A 
ATOM     36  C   UNL A   1      34.573  31.216  28.341  1.00  0.00     0.014 A 
ATOM     37  C   UNL A   1      35.736  33.326  28.020  1.00  0.00     0.014 A 
ATOM     38  C   UNL A   1      35.702  30.692  28.953  1.00  0.00     0.010 A 
ATOM     39  C   UNL A   1      36.900  32.762  28.546  1.00  0.00     0.010 A 
ATOM     40  C   UNL A   1      36.871  31.465  29.081  1.00  0.00    -0.014 A 
BRANCH  40  41
ATOM     41  C   UNL A   1      38.044  30.896  29.791  1.00  0.00     0.031 A 
ATOM     42  C   UNL A   1      38.331  31.254  31.225  1.00  0.00     0.074 A 
ATOM     43  C   UNL A   1      38.811  29.995  29.150  1.00  0.00     0.049 A 
ATOM     44  N   UNL A   1      39.305  30.844  31.995  1.00  0.00    -0.248 NA
ATOM     45  C   UNL A   1      37.407  32.192  31.881  1.00  0.00     0.031 C 
ATOM     46  C   UNL A   1      38.596  29.561  27.770  1.00  0.00     0.029 A 
ATOM     47  N   UNL A   1      39.892  29.264  29.568  1.00  0.00    -0.354 N 
ATOM     48  C   UNL A   1      39.122  31.479  33.219  1.00  0.00     0.074 A 
ATOM     49  C   UNL A   1      37.963  32.333  33.077  1.00  0.00     0.031 C 
ATOM     50  C   UNL A   1      39.472  28.593  27.475  1.00  0.00     0.029 A 
ATOM     51  C   UNL A   1      40.372  28.404  28.610  1.00  0.00     0.049 A 
ATOM     52  H   UNL A   1      40.286  29.347  30.466  1.00  0.00     0.167 HD
ATOM     53  C   UNL A   1      39.846  31.347  34.357  1.00  0.00     0.034 A 
ATOM     54  C   UNL A   1      41.431  27.569  28.626  1.00  0.00     0.034 A 
ATOM     55  C   UNL A   1      40.997  30.486  34.474  1.00  0.00     0.049 A 
ATOM     56  C   UNL A   1      42.258  27.483  29.878  1.00  0.00     0.074 A 
ATOM     57  C   UNL A   1      41.808  30.285  35.576  1.00  0.00     0.029 A 
ATOM     58  N   UNL A   1      41.495  29.678  33.460  1.00  0.00    -0.354 N 
ATOM     59  N   UNL A   1      42.076  28.097  31.024  1.00  0.00    -0.248 NA
ATOM     60  C   UNL A   1      43.434  26.606  29.845  1.00  0.00     0.031 C 
ATOM     61  C   UNL A   1      42.826  29.400  35.213  1.00  0.00     0.029 A 
ATOM     62  C   UNL A   1      42.616  28.996  33.903  1.00  0.00     0.049 A 
ATOM     63  H   UNL A   1      41.107  29.602  32.557  1.00  0.00     0.167 HD
ATOM     64  C   UNL A   1      43.116  27.686  31.848  1.00  0.00     0.074 A 
ATOM     65  C   UNL A   1      43.904  26.742  31.080  1.00  0.00     0.031 C 
ATOM     66  C   UNL A   1      43.398  28.064  33.121  1.00  0.00     0.034 A 
BRANCH  53  67
ATOM     67  C   UNL A   1      39.424  32.137  35.574  1.00  0.00     0.023 A 
ATOM     68  C   UNL A   1      38.624  31.541  36.569  1.00  0.00     0.031 A 
ATOM     69  C   UNL A   1      39.731  33.504  35.703  1.00  0.00     0.131 A 
ATOM     70  C   UNL A   1      38.146  32.314  37.637  1.00  0.00     0.055 A 
ATOM     71  C   UNL A   1      39.280  34.261  36.787  1.00  0.00     0.041 A 
ATOM     72  F   UNL A   1      40.491  34.122  34.784  1.00  0.00    -0.206 F 
ATOM     73  C   UNL A   1      38.475  33.668  37.754  1.00  0.00     0.022 A 
BRANCH  70  74
ATOM     74  S   UNL A   1      37.032  31.610  38.884  1.00  0.00     0.124 S 
ATOM     75  O   UNL A   1      36.901  30.231  38.420  1.00  0.00    -0.237 OA
ATOM     76  O   UNL A   1      37.800  31.783  40.114  1.00  0.00    -0.237 OA
ATOM     77  O   UNL A   1      35.825  32.421  38.775  1.00  0.00    -0.744 OA
ENDBRANCH  70  74
ENDBRANCH  53  67
BRANCH  54  78
ATOM     78  C   UNL A   1      41.705  26.749  27.410  1.00  0.00     0.023 A 
ATOM     79  C   UNL A   1      41.310  25.399  27.355  1.00  0.00     0.031 A 
ATOM     80  C   UNL A   1      42.525  27.243  26.383  1.00  0.00     0.131 A 
ATOM     81  C   UNL A   1      41.834  24.561  26.362  1.00  0.00     0.055 A 
ATOM     82  C   UNL A   1      42.973  26.423  25.346  1.00  0.00     0.041 A 
ATOM     83  F   UNL A   1      42.934  28.520  26.401  1.00  0.00    -0.206 F 
ATOM     84  C   UNL A   1      42.651  25.068  25.347  1.00  0.00     0.022 A 
BRANCH  81  85
ATOM     85  S   UNL A   1      41.622  22.762  26.464  1.00  0.00     0.124 S 
ATOM     86  O   UNL A   1      40.168  22.623  26.438  1.00  0.00    -0.237 OA
ATOM     87  O   UNL A   1      42.320  22.313  25.261  1.00  0.00    -0.237 OA
ATOM     88  O   UNL A   1      42.267  22.408  27.723  1.00  0.00    -0.744 OA
ENDBRANCH  81  85
ENDBRANCH  54  78
BRANCH  66  89
ATOM     89  C   UNL A   1      44.625  27.490  33.780  1.00  0.00     0.023 A 
ATOM     90  C   UNL A   1      44.530  26.319  34.555  1.00  0.00     0.031 A 
ATOM     91  C   UNL A   1      45.846  28.187  33.771  1.00  0.00     0.131 A 
ATOM     92  C   UNL A   1      45.623  25.905  35.326  1.00  0.00     0.055 A 
ATOM     93  C   UNL A   1      46.947  27.746  34.506  1.00  0.00     0.041 A 
ATOM     94  F   UNL A   1      45.981  29.314  33.052  1.00  0.00    -0.206 F 
ATOM     95  C   UNL A   1      46.833  26.608  35.300  1.00  0.00     0.022 A 
BRANCH  92  96
ATOM     96  S   UNL A   1      45.491  24.489  36.451  1.00  0.00     0.124 S 
ATOM     97  O   UNL A   1      45.190  23.396  35.528  1.00  0.00    -0.237 OA
ATOM     98  O   UNL A   1      46.822  24.451  37.051  1.00  0.00    -0.237 OA
ATOM     99  O   UNL A   1      44.405  24.855  37.353  1.00  0.00    -0.744 OA
ENDBRANCH  92  96
ENDBRANCH  66  89
ENDBRANCH  40  41
ENDBRANCH  32  35
ENDBRANCH  30  31
ENDBRANCH   1  30
TORSDOF 16
ENDMDL
MODEL 3
REMARK VINA RESULT:     -13.1      5.314     10.932
REMARK SMILES Nc1oc2ccc(F)cc2c(=O)c1[C@@H]1[NH2+][C@H](C(=O)NCCCCNC(=O)c2ccc(-c3c4nc(c(-c5cc(S(=O)(=O)[O-])ccc5F)c5ccc([nH]5)c(-c5cc(S(=O)(=O)[O-])ccc5F)c5nc(c(-c6cc(S(=O)(=O)[O-])ccc6F)c6ccc3[nH]6)C=C5)C=C4)cc2)CS1
REMARK SMILES IDX 22 1 21 2 20 3 19 4 17 5 18 6 16 8 14 9 15 10 91 11 90 14
REMARK SMILES IDX 13 15 2 16 3 17 4 18 11 19 5 20 10 21 12 22 6 23 9 24 7 25
REMARK SMILES IDX 8 26 1 27 23 30 24 31 25 32 26 34 27 35 28 36 89 37 29 38
REMARK SMILES IDX 88 39 30 40 31 41 32 42 82 43 33 44 87 45 81 46 83 47 34 48
REMARK SMILES IDX 86 49 80 50 79 51 35 53 67 54 47 55 66 56 48 57 51 58 65 59
REMARK SMILES IDX 84 60 49 61 50 62 64 64 85 65 52 66 36 67 37 68 45 69 38 70
REMARK SMILES IDX 44 71 46 72 43 73 39 74 40 75 41 76 42 77 68 78 69 79 77 80
REMARK SMILES IDX 70 81 76 82 78 83 75 84 71 85 72 86 73 87 74 88 53 89 54 90
REMARK SMILES IDX 62 91 55 92 61 93 63 94 60 95 56 96 57 97 58 98 59 99
REMARK H PARENT 19 7 15 12 15 13 1 28 1 29 24 33 83 52 51 63
REMARK Flexibility Score: inf
ROOT
ATOM      1  C   UNL A   1      31.159  30.643  25.577  1.00  0.00     0.023 C 
ENDROOT
BRANCH   1   2
ATOM      2  C   UNL A   1      31.463  29.301  24.916  1.00  0.00     0.023 C 
BRANCH   2   3
ATOM      3  C   UNL A   1      32.192  28.314  25.828  1.00  0.00     0.116 C 
BRANCH   3   4
ATOM      4  N   UNL A   1      31.375  27.176  26.197  1.00  0.00    -0.351 N 
ATOM      5  C   UNL A   1      31.660  25.841  26.120  1.00  0.00     0.279 C 
ATOM      6  O   UNL A   1      30.844  25.055  26.610  1.00  0.00    -0.268 OA
ATOM      7  H   UNL A   1      30.484  27.396  26.556  1.00  0.00     0.163 HD
BRANCH   5   8
ATOM      8  C   UNL A   1      32.990  25.308  25.549  1.00  0.00     0.283 C 
ATOM      9  C   UNL A   1      34.101  23.184  25.119  1.00  0.00     0.283 C 
ATOM     10  N   UNL A   1      33.344  23.982  26.093  1.00  0.00    -0.320 N 
ATOM     11  S   UNL A   1      34.181  24.096  23.549  1.00  0.00    -0.087 SA
ATOM     12  H   UNL A   1      33.912  24.109  26.931  1.00  0.00     0.348 HD
ATOM     13  H   UNL A   1      32.480  23.485  26.311  1.00  0.00     0.348 HD
ATOM     14  C   UNL A   1      32.907  25.276  24.032  1.00  0.00     0.151 C 
BRANCH   9  15
ATOM     15  C   UNL A   1      33.500  21.792  25.025  1.00  0.00     0.128 A 
ATOM     16  C   UNL A   1      32.213  21.393  25.171  1.00  0.00     0.205 A 
ATOM     17  O   UNL A   1      31.811  20.068  25.185  1.00  0.00    -0.440 OA
ATOM     18  C   UNL A   1      32.728  19.077  25.012  1.00  0.00     0.140 A 
ATOM     19  C   UNL A   1      34.522  20.729  24.784  1.00  0.00     0.205 A 
ATOM     20  C   UNL A   1      32.259  17.763  25.057  1.00  0.00     0.051 A 
ATOM     21  C   UNL A   1      34.071  19.334  24.790  1.00  0.00     0.068 A 
ATOM     22  O   UNL A   1      35.705  20.991  24.586  1.00  0.00    -0.288 OA
ATOM     23  C   UNL A   1      33.143  16.704  24.858  1.00  0.00     0.043 A 
ATOM     24  C   UNL A   1      34.964  18.278  24.583  1.00  0.00     0.055 A 
ATOM     25  C   UNL A   1      34.487  16.973  24.614  1.00  0.00     0.124 A 
ATOM     26  F   UNL A   1      35.332  15.957  24.403  1.00  0.00    -0.207 F 
BRANCH  16  27
ATOM     27  N   UNL A   1      31.147  22.218  25.375  1.00  0.00    -0.369 N 
ATOM     28  H   UNL A   1      30.236  21.847  25.402  1.00  0.00     0.159 HD
ATOM     29  H   UNL A   1      31.289  23.185  25.496  1.00  0.00     0.159 HD
ENDBRANCH  16  27
ENDBRANCH   9  15
ENDBRANCH   5   8
ENDBRANCH   3   4
ENDBRANCH   2   3
ENDBRANCH   1   2
BRANCH   1  30
ATOM     30  C   UNL A   1      32.134  31.074  26.667  1.00  0.00     0.116 C 
BRANCH  30  31
ATOM     31  N   UNL A   1      32.005  32.463  27.094  1.00  0.00    -0.352 N 
ATOM     32  C   UNL A   1      32.981  33.257  27.675  1.00  0.00     0.251 C 
ATOM     33  H   UNL A   1      31.126  32.883  26.954  1.00  0.00     0.163 HD
ATOM     34  O   UNL A   1      32.757  34.401  28.016  1.00  0.00    -0.269 OA
BRANCH  32  35
ATOM     35  C   UNL A   1      34.302  32.638  27.913  1.00  0.00     0.039 A 
ATOM     36  C   UNL A   1      34.372  31.279  28.224  1.00  0.00     0.014 A 
ATOM     37  C   UNL A   1      35.426  33.459  28.014  1.00  0.00     0.014 A 
ATOM     38  C   UNL A   1      35.514  30.790  28.841  1.00  0.00     0.010 A 
ATOM     39  C   UNL A   1      36.607  32.936  28.544  1.00  0.00     0.010 A 
ATOM     40  C   UNL A   1      36.637  31.618  29.026  1.00  0.00    -0.014 A 
BRANCH  40  41
ATOM     41  C   UNL A   1      37.824  31.084  29.741  1.00  0.00     0.031 A 
ATOM     42  C   UNL A   1      38.114  31.477  31.164  1.00  0.00     0.074 A 
ATOM     43  C   UNL A   1      38.601  30.182  29.113  1.00  0.00     0.049 A 
ATOM     44  N   UNL A   1      39.100  31.099  31.936  1.00  0.00    -0.248 NA
ATOM     45  C   UNL A   1      37.178  32.414  31.807  1.00  0.00     0.031 C 
ATOM     46  C   UNL A   1      38.385  29.715  27.744  1.00  0.00     0.029 A 
ATOM     47  N   UNL A   1      39.696  29.477  29.539  1.00  0.00    -0.354 N 
ATOM     48  C   UNL A   1      38.914  31.757  33.148  1.00  0.00     0.074 A 
ATOM     49  C   UNL A   1      37.740  32.589  32.996  1.00  0.00     0.031 C 
ATOM     50  C   UNL A   1      39.275  28.755  27.464  1.00  0.00     0.029 A 
ATOM     51  C   UNL A   1      40.185  28.605  28.596  1.00  0.00     0.049 A 
ATOM     52  H   UNL A   1      40.095  29.586  30.433  1.00  0.00     0.167 HD
ATOM     53  C   UNL A   1      39.647  31.661  34.284  1.00  0.00     0.034 A 
ATOM     54  C   UNL A   1      41.257  27.788  28.623  1.00  0.00     0.034 A 
ATOM     55  C   UNL A   1      40.812  30.822  34.410  1.00  0.00     0.049 A 
ATOM     56  C   UNL A   1      42.093  27.742  29.870  1.00  0.00     0.074 A 
ATOM     57  C   UNL A   1      41.634  30.658  35.511  1.00  0.00     0.029 A 
ATOM     58  N   UNL A   1      41.317  30.000  33.410  1.00  0.00    -0.354 N 
ATOM     59  N   UNL A   1      41.909  28.378  31.004  1.00  0.00    -0.248 NA
ATOM     60  C   UNL A   1      43.283  26.885  29.848  1.00  0.00     0.031 C 
ATOM     61  C   UNL A   1      42.664  29.782  35.160  1.00  0.00     0.029 A 
ATOM     62  C   UNL A   1      42.452  29.346  33.861  1.00  0.00     0.049 A 
ATOM     63  H   UNL A   1      40.925  29.899  32.512  1.00  0.00     0.167 HD
ATOM     64  C   UNL A   1      42.961  28.001  31.831  1.00  0.00     0.074 A 
ATOM     65  C   UNL A   1      43.759  27.054  31.077  1.00  0.00     0.031 C 
ATOM     66  C   UNL A   1      43.244  28.411  33.093  1.00  0.00     0.034 A 
BRANCH  53  67
ATOM     67  C   UNL A   1      39.220  32.470  35.486  1.00  0.00     0.023 A 
ATOM     68  C   UNL A   1      39.701  33.782  35.670  1.00  0.00     0.031 A 
ATOM     69  C   UNL A   1      38.418  31.912  36.498  1.00  0.00     0.131 A 
ATOM     70  C   UNL A   1      39.388  34.482  36.844  1.00  0.00     0.055 A 
ATOM     71  C   UNL A   1      38.082  32.625  37.651  1.00  0.00     0.041 A 
ATOM     72  F   UNL A   1      37.934  30.665  36.373  1.00  0.00    -0.206 F 
ATOM     73  C   UNL A   1      38.577  33.913  37.832  1.00  0.00     0.022 A 
BRANCH  70  74
ATOM     74  S   UNL A   1      40.067  36.133  37.165  1.00  0.00     0.124 S 
ATOM     75  O   UNL A   1      39.875  36.789  35.873  1.00  0.00    -0.237 OA
ATOM     76  O   UNL A   1      39.208  36.615  38.242  1.00  0.00    -0.237 OA
ATOM     77  O   UNL A   1      41.456  35.877  37.533  1.00  0.00    -0.744 OA
ENDBRANCH  70  74
ENDBRANCH  53  67
BRANCH  54  78
ATOM     78  C   UNL A   1      41.537  26.947  27.423  1.00  0.00     0.023 A 
ATOM     79  C   UNL A   1      41.157  25.592  27.396  1.00  0.00     0.031 A 
ATOM     80  C   UNL A   1      42.348  27.429  26.384  1.00  0.00     0.131 A 
ATOM     81  C   UNL A   1      41.687  24.740  26.418  1.00  0.00     0.055 A 
ATOM     82  C   UNL A   1      42.803  26.594  25.362  1.00  0.00     0.041 A 
ATOM     83  F   UNL A   1      42.743  28.711  26.374  1.00  0.00    -0.206 F 
ATOM     84  C   UNL A   1      42.495  25.236  25.391  1.00  0.00     0.022 A 
BRANCH  81  85
ATOM     85  S   UNL A   1      41.495  22.941  26.557  1.00  0.00     0.124 S 
ATOM     86  O   UNL A   1      40.044  22.785  26.529  1.00  0.00    -0.237 OA
ATOM     87  O   UNL A   1      42.203  22.476  25.367  1.00  0.00    -0.237 OA
ATOM     88  O   UNL A   1      42.140  22.621  27.826  1.00  0.00    -0.744 OA
ENDBRANCH  81  85
ENDBRANCH  54  78
BRANCH  66  89
ATOM     89  C   UNL A   1      44.485  27.871  33.756  1.00  0.00     0.023 A 
ATOM     90  C   UNL A   1      44.413  26.720  34.563  1.00  0.00     0.031 A 
ATOM     91  C   UNL A   1      45.697  28.583  33.716  1.00  0.00     0.131 A 
ATOM     92  C   UNL A   1      45.518  26.342  35.335  1.00  0.00     0.055 A 
ATOM     93  C   UNL A   1      46.810  28.177  34.452  1.00  0.00     0.041 A 
ATOM     94  F   UNL A   1      45.810  29.692  32.965  1.00  0.00    -0.206 F 
ATOM     95  C   UNL A   1      46.718  27.060  35.278  1.00  0.00     0.022 A 
BRANCH  92  96
ATOM     96  S   UNL A   1      45.415  24.956  36.500  1.00  0.00     0.124 S 
ATOM     97  O   UNL A   1      45.446  23.803  35.602  1.00  0.00    -0.237 OA
ATOM     98  O   UNL A   1      46.614  25.148  37.310  1.00  0.00    -0.237 OA
ATOM     99  O   UNL A   1      44.148  25.170  37.190  1.00  0.00    -0.744 OA
ENDBRANCH  92  96
ENDBRANCH  66  89
ENDBRANCH  40  41
ENDBRANCH  32  35
ENDBRANCH  30  31
ENDBRANCH   1  30
TORSDOF 16
ENDMDL
