MODEL 1
REMARK VINA RESULT:     -12.4      0.000      0.000
REMARK SMILES CNC(=O)[C@H](C)S(=O)(=O)c1cc(C(=O)NCCCCNC(=O)c2ccc(-c3c4nc(c(-c5cc(S(=O)(=O)[O-])ccc5F)c5ccc([nH]5)c(-c5cc(S(=O)(=O)[O-])ccc5F)c5nc(c(-c6cc(S(=O)(=O)[O-])ccc6F)c6ccc3[nH]6)C=C5)C=C4)cc2)c(C)cc1C
REMARK SMILES IDX 17 1 16 2 15 3 13 4 14 5 12 7 10 8 11 9 89 10 88 11 90 12
REMARK SMILES IDX 86 13 87 14 7 15 8 16 9 17 5 18 6 19 3 20 1 21 2 22 4 24
REMARK SMILES IDX 18 25 19 26 20 27 21 28 22 30 23 31 24 32 85 33 25 34 84 35
REMARK SMILES IDX 26 36 27 37 28 38 78 39 29 40 83 41 77 42 79 43 30 44 82 45
REMARK SMILES IDX 76 46 75 47 31 49 63 50 43 51 62 52 44 53 47 54 61 55 80 56
REMARK SMILES IDX 45 57 46 58 60 60 81 61 48 62 32 63 33 64 41 65 34 66 40 67
REMARK SMILES IDX 42 68 39 69 35 70 36 71 37 72 38 73 64 74 65 75 73 76 66 77
REMARK SMILES IDX 72 78 74 79 71 80 67 81 68 82 69 83 70 84 49 85 50 86 58 87
REMARK SMILES IDX 51 88 57 89 59 90 56 91 52 92 53 93 54 94 55 95
REMARK H PARENT 15 6 2 23 20 29 79 48 47 59
REMARK Flexibility Score: inf
ROOT
ATOM      1  C   UNL A   1      30.684  29.603  24.171  1.00  0.00     0.023 C 
ENDROOT
BRANCH   1   2
ATOM      2  C   UNL A   1      30.791  28.739  22.912  1.00  0.00     0.116 C 
BRANCH   2   3
ATOM      3  N   UNL A   1      32.126  28.852  22.378  1.00  0.00    -0.352 N 
ATOM      4  C   UNL A   1      33.176  27.990  22.243  1.00  0.00     0.251 C 
ATOM      5  O   UNL A   1      34.240  28.522  21.914  1.00  0.00    -0.269 OA
ATOM      6  H   UNL A   1      32.325  29.753  22.036  1.00  0.00     0.163 HD
BRANCH   4   7
ATOM      7  C   UNL A   1      33.156  26.488  22.354  1.00  0.00     0.044 A 
ATOM      8  C   UNL A   1      33.170  24.717  24.118  1.00  0.00     0.071 A 
ATOM      9  C   UNL A   1      33.288  26.062  23.696  1.00  0.00     0.034 A 
ATOM     10  C   UNL A   1      32.927  23.734  23.167  1.00  0.00    -0.032 A 
ATOM     11  C   UNL A   1      32.836  24.137  21.826  1.00  0.00     0.009 A 
ATOM     12  C   UNL A   1      32.723  22.283  23.445  1.00  0.00     0.046 C 
ATOM     13  C   UNL A   1      32.902  25.488  21.403  1.00  0.00    -0.038 A 
ATOM     14  C   UNL A   1      32.593  25.682  19.954  1.00  0.00     0.045 C 
BRANCH   8  15
ATOM     15  S   UNL A   1      33.261  24.490  25.885  1.00  0.00     0.190 S 
ATOM     16  O   UNL A   1      32.958  25.808  26.421  1.00  0.00    -0.223 OA
ATOM     17  O   UNL A   1      34.579  23.924  26.140  1.00  0.00    -0.223 OA
BRANCH  15  18
ATOM     18  C   UNL A   1      32.150  23.370  26.613  1.00  0.00     0.199 C 
ATOM     19  C   UNL A   1      32.692  22.521  27.768  1.00  0.00     0.036 C 
BRANCH  18  20
ATOM     20  C   UNL A   1      30.686  23.664  26.804  1.00  0.00     0.238 C 
ATOM     21  C   UNL A   1      30.054  25.637  25.259  1.00  0.00     0.142 C 
ATOM     22  N   UNL A   1      29.903  24.608  26.257  1.00  0.00    -0.358 N 
ATOM     23  H   UNL A   1      28.992  24.594  26.634  1.00  0.00     0.163 HD
ATOM     24  O   UNL A   1      30.074  22.958  27.627  1.00  0.00    -0.274 OA
ENDBRANCH  18  20
ENDBRANCH  15  18
ENDBRANCH   8  15
ENDBRANCH   4   7
ENDBRANCH   2   3
ENDBRANCH   1   2
BRANCH   1  25
ATOM     25  C   UNL A   1      31.424  29.083  25.394  1.00  0.00     0.023 C 
BRANCH  25  26
ATOM     26  C   UNL A   1      32.567  29.969  25.855  1.00  0.00     0.116 C 
BRANCH  26  27
ATOM     27  N   UNL A   1      32.144  31.268  26.366  1.00  0.00    -0.352 N 
ATOM     28  C   UNL A   1      32.819  32.098  27.231  1.00  0.00     0.251 C 
ATOM     29  H   UNL A   1      31.267  31.590  26.054  1.00  0.00     0.163 HD
ATOM     30  O   UNL A   1      32.302  33.137  27.627  1.00  0.00    -0.269 OA
BRANCH  28  31
ATOM     31  C   UNL A   1      34.148  31.673  27.709  1.00  0.00     0.039 A 
ATOM     32  C   UNL A   1      35.118  32.642  27.963  1.00  0.00     0.014 A 
ATOM     33  C   UNL A   1      34.372  30.332  28.030  1.00  0.00     0.014 A 
ATOM     34  C   UNL A   1      36.288  32.276  28.628  1.00  0.00     0.010 A 
ATOM     35  C   UNL A   1      35.488  29.992  28.780  1.00  0.00     0.010 A 
ATOM     36  C   UNL A   1      36.457  30.960  29.087  1.00  0.00    -0.014 A 
BRANCH  36  37
ATOM     37  C   UNL A   1      37.649  30.558  29.874  1.00  0.00     0.031 A 
ATOM     38  C   UNL A   1      38.661  29.633  29.257  1.00  0.00     0.074 A 
ATOM     39  C   UNL A   1      37.770  30.949  31.159  1.00  0.00     0.049 A 
ATOM     40  N   UNL A   1      39.703  29.062  29.801  1.00  0.00    -0.248 NA
ATOM     41  C   UNL A   1      38.439  29.265  27.850  1.00  0.00     0.031 C 
ATOM     42  C   UNL A   1      36.818  31.796  31.882  1.00  0.00     0.029 A 
ATOM     43  N   UNL A   1      38.739  30.674  32.089  1.00  0.00    -0.354 N 
ATOM     44  C   UNL A   1      40.245  28.248  28.812  1.00  0.00     0.074 A 
ATOM     45  C   UNL A   1      39.372  28.345  27.663  1.00  0.00     0.031 C 
ATOM     46  C   UNL A   1      37.266  31.994  33.132  1.00  0.00     0.029 A 
ATOM     47  C   UNL A   1      38.512  31.257  33.315  1.00  0.00     0.049 A 
ATOM     48  H   UNL A   1      39.524  30.114  31.898  1.00  0.00     0.167 HD
ATOM     49  C   UNL A   1      41.383  27.512  28.849  1.00  0.00     0.034 A 
ATOM     50  C   UNL A   1      39.225  31.195  34.456  1.00  0.00     0.034 A 
ATOM     51  C   UNL A   1      42.258  27.457  29.993  1.00  0.00     0.049 A 
ATOM     52  C   UNL A   1      40.497  30.386  34.469  1.00  0.00     0.074 A 
ATOM     53  C   UNL A   1      43.467  26.800  30.126  1.00  0.00     0.029 A 
ATOM     54  N   UNL A   1      42.013  28.090  31.207  1.00  0.00    -0.354 N 
ATOM     55  N   UNL A   1      41.026  29.662  33.508  1.00  0.00    -0.248 NA
ATOM     56  C   UNL A   1      41.274  30.394  35.715  1.00  0.00     0.031 C 
ATOM     57  C   UNL A   1      43.930  26.993  31.433  1.00  0.00     0.029 A 
ATOM     58  C   UNL A   1      43.040  27.822  32.098  1.00  0.00     0.049 A 
ATOM     59  H   UNL A   1      41.225  28.647  31.405  1.00  0.00     0.167 HD
ATOM     60  C   UNL A   1      42.212  29.153  34.028  1.00  0.00     0.074 A 
ATOM     61  C   UNL A   1      42.327  29.665  35.379  1.00  0.00     0.031 C 
ATOM     62  C   UNL A   1      43.129  28.338  33.443  1.00  0.00     0.034 A 
BRANCH  49  63
ATOM     63  C   UNL A   1      41.722  26.708  27.619  1.00  0.00     0.023 A 
ATOM     64  C   UNL A   1      41.451  25.329  27.542  1.00  0.00     0.031 A 
ATOM     65  C   UNL A   1      42.373  27.310  26.528  1.00  0.00     0.131 A 
ATOM     66  C   UNL A   1      41.909  24.584  26.447  1.00  0.00     0.055 A 
ATOM     67  C   UNL A   1      42.749  26.577  25.400  1.00  0.00     0.041 A 
ATOM     68  F   UNL A   1      42.678  28.617  26.551  1.00  0.00    -0.206 F 
ATOM     69  C   UNL A   1      42.534  25.203  25.362  1.00  0.00     0.022 A 
BRANCH  66  70
ATOM     70  S   UNL A   1      41.819  22.775  26.536  1.00  0.00     0.124 S 
ATOM     71  O   UNL A   1      42.273  22.392  25.201  1.00  0.00    -0.237 OA
ATOM     72  O   UNL A   1      42.729  22.466  27.633  1.00  0.00    -0.237 OA
ATOM     73  O   UNL A   1      40.407  22.514  26.805  1.00  0.00    -0.744 OA
ENDBRANCH  66  70
ENDBRANCH  49  63
BRANCH  50  74
ATOM     74  C   UNL A   1      38.769  31.916  35.677  1.00  0.00     0.023 A 
ATOM     75  C   UNL A   1      38.163  31.225  36.739  1.00  0.00     0.031 A 
ATOM     76  C   UNL A   1      38.892  33.313  35.785  1.00  0.00     0.131 A 
ATOM     77  C   UNL A   1      37.659  31.935  37.839  1.00  0.00     0.055 A 
ATOM     78  C   UNL A   1      38.432  34.010  36.903  1.00  0.00     0.041 A 
ATOM     79  F   UNL A   1      39.473  34.020  34.803  1.00  0.00    -0.206 F 
ATOM     80  C   UNL A   1      37.798  33.321  37.934  1.00  0.00     0.022 A 
BRANCH  77  81
ATOM     81  S   UNL A   1      36.745  31.023  39.114  1.00  0.00     0.124 S 
ATOM     82  O   UNL A   1      36.613  29.707  38.501  1.00  0.00    -0.237 OA
ATOM     83  O   UNL A   1      37.649  31.111  40.256  1.00  0.00    -0.237 OA
ATOM     84  O   UNL A   1      35.502  31.779  39.246  1.00  0.00    -0.744 OA
ENDBRANCH  77  81
ENDBRANCH  50  74
BRANCH  62  85
ATOM     85  C   UNL A   1      44.350  27.995  34.255  1.00  0.00     0.023 A 
ATOM     86  C   UNL A   1      44.401  26.845  35.060  1.00  0.00     0.031 A 
ATOM     87  C   UNL A   1      45.474  28.839  34.228  1.00  0.00     0.131 A 
ATOM     88  C   UNL A   1      45.535  26.595  35.847  1.00  0.00     0.055 A 
ATOM     89  C   UNL A   1      46.620  28.557  34.970  1.00  0.00     0.041 A 
ATOM     90  F   UNL A   1      45.476  29.951  33.476  1.00  0.00    -0.206 F 
ATOM     91  C   UNL A   1      46.650  27.435  35.796  1.00  0.00     0.022 A 
BRANCH  88  92
ATOM     92  S   UNL A   1      45.501  25.199  37.003  1.00  0.00     0.124 S 
ATOM     93  O   UNL A   1      44.128  25.244  37.494  1.00  0.00    -0.237 OA
ATOM     94  O   UNL A   1      45.832  24.069  36.140  1.00  0.00    -0.237 OA
ATOM     95  O   UNL A   1      46.524  25.544  37.989  1.00  0.00    -0.744 OA
ENDBRANCH  88  92
ENDBRANCH  62  85
ENDBRANCH  36  37
ENDBRANCH  28  31
ENDBRANCH  26  27
ENDBRANCH  25  26
ENDBRANCH   1  25
TORSDOF 17
ENDMDL
MODEL 2
REMARK VINA RESULT:     -12.1      2.502      8.217
REMARK SMILES CNC(=O)[C@H](C)S(=O)(=O)c1cc(C(=O)NCCCCNC(=O)c2ccc(-c3c4nc(c(-c5cc(S(=O)(=O)[O-])ccc5F)c5ccc([nH]5)c(-c5cc(S(=O)(=O)[O-])ccc5F)c5nc(c(-c6cc(S(=O)(=O)[O-])ccc6F)c6ccc3[nH]6)C=C5)C=C4)cc2)c(C)cc1C
REMARK SMILES IDX 17 1 16 2 15 3 13 4 14 5 12 7 10 8 11 9 89 10 88 11 90 12
REMARK SMILES IDX 86 13 87 14 7 15 8 16 9 17 5 18 6 19 3 20 1 21 2 22 4 24
REMARK SMILES IDX 18 25 19 26 20 27 21 28 22 30 23 31 24 32 85 33 25 34 84 35
REMARK SMILES IDX 26 36 27 37 28 38 78 39 29 40 83 41 77 42 79 43 30 44 82 45
REMARK SMILES IDX 76 46 75 47 31 49 63 50 43 51 62 52 44 53 47 54 61 55 80 56
REMARK SMILES IDX 45 57 46 58 60 60 81 61 48 62 32 63 33 64 41 65 34 66 40 67
REMARK SMILES IDX 42 68 39 69 35 70 36 71 37 72 38 73 64 74 65 75 73 76 66 77
REMARK SMILES IDX 72 78 74 79 71 80 67 81 68 82 69 83 70 84 49 85 50 86 58 87
REMARK SMILES IDX 51 88 57 89 59 90 56 91 52 92 53 93 54 94 55 95
REMARK H PARENT 15 6 2 23 20 29 79 48 47 59
REMARK Flexibility Score: inf
ROOT
ATOM      1  C   UNL A   1      35.005  30.815  27.895  1.00  0.00     0.023 C 
ENDROOT
BRANCH   1   2
ATOM      2  C   UNL A   1      34.810  29.455  27.220  1.00  0.00     0.116 C 
BRANCH   2   3
ATOM      3  N   UNL A   1      34.203  29.657  25.927  1.00  0.00    -0.352 N 
ATOM      4  C   UNL A   1      33.465  28.874  25.087  1.00  0.00     0.251 C 
ATOM      5  O   UNL A   1      33.293  29.349  23.959  1.00  0.00    -0.269 OA
ATOM      6  H   UNL A   1      34.356  30.561  25.571  1.00  0.00     0.163 HD
BRANCH   4   7
ATOM      7  C   UNL A   1      32.774  27.575  25.406  1.00  0.00     0.044 A 
ATOM      8  C   UNL A   1      32.820  25.180  24.694  1.00  0.00     0.071 A 
ATOM      9  C   UNL A   1      33.197  26.535  24.546  1.00  0.00     0.034 A 
ATOM     10  C   UNL A   1      31.967  24.829  25.733  1.00  0.00    -0.032 A 
ATOM     11  C   UNL A   1      31.505  25.859  26.568  1.00  0.00     0.009 A 
ATOM     12  C   UNL A   1      31.515  23.447  26.064  1.00  0.00     0.046 C 
ATOM     13  C   UNL A   1      31.919  27.209  26.457  1.00  0.00    -0.038 A 
ATOM     14  C   UNL A   1      31.439  28.081  27.572  1.00  0.00     0.045 C 
BRANCH   8  15
ATOM     15  S   UNL A   1      33.601  24.068  23.538  1.00  0.00     0.190 S 
ATOM     16  O   UNL A   1      34.240  24.956  22.579  1.00  0.00    -0.223 OA
ATOM     17  O   UNL A   1      32.543  23.186  23.067  1.00  0.00    -0.223 OA
BRANCH  15  18
ATOM     18  C   UNL A   1      34.829  23.000  24.148  1.00  0.00     0.199 C 
ATOM     19  C   UNL A   1      34.411  21.547  24.394  1.00  0.00     0.036 C 
BRANCH  18  20
ATOM     20  C   UNL A   1      36.275  23.083  23.736  1.00  0.00     0.238 C 
ATOM     21  C   UNL A   1      37.666  23.745  25.811  1.00  0.00     0.142 C 
ATOM     22  N   UNL A   1      37.369  23.418  24.439  1.00  0.00    -0.358 N 
ATOM     23  H   UNL A   1      38.175  23.449  23.872  1.00  0.00     0.163 HD
ATOM     24  O   UNL A   1      36.533  22.843  22.541  1.00  0.00    -0.274 OA
ENDBRANCH  18  20
ENDBRANCH  15  18
ENDBRANCH   8  15
ENDBRANCH   4   7
ENDBRANCH   2   3
ENDBRANCH   1   2
BRANCH   1  25
ATOM     25  C   UNL A   1      33.806  31.750  27.859  1.00  0.00     0.023 C 
BRANCH  25  26
ATOM     26  C   UNL A   1      34.160  33.213  27.663  1.00  0.00     0.116 C 
BRANCH  26  27
ATOM     27  N   UNL A   1      33.321  34.134  28.422  1.00  0.00    -0.352 N 
ATOM     28  C   UNL A   1      33.454  34.511  29.738  1.00  0.00     0.251 C 
ATOM     29  H   UNL A   1      32.566  34.534  27.933  1.00  0.00     0.163 HD
ATOM     30  O   UNL A   1      32.625  35.247  30.263  1.00  0.00    -0.269 OA
BRANCH  28  31
ATOM     31  C   UNL A   1      34.584  33.959  30.510  1.00  0.00     0.039 A 
ATOM     32  C   UNL A   1      34.358  32.877  31.361  1.00  0.00     0.014 A 
ATOM     33  C   UNL A   1      35.878  34.430  30.276  1.00  0.00     0.014 A 
ATOM     34  C   UNL A   1      35.449  32.206  31.912  1.00  0.00     0.010 A 
ATOM     35  C   UNL A   1      36.960  33.699  30.743  1.00  0.00     0.010 A 
ATOM     36  C   UNL A   1      36.757  32.580  31.566  1.00  0.00    -0.014 A 
BRANCH  36  37
ATOM     37  C   UNL A   1      37.938  31.832  32.064  1.00  0.00     0.031 A 
ATOM     38  C   UNL A   1      38.531  32.196  33.398  1.00  0.00     0.074 A 
ATOM     39  C   UNL A   1      38.522  30.900  31.285  1.00  0.00     0.049 A 
ATOM     40  N   UNL A   1      39.624  31.760  33.966  1.00  0.00    -0.248 NA
ATOM     41  C   UNL A   1      37.819  33.225  34.171  1.00  0.00     0.031 C 
ATOM     42  C   UNL A   1      38.072  30.507  29.947  1.00  0.00     0.029 A 
ATOM     43  N   UNL A   1      39.630  30.121  31.501  1.00  0.00    -0.354 N 
ATOM     44  C   UNL A   1      39.745  32.481  35.150  1.00  0.00     0.074 A 
ATOM     45  C   UNL A   1      38.654  33.431  35.177  1.00  0.00     0.031 C 
ATOM     46  C   UNL A   1      38.878  29.543  29.476  1.00  0.00     0.029 A 
ATOM     47  C   UNL A   1      39.926  29.277  30.456  1.00  0.00     0.049 A 
ATOM     48  H   UNL A   1      40.163  30.162  32.327  1.00  0.00     0.167 HD
ATOM     49  C   UNL A   1      40.663  32.341  36.137  1.00  0.00     0.034 A 
ATOM     50  C   UNL A   1      40.934  28.395  30.305  1.00  0.00     0.034 A 
ATOM     51  C   UNL A   1      41.722  31.364  36.105  1.00  0.00     0.049 A 
ATOM     52  C   UNL A   1      41.933  28.243  31.424  1.00  0.00     0.074 A 
ATOM     53  C   UNL A   1      42.670  31.086  37.072  1.00  0.00     0.029 A 
ATOM     54  N   UNL A   1      41.970  30.500  35.045  1.00  0.00    -0.354 N 
ATOM     55  N   UNL A   1      42.005  28.895  32.562  1.00  0.00    -0.248 NA
ATOM     56  C   UNL A   1      42.980  27.230  31.242  1.00  0.00     0.031 C 
ATOM     57  C   UNL A   1      43.522  30.091  36.578  1.00  0.00     0.029 A 
ATOM     58  C   UNL A   1      43.068  29.704  35.327  1.00  0.00     0.049 A 
ATOM     59  H   UNL A   1      41.443  30.461  34.214  1.00  0.00     0.167 HD
ATOM     60  C   UNL A   1      43.088  28.348  33.243  1.00  0.00     0.074 A 
ATOM     61  C   UNL A   1      43.628  27.305  32.395  1.00  0.00     0.031 C 
ATOM     62  C   UNL A   1      43.592  28.674  34.462  1.00  0.00     0.034 A 
BRANCH  49  63
ATOM     63  C   UNL A   1      40.556  33.280  37.313  1.00  0.00     0.023 A 
ATOM     64  C   UNL A   1      39.757  32.973  38.430  1.00  0.00     0.031 A 
ATOM     65  C   UNL A   1      41.217  34.521  37.300  1.00  0.00     0.131 A 
ATOM     66  C   UNL A   1      39.564  33.928  39.437  1.00  0.00     0.055 A 
ATOM     67  C   UNL A   1      41.091  35.432  38.351  1.00  0.00     0.041 A 
ATOM     68  F   UNL A   1      41.977  34.878  36.253  1.00  0.00    -0.206 F 
ATOM     69  C   UNL A   1      40.247  35.146  39.419  1.00  0.00     0.022 A 
BRANCH  66  70
ATOM     70  S   UNL A   1      38.287  33.618  40.688  1.00  0.00     0.124 S 
ATOM     71  O   UNL A   1      38.933  32.608  41.523  1.00  0.00    -0.237 OA
ATOM     72  O   UNL A   1      38.112  34.933  41.294  1.00  0.00    -0.237 OA
ATOM     73  O   UNL A   1      37.151  33.135  39.905  1.00  0.00    -0.744 OA
ENDBRANCH  66  70
ENDBRANCH  49  63
BRANCH  50  74
ATOM     74  C   UNL A   1      41.054  27.584  29.061  1.00  0.00     0.023 A 
ATOM     75  C   UNL A   1      42.039  27.874  28.103  1.00  0.00     0.031 A 
ATOM     76  C   UNL A   1      40.159  26.534  28.790  1.00  0.00     0.131 A 
ATOM     77  C   UNL A   1      42.077  27.156  26.898  1.00  0.00     0.055 A 
ATOM     78  C   UNL A   1      40.230  25.791  27.610  1.00  0.00     0.041 A 
ATOM     79  F   UNL A   1      39.205  26.210  29.676  1.00  0.00    -0.206 F 
ATOM     80  C   UNL A   1      41.186  26.110  26.649  1.00  0.00     0.022 A 
BRANCH  77  81
ATOM     81  S   UNL A   1      43.263  27.664  25.623  1.00  0.00     0.124 S 
ATOM     82  O   UNL A   1      43.988  26.422  25.380  1.00  0.00    -0.237 OA
ATOM     83  O   UNL A   1      42.381  28.113  24.551  1.00  0.00    -0.237 OA
ATOM     84  O   UNL A   1      44.033  28.719  26.277  1.00  0.00    -0.744 OA
ENDBRANCH  77  81
ENDBRANCH  50  74
BRANCH  62  85
ATOM     85  C   UNL A   1      44.757  27.858  34.956  1.00  0.00     0.023 A 
ATOM     86  C   UNL A   1      44.571  26.647  35.643  1.00  0.00     0.031 A 
ATOM     87  C   UNL A   1      46.073  28.306  34.741  1.00  0.00     0.131 A 
ATOM     88  C   UNL A   1      45.683  25.949  36.137  1.00  0.00     0.055 A 
ATOM     89  C   UNL A   1      47.176  27.579  35.187  1.00  0.00     0.041 A 
ATOM     90  F   UNL A   1      46.305  29.457  34.090  1.00  0.00    -0.206 F 
ATOM     91  C   UNL A   1      46.984  26.399  35.901  1.00  0.00     0.022 A 
BRANCH  88  92
ATOM     92  S   UNL A   1      45.401  24.483  37.168  1.00  0.00     0.124 S 
ATOM     93  O   UNL A   1      46.718  24.269  37.758  1.00  0.00    -0.237 OA
ATOM     94  O   UNL A   1      44.359  24.939  38.082  1.00  0.00    -0.237 OA
ATOM     95  O   UNL A   1      44.979  23.465  36.207  1.00  0.00    -0.744 OA
ENDBRANCH  88  92
ENDBRANCH  62  85
ENDBRANCH  36  37
ENDBRANCH  28  31
ENDBRANCH  26  27
ENDBRANCH  25  26
ENDBRANCH   1  25
TORSDOF 17
ENDMDL
MODEL 3
REMARK VINA RESULT:     -12.1      2.099      7.721
REMARK SMILES CNC(=O)[C@H](C)S(=O)(=O)c1cc(C(=O)NCCCCNC(=O)c2ccc(-c3c4nc(c(-c5cc(S(=O)(=O)[O-])ccc5F)c5ccc([nH]5)c(-c5cc(S(=O)(=O)[O-])ccc5F)c5nc(c(-c6cc(S(=O)(=O)[O-])ccc6F)c6ccc3[nH]6)C=C5)C=C4)cc2)c(C)cc1C
REMARK SMILES IDX 17 1 16 2 15 3 13 4 14 5 12 7 10 8 11 9 89 10 88 11 90 12
REMARK SMILES IDX 86 13 87 14 7 15 8 16 9 17 5 18 6 19 3 20 1 21 2 22 4 24
REMARK SMILES IDX 18 25 19 26 20 27 21 28 22 30 23 31 24 32 85 33 25 34 84 35
REMARK SMILES IDX 26 36 27 37 28 38 78 39 29 40 83 41 77 42 79 43 30 44 82 45
REMARK SMILES IDX 76 46 75 47 31 49 63 50 43 51 62 52 44 53 47 54 61 55 80 56
REMARK SMILES IDX 45 57 46 58 60 60 81 61 48 62 32 63 33 64 41 65 34 66 40 67
REMARK SMILES IDX 42 68 39 69 35 70 36 71 37 72 38 73 64 74 65 75 73 76 66 77
REMARK SMILES IDX 72 78 74 79 71 80 67 81 68 82 69 83 70 84 49 85 50 86 58 87
REMARK SMILES IDX 51 88 57 89 59 90 56 91 52 92 53 93 54 94 55 95
REMARK H PARENT 15 6 2 23 20 29 79 48 47 59
REMARK Flexibility Score: inf
ROOT
ATOM      1  C   UNL A   1      31.171  29.333  24.265  1.00  0.00     0.023 C 
ENDROOT
BRANCH   1   2
ATOM      2  C   UNL A   1      31.164  28.562  22.942  1.00  0.00     0.116 C 
BRANCH   2   3
ATOM      3  N   UNL A   1      32.480  28.626  22.356  1.00  0.00    -0.352 N 
ATOM      4  C   UNL A   1      33.475  27.716  22.142  1.00  0.00     0.251 C 
ATOM      5  O   UNL A   1      34.552  28.205  21.787  1.00  0.00    -0.269 OA
ATOM      6  H   UNL A   1      32.713  29.528  22.039  1.00  0.00     0.163 HD
BRANCH   4   7
ATOM      7  C   UNL A   1      33.379  26.214  22.197  1.00  0.00     0.044 A 
ATOM      8  C   UNL A   1      33.414  24.373  23.886  1.00  0.00     0.071 A 
ATOM      9  C   UNL A   1      33.578  25.726  23.509  1.00  0.00     0.034 A 
ATOM     10  C   UNL A   1      33.052  23.445  22.918  1.00  0.00    -0.032 A 
ATOM     11  C   UNL A   1      32.893  23.908  21.603  1.00  0.00     0.009 A 
ATOM     12  C   UNL A   1      32.786  21.996  23.154  1.00  0.00     0.046 C 
ATOM     13  C   UNL A   1      33.005  25.270  21.228  1.00  0.00    -0.038 A 
ATOM     14  C   UNL A   1      32.609  25.541  19.813  1.00  0.00     0.045 C 
BRANCH   8  15
ATOM     15  S   UNL A   1      33.612  24.067  25.633  1.00  0.00     0.190 S 
ATOM     16  O   UNL A   1      33.449  25.381  26.237  1.00  0.00    -0.223 OA
ATOM     17  O   UNL A   1      34.897  23.396  25.769  1.00  0.00    -0.223 OA
BRANCH  15  18
ATOM     18  C   UNL A   1      32.472  23.003  26.401  1.00  0.00     0.199 C 
ATOM     19  C   UNL A   1      32.762  22.626  27.857  1.00  0.00     0.036 C 
BRANCH  18  20
ATOM     20  C   UNL A   1      30.990  23.055  26.143  1.00  0.00     0.238 C 
ATOM     21  C   UNL A   1      30.310  25.532  25.858  1.00  0.00     0.142 C 
ATOM     22  N   UNL A   1      30.167  24.102  25.964  1.00  0.00    -0.358 N 
ATOM     23  H   UNL A   1      29.226  23.820  25.886  1.00  0.00     0.163 HD
ATOM     24  O   UNL A   1      30.385  21.967  26.124  1.00  0.00    -0.274 OA
ENDBRANCH  18  20
ENDBRANCH  15  18
ENDBRANCH   8  15
ENDBRANCH   4   7
ENDBRANCH   2   3
ENDBRANCH   1   2
BRANCH   1  25
ATOM     25  C   UNL A   1      32.041  28.748  25.367  1.00  0.00     0.023 C 
BRANCH  25  26
ATOM     26  C   UNL A   1      33.206  29.630  25.778  1.00  0.00     0.116 C 
BRANCH  26  27
ATOM     27  N   UNL A   1      32.807  30.905  26.363  1.00  0.00    -0.352 N 
ATOM     28  C   UNL A   1      33.470  31.642  27.318  1.00  0.00     0.251 C 
ATOM     29  H   UNL A   1      31.960  31.285  26.036  1.00  0.00     0.163 HD
ATOM     30  O   UNL A   1      32.974  32.671  27.766  1.00  0.00    -0.269 OA
BRANCH  28  31
ATOM     31  C   UNL A   1      34.757  31.129  27.824  1.00  0.00     0.039 A 
ATOM     32  C   UNL A   1      35.836  32.005  27.942  1.00  0.00     0.014 A 
ATOM     33  C   UNL A   1      34.840  29.819  28.304  1.00  0.00     0.014 A 
ATOM     34  C   UNL A   1      36.976  31.591  28.629  1.00  0.00     0.010 A 
ATOM     35  C   UNL A   1      35.933  29.447  29.072  1.00  0.00     0.010 A 
ATOM     36  C   UNL A   1      37.012  30.328  29.243  1.00  0.00    -0.014 A 
BRANCH  36  37
ATOM     37  C   UNL A   1      38.174  29.891  30.055  1.00  0.00     0.031 A 
ATOM     38  C   UNL A   1      38.362  30.458  31.436  1.00  0.00     0.074 A 
ATOM     39  C   UNL A   1      39.096  29.064  29.521  1.00  0.00     0.049 A 
ATOM     40  N   UNL A   1      39.362  30.309  32.264  1.00  0.00    -0.248 NA
ATOM     41  C   UNL A   1      37.301  31.350  31.927  1.00  0.00     0.031 C 
ATOM     42  C   UNL A   1      39.050  28.501  28.170  1.00  0.00     0.029 A 
ATOM     43  N   UNL A   1      40.258  28.563  30.048  1.00  0.00    -0.354 N 
ATOM     44  C   UNL A   1      39.063  31.110  33.361  1.00  0.00     0.074 A 
ATOM     45  C   UNL A   1      37.826  31.796  33.056  1.00  0.00     0.031 C 
ATOM     46  C   UNL A   1      40.120  27.711  27.985  1.00  0.00     0.029 A 
ATOM     47  C   UNL A   1      40.949  27.743  29.185  1.00  0.00     0.049 A 
ATOM     48  H   UNL A   1      40.571  28.771  30.957  1.00  0.00     0.167 HD
ATOM     49  C   UNL A   1      39.741  31.237  34.528  1.00  0.00     0.034 A 
ATOM     50  C   UNL A   1      42.121  27.097  29.345  1.00  0.00     0.034 A 
ATOM     51  C   UNL A   1      40.953  30.517  34.825  1.00  0.00     0.049 A 
ATOM     52  C   UNL A   1      42.849  27.238  30.658  1.00  0.00     0.074 A 
ATOM     53  C   UNL A   1      41.693  30.515  35.993  1.00  0.00     0.029 A 
ATOM     54  N   UNL A   1      41.606  29.666  33.940  1.00  0.00    -0.354 N 
ATOM     55  N   UNL A   1      42.527  27.958  31.709  1.00  0.00    -0.248 NA
ATOM     56  C   UNL A   1      44.092  26.471  30.811  1.00  0.00     0.031 C 
ATOM     57  C   UNL A   1      42.817  29.704  35.799  1.00  0.00     0.029 A 
ATOM     58  C   UNL A   1      42.748  29.150  34.530  1.00  0.00     0.049 A 
ATOM     59  H   UNL A   1      41.300  29.460  33.026  1.00  0.00     0.167 HD
ATOM     60  C   UNL A   1      43.514  27.707  32.656  1.00  0.00     0.074 A 
ATOM     61  C   UNL A   1      44.432  26.759  32.058  1.00  0.00     0.031 C 
ATOM     62  C   UNL A   1      43.651  28.210  33.911  1.00  0.00     0.034 A 
BRANCH  49  63
ATOM     63  C   UNL A   1      39.182  32.199  35.547  1.00  0.00     0.023 A 
ATOM     64  C   UNL A   1      39.616  33.535  35.615  1.00  0.00     0.031 A 
ATOM     65  C   UNL A   1      38.243  31.765  36.499  1.00  0.00     0.131 A 
ATOM     66  C   UNL A   1      39.187  34.360  36.663  1.00  0.00     0.055 A 
ATOM     67  C   UNL A   1      37.751  32.619  37.489  1.00  0.00     0.041 A 
ATOM     68  F   UNL A   1      37.806  30.495  36.499  1.00  0.00    -0.206 F 
ATOM     69  C   UNL A   1      38.237  33.920  37.586  1.00  0.00     0.022 A 
BRANCH  66  70
ATOM     70  S   UNL A   1      40.008  35.961  36.894  1.00  0.00     0.124 S 
ATOM     71  O   UNL A   1      41.390  35.550  37.131  1.00  0.00    -0.237 OA
ATOM     72  O   UNL A   1      39.750  36.634  35.626  1.00  0.00    -0.237 OA
ATOM     73  O   UNL A   1      39.327  36.532  38.054  1.00  0.00    -0.744 OA
ENDBRANCH  66  70
ENDBRANCH  49  63
BRANCH  50  74
ATOM     74  C   UNL A   1      42.681  26.257  28.250  1.00  0.00     0.023 A 
ATOM     75  C   UNL A   1      43.800  26.683  27.515  1.00  0.00     0.031 A 
ATOM     76  C   UNL A   1      42.082  25.037  27.890  1.00  0.00     0.131 A 
ATOM     77  C   UNL A   1      44.256  25.921  26.429  1.00  0.00     0.055 A 
ATOM     78  C   UNL A   1      42.569  24.259  26.839  1.00  0.00     0.041 A 
ATOM     79  F   UNL A   1      41.016  24.580  28.566  1.00  0.00    -0.206 F 
ATOM     80  C   UNL A   1      43.655  24.707  26.092  1.00  0.00     0.022 A 
BRANCH  77  81
ATOM     81  S   UNL A   1      45.604  26.582  25.411  1.00  0.00     0.124 S 
ATOM     82  O   UNL A   1      45.940  25.433  24.579  1.00  0.00    -0.237 OA
ATOM     83  O   UNL A   1      44.952  27.697  24.733  1.00  0.00    -0.237 OA
ATOM     84  O   UNL A   1      46.618  26.959  26.394  1.00  0.00    -0.744 OA
ENDBRANCH  77  81
ENDBRANCH  50  74
BRANCH  62  85
ATOM     85  C   UNL A   1      44.813  27.702  34.723  1.00  0.00     0.023 A 
ATOM     86  C   UNL A   1      44.728  26.516  35.471  1.00  0.00     0.031 A 
ATOM     87  C   UNL A   1      46.020  28.423  34.753  1.00  0.00     0.131 A 
ATOM     88  C   UNL A   1      45.815  26.112  36.261  1.00  0.00     0.055 A 
ATOM     89  C   UNL A   1      47.116  27.987  35.496  1.00  0.00     0.041 A 
ATOM     90  F   UNL A   1      46.153  29.563  34.055  1.00  0.00    -0.206 F 
ATOM     91  C   UNL A   1      47.013  26.831  36.267  1.00  0.00     0.022 A 
BRANCH  88  92
ATOM     92  S   UNL A   1      45.613  24.674  37.348  1.00  0.00     0.124 S 
ATOM     93  O   UNL A   1      44.676  23.851  36.591  1.00  0.00    -0.237 OA
ATOM     94  O   UNL A   1      46.976  24.162  37.446  1.00  0.00    -0.237 OA
ATOM     95  O   UNL A   1      45.078  25.249  38.581  1.00  0.00    -0.744 OA
ENDBRANCH  88  92
ENDBRANCH  62  85
ENDBRANCH  36  37
ENDBRANCH  28  31
ENDBRANCH  26  27
ENDBRANCH  25  26
ENDBRANCH   1  25
TORSDOF 17
ENDMDL
