MODEL 1
REMARK VINA RESULT:     -11.9      0.000      0.000
REMARK SMILES Cc1cccc(CS[C@@H]2CC[C@]([NH3+])(C(=O)NCCCCNC(=O)c3ccc(-c4c5nc(c(-c6cc(S(=O)(=O)[O-])ccc6F)c6ccc([nH]6)c(-c6cc(S(=O)(=O)[O-])ccc6F)c6nc(c(-c7cc(S(=O)(=O)[O-])ccc7F)c7ccc4[nH]7)C=C6)C=C5)cc3)C2)c1
REMARK SMILES IDX 18 1 17 2 16 3 14 4 15 5 12 7 9 8 10 9 87 10 11 11 8 12 7 13
REMARK SMILES IDX 6 14 1 15 2 16 3 17 88 18 4 19 5 20 13 21 19 25 20 26 21 27
REMARK SMILES IDX 22 28 23 30 24 31 25 32 86 33 26 34 85 35 27 36 28 37 29 38
REMARK SMILES IDX 79 39 30 40 84 41 78 42 80 43 31 44 83 45 77 46 76 47 32 49
REMARK SMILES IDX 64 50 44 51 63 52 45 53 48 54 62 55 81 56 46 57 47 58 61 60
REMARK SMILES IDX 82 61 49 62 33 63 34 64 42 65 35 66 41 67 43 68 40 69 36 70
REMARK SMILES IDX 37 71 38 72 39 73 65 74 66 75 74 76 67 77 73 78 75 79 72 80
REMARK SMILES IDX 68 81 69 82 70 83 71 84 50 85 51 86 59 87 52 88 58 89 60 90
REMARK SMILES IDX 57 91 53 92 54 93 55 94 56 95
REMARK H PARENT 16 6 13 22 13 23 13 24 21 29 80 48 48 59
REMARK Flexibility Score: inf
ROOT
ATOM      1  C   UNL A   1      37.038  21.708  24.421  1.00  0.00     0.023 C 
ENDROOT
BRANCH   1   2
ATOM      2  C   UNL A   1      36.594  23.141  24.118  1.00  0.00     0.116 C 
BRANCH   2   3
ATOM      3  N   UNL A   1      35.633  23.238  23.026  1.00  0.00    -0.351 N 
ATOM      4  C   UNL A   1      34.274  23.394  23.066  1.00  0.00     0.281 C 
ATOM      5  O   UNL A   1      33.682  23.466  21.981  1.00  0.00    -0.268 OA
ATOM      6  H   UNL A   1      36.020  23.184  22.123  1.00  0.00     0.163 HD
BRANCH   4   7
ATOM      7  C   UNL A   1      33.489  23.371  24.411  1.00  0.00     0.175 C 
ATOM      8  C   UNL A   1      31.570  24.257  25.624  1.00  0.00     0.054 C 
ATOM      9  C   UNL A   1      32.826  24.649  26.400  1.00  0.00     0.022 C 
ATOM     10  C   UNL A   1      32.038  23.891  24.214  1.00  0.00     0.093 C 
ATOM     11  C   UNL A   1      34.001  24.363  25.466  1.00  0.00     0.080 C 
BRANCH   8  12
ATOM     12  S   UNL A   1      30.145  25.389  25.830  1.00  0.00    -0.154 SA
BRANCH  12  13
ATOM     13  C   UNL A   1      30.401  26.671  24.561  1.00  0.00     0.105 C 
BRANCH  13  14
ATOM     14  C   UNL A   1      31.717  27.394  24.605  1.00  0.00    -0.038 A 
ATOM     15  C   UNL A   1      33.778  29.274  27.191  1.00  0.00     0.044 C 
ATOM     16  C   UNL A   1      33.356  28.656  25.893  1.00  0.00    -0.051 A 
ATOM     17  C   UNL A   1      34.125  28.825  24.738  1.00  0.00     0.003 A 
ATOM     18  C   UNL A   1      32.163  27.933  25.819  1.00  0.00     0.008 A 
ATOM     19  C   UNL A   1      33.716  28.258  23.532  1.00  0.00     0.001 A 
ATOM     20  C   UNL A   1      32.523  27.536  23.466  1.00  0.00     0.004 A 
ENDBRANCH  13  14
ENDBRANCH  12  13
ENDBRANCH   8  12
BRANCH   7  21
ATOM     21  N   UNL A   1      33.463  21.975  24.910  1.00  0.00    -0.345 N 
ATOM     22  H   UNL A   1      32.496  21.673  25.027  1.00  0.00     0.345 HD
ATOM     23  H   UNL A   1      33.945  21.926  25.807  1.00  0.00     0.345 HD
ATOM     24  H   UNL A   1      33.930  21.366  24.238  1.00  0.00     0.345 HD
ENDBRANCH   7  21
ENDBRANCH   4   7
ENDBRANCH   2   3
ENDBRANCH   1   2
BRANCH   1  25
ATOM     25  C   UNL A   1      38.177  21.560  25.423  1.00  0.00     0.023 C 
BRANCH  25  26
ATOM     26  C   UNL A   1      38.676  22.864  26.032  1.00  0.00     0.116 C 
BRANCH  26  27
ATOM     27  N   UNL A   1      40.084  22.883  26.404  1.00  0.00    -0.352 N 
ATOM     28  C   UNL A   1      40.867  23.963  26.789  1.00  0.00     0.251 C 
ATOM     29  H   UNL A   1      40.543  22.012  26.379  1.00  0.00     0.163 HD
ATOM     30  O   UNL A   1      42.066  23.841  26.982  1.00  0.00    -0.269 OA
BRANCH  28  31
ATOM     31  C   UNL A   1      40.201  25.259  27.092  1.00  0.00     0.039 A 
ATOM     32  C   UNL A   1      40.581  26.371  26.330  1.00  0.00     0.014 A 
ATOM     33  C   UNL A   1      39.425  25.427  28.233  1.00  0.00     0.014 A 
ATOM     34  C   UNL A   1      40.410  27.650  26.854  1.00  0.00     0.010 A 
ATOM     35  C   UNL A   1      39.351  26.681  28.805  1.00  0.00     0.010 A 
ATOM     36  C   UNL A   1      39.910  27.782  28.148  1.00  0.00    -0.014 A 
BRANCH  36  37
ATOM     37  C   UNL A   1      40.050  28.994  28.945  1.00  0.00     0.031 A 
ATOM     38  C   UNL A   1      39.022  30.050  28.904  1.00  0.00     0.074 A 
ATOM     39  C   UNL A   1      41.090  29.115  29.800  1.00  0.00     0.049 A 
ATOM     40  N   UNL A   1      39.193  31.244  29.357  1.00  0.00    -0.248 NA
ATOM     41  C   UNL A   1      37.726  29.865  28.264  1.00  0.00     0.031 C 
ATOM     42  C   UNL A   1      41.259  30.110  30.852  1.00  0.00     0.029 A 
ATOM     43  N   UNL A   1      42.345  28.518  29.680  1.00  0.00    -0.354 N 
ATOM     44  C   UNL A   1      37.973  31.872  29.370  1.00  0.00     0.074 A 
ATOM     45  C   UNL A   1      37.138  31.029  28.550  1.00  0.00     0.031 C 
ATOM     46  C   UNL A   1      42.570  30.279  31.075  1.00  0.00     0.029 A 
ATOM     47  C   UNL A   1      43.282  29.491  30.091  1.00  0.00     0.049 A 
ATOM     48  H   UNL A   1      42.538  27.603  29.371  1.00  0.00     0.167 HD
ATOM     49  C   UNL A   1      37.807  32.951  30.189  1.00  0.00     0.034 A 
ATOM     50  C   UNL A   1      44.218  29.968  29.219  1.00  0.00     0.034 A 
ATOM     51  C   UNL A   1      39.108  33.463  30.664  1.00  0.00     0.049 A 
ATOM     52  C   UNL A   1      44.085  31.457  28.956  1.00  0.00     0.074 A 
ATOM     53  C   UNL A   1      39.766  33.530  31.881  1.00  0.00     0.029 A 
ATOM     54  N   UNL A   1      40.054  33.828  29.713  1.00  0.00    -0.354 N 
ATOM     55  N   UNL A   1      43.150  32.206  29.478  1.00  0.00    -0.248 NA
ATOM     56  C   UNL A   1      44.942  32.215  28.047  1.00  0.00     0.031 C 
ATOM     57  C   UNL A   1      41.126  33.905  31.635  1.00  0.00     0.029 A 
ATOM     58  C   UNL A   1      41.288  34.091  30.274  1.00  0.00     0.049 A 
ATOM     59  H   UNL A   1      39.865  33.892  28.748  1.00  0.00     0.167 HD
ATOM     60  C   UNL A   1      43.250  33.485  29.010  1.00  0.00     0.074 A 
ATOM     61  C   UNL A   1      44.383  33.439  28.100  1.00  0.00     0.031 C 
ATOM     62  C   UNL A   1      42.386  34.474  29.393  1.00  0.00     0.034 A 
BRANCH  49  63
ATOM     63  C   UNL A   1      36.467  33.452  30.719  1.00  0.00     0.023 A 
ATOM     64  C   UNL A   1      35.575  34.094  29.829  1.00  0.00     0.031 A 
ATOM     65  C   UNL A   1      36.034  33.438  32.065  1.00  0.00     0.131 A 
ATOM     66  C   UNL A   1      34.381  34.701  30.279  1.00  0.00     0.055 A 
ATOM     67  C   UNL A   1      34.842  34.026  32.509  1.00  0.00     0.041 A 
ATOM     68  F   UNL A   1      36.728  32.869  33.050  1.00  0.00    -0.206 F 
ATOM     69  C   UNL A   1      34.012  34.672  31.618  1.00  0.00     0.022 A 
BRANCH  66  70
ATOM     70  S   UNL A   1      33.324  35.582  29.097  1.00  0.00     0.124 S 
ATOM     71  O   UNL A   1      34.304  36.248  28.246  1.00  0.00    -0.237 OA
ATOM     72  O   UNL A   1      32.566  34.495  28.490  1.00  0.00    -0.237 OA
ATOM     73  O   UNL A   1      32.541  36.479  29.947  1.00  0.00    -0.744 OA
ENDBRANCH  66  70
ENDBRANCH  49  63
BRANCH  50  74
ATOM     74  C   UNL A   1      44.702  28.901  28.290  1.00  0.00     0.023 A 
ATOM     75  C   UNL A   1      45.467  27.866  28.881  1.00  0.00     0.031 A 
ATOM     76  C   UNL A   1      44.093  28.639  27.058  1.00  0.00     0.131 A 
ATOM     77  C   UNL A   1      45.410  26.563  28.368  1.00  0.00     0.055 A 
ATOM     78  C   UNL A   1      44.137  27.357  26.488  1.00  0.00     0.041 A 
ATOM     79  F   UNL A   1      43.331  29.565  26.458  1.00  0.00    -0.206 F 
ATOM     80  C   UNL A   1      44.745  26.301  27.171  1.00  0.00     0.022 A 
BRANCH  77  81
ATOM     81  S   UNL A   1      45.911  25.180  29.447  1.00  0.00     0.124 S 
ATOM     82  O   UNL A   1      45.937  24.059  28.516  1.00  0.00    -0.237 OA
ATOM     83  O   UNL A   1      47.209  25.614  29.960  1.00  0.00    -0.237 OA
ATOM     84  O   UNL A   1      44.859  25.140  30.461  1.00  0.00    -0.744 OA
ENDBRANCH  77  81
ENDBRANCH  50  74
BRANCH  62  85
ATOM     85  C   UNL A   1      42.502  35.905  28.929  1.00  0.00     0.023 A 
ATOM     86  C   UNL A   1      43.155  36.888  29.689  1.00  0.00     0.031 A 
ATOM     87  C   UNL A   1      41.897  36.345  27.730  1.00  0.00     0.131 A 
ATOM     88  C   UNL A   1      43.274  38.204  29.213  1.00  0.00     0.055 A 
ATOM     89  C   UNL A   1      41.943  37.675  27.301  1.00  0.00     0.041 A 
ATOM     90  F   UNL A   1      41.266  35.498  26.904  1.00  0.00    -0.206 F 
ATOM     91  C   UNL A   1      42.652  38.612  28.035  1.00  0.00     0.022 A 
BRANCH  88  92
ATOM     92  S   UNL A   1      44.343  39.351  30.120  1.00  0.00     0.124 S 
ATOM     93  O   UNL A   1      43.737  39.367  31.447  1.00  0.00    -0.237 OA
ATOM     94  O   UNL A   1      45.640  38.688  30.022  1.00  0.00    -0.237 OA
ATOM     95  O   UNL A   1      44.228  40.599  29.367  1.00  0.00    -0.744 OA
ENDBRANCH  88  92
ENDBRANCH  62  85
ENDBRANCH  36  37
ENDBRANCH  28  31
ENDBRANCH  26  27
ENDBRANCH  25  26
ENDBRANCH   1  25
TORSDOF 18
ENDMDL
MODEL 2
REMARK VINA RESULT:     -11.8      4.044     10.512
REMARK SMILES Cc1cccc(CS[C@@H]2CC[C@]([NH3+])(C(=O)NCCCCNC(=O)c3ccc(-c4c5nc(c(-c6cc(S(=O)(=O)[O-])ccc6F)c6ccc([nH]6)c(-c6cc(S(=O)(=O)[O-])ccc6F)c6nc(c(-c7cc(S(=O)(=O)[O-])ccc7F)c7ccc4[nH]7)C=C6)C=C5)cc3)C2)c1
REMARK SMILES IDX 18 1 17 2 16 3 14 4 15 5 12 7 9 8 10 9 87 10 11 11 8 12 7 13
REMARK SMILES IDX 6 14 1 15 2 16 3 17 88 18 4 19 5 20 13 21 19 25 20 26 21 27
REMARK SMILES IDX 22 28 23 30 24 31 25 32 86 33 26 34 85 35 27 36 28 37 29 38
REMARK SMILES IDX 79 39 30 40 84 41 78 42 80 43 31 44 83 45 77 46 76 47 32 49
REMARK SMILES IDX 64 50 44 51 63 52 45 53 48 54 62 55 81 56 46 57 47 58 61 60
REMARK SMILES IDX 82 61 49 62 33 63 34 64 42 65 35 66 41 67 43 68 40 69 36 70
REMARK SMILES IDX 37 71 38 72 39 73 65 74 66 75 74 76 67 77 73 78 75 79 72 80
REMARK SMILES IDX 68 81 69 82 70 83 71 84 50 85 51 86 59 87 52 88 58 89 60 90
REMARK SMILES IDX 57 91 53 92 54 93 55 94 56 95
REMARK H PARENT 16 6 13 22 13 23 13 24 21 29 80 48 48 59
REMARK Flexibility Score: inf
ROOT
ATOM      1  C   UNL A   1      32.565  29.946  25.676  1.00  0.00     0.023 C 
ENDROOT
BRANCH   1   2
ATOM      2  C   UNL A   1      33.431  28.723  25.361  1.00  0.00     0.116 C 
BRANCH   2   3
ATOM      3  N   UNL A   1      34.022  28.751  24.028  1.00  0.00    -0.351 N 
ATOM      4  C   UNL A   1      33.669  28.065  22.898  1.00  0.00     0.281 C 
ATOM      5  O   UNL A   1      34.331  28.282  21.876  1.00  0.00    -0.268 OA
ATOM      6  H   UNL A   1      34.793  29.354  23.926  1.00  0.00     0.163 HD
BRANCH   4   7
ATOM      7  C   UNL A   1      32.553  26.977  22.919  1.00  0.00     0.175 C 
ATOM      8  C   UNL A   1      31.674  25.034  24.097  1.00  0.00     0.054 C 
ATOM      9  C   UNL A   1      32.038  24.589  22.681  1.00  0.00     0.022 C 
ATOM     10  C   UNL A   1      32.418  26.349  24.334  1.00  0.00     0.093 C 
ATOM     11  C   UNL A   1      32.866  25.726  22.085  1.00  0.00     0.080 C 
BRANCH   8  12
ATOM     12  S   UNL A   1      31.752  23.718  25.368  1.00  0.00    -0.154 SA
BRANCH  12  13
ATOM     13  C   UNL A   1      32.444  22.281  24.488  1.00  0.00     0.105 C 
BRANCH  13  14
ATOM     14  C   UNL A   1      33.885  21.962  24.769  1.00  0.00    -0.038 A 
ATOM     15  C   UNL A   1      37.058  23.895  25.584  1.00  0.00     0.044 C 
ATOM     16  C   UNL A   1      36.125  22.756  25.306  1.00  0.00    -0.051 A 
ATOM     17  C   UNL A   1      36.603  21.445  25.226  1.00  0.00     0.003 A 
ATOM     18  C   UNL A   1      34.768  23.002  25.088  1.00  0.00     0.008 A 
ATOM     19  C   UNL A   1      35.729  20.393  24.953  1.00  0.00     0.001 A 
ATOM     20  C   UNL A   1      34.374  20.648  24.736  1.00  0.00     0.004 A 
ENDBRANCH  13  14
ENDBRANCH  12  13
ENDBRANCH   8  12
BRANCH   7  21
ATOM     21  N   UNL A   1      31.275  27.616  22.526  1.00  0.00    -0.345 N 
ATOM     22  H   UNL A   1      30.919  28.173  23.302  1.00  0.00     0.345 HD
ATOM     23  H   UNL A   1      30.595  26.896  22.284  1.00  0.00     0.345 HD
ATOM     24  H   UNL A   1      31.431  28.221  21.718  1.00  0.00     0.345 HD
ENDBRANCH   7  21
ENDBRANCH   4   7
ENDBRANCH   2   3
ENDBRANCH   1   2
BRANCH   1  25
ATOM     25  C   UNL A   1      32.979  30.760  26.896  1.00  0.00     0.023 C 
BRANCH  25  26
ATOM     26  C   UNL A   1      34.243  30.278  27.596  1.00  0.00     0.116 C 
BRANCH  26  27
ATOM     27  N   UNL A   1      34.993  31.303  28.310  1.00  0.00    -0.352 N 
ATOM     28  C   UNL A   1      36.208  31.188  28.973  1.00  0.00     0.251 C 
ATOM     29  H   UNL A   1      34.584  32.199  28.324  1.00  0.00     0.163 HD
ATOM     30  O   UNL A   1      36.672  32.118  29.611  1.00  0.00    -0.269 OA
BRANCH  28  31
ATOM     31  C   UNL A   1      37.009  29.947  28.792  1.00  0.00     0.039 A 
ATOM     32  C   UNL A   1      37.150  29.105  29.902  1.00  0.00     0.014 A 
ATOM     33  C   UNL A   1      37.789  29.746  27.659  1.00  0.00     0.014 A 
ATOM     34  C   UNL A   1      38.244  28.244  29.973  1.00  0.00     0.010 A 
ATOM     35  C   UNL A   1      38.930  28.977  27.769  1.00  0.00     0.010 A 
ATOM     36  C   UNL A   1      39.194  28.285  28.955  1.00  0.00    -0.014 A 
BRANCH  36  37
ATOM     37  C   UNL A   1      40.543  27.751  29.093  1.00  0.00     0.031 A 
ATOM     38  C   UNL A   1      40.852  26.365  28.696  1.00  0.00     0.074 A 
ATOM     39  C   UNL A   1      41.544  28.560  29.505  1.00  0.00     0.049 A 
ATOM     40  N   UNL A   1      41.929  25.740  29.027  1.00  0.00    -0.248 NA
ATOM     41  C   UNL A   1      39.918  25.531  27.951  1.00  0.00     0.031 C 
ATOM     42  C   UNL A   1      42.976  28.292  29.455  1.00  0.00     0.029 A 
ATOM     43  N   UNL A   1      41.428  29.681  30.327  1.00  0.00    -0.354 N 
ATOM     44  C   UNL A   1      41.988  24.579  28.300  1.00  0.00     0.074 A 
ATOM     45  C   UNL A   1      40.656  24.432  27.768  1.00  0.00     0.031 C 
ATOM     46  C   UNL A   1      43.578  29.001  30.420  1.00  0.00     0.029 A 
ATOM     47  C   UNL A   1      42.540  29.647  31.195  1.00  0.00     0.049 A 
ATOM     48  H   UNL A   1      40.714  30.360  30.304  1.00  0.00     0.167 HD
ATOM     49  C   UNL A   1      43.201  23.973  28.140  1.00  0.00     0.034 A 
ATOM     50  C   UNL A   1      42.366  29.528  32.544  1.00  0.00     0.034 A 
ATOM     51  C   UNL A   1      44.193  24.511  29.092  1.00  0.00     0.049 A 
ATOM     52  C   UNL A   1      42.974  28.259  33.115  1.00  0.00     0.074 A 
ATOM     53  C   UNL A   1      45.350  25.268  29.001  1.00  0.00     0.029 A 
ATOM     54  N   UNL A   1      43.896  24.453  30.449  1.00  0.00    -0.354 N 
ATOM     55  N   UNL A   1      43.572  27.350  32.390  1.00  0.00    -0.248 NA
ATOM     56  C   UNL A   1      42.911  27.873  34.523  1.00  0.00     0.031 C 
ATOM     57  C   UNL A   1      45.715  25.689  30.321  1.00  0.00     0.029 A 
ATOM     58  C   UNL A   1      44.797  25.166  31.214  1.00  0.00     0.049 A 
ATOM     59  H   UNL A   1      43.129  23.958  30.821  1.00  0.00     0.167 HD
ATOM     60  C   UNL A   1      43.960  26.299  33.171  1.00  0.00     0.074 A 
ATOM     61  C   UNL A   1      43.507  26.666  34.503  1.00  0.00     0.031 C 
ATOM     62  C   UNL A   1      44.603  25.206  32.661  1.00  0.00     0.034 A 
BRANCH  49  63
ATOM     63  C   UNL A   1      43.562  23.018  27.006  1.00  0.00     0.023 A 
ATOM     64  C   UNL A   1      42.972  21.733  26.979  1.00  0.00     0.031 A 
ATOM     65  C   UNL A   1      44.526  23.236  25.994  1.00  0.00     0.131 A 
ATOM     66  C   UNL A   1      43.363  20.753  26.040  1.00  0.00     0.055 A 
ATOM     67  C   UNL A   1      44.902  22.269  25.053  1.00  0.00     0.041 A 
ATOM     68  F   UNL A   1      45.182  24.386  25.845  1.00  0.00    -0.206 F 
ATOM     69  C   UNL A   1      44.329  21.016  25.076  1.00  0.00     0.022 A 
BRANCH  66  70
ATOM     70  S   UNL A   1      42.628  19.097  26.116  1.00  0.00     0.124 S 
ATOM     71  O   UNL A   1      43.624  18.287  25.423  1.00  0.00    -0.237 OA
ATOM     72  O   UNL A   1      42.495  18.882  27.551  1.00  0.00    -0.237 OA
ATOM     73  O   UNL A   1      41.362  19.256  25.398  1.00  0.00    -0.744 OA
ENDBRANCH  66  70
ENDBRANCH  49  63
BRANCH  50  74
ATOM     74  C   UNL A   1      41.154  30.268  33.013  1.00  0.00     0.023 A 
ATOM     75  C   UNL A   1      41.236  31.681  32.964  1.00  0.00     0.031 A 
ATOM     76  C   UNL A   1      39.881  29.689  33.045  1.00  0.00     0.131 A 
ATOM     77  C   UNL A   1      40.089  32.447  32.715  1.00  0.00     0.055 A 
ATOM     78  C   UNL A   1      38.726  30.475  32.910  1.00  0.00     0.041 A 
ATOM     79  F   UNL A   1      39.733  28.356  33.061  1.00  0.00    -0.206 F 
ATOM     80  C   UNL A   1      38.830  31.850  32.685  1.00  0.00     0.022 A 
BRANCH  77  81
ATOM     81  S   UNL A   1      40.298  34.149  32.093  1.00  0.00     0.124 S 
ATOM     82  O   UNL A   1      40.918  33.925  30.793  1.00  0.00    -0.237 OA
ATOM     83  O   UNL A   1      38.930  34.663  32.068  1.00  0.00    -0.237 OA
ATOM     84  O   UNL A   1      41.148  34.780  33.101  1.00  0.00    -0.744 OA
ENDBRANCH  77  81
ENDBRANCH  50  74
BRANCH  62  85
ATOM     85  C   UNL A   1      45.084  24.053  33.507  1.00  0.00     0.023 A 
ATOM     86  C   UNL A   1      46.430  23.905  33.874  1.00  0.00     0.031 A 
ATOM     87  C   UNL A   1      44.209  23.022  33.918  1.00  0.00     0.131 A 
ATOM     88  C   UNL A   1      46.840  22.838  34.690  1.00  0.00     0.055 A 
ATOM     89  C   UNL A   1      44.636  21.916  34.658  1.00  0.00     0.041 A 
ATOM     90  F   UNL A   1      42.895  23.062  33.652  1.00  0.00    -0.206 F 
ATOM     91  C   UNL A   1      45.957  21.828  35.067  1.00  0.00     0.022 A 
BRANCH  88  92
ATOM     92  S   UNL A   1      48.533  22.849  35.333  1.00  0.00     0.124 S 
ATOM     93  O   UNL A   1      48.472  21.862  36.405  1.00  0.00    -0.237 OA
ATOM     94  O   UNL A   1      49.301  22.459  34.153  1.00  0.00    -0.237 OA
ATOM     95  O   UNL A   1      48.729  24.231  35.768  1.00  0.00    -0.744 OA
ENDBRANCH  88  92
ENDBRANCH  62  85
ENDBRANCH  36  37
ENDBRANCH  28  31
ENDBRANCH  26  27
ENDBRANCH  25  26
ENDBRANCH   1  25
TORSDOF 18
ENDMDL
MODEL 3
REMARK VINA RESULT:     -11.7      4.145     10.064
REMARK SMILES Cc1cccc(CS[C@@H]2CC[C@]([NH3+])(C(=O)NCCCCNC(=O)c3ccc(-c4c5nc(c(-c6cc(S(=O)(=O)[O-])ccc6F)c6ccc([nH]6)c(-c6cc(S(=O)(=O)[O-])ccc6F)c6nc(c(-c7cc(S(=O)(=O)[O-])ccc7F)c7ccc4[nH]7)C=C6)C=C5)cc3)C2)c1
REMARK SMILES IDX 18 1 17 2 16 3 14 4 15 5 12 7 9 8 10 9 87 10 11 11 8 12 7 13
REMARK SMILES IDX 6 14 1 15 2 16 3 17 88 18 4 19 5 20 13 21 19 25 20 26 21 27
REMARK SMILES IDX 22 28 23 30 24 31 25 32 86 33 26 34 85 35 27 36 28 37 29 38
REMARK SMILES IDX 79 39 30 40 84 41 78 42 80 43 31 44 83 45 77 46 76 47 32 49
REMARK SMILES IDX 64 50 44 51 63 52 45 53 48 54 62 55 81 56 46 57 47 58 61 60
REMARK SMILES IDX 82 61 49 62 33 63 34 64 42 65 35 66 41 67 43 68 40 69 36 70
REMARK SMILES IDX 37 71 38 72 39 73 65 74 66 75 74 76 67 77 73 78 75 79 72 80
REMARK SMILES IDX 68 81 69 82 70 83 71 84 50 85 51 86 59 87 52 88 58 89 60 90
REMARK SMILES IDX 57 91 53 92 54 93 55 94 56 95
REMARK H PARENT 16 6 13 22 13 23 13 24 21 29 80 48 48 59
REMARK Flexibility Score: inf
ROOT
ATOM      1  C   UNL A   1      32.089  30.025  25.567  1.00  0.00     0.023 C 
ENDROOT
BRANCH   1   2
ATOM      2  C   UNL A   1      33.100  28.900  25.331  1.00  0.00     0.116 C 
BRANCH   2   3
ATOM      3  N   UNL A   1      33.788  28.990  24.047  1.00  0.00    -0.351 N 
ATOM      4  C   UNL A   1      33.708  28.175  22.951  1.00  0.00     0.281 C 
ATOM      5  O   UNL A   1      34.392  28.484  21.967  1.00  0.00    -0.268 OA
ATOM      6  H   UNL A   1      34.403  29.753  23.956  1.00  0.00     0.163 HD
BRANCH   4   7
ATOM      7  C   UNL A   1      32.880  26.855  22.974  1.00  0.00     0.175 C 
ATOM      8  C   UNL A   1      32.968  24.442  23.301  1.00  0.00     0.054 C 
ATOM      9  C   UNL A   1      32.465  24.697  21.881  1.00  0.00     0.022 C 
ATOM     10  C   UNL A   1      33.631  25.743  23.757  1.00  0.00     0.093 C 
ATOM     11  C   UNL A   1      32.722  26.177  21.605  1.00  0.00     0.080 C 
BRANCH   8  12
ATOM     12  S   UNL A   1      33.849  22.855  23.540  1.00  0.00    -0.154 SA
BRANCH  12  13
ATOM     13  C   UNL A   1      34.513  22.959  25.234  1.00  0.00     0.105 C 
BRANCH  13  14
ATOM     14  C   UNL A   1      35.966  22.615  25.398  1.00  0.00    -0.038 A 
ATOM     15  C   UNL A   1      38.167  19.541  24.976  1.00  0.00     0.044 C 
ATOM     16  C   UNL A   1      37.738  20.947  25.266  1.00  0.00    -0.051 A 
ATOM     17  C   UNL A   1      38.649  21.885  25.759  1.00  0.00     0.003 A 
ATOM     18  C   UNL A   1      36.405  21.323  25.080  1.00  0.00     0.008 A 
ATOM     19  C   UNL A   1      38.237  23.187  26.040  1.00  0.00     0.001 A 
ATOM     20  C   UNL A   1      36.904  23.555  25.850  1.00  0.00     0.004 A 
ENDBRANCH  13  14
ENDBRANCH  12  13
ENDBRANCH   8  12
BRANCH   7  21
ATOM     21  N   UNL A   1      31.576  27.137  23.621  1.00  0.00    -0.345 N 
ATOM     22  H   UNL A   1      31.208  28.022  23.276  1.00  0.00     0.345 HD
ATOM     23  H   UNL A   1      31.703  27.192  24.631  1.00  0.00     0.345 HD
ATOM     24  H   UNL A   1      30.919  26.387  23.402  1.00  0.00     0.345 HD
ENDBRANCH   7  21
ENDBRANCH   4   7
ENDBRANCH   2   3
ENDBRANCH   1   2
BRANCH   1  25
ATOM     25  C   UNL A   1      32.231  30.784  26.881  1.00  0.00     0.023 C 
BRANCH  25  26
ATOM     26  C   UNL A   1      33.447  30.407  27.717  1.00  0.00     0.116 C 
BRANCH  26  27
ATOM     27  N   UNL A   1      34.181  31.525  28.293  1.00  0.00    -0.352 N 
ATOM     28  C   UNL A   1      35.435  31.525  28.891  1.00  0.00     0.251 C 
ATOM     29  H   UNL A   1      33.729  32.399  28.253  1.00  0.00     0.163 HD
ATOM     30  O   UNL A   1      35.886  32.530  29.418  1.00  0.00    -0.269 OA
BRANCH  28  31
ATOM     31  C   UNL A   1      36.287  30.311  28.773  1.00  0.00     0.039 A 
ATOM     32  C   UNL A   1      36.649  29.661  29.960  1.00  0.00     0.014 A 
ATOM     33  C   UNL A   1      36.904  29.972  27.574  1.00  0.00     0.014 A 
ATOM     34  C   UNL A   1      37.799  28.876  29.985  1.00  0.00     0.010 A 
ATOM     35  C   UNL A   1      38.101  29.285  27.618  1.00  0.00     0.010 A 
ATOM     36  C   UNL A   1      38.584  28.801  28.837  1.00  0.00    -0.014 A 
BRANCH  36  37
ATOM     37  C   UNL A   1      39.973  28.360  28.840  1.00  0.00     0.031 A 
ATOM     38  C   UNL A   1      40.312  26.928  28.753  1.00  0.00     0.074 A 
ATOM     39  C   UNL A   1      40.966  29.277  28.831  1.00  0.00     0.049 A 
ATOM     40  N   UNL A   1      41.477  26.442  29.016  1.00  0.00    -0.248 NA
ATOM     41  C   UNL A   1      39.327  25.901  28.439  1.00  0.00     0.031 C 
ATOM     42  C   UNL A   1      42.382  29.046  28.573  1.00  0.00     0.029 A 
ATOM     43  N   UNL A   1      40.913  30.571  29.350  1.00  0.00    -0.354 N 
ATOM     44  C   UNL A   1      41.494  25.133  28.607  1.00  0.00     0.074 A 
ATOM     45  C   UNL A   1      40.102  24.814  28.400  1.00  0.00     0.031 C 
ATOM     46  C   UNL A   1      43.092  29.999  29.192  1.00  0.00     0.029 A 
ATOM     47  C   UNL A   1      42.164  30.797  29.965  1.00  0.00     0.049 A 
ATOM     48  H   UNL A   1      40.157  31.199  29.296  1.00  0.00     0.167 HD
ATOM     49  C   UNL A   1      42.701  24.541  28.373  1.00  0.00     0.034 A 
ATOM     50  C   UNL A   1      42.246  31.031  31.308  1.00  0.00     0.034 A 
ATOM     51  C   UNL A   1      43.803  25.337  28.946  1.00  0.00     0.049 A 
ATOM     52  C   UNL A   1      43.043  29.974  32.051  1.00  0.00     0.074 A 
ATOM     53  C   UNL A   1      44.863  26.076  28.445  1.00  0.00     0.029 A 
ATOM     54  N   UNL A   1      43.762  25.629  30.305  1.00  0.00    -0.354 N 
ATOM     55  N   UNL A   1      43.569  28.925  31.477  1.00  0.00    -0.248 NA
ATOM     56  C   UNL A   1      43.266  29.970  33.495  1.00  0.00     0.031 C 
ATOM     57  C   UNL A   1      45.426  26.838  29.518  1.00  0.00     0.029 A 
ATOM     58  C   UNL A   1      44.728  26.543  30.675  1.00  0.00     0.049 A 
ATOM     59  H   UNL A   1      43.116  25.228  30.932  1.00  0.00     0.167 HD
ATOM     60  C   UNL A   1      44.172  28.127  32.407  1.00  0.00     0.074 A 
ATOM     61  C   UNL A   1      43.941  28.818  33.665  1.00  0.00     0.031 C 
ATOM     62  C   UNL A   1      44.796  26.956  32.074  1.00  0.00     0.034 A 
BRANCH  49  63
ATOM     63  C   UNL A   1      42.924  23.332  27.469  1.00  0.00     0.023 A 
ATOM     64  C   UNL A   1      43.870  23.426  26.422  1.00  0.00     0.031 A 
ATOM     65  C   UNL A   1      42.205  22.115  27.494  1.00  0.00     0.131 A 
ATOM     66  C   UNL A   1      44.029  22.398  25.467  1.00  0.00     0.055 A 
ATOM     67  C   UNL A   1      42.374  21.088  26.557  1.00  0.00     0.041 A 
ATOM     68  F   UNL A   1      41.282  21.831  28.412  1.00  0.00    -0.206 F 
ATOM     69  C   UNL A   1      43.281  21.227  25.529  1.00  0.00     0.022 A 
BRANCH  66  70
ATOM     70  S   UNL A   1      45.198  22.619  24.098  1.00  0.00     0.124 S 
ATOM     71  O   UNL A   1      45.513  24.041  24.191  1.00  0.00    -0.237 OA
ATOM     72  O   UNL A   1      46.265  21.690  24.449  1.00  0.00    -0.237 OA
ATOM     73  O   UNL A   1      44.415  22.242  22.920  1.00  0.00    -0.744 OA
ENDBRANCH  66  70
ENDBRANCH  49  63
BRANCH  50  74
ATOM     74  C   UNL A   1      41.085  31.834  31.801  1.00  0.00     0.023 A 
ATOM     75  C   UNL A   1      40.076  31.109  32.482  1.00  0.00     0.031 A 
ATOM     76  C   UNL A   1      41.161  33.213  32.026  1.00  0.00     0.131 A 
ATOM     77  C   UNL A   1      39.349  31.713  33.517  1.00  0.00     0.055 A 
ATOM     78  C   UNL A   1      40.346  33.836  32.984  1.00  0.00     0.041 A 
ATOM     79  F   UNL A   1      42.111  33.953  31.435  1.00  0.00    -0.206 F 
ATOM     80  C   UNL A   1      39.480  33.076  33.775  1.00  0.00     0.022 A 
BRANCH  77  81
ATOM     81  S   UNL A   1      38.506  30.640  34.728  1.00  0.00     0.124 S 
ATOM     82  O   UNL A   1      37.589  31.570  35.374  1.00  0.00    -0.237 OA
ATOM     83  O   UNL A   1      37.888  29.615  33.888  1.00  0.00    -0.237 OA
ATOM     84  O   UNL A   1      39.597  30.141  35.561  1.00  0.00    -0.744 OA
ENDBRANCH  77  81
ENDBRANCH  50  74
BRANCH  62  85
ATOM     85  C   UNL A   1      45.509  26.080  33.073  1.00  0.00     0.023 A 
ATOM     86  C   UNL A   1      44.838  25.105  33.827  1.00  0.00     0.031 A 
ATOM     87  C   UNL A   1      46.886  26.243  33.351  1.00  0.00     0.131 A 
ATOM     88  C   UNL A   1      45.537  24.283  34.726  1.00  0.00     0.055 A 
ATOM     89  C   UNL A   1      47.562  25.482  34.308  1.00  0.00     0.041 A 
ATOM     90  F   UNL A   1      47.642  27.123  32.680  1.00  0.00    -0.206 F 
ATOM     91  C   UNL A   1      46.892  24.479  34.991  1.00  0.00     0.022 A 
BRANCH  88  92
ATOM     92  S   UNL A   1      44.660  22.885  35.472  1.00  0.00     0.124 S 
ATOM     93  O   UNL A   1      45.183  22.873  36.834  1.00  0.00    -0.237 OA
ATOM     94  O   UNL A   1      43.266  23.300  35.330  1.00  0.00    -0.237 OA
ATOM     95  O   UNL A   1      45.053  21.747  34.642  1.00  0.00    -0.744 OA
ENDBRANCH  88  92
ENDBRANCH  62  85
ENDBRANCH  36  37
ENDBRANCH  28  31
ENDBRANCH  26  27
ENDBRANCH  25  26
ENDBRANCH   1  25
TORSDOF 18
ENDMDL
