MODEL 1
REMARK VINA RESULT:     -11.0      0.000      0.000
REMARK SMILES COCC[C@H](NC(=O)N1CCN2C(=O)NC[C@H]2C1)C(=O)NCCCCNC(=O)c1ccc(-c2c3nc(c(-c4cc(S(=O)(=O)[O-])ccc4F)c4ccc([nH]4)c(-c4cc(S(=O)(=O)[O-])ccc4F)c4nc(c(-c5cc(S(=O)(=O)[O-])ccc5F)c5ccc2[nH]5)C=C4)C=C3)cc1
REMARK SMILES IDX 23 1 22 2 21 3 19 4 20 5 5 7 4 8 3 9 2 10 1 11 6 12 7 13
REMARK SMILES IDX 8 15 9 16 10 17 18 18 11 19 17 20 12 21 16 22 13 23 15 24
REMARK SMILES IDX 14 25 24 27 25 28 26 29 27 30 28 32 29 33 30 34 91 35 31 36
REMARK SMILES IDX 90 37 32 38 33 39 34 40 84 41 35 42 89 43 83 44 85 45 36 46
REMARK SMILES IDX 88 47 82 48 81 49 37 51 69 52 49 53 68 54 50 55 53 56 67 57
REMARK SMILES IDX 86 58 51 59 52 60 66 62 87 63 54 64 38 65 39 66 47 67 40 68
REMARK SMILES IDX 46 69 48 70 45 71 41 72 42 73 43 74 44 75 70 76 71 77 79 78
REMARK SMILES IDX 72 79 78 80 80 81 77 82 73 83 74 84 75 85 76 86 55 87 56 88
REMARK SMILES IDX 64 89 57 90 63 91 65 92 62 93 58 94 59 95 60 96 61 97
REMARK H PARENT 21 6 6 14 15 26 26 31 85 50 53 61
REMARK Flexibility Score: inf
ROOT
ATOM      1  C   UNL A   1      33.072  27.258  25.502  1.00  0.00     0.023 C 
ENDROOT
BRANCH   1   2
ATOM      2  C   UNL A   1      33.327  25.807  25.886  1.00  0.00     0.116 C 
BRANCH   2   3
ATOM      3  N   UNL A   1      32.157  25.215  26.520  1.00  0.00    -0.354 N 
ATOM      4  C   UNL A   1      31.310  24.238  26.078  1.00  0.00     0.242 C 
ATOM      5  O   UNL A   1      30.406  23.866  26.830  1.00  0.00    -0.273 OA
ATOM      6  H   UNL A   1      31.942  25.578  27.409  1.00  0.00     0.163 HD
BRANCH   4   7
ATOM      7  C   UNL A   1      31.583  23.512  24.747  1.00  0.00     0.175 C 
BRANCH   7   8
ATOM      8  C   UNL A   1      30.677  24.155  23.689  1.00  0.00     0.063 C 
BRANCH   8   9
ATOM      9  C   UNL A   1      31.296  25.350  22.963  1.00  0.00     0.162 C 
BRANCH   9  10
ATOM     10  O   UNL A   1      32.499  25.005  22.283  1.00  0.00    -0.385 OA
ATOM     11  C   UNL A   1      32.627  25.557  20.980  1.00  0.00     0.194 C 
ENDBRANCH   9  10
ENDBRANCH   8   9
ENDBRANCH   7   8
BRANCH   7  12
ATOM     12  N   UNL A   1      31.421  22.068  24.947  1.00  0.00    -0.326 N 
ATOM     13  C   UNL A   1      32.278  21.073  25.245  1.00  0.00     0.318 C 
ATOM     14  H   UNL A   1      30.491  21.761  24.838  1.00  0.00     0.166 HD
ATOM     15  O   UNL A   1      31.902  19.922  25.023  1.00  0.00    -0.249 OA
BRANCH  13  16
ATOM     16  N   UNL A   1      33.549  21.354  25.636  1.00  0.00    -0.321 N 
ATOM     17  C   UNL A   1      33.992  21.737  26.991  1.00  0.00     0.143 C 
ATOM     18  C   UNL A   1      34.636  21.102  24.683  1.00  0.00     0.148 C 
ATOM     19  C   UNL A   1      35.090  22.832  27.014  1.00  0.00     0.143 C 
ATOM     20  C   UNL A   1      35.375  22.419  24.524  1.00  0.00     0.125 C 
ATOM     21  N   UNL A   1      35.900  22.872  25.804  1.00  0.00    -0.317 N 
ATOM     22  C   UNL A   1      36.600  22.449  23.626  1.00  0.00     0.144 C 
ATOM     23  C   UNL A   1      37.056  23.608  25.612  1.00  0.00     0.317 C 
ATOM     24  N   UNL A   1      37.443  23.415  24.288  1.00  0.00    -0.336 N 
ATOM     25  O   UNL A   1      37.644  24.295  26.422  1.00  0.00    -0.249 OA
ATOM     26  H   UNL A   1      38.197  23.879  23.858  1.00  0.00     0.165 HD
ENDBRANCH  13  16
ENDBRANCH   7  12
ENDBRANCH   4   7
ENDBRANCH   2   3
ENDBRANCH   1   2
BRANCH   1  27
ATOM     27  C   UNL A   1      33.990  28.259  26.205  1.00  0.00     0.023 C 
BRANCH  27  28
ATOM     28  C   UNL A   1      33.457  28.799  27.528  1.00  0.00     0.116 C 
BRANCH  28  29
ATOM     29  N   UNL A   1      33.638  30.238  27.656  1.00  0.00    -0.352 N 
ATOM     30  C   UNL A   1      34.721  30.935  28.134  1.00  0.00     0.251 C 
ATOM     31  H   UNL A   1      32.878  30.787  27.357  1.00  0.00     0.163 HD
ATOM     32  O   UNL A   1      34.629  32.140  28.343  1.00  0.00    -0.269 OA
BRANCH  30  33
ATOM     33  C   UNL A   1      35.978  30.214  28.423  1.00  0.00     0.039 A 
ATOM     34  C   UNL A   1      37.003  30.239  27.476  1.00  0.00     0.014 A 
ATOM     35  C   UNL A   1      36.160  29.560  29.645  1.00  0.00     0.014 A 
ATOM     36  C   UNL A   1      38.244  29.680  27.792  1.00  0.00     0.010 A 
ATOM     37  C   UNL A   1      37.419  29.076  29.988  1.00  0.00     0.010 A 
ATOM     38  C   UNL A   1      38.478  29.144  29.070  1.00  0.00    -0.014 A 
BRANCH  38  39
ATOM     39  C   UNL A   1      39.836  28.694  29.476  1.00  0.00     0.031 A 
ATOM     40  C   UNL A   1      40.587  29.416  30.559  1.00  0.00     0.074 A 
ATOM     41  C   UNL A   1      40.414  27.669  28.817  1.00  0.00     0.049 A 
ATOM     42  N   UNL A   1      41.801  29.209  31.001  1.00  0.00    -0.248 NA
ATOM     43  C   UNL A   1      39.890  30.532  31.214  1.00  0.00     0.031 C 
ATOM     44  C   UNL A   1      39.798  26.914  27.722  1.00  0.00     0.029 A 
ATOM     45  N   UNL A   1      41.648  27.085  28.964  1.00  0.00    -0.354 N 
ATOM     46  C   UNL A   1      42.017  30.170  31.982  1.00  0.00     0.074 A 
ATOM     47  C   UNL A   1      40.830  30.998  32.024  1.00  0.00     0.031 C 
ATOM     48  C   UNL A   1      40.643  25.953  27.319  1.00  0.00     0.029 A 
ATOM     49  C   UNL A   1      41.882  26.054  28.081  1.00  0.00     0.049 A 
ATOM     50  H   UNL A   1      42.304  27.376  29.637  1.00  0.00     0.167 HD
ATOM     51  C   UNL A   1      43.098  30.332  32.786  1.00  0.00     0.034 A 
ATOM     52  C   UNL A   1      42.977  25.292  27.892  1.00  0.00     0.034 A 
ATOM     53  C   UNL A   1      44.274  29.498  32.727  1.00  0.00     0.049 A 
ATOM     54  C   UNL A   1      44.186  25.529  28.761  1.00  0.00     0.074 A 
ATOM     55  C   UNL A   1      45.401  29.540  33.530  1.00  0.00     0.029 A 
ATOM     56  N   UNL A   1      44.486  28.482  31.804  1.00  0.00    -0.354 N 
ATOM     57  N   UNL A   1      44.351  26.404  29.726  1.00  0.00    -0.248 NA
ATOM     58  C   UNL A   1      45.353  24.671  28.520  1.00  0.00     0.031 C 
ATOM     59  C   UNL A   1      46.325  28.613  33.040  1.00  0.00     0.029 A 
ATOM     60  C   UNL A   1      45.744  27.925  31.988  1.00  0.00     0.049 A 
ATOM     61  H   UNL A   1      43.839  28.198  31.118  1.00  0.00     0.167 HD
ATOM     62  C   UNL A   1      45.633  26.184  30.223  1.00  0.00     0.074 A 
ATOM     63  C   UNL A   1      46.185  25.078  29.467  1.00  0.00     0.031 C 
ATOM     64  C   UNL A   1      46.293  26.835  31.214  1.00  0.00     0.034 A 
BRANCH  51  65
ATOM     65  C   UNL A   1      43.066  31.473  33.776  1.00  0.00     0.023 A 
ATOM     66  C   UNL A   1      42.492  31.330  35.052  1.00  0.00     0.031 A 
ATOM     67  C   UNL A   1      43.606  32.726  33.437  1.00  0.00     0.131 A 
ATOM     68  C   UNL A   1      42.405  32.436  35.911  1.00  0.00     0.055 A 
ATOM     69  C   UNL A   1      43.596  33.800  34.329  1.00  0.00     0.041 A 
ATOM     70  F   UNL A   1      44.147  32.932  32.226  1.00  0.00    -0.206 F 
ATOM     71  C   UNL A   1      42.979  33.663  35.570  1.00  0.00     0.022 A 
BRANCH  68  72
ATOM     72  S   UNL A   1      41.403  32.288  37.415  1.00  0.00     0.124 S 
ATOM     73  O   UNL A   1      40.218  31.596  36.912  1.00  0.00    -0.237 OA
ATOM     74  O   UNL A   1      42.269  31.515  38.296  1.00  0.00    -0.237 OA
ATOM     75  O   UNL A   1      41.181  33.676  37.816  1.00  0.00    -0.744 OA
ENDBRANCH  68  72
ENDBRANCH  51  65
BRANCH  52  76
ATOM     76  C   UNL A   1      42.999  24.250  26.824  1.00  0.00     0.023 A 
ATOM     77  C   UNL A   1      42.342  23.021  26.996  1.00  0.00     0.031 A 
ATOM     78  C   UNL A   1      43.717  24.449  25.631  1.00  0.00     0.131 A 
ATOM     79  C   UNL A   1      42.458  22.021  26.019  1.00  0.00     0.055 A 
ATOM     80  C   UNL A   1      43.779  23.474  24.633  1.00  0.00     0.041 A 
ATOM     81  F   UNL A   1      44.366  25.603  25.412  1.00  0.00    -0.206 F 
ATOM     82  C   UNL A   1      43.157  22.246  24.831  1.00  0.00     0.022 A 
BRANCH  79  83
ATOM     83  S   UNL A   1      41.763  20.382  26.366  1.00  0.00     0.124 S 
ATOM     84  O   UNL A   1      40.332  20.635  26.236  1.00  0.00    -0.237 OA
ATOM     85  O   UNL A   1      42.369  19.568  25.317  1.00  0.00    -0.237 OA
ATOM     86  O   UNL A   1      42.226  20.096  27.722  1.00  0.00    -0.744 OA
ENDBRANCH  79  83
ENDBRANCH  52  76
BRANCH  64  87
ATOM     87  C   UNL A   1      47.680  26.341  31.554  1.00  0.00     0.023 A 
ATOM     88  C   UNL A   1      48.808  26.734  30.811  1.00  0.00     0.031 A 
ATOM     89  C   UNL A   1      47.875  25.455  32.628  1.00  0.00     0.131 A 
ATOM     90  C   UNL A   1      50.066  26.193  31.112  1.00  0.00     0.055 A 
ATOM     91  C   UNL A   1      49.141  24.976  32.968  1.00  0.00     0.041 A 
ATOM     92  F   UNL A   1      46.835  25.040  33.370  1.00  0.00    -0.206 F 
ATOM     93  C   UNL A   1      50.244  25.334  32.199  1.00  0.00     0.022 A 
BRANCH  90  94
ATOM     94  S   UNL A   1      51.453  26.546  29.998  1.00  0.00     0.124 S 
ATOM     95  O   UNL A   1      51.117  25.736  28.831  1.00  0.00    -0.237 OA
ATOM     96  O   UNL A   1      51.353  27.991  29.821  1.00  0.00    -0.237 OA
ATOM     97  O   UNL A   1      52.622  26.095  30.750  1.00  0.00    -0.744 OA
ENDBRANCH  90  94
ENDBRANCH  64  87
ENDBRANCH  38  39
ENDBRANCH  30  33
ENDBRANCH  28  29
ENDBRANCH  27  28
ENDBRANCH   1  27
TORSDOF 19
ENDMDL
MODEL 2
REMARK VINA RESULT:     -11.0      2.791      7.983
REMARK SMILES COCC[C@H](NC(=O)N1CCN2C(=O)NC[C@H]2C1)C(=O)NCCCCNC(=O)c1ccc(-c2c3nc(c(-c4cc(S(=O)(=O)[O-])ccc4F)c4ccc([nH]4)c(-c4cc(S(=O)(=O)[O-])ccc4F)c4nc(c(-c5cc(S(=O)(=O)[O-])ccc5F)c5ccc2[nH]5)C=C4)C=C3)cc1
REMARK SMILES IDX 23 1 22 2 21 3 19 4 20 5 5 7 4 8 3 9 2 10 1 11 6 12 7 13
REMARK SMILES IDX 8 15 9 16 10 17 18 18 11 19 17 20 12 21 16 22 13 23 15 24
REMARK SMILES IDX 14 25 24 27 25 28 26 29 27 30 28 32 29 33 30 34 91 35 31 36
REMARK SMILES IDX 90 37 32 38 33 39 34 40 84 41 35 42 89 43 83 44 85 45 36 46
REMARK SMILES IDX 88 47 82 48 81 49 37 51 69 52 49 53 68 54 50 55 53 56 67 57
REMARK SMILES IDX 86 58 51 59 52 60 66 62 87 63 54 64 38 65 39 66 47 67 40 68
REMARK SMILES IDX 46 69 48 70 45 71 41 72 42 73 43 74 44 75 70 76 71 77 79 78
REMARK SMILES IDX 72 79 78 80 80 81 77 82 73 83 74 84 75 85 76 86 55 87 56 88
REMARK SMILES IDX 64 89 57 90 63 91 65 92 62 93 58 94 59 95 60 96 61 97
REMARK H PARENT 21 6 6 14 15 26 26 31 85 50 53 61
REMARK Flexibility Score: inf
ROOT
ATOM      1  C   UNL A   1      31.181  27.623  26.424  1.00  0.00     0.023 C 
ENDROOT
BRANCH   1   2
ATOM      2  C   UNL A   1      31.870  26.268  26.330  1.00  0.00     0.116 C 
BRANCH   2   3
ATOM      3  N   UNL A   1      31.051  25.217  26.916  1.00  0.00    -0.354 N 
ATOM      4  C   UNL A   1      30.804  23.943  26.485  1.00  0.00     0.242 C 
ATOM      5  O   UNL A   1      30.105  23.214  27.192  1.00  0.00    -0.273 OA
ATOM      6  H   UNL A   1      30.604  25.463  27.757  1.00  0.00     0.163 HD
BRANCH   4   7
ATOM      7  C   UNL A   1      31.514  23.390  25.235  1.00  0.00     0.175 C 
BRANCH   7   8
ATOM      8  C   UNL A   1      30.904  24.099  24.018  1.00  0.00     0.063 C 
BRANCH   8   9
ATOM      9  C   UNL A   1      31.914  24.498  22.942  1.00  0.00     0.162 C 
BRANCH   9  10
ATOM     10  O   UNL A   1      31.405  25.507  22.073  1.00  0.00    -0.385 OA
ATOM     11  C   UNL A   1      31.012  26.708  22.720  1.00  0.00     0.194 C 
ENDBRANCH   9  10
ENDBRANCH   8   9
ENDBRANCH   7   8
BRANCH   7  12
ATOM     12  N   UNL A   1      31.427  21.926  25.243  1.00  0.00    -0.326 N 
ATOM     13  C   UNL A   1      32.343  20.946  25.352  1.00  0.00     0.318 C 
ATOM     14  H   UNL A   1      30.506  21.590  25.146  1.00  0.00     0.166 HD
ATOM     15  O   UNL A   1      32.003  19.817  24.995  1.00  0.00    -0.249 OA
BRANCH  13  16
ATOM     16  N   UNL A   1      33.623  21.235  25.705  1.00  0.00    -0.321 N 
ATOM     17  C   UNL A   1      34.111  21.580  27.054  1.00  0.00     0.143 C 
ATOM     18  C   UNL A   1      34.677  21.036  24.704  1.00  0.00     0.148 C 
ATOM     19  C   UNL A   1      35.191  22.693  27.075  1.00  0.00     0.143 C 
ATOM     20  C   UNL A   1      35.388  22.371  24.563  1.00  0.00     0.125 C 
ATOM     21  N   UNL A   1      35.953  22.788  25.837  1.00  0.00    -0.317 N 
ATOM     22  C   UNL A   1      36.577  22.452  23.622  1.00  0.00     0.144 C 
ATOM     23  C   UNL A   1      37.089  23.552  25.629  1.00  0.00     0.317 C 
ATOM     24  N   UNL A   1      37.429  23.411  24.285  1.00  0.00    -0.336 N 
ATOM     25  O   UNL A   1      37.695  24.221  26.440  1.00  0.00    -0.249 OA
ATOM     26  H   UNL A   1      38.158  23.902  23.844  1.00  0.00     0.165 HD
ENDBRANCH  13  16
ENDBRANCH   7  12
ENDBRANCH   4   7
ENDBRANCH   2   3
ENDBRANCH   1   2
BRANCH   1  27
ATOM     27  C   UNL A   1      31.993  28.684  27.168  1.00  0.00     0.023 C 
BRANCH  27  28
ATOM     28  C   UNL A   1      32.805  29.615  26.273  1.00  0.00     0.116 C 
BRANCH  28  29
ATOM     29  N   UNL A   1      32.599  31.019  26.597  1.00  0.00    -0.352 N 
ATOM     30  C   UNL A   1      33.372  31.851  27.370  1.00  0.00     0.251 C 
ATOM     31  H   UNL A   1      31.794  31.428  26.208  1.00  0.00     0.163 HD
ATOM     32  O   UNL A   1      32.949  32.957  27.689  1.00  0.00    -0.269 OA
BRANCH  30  33
ATOM     33  C   UNL A   1      34.695  31.387  27.837  1.00  0.00     0.039 A 
ATOM     34  C   UNL A   1      35.723  32.320  27.985  1.00  0.00     0.014 A 
ATOM     35  C   UNL A   1      34.902  30.047  28.174  1.00  0.00     0.014 A 
ATOM     36  C   UNL A   1      36.935  31.921  28.555  1.00  0.00     0.010 A 
ATOM     37  C   UNL A   1      36.079  29.670  28.813  1.00  0.00     0.010 A 
ATOM     38  C   UNL A   1      37.102  30.607  29.024  1.00  0.00    -0.014 A 
BRANCH  38  39
ATOM     39  C   UNL A   1      38.322  30.211  29.776  1.00  0.00     0.031 A 
ATOM     40  C   UNL A   1      39.265  29.185  29.215  1.00  0.00     0.074 A 
ATOM     41  C   UNL A   1      38.541  30.735  31.000  1.00  0.00     0.049 A 
ATOM     42  N   UNL A   1      40.340  28.668  29.753  1.00  0.00    -0.248 NA
ATOM     43  C   UNL A   1      38.943  28.651  27.883  1.00  0.00     0.031 C 
ATOM     44  C   UNL A   1      37.676  31.713  31.667  1.00  0.00     0.029 A 
ATOM     45  N   UNL A   1      39.551  30.521  31.904  1.00  0.00    -0.354 N 
ATOM     46  C   UNL A   1      40.821  27.746  28.830  1.00  0.00     0.074 A 
ATOM     47  C   UNL A   1      39.884  27.732  27.727  1.00  0.00     0.031 C 
ATOM     48  C   UNL A   1      38.208  32.033  32.856  1.00  0.00     0.029 A 
ATOM     49  C   UNL A   1      39.417  31.246  33.068  1.00  0.00     0.049 A 
ATOM     50  H   UNL A   1      40.301  29.907  31.737  1.00  0.00     0.167 HD
ATOM     51  C   UNL A   1      41.952  26.999  28.890  1.00  0.00     0.034 A 
ATOM     52  C   UNL A   1      40.169  31.259  34.186  1.00  0.00     0.034 A 
ATOM     53  C   UNL A   1      42.873  27.025  30.002  1.00  0.00     0.049 A 
ATOM     54  C   UNL A   1      41.390  30.376  34.251  1.00  0.00     0.074 A 
ATOM     55  C   UNL A   1      44.073  26.349  30.141  1.00  0.00     0.029 A 
ATOM     56  N   UNL A   1      42.691  27.750  31.173  1.00  0.00    -0.354 N 
ATOM     57  N   UNL A   1      41.864  29.555  33.342  1.00  0.00    -0.248 NA
ATOM     58  C   UNL A   1      42.179  30.429  35.488  1.00  0.00     0.031 C 
ATOM     59  C   UNL A   1      44.571  26.597  31.424  1.00  0.00     0.029 A 
ATOM     60  C   UNL A   1      43.732  27.500  32.055  1.00  0.00     0.049 A 
ATOM     61  H   UNL A   1      41.933  28.353  31.350  1.00  0.00     0.167 HD
ATOM     62  C   UNL A   1      43.022  29.011  33.892  1.00  0.00     0.074 A 
ATOM     63  C   UNL A   1      43.185  29.618  35.197  1.00  0.00     0.031 C 
ATOM     64  C   UNL A   1      43.874  28.095  33.365  1.00  0.00     0.034 A 
BRANCH  51  65
ATOM     65  C   UNL A   1      42.235  26.068  27.735  1.00  0.00     0.023 A 
ATOM     66  C   UNL A   1      41.771  24.740  27.724  1.00  0.00     0.031 A 
ATOM     67  C   UNL A   1      42.989  26.507  26.633  1.00  0.00     0.131 A 
ATOM     68  C   UNL A   1      42.126  23.881  26.672  1.00  0.00     0.055 A 
ATOM     69  C   UNL A   1      43.266  25.674  25.547  1.00  0.00     0.041 A 
ATOM     70  F   UNL A   1      43.480  27.757  26.595  1.00  0.00    -0.206 F 
ATOM     71  C   UNL A   1      42.846  24.347  25.570  1.00  0.00     0.022 A 
BRANCH  68  72
ATOM     72  S   UNL A   1      41.760  22.113  26.838  1.00  0.00     0.124 S 
ATOM     73  O   UNL A   1      40.318  22.132  27.073  1.00  0.00    -0.237 OA
ATOM     74  O   UNL A   1      42.192  21.580  25.552  1.00  0.00    -0.237 OA
ATOM     75  O   UNL A   1      42.565  21.703  27.987  1.00  0.00    -0.744 OA
ENDBRANCH  68  72
ENDBRANCH  51  65
BRANCH  52  76
ATOM     76  C   UNL A   1      39.784  32.115  35.347  1.00  0.00     0.023 A 
ATOM     77  C   UNL A   1      38.983  31.611  36.383  1.00  0.00     0.031 A 
ATOM     78  C   UNL A   1      40.173  33.465  35.414  1.00  0.00     0.131 A 
ATOM     79  C   UNL A   1      38.554  32.461  37.414  1.00  0.00     0.055 A 
ATOM     80  C   UNL A   1      39.796  34.291  36.474  1.00  0.00     0.041 A 
ATOM     81  F   UNL A   1      40.939  34.001  34.450  1.00  0.00    -0.206 F 
ATOM     82  C   UNL A   1      38.969  33.793  37.476  1.00  0.00     0.022 A 
BRANCH  79  83
ATOM     83  S   UNL A   1      37.361  31.826  38.624  1.00  0.00     0.124 S 
ATOM     84  O   UNL A   1      38.103  31.969  39.872  1.00  0.00    -0.237 OA
ATOM     85  O   UNL A   1      36.232  32.732  38.440  1.00  0.00    -0.237 OA
ATOM     86  O   UNL A   1      37.132  30.450  38.187  1.00  0.00    -0.744 OA
ENDBRANCH  79  83
ENDBRANCH  52  76
BRANCH  64  87
ATOM     87  C   UNL A   1      45.078  27.719  34.197  1.00  0.00     0.023 A 
ATOM     88  C   UNL A   1      45.069  26.597  35.045  1.00  0.00     0.031 A 
ATOM     89  C   UNL A   1      46.245  28.501  34.151  1.00  0.00     0.131 A 
ATOM     90  C   UNL A   1      46.179  26.325  35.857  1.00  0.00     0.055 A 
ATOM     91  C   UNL A   1      47.373  28.185  34.909  1.00  0.00     0.041 A 
ATOM     92  F   UNL A   1      46.310  29.588  33.365  1.00  0.00    -0.206 F 
ATOM     93  C   UNL A   1      47.340  27.100  35.780  1.00  0.00     0.022 A 
BRANCH  90  94
ATOM     94  S   UNL A   1      46.049  25.008  37.097  1.00  0.00     0.124 S 
ATOM     95  O   UNL A   1      44.668  24.566  36.925  1.00  0.00    -0.237 OA
ATOM     96  O   UNL A   1      47.078  24.068  36.664  1.00  0.00    -0.237 OA
ATOM     97  O   UNL A   1      46.329  25.693  38.357  1.00  0.00    -0.744 OA
ENDBRANCH  90  94
ENDBRANCH  64  87
ENDBRANCH  38  39
ENDBRANCH  30  33
ENDBRANCH  28  29
ENDBRANCH  27  28
ENDBRANCH   1  27
TORSDOF 19
ENDMDL
MODEL 3
REMARK VINA RESULT:     -10.9      4.287      7.190
REMARK SMILES COCC[C@H](NC(=O)N1CCN2C(=O)NC[C@H]2C1)C(=O)NCCCCNC(=O)c1ccc(-c2c3nc(c(-c4cc(S(=O)(=O)[O-])ccc4F)c4ccc([nH]4)c(-c4cc(S(=O)(=O)[O-])ccc4F)c4nc(c(-c5cc(S(=O)(=O)[O-])ccc5F)c5ccc2[nH]5)C=C4)C=C3)cc1
REMARK SMILES IDX 23 1 22 2 21 3 19 4 20 5 5 7 4 8 3 9 2 10 1 11 6 12 7 13
REMARK SMILES IDX 8 15 9 16 10 17 18 18 11 19 17 20 12 21 16 22 13 23 15 24
REMARK SMILES IDX 14 25 24 27 25 28 26 29 27 30 28 32 29 33 30 34 91 35 31 36
REMARK SMILES IDX 90 37 32 38 33 39 34 40 84 41 35 42 89 43 83 44 85 45 36 46
REMARK SMILES IDX 88 47 82 48 81 49 37 51 69 52 49 53 68 54 50 55 53 56 67 57
REMARK SMILES IDX 86 58 51 59 52 60 66 62 87 63 54 64 38 65 39 66 47 67 40 68
REMARK SMILES IDX 46 69 48 70 45 71 41 72 42 73 43 74 44 75 70 76 71 77 79 78
REMARK SMILES IDX 72 79 78 80 80 81 77 82 73 83 74 84 75 85 76 86 55 87 56 88
REMARK SMILES IDX 64 89 57 90 63 91 65 92 62 93 58 94 59 95 60 96 61 97
REMARK H PARENT 21 6 6 14 15 26 26 31 85 50 53 61
REMARK Flexibility Score: inf
ROOT
ATOM      1  C   UNL A   1      36.677  22.990  23.582  1.00  0.00     0.023 C 
ENDROOT
BRANCH   1   2
ATOM      2  C   UNL A   1      35.269  23.570  23.565  1.00  0.00     0.116 C 
BRANCH   2   3
ATOM      3  N   UNL A   1      35.106  24.591  24.591  1.00  0.00    -0.354 N 
ATOM      4  C   UNL A   1      34.008  25.326  24.940  1.00  0.00     0.242 C 
ATOM      5  O   UNL A   1      34.108  26.105  25.891  1.00  0.00    -0.273 OA
ATOM      6  H   UNL A   1      35.916  24.780  25.116  1.00  0.00     0.163 HD
BRANCH   4   7
ATOM      7  C   UNL A   1      32.647  25.066  24.269  1.00  0.00     0.175 C 
BRANCH   7   8
ATOM      8  C   UNL A   1      32.111  26.423  23.794  1.00  0.00     0.063 C 
BRANCH   8   9
ATOM      9  C   UNL A   1      30.929  26.958  24.603  1.00  0.00     0.162 C 
BRANCH   9  10
ATOM     10  O   UNL A   1      29.689  26.393  24.185  1.00  0.00    -0.385 OA
ATOM     11  C   UNL A   1      28.805  27.303  23.545  1.00  0.00     0.194 C 
ENDBRANCH   9  10
ENDBRANCH   8   9
ENDBRANCH   7   8
BRANCH   7  12
ATOM     12  N   UNL A   1      31.790  24.319  25.196  1.00  0.00    -0.326 N 
ATOM     13  C   UNL A   1      31.420  23.027  25.277  1.00  0.00     0.318 C 
ATOM     14  H   UNL A   1      31.402  24.881  25.906  1.00  0.00     0.166 HD
ATOM     15  O   UNL A   1      30.434  22.767  25.967  1.00  0.00    -0.249 OA
BRANCH  13  16
ATOM     16  N   UNL A   1      32.031  22.087  24.510  1.00  0.00    -0.321 N 
ATOM     17  C   UNL A   1      32.077  22.043  23.035  1.00  0.00     0.143 C 
ATOM     18  C   UNL A   1      32.876  21.092  25.179  1.00  0.00     0.148 C 
ATOM     19  C   UNL A   1      31.935  20.619  22.436  1.00  0.00     0.143 C 
ATOM     20  C   UNL A   1      32.327  19.732  24.784  1.00  0.00     0.125 C 
ATOM     21  N   UNL A   1      32.368  19.562  23.340  1.00  0.00    -0.317 N 
ATOM     22  C   UNL A   1      33.046  18.495  25.292  1.00  0.00     0.144 C 
ATOM     23  C   UNL A   1      32.530  18.224  23.021  1.00  0.00     0.317 C 
ATOM     24  N   UNL A   1      32.868  17.566  24.201  1.00  0.00    -0.336 N 
ATOM     25  O   UNL A   1      32.410  17.698  21.933  1.00  0.00    -0.249 OA
ATOM     26  H   UNL A   1      32.973  16.591  24.281  1.00  0.00     0.165 HD
ENDBRANCH  13  16
ENDBRANCH   7  12
ENDBRANCH   4   7
ENDBRANCH   2   3
ENDBRANCH   1   2
BRANCH   1  27
ATOM     27  C   UNL A   1      36.757  21.568  24.139  1.00  0.00     0.023 C 
BRANCH  27  28
ATOM     28  C   UNL A   1      37.203  21.474  25.596  1.00  0.00     0.116 C 
BRANCH  28  29
ATOM     29  N   UNL A   1      38.254  20.486  25.793  1.00  0.00    -0.352 N 
ATOM     30  C   UNL A   1      39.546  20.671  26.224  1.00  0.00     0.251 C 
ATOM     31  H   UNL A   1      38.004  19.556  25.589  1.00  0.00     0.163 HD
ATOM     32  O   UNL A   1      40.351  19.748  26.154  1.00  0.00    -0.269 OA
BRANCH  30  33
ATOM     33  C   UNL A   1      39.957  21.994  26.737  1.00  0.00     0.039 A 
ATOM     34  C   UNL A   1      40.946  22.059  27.720  1.00  0.00     0.014 A 
ATOM     35  C   UNL A   1      39.404  23.165  26.212  1.00  0.00     0.014 A 
ATOM     36  C   UNL A   1      41.441  23.304  28.114  1.00  0.00     0.010 A 
ATOM     37  C   UNL A   1      39.955  24.399  26.547  1.00  0.00     0.010 A 
ATOM     38  C   UNL A   1      40.989  24.479  27.491  1.00  0.00    -0.014 A 
BRANCH  38  39
ATOM     39  C   UNL A   1      41.620  25.793  27.784  1.00  0.00     0.031 A 
ATOM     40  C   UNL A   1      40.860  26.856  28.526  1.00  0.00     0.074 A 
ATOM     41  C   UNL A   1      42.862  26.047  27.320  1.00  0.00     0.049 A 
ATOM     42  N   UNL A   1      41.221  28.081  28.814  1.00  0.00    -0.248 NA
ATOM     43  C   UNL A   1      39.508  26.504  28.982  1.00  0.00     0.031 C 
ATOM     44  C   UNL A   1      43.684  25.106  26.553  1.00  0.00     0.029 A 
ATOM     45  N   UNL A   1      43.648  27.167  27.416  1.00  0.00    -0.354 N 
ATOM     46  C   UNL A   1      40.141  28.647  29.482  1.00  0.00     0.074 A 
ATOM     47  C   UNL A   1      39.091  27.650  29.498  1.00  0.00     0.031 C 
ATOM     48  C   UNL A   1      44.867  25.678  26.277  1.00  0.00     0.029 A 
ATOM     49  C   UNL A   1      44.870  27.043  26.792  1.00  0.00     0.049 A 
ATOM     50  H   UNL A   1      43.367  27.983  27.888  1.00  0.00     0.167 HD
ATOM     51  C   UNL A   1      40.044  29.877  30.047  1.00  0.00     0.034 A 
ATOM     52  C   UNL A   1      45.870  27.932  26.634  1.00  0.00     0.034 A 
ATOM     53  C   UNL A   1      41.102  30.858  30.017  1.00  0.00     0.049 A 
ATOM     54  C   UNL A   1      45.715  29.312  27.222  1.00  0.00     0.074 A 
ATOM     55  C   UNL A   1      41.129  32.113  30.603  1.00  0.00     0.029 A 
ATOM     56  N   UNL A   1      42.313  30.707  29.354  1.00  0.00    -0.354 N 
ATOM     57  N   UNL A   1      44.709  29.811  27.902  1.00  0.00    -0.248 NA
ATOM     58  C   UNL A   1      46.832  30.244  27.025  1.00  0.00     0.031 C 
ATOM     59  C   UNL A   1      42.314  32.750  30.224  1.00  0.00     0.029 A 
ATOM     60  C   UNL A   1      43.072  31.863  29.477  1.00  0.00     0.049 A 
ATOM     61  H   UNL A   1      42.592  29.899  28.867  1.00  0.00     0.167 HD
ATOM     62  C   UNL A   1      45.085  31.109  28.237  1.00  0.00     0.074 A 
ATOM     63  C   UNL A   1      46.418  31.304  27.704  1.00  0.00     0.031 C 
ATOM     64  C   UNL A   1      44.393  32.054  28.923  1.00  0.00     0.034 A 
BRANCH  51  65
ATOM     65  C   UNL A   1      38.738  30.237  30.715  1.00  0.00     0.023 A 
ATOM     66  C   UNL A   1      37.710  30.901  30.021  1.00  0.00     0.031 A 
ATOM     67  C   UNL A   1      38.518  29.924  32.067  1.00  0.00     0.131 A 
ATOM     68  C   UNL A   1      36.546  31.294  30.698  1.00  0.00     0.055 A 
ATOM     69  C   UNL A   1      37.322  30.240  32.714  1.00  0.00     0.041 A 
ATOM     70  F   UNL A   1      39.470  29.312  32.791  1.00  0.00    -0.206 F 
ATOM     71  C   UNL A   1      36.332  30.942  32.032  1.00  0.00     0.022 A 
BRANCH  68  72
ATOM     72  S   UNL A   1      35.383  32.398  29.851  1.00  0.00     0.124 S 
ATOM     73  O   UNL A   1      34.914  31.548  28.758  1.00  0.00    -0.237 OA
ATOM     74  O   UNL A   1      34.409  32.691  30.895  1.00  0.00    -0.237 OA
ATOM     75  O   UNL A   1      36.217  33.525  29.439  1.00  0.00    -0.744 OA
ENDBRANCH  68  72
ENDBRANCH  51  65
BRANCH  52  76
ATOM     76  C   UNL A   1      47.096  27.563  25.867  1.00  0.00     0.023 A 
ATOM     77  C   UNL A   1      47.223  27.883  24.506  1.00  0.00     0.031 A 
ATOM     78  C   UNL A   1      48.142  26.843  26.473  1.00  0.00     0.131 A 
ATOM     79  C   UNL A   1      48.342  27.441  23.783  1.00  0.00     0.055 A 
ATOM     80  C   UNL A   1      49.282  26.459  25.765  1.00  0.00     0.041 A 
ATOM     81  F   UNL A   1      48.074  26.509  27.771  1.00  0.00    -0.206 F 
ATOM     82  C   UNL A   1      49.380  26.746  24.408  1.00  0.00     0.022 A 
BRANCH  79  83
ATOM     83  S   UNL A   1      48.375  27.701  21.989  1.00  0.00     0.124 S 
ATOM     84  O   UNL A   1      49.508  28.608  21.843  1.00  0.00    -0.237 OA
ATOM     85  O   UNL A   1      48.571  26.343  21.490  1.00  0.00    -0.237 OA
ATOM     86  O   UNL A   1      47.066  28.285  21.705  1.00  0.00    -0.744 OA
ENDBRANCH  79  83
ENDBRANCH  52  76
BRANCH  64  87
ATOM     87  C   UNL A   1      45.086  33.376  29.159  1.00  0.00     0.023 A 
ATOM     88  C   UNL A   1      45.073  34.400  28.195  1.00  0.00     0.031 A 
ATOM     89  C   UNL A   1      45.779  33.610  30.359  1.00  0.00     0.131 A 
ATOM     90  C   UNL A   1      45.792  35.583  28.421  1.00  0.00     0.055 A 
ATOM     91  C   UNL A   1      46.433  34.817  30.609  1.00  0.00     0.041 A 
ATOM     92  F   UNL A   1      45.831  32.667  31.315  1.00  0.00    -0.206 F 
ATOM     93  C   UNL A   1      46.454  35.807  29.631  1.00  0.00     0.022 A 
BRANCH  90  94
ATOM     94  S   UNL A   1      45.938  36.784  27.071  1.00  0.00     0.124 S 
ATOM     95  O   UNL A   1      46.146  35.916  25.915  1.00  0.00    -0.237 OA
ATOM     96  O   UNL A   1      44.654  37.475  27.126  1.00  0.00    -0.237 OA
ATOM     97  O   UNL A   1      47.093  37.593  27.454  1.00  0.00    -0.744 OA
ENDBRANCH  90  94
ENDBRANCH  64  87
ENDBRANCH  38  39
ENDBRANCH  30  33
ENDBRANCH  28  29
ENDBRANCH  27  28
ENDBRANCH   1  27
TORSDOF 19
ENDMDL
