MODEL 1
REMARK VINA RESULT:     -10.1      0.000      0.000
REMARK SMILES C[C@]12c3ccccc3[C@](C)(c3ccccc31)[C@@H]1C(=O)N(c3ccc(C(=O)NCCCCNC(=O)c4ccc(-c5c6nc(c(-c7cc(S(=O)(=O)[O-])ccc7F)c7ccc([nH]7)c(-c7cc(S(=O)(=O)[O-])ccc7F)c7nc(c(-c8cc(S(=O)(=O)[O-])ccc8F)c8ccc5[nH]8)C=C7)C=C6)cc4)cc3)C(=O)[C@H]12
REMARK SMILES IDX 30 1 29 2 28 3 27 4 25 5 26 6 24 8 21 9 22 10 99 11 23 12
REMARK SMILES IDX 98 13 20 14 1 15 2 16 16 17 3 18 102 19 15 20 11 21 8 22
REMARK SMILES IDX 4 23 17 24 100 25 14 26 12 27 9 28 7 29 5 30 18 31 101 32
REMARK SMILES IDX 13 33 10 34 6 35 19 36 31 37 32 38 33 39 34 41 35 42 36 43
REMARK SMILES IDX 97 44 37 45 96 46 38 47 39 48 40 49 90 50 41 51 95 52 89 53
REMARK SMILES IDX 91 54 42 55 94 56 88 57 87 58 43 60 75 61 55 62 74 63 56 64
REMARK SMILES IDX 59 65 73 66 92 67 57 68 58 69 72 71 93 72 60 73 44 74 45 75
REMARK SMILES IDX 53 76 46 77 52 78 54 79 51 80 47 81 48 82 49 83 50 84 76 85
REMARK SMILES IDX 77 86 85 87 78 88 84 89 86 90 83 91 79 92 80 93 81 94 82 95
REMARK SMILES IDX 61 96 62 97 70 98 63 99 69 100 71 101 68 102 64 103 65 104
REMARK SMILES IDX 66 105 67 106
REMARK H PARENT 27 7 32 40 91 59 59 70
REMARK Flexibility Score: inf
ROOT
ATOM      1  C   UNL A   1      43.270  22.316  26.965  1.00  0.00     0.023 C 
ENDROOT
BRANCH   1   2
ATOM      2  C   UNL A   1      42.365  23.150  27.862  1.00  0.00     0.023 C 
BRANCH   2   3
ATOM      3  C   UNL A   1      41.033  22.516  28.243  1.00  0.00     0.116 C 
BRANCH   3   4
ATOM      4  N   UNL A   1      39.972  22.712  27.268  1.00  0.00    -0.352 N 
ATOM      5  C   UNL A   1      39.254  23.846  26.960  1.00  0.00     0.251 C 
ATOM      6  O   UNL A   1      38.368  23.796  26.111  1.00  0.00    -0.269 OA
ATOM      7  H   UNL A   1      39.730  21.912  26.747  1.00  0.00     0.163 HD
BRANCH   5   8
ATOM      8  C   UNL A   1      39.482  25.113  27.695  1.00  0.00     0.039 A 
ATOM      9  C   UNL A   1      39.661  27.676  28.837  1.00  0.00     0.052 A 
ATOM     10  C   UNL A   1      40.306  27.389  27.626  1.00  0.00     0.027 A 
ATOM     11  C   UNL A   1      39.030  26.630  29.524  1.00  0.00     0.027 A 
ATOM     12  C   UNL A   1      40.229  26.113  27.063  1.00  0.00     0.016 A 
ATOM     13  C   UNL A   1      38.955  25.352  28.964  1.00  0.00     0.016 A 
BRANCH   9  14
ATOM     14  N   UNL A   1      39.582  29.002  29.326  1.00  0.00    -0.250 N 
ATOM     15  C   UNL A   1      37.210  32.824  28.792  1.00  0.00     0.022 C 
ATOM     16  C   UNL A   1      38.236  32.500  29.877  1.00  0.00     0.030 C 
ATOM     17  C   UNL A   1      37.683  32.486  31.327  1.00  0.00    -0.033 A 
ATOM     18  C   UNL A   1      39.442  33.493  29.949  1.00  0.00    -0.033 A 
ATOM     19  C   UNL A   1      39.029  31.208  29.563  1.00  0.00     0.108 C 
ATOM     20  C   UNL A   1      36.371  32.748  31.708  1.00  0.00     0.005 A 
ATOM     21  C   UNL A   1      38.679  32.244  32.336  1.00  0.00    -0.033 A 
ATOM     22  C   UNL A   1      40.459  33.087  30.882  1.00  0.00    -0.033 A 
ATOM     23  C   UNL A   1      39.607  34.641  29.179  1.00  0.00     0.005 A 
ATOM     24  C   UNL A   1      39.630  30.675  30.864  1.00  0.00     0.108 C 
ATOM     25  C   UNL A   1      38.581  29.916  28.956  1.00  0.00     0.238 C 
ATOM     26  C   UNL A   1      36.051  32.789  33.069  1.00  0.00     0.000 A 
ATOM     27  C   UNL A   1      38.348  32.302  33.687  1.00  0.00     0.005 A 
ATOM     28  C   UNL A   1      40.075  31.861  31.748  1.00  0.00     0.030 C 
ATOM     29  C   UNL A   1      41.630  33.830  30.990  1.00  0.00     0.005 A 
ATOM     30  C   UNL A   1      40.784  35.377  29.312  1.00  0.00     0.000 A 
ATOM     31  C   UNL A   1      40.408  29.523  30.329  1.00  0.00     0.238 C 
ATOM     32  O   UNL A   1      37.603  29.767  28.249  1.00  0.00    -0.274 OA
ATOM     33  C   UNL A   1      37.030  32.580  34.047  1.00  0.00     0.000 A 
ATOM     34  C   UNL A   1      41.111  31.440  32.788  1.00  0.00     0.022 C 
ATOM     35  C   UNL A   1      41.789  34.970  30.199  1.00  0.00     0.000 A 
ATOM     36  O   UNL A   1      41.462  29.101  30.777  1.00  0.00    -0.274 OA
ENDBRANCH   9  14
ENDBRANCH   5   8
ENDBRANCH   3   4
ENDBRANCH   2   3
ENDBRANCH   1   2
BRANCH   1  37
ATOM     37  C   UNL A   1      42.898  22.298  25.490  1.00  0.00     0.116 C 
BRANCH  37  38
ATOM     38  N   UNL A   1      44.045  22.328  24.590  1.00  0.00    -0.352 N 
ATOM     39  C   UNL A   1      45.008  23.300  24.413  1.00  0.00     0.251 C 
ATOM     40  H   UNL A   1      44.148  21.532  24.021  1.00  0.00     0.163 HD
ATOM     41  O   UNL A   1      45.844  23.175  23.524  1.00  0.00    -0.269 OA
BRANCH  39  42
ATOM     42  C   UNL A   1      44.993  24.511  25.264  1.00  0.00     0.039 A 
ATOM     43  C   UNL A   1      46.046  24.769  26.138  1.00  0.00     0.014 A 
ATOM     44  C   UNL A   1      43.882  25.359  25.241  1.00  0.00     0.014 A 
ATOM     45  C   UNL A   1      45.878  25.704  27.149  1.00  0.00     0.010 A 
ATOM     46  C   UNL A   1      43.780  26.396  26.178  1.00  0.00     0.010 A 
ATOM     47  C   UNL A   1      44.744  26.534  27.187  1.00  0.00    -0.014 A 
BRANCH  47  48
ATOM     48  C   UNL A   1      44.622  27.537  28.283  1.00  0.00     0.031 A 
ATOM     49  C   UNL A   1      44.363  27.120  29.708  1.00  0.00     0.074 A 
ATOM     50  C   UNL A   1      44.824  28.838  27.992  1.00  0.00     0.049 A 
ATOM     51  N   UNL A   1      44.320  27.865  30.784  1.00  0.00    -0.248 NA
ATOM     52  C   UNL A   1      44.112  25.693  29.965  1.00  0.00     0.031 C 
ATOM     53  C   UNL A   1      45.068  29.359  26.646  1.00  0.00     0.029 A 
ATOM     54  N   UNL A   1      44.898  29.948  28.795  1.00  0.00    -0.354 N 
ATOM     55  C   UNL A   1      44.022  27.007  31.837  1.00  0.00     0.074 A 
ATOM     56  C   UNL A   1      43.852  25.690  31.266  1.00  0.00     0.031 C 
ATOM     57  C   UNL A   1      45.343  30.667  26.724  1.00  0.00     0.029 A 
ATOM     58  C   UNL A   1      45.204  31.103  28.110  1.00  0.00     0.049 A 
ATOM     59  H   UNL A   1      44.745  29.922  29.767  1.00  0.00     0.167 HD
ATOM     60  C   UNL A   1      43.921  27.290  33.158  1.00  0.00     0.034 A 
ATOM     61  C   UNL A   1      45.347  32.374  28.536  1.00  0.00     0.034 A 
ATOM     62  C   UNL A   1      44.119  28.607  33.715  1.00  0.00     0.049 A 
ATOM     63  C   UNL A   1      45.210  32.663  30.006  1.00  0.00     0.074 A 
ATOM     64  C   UNL A   1      44.086  28.983  35.046  1.00  0.00     0.029 A 
ATOM     65  N   UNL A   1      44.385  29.759  32.986  1.00  0.00    -0.354 N 
ATOM     66  N   UNL A   1      45.002  31.825  30.994  1.00  0.00    -0.248 NA
ATOM     67  C   UNL A   1      45.329  34.066  30.424  1.00  0.00     0.031 C 
ATOM     68  C   UNL A   1      44.248  30.367  35.116  1.00  0.00     0.029 A 
ATOM     69  C   UNL A   1      44.475  30.849  33.837  1.00  0.00     0.049 A 
ATOM     70  H   UNL A   1      44.494  29.794  32.008  1.00  0.00     0.167 HD
ATOM     71  C   UNL A   1      44.973  32.597  32.152  1.00  0.00     0.074 A 
ATOM     72  C   UNL A   1      45.233  33.962  31.743  1.00  0.00     0.031 C 
ATOM     73  C   UNL A   1      44.736  32.211  33.431  1.00  0.00     0.034 A 
BRANCH  60  74
ATOM     74  C   UNL A   1      43.599  26.173  34.127  1.00  0.00     0.023 A 
ATOM     75  C   UNL A   1      44.564  25.183  34.403  1.00  0.00     0.031 A 
ATOM     76  C   UNL A   1      42.305  25.997  34.648  1.00  0.00     0.131 A 
ATOM     77  C   UNL A   1      44.205  24.042  35.132  1.00  0.00     0.055 A 
ATOM     78  C   UNL A   1      41.967  24.884  35.419  1.00  0.00     0.041 A 
ATOM     79  F   UNL A   1      41.345  26.907  34.411  1.00  0.00    -0.206 F 
ATOM     80  C   UNL A   1      42.915  23.892  35.649  1.00  0.00     0.022 A 
BRANCH  77  81
ATOM     81  S   UNL A   1      45.370  22.669  35.363  1.00  0.00     0.124 S 
ATOM     82  O   UNL A   1      45.405  22.548  36.819  1.00  0.00    -0.237 OA
ATOM     83  O   UNL A   1      44.696  21.579  34.663  1.00  0.00    -0.237 OA
ATOM     84  O   UNL A   1      46.603  23.149  34.749  1.00  0.00    -0.744 OA
ENDBRANCH  77  81
ENDBRANCH  60  74
BRANCH  61  85
ATOM     85  C   UNL A   1      45.674  33.438  27.541  1.00  0.00     0.023 A 
ATOM     86  C   UNL A   1      47.005  33.671  27.146  1.00  0.00     0.031 A 
ATOM     87  C   UNL A   1      44.685  34.316  27.067  1.00  0.00     0.131 A 
ATOM     88  C   UNL A   1      47.322  34.802  26.387  1.00  0.00     0.055 A 
ATOM     89  C   UNL A   1      44.995  35.392  26.234  1.00  0.00     0.041 A 
ATOM     90  F   UNL A   1      43.402  34.147  27.424  1.00  0.00    -0.206 F 
ATOM     91  C   UNL A   1      46.323  35.653  25.909  1.00  0.00     0.022 A 
BRANCH  88  92
ATOM     92  S   UNL A   1      49.050  35.293  26.133  1.00  0.00     0.124 S 
ATOM     93  O   UNL A   1      49.531  34.261  25.221  1.00  0.00    -0.237 OA
ATOM     94  O   UNL A   1      48.898  36.626  25.554  1.00  0.00    -0.237 OA
ATOM     95  O   UNL A   1      49.618  35.264  27.477  1.00  0.00    -0.744 OA
ENDBRANCH  88  92
ENDBRANCH  61  85
BRANCH  73  96
ATOM     96  C   UNL A   1      44.725  33.268  34.513  1.00  0.00     0.023 A 
ATOM     97  C   UNL A   1      43.558  34.015  34.761  1.00  0.00     0.031 A 
ATOM     98  C   UNL A   1      45.901  33.632  35.192  1.00  0.00     0.131 A 
ATOM     99  C   UNL A   1      43.602  35.115  35.628  1.00  0.00     0.055 A 
ATOM    100  C   UNL A   1      45.925  34.691  36.102  1.00  0.00     0.041 A 
ATOM    101  F   UNL A   1      47.045  32.962  34.982  1.00  0.00    -0.206 F 
ATOM    102  C   UNL A   1      44.777  35.448  36.309  1.00  0.00     0.022 A 
BRANCH  99 103
ATOM    103  S   UNL A   1      42.172  36.213  35.827  1.00  0.00     0.124 S 
ATOM    104  O   UNL A   1      41.056  35.303  35.580  1.00  0.00    -0.237 OA
ATOM    105  O   UNL A   1      42.318  36.658  37.210  1.00  0.00    -0.237 OA
ATOM    106  O   UNL A   1      42.373  37.241  34.811  1.00  0.00    -0.744 OA
ENDBRANCH  99 103
ENDBRANCH  73  96
ENDBRANCH  47  48
ENDBRANCH  39  42
ENDBRANCH  37  38
ENDBRANCH   1  37
TORSDOF 15
ENDMDL
MODEL 2
REMARK VINA RESULT:     -10.0      1.239      2.621
REMARK SMILES C[C@]12c3ccccc3[C@](C)(c3ccccc31)[C@@H]1C(=O)N(c3ccc(C(=O)NCCCCNC(=O)c4ccc(-c5c6nc(c(-c7cc(S(=O)(=O)[O-])ccc7F)c7ccc([nH]7)c(-c7cc(S(=O)(=O)[O-])ccc7F)c7nc(c(-c8cc(S(=O)(=O)[O-])ccc8F)c8ccc5[nH]8)C=C7)C=C6)cc4)cc3)C(=O)[C@H]12
REMARK SMILES IDX 30 1 29 2 28 3 27 4 25 5 26 6 24 8 21 9 22 10 99 11 23 12
REMARK SMILES IDX 98 13 20 14 1 15 2 16 16 17 3 18 102 19 15 20 11 21 8 22
REMARK SMILES IDX 4 23 17 24 100 25 14 26 12 27 9 28 7 29 5 30 18 31 101 32
REMARK SMILES IDX 13 33 10 34 6 35 19 36 31 37 32 38 33 39 34 41 35 42 36 43
REMARK SMILES IDX 97 44 37 45 96 46 38 47 39 48 40 49 90 50 41 51 95 52 89 53
REMARK SMILES IDX 91 54 42 55 94 56 88 57 87 58 43 60 75 61 55 62 74 63 56 64
REMARK SMILES IDX 59 65 73 66 92 67 57 68 58 69 72 71 93 72 60 73 44 74 45 75
REMARK SMILES IDX 53 76 46 77 52 78 54 79 51 80 47 81 48 82 49 83 50 84 76 85
REMARK SMILES IDX 77 86 85 87 78 88 84 89 86 90 83 91 79 92 80 93 81 94 82 95
REMARK SMILES IDX 61 96 62 97 70 98 63 99 69 100 71 101 68 102 64 103 65 104
REMARK SMILES IDX 66 105 67 106
REMARK H PARENT 27 7 32 40 91 59 59 70
REMARK Flexibility Score: inf
ROOT
ATOM      1  C   UNL A   1      44.111  23.161  26.842  1.00  0.00     0.023 C 
ENDROOT
BRANCH   1   2
ATOM      2  C   UNL A   1      43.047  23.836  27.697  1.00  0.00     0.023 C 
BRANCH   2   3
ATOM      3  C   UNL A   1      41.863  22.965  28.101  1.00  0.00     0.116 C 
BRANCH   3   4
ATOM      4  N   UNL A   1      40.768  22.956  27.144  1.00  0.00    -0.352 N 
ATOM      5  C   UNL A   1      39.788  23.895  26.913  1.00  0.00     0.251 C 
ATOM      6  O   UNL A   1      38.926  23.682  26.065  1.00  0.00    -0.269 OA
ATOM      7  H   UNL A   1      40.720  22.155  26.573  1.00  0.00     0.163 HD
BRANCH   5   8
ATOM      8  C   UNL A   1      39.713  25.131  27.728  1.00  0.00     0.039 A 
ATOM      9  C   UNL A   1      39.289  27.589  29.026  1.00  0.00     0.052 A 
ATOM     10  C   UNL A   1      39.998  27.534  27.818  1.00  0.00     0.027 A 
ATOM     11  C   UNL A   1      38.903  26.385  29.631  1.00  0.00     0.027 A 
ATOM     12  C   UNL A   1      40.221  26.312  27.178  1.00  0.00     0.016 A 
ATOM     13  C   UNL A   1      39.128  25.162  28.994  1.00  0.00     0.016 A 
BRANCH   9  14
ATOM     14  N   UNL A   1      38.903  28.828  29.591  1.00  0.00    -0.250 N 
ATOM     15  C   UNL A   1      39.831  31.552  33.089  1.00  0.00     0.022 C 
ATOM     16  C   UNL A   1      38.961  31.854  31.869  1.00  0.00     0.030 C 
ATOM     17  C   UNL A   1      39.464  33.014  30.970  1.00  0.00    -0.033 A 
ATOM     18  C   UNL A   1      37.488  32.256  32.203  1.00  0.00    -0.033 A 
ATOM     19  C   UNL A   1      38.663  30.583  31.036  1.00  0.00     0.108 C 
ATOM     20  C   UNL A   1      40.602  33.787  31.185  1.00  0.00     0.005 A 
ATOM     21  C   UNL A   1      38.597  33.324  29.865  1.00  0.00    -0.033 A 
ATOM     22  C   UNL A   1      36.658  32.398  31.037  1.00  0.00    -0.033 A 
ATOM     23  C   UNL A   1      36.951  32.421  33.478  1.00  0.00     0.005 A 
ATOM     24  C   UNL A   1      38.262  31.008  29.623  1.00  0.00     0.108 C 
ATOM     25  C   UNL A   1      39.536  29.415  30.699  1.00  0.00     0.238 C 
ATOM     26  C   UNL A   1      40.869  34.861  30.331  1.00  0.00     0.000 A 
ATOM     27  C   UNL A   1      38.868  34.406  29.032  1.00  0.00     0.005 A 
ATOM     28  C   UNL A   1      37.425  32.304  29.695  1.00  0.00     0.030 C 
ATOM     29  C   UNL A   1      35.301  32.669  31.187  1.00  0.00     0.005 A 
ATOM     30  C   UNL A   1      35.591  32.703  33.603  1.00  0.00     0.000 A 
ATOM     31  C   UNL A   1      37.933  29.676  29.043  1.00  0.00     0.238 C 
ATOM     32  O   UNL A   1      40.516  29.060  31.325  1.00  0.00    -0.274 OA
ATOM     33  C   UNL A   1      40.006  35.174  29.274  1.00  0.00     0.000 A 
ATOM     34  C   UNL A   1      36.581  32.508  28.439  1.00  0.00     0.022 C 
ATOM     35  C   UNL A   1      34.774  32.816  32.471  1.00  0.00     0.000 A 
ATOM     36  O   UNL A   1      37.081  29.454  28.199  1.00  0.00    -0.274 OA
ENDBRANCH   9  14
ENDBRANCH   5   8
ENDBRANCH   3   4
ENDBRANCH   2   3
ENDBRANCH   1   2
BRANCH   1  37
ATOM     37  C   UNL A   1      43.967  23.354  25.340  1.00  0.00     0.116 C 
BRANCH  37  38
ATOM     38  N   UNL A   1      45.232  23.572  24.647  1.00  0.00    -0.352 N 
ATOM     39  C   UNL A   1      46.087  24.653  24.681  1.00  0.00     0.251 C 
ATOM     40  H   UNL A   1      45.520  22.831  24.065  1.00  0.00     0.163 HD
ATOM     41  O   UNL A   1      47.064  24.681  23.939  1.00  0.00    -0.269 OA
BRANCH  39  42
ATOM     42  C   UNL A   1      45.789  25.796  25.574  1.00  0.00     0.039 A 
ATOM     43  C   UNL A   1      46.704  26.182  26.549  1.00  0.00     0.014 A 
ATOM     44  C   UNL A   1      44.553  26.442  25.482  1.00  0.00     0.014 A 
ATOM     45  C   UNL A   1      46.293  27.018  27.577  1.00  0.00     0.010 A 
ATOM     46  C   UNL A   1      44.193  27.392  26.447  1.00  0.00     0.010 A 
ATOM     47  C   UNL A   1      45.031  27.638  27.544  1.00  0.00    -0.014 A 
BRANCH  47  48
ATOM     48  C   UNL A   1      44.646  28.544  28.663  1.00  0.00     0.031 A 
ATOM     49  C   UNL A   1      44.276  28.006  30.021  1.00  0.00     0.074 A 
ATOM     50  C   UNL A   1      44.704  29.876  28.464  1.00  0.00     0.049 A 
ATOM     51  N   UNL A   1      44.004  28.668  31.118  1.00  0.00    -0.248 NA
ATOM     52  C   UNL A   1      44.190  26.545  30.175  1.00  0.00     0.031 C 
ATOM     53  C   UNL A   1      45.035  30.511  27.187  1.00  0.00     0.029 A 
ATOM     54  N   UNL A   1      44.531  30.932  29.323  1.00  0.00    -0.354 N 
ATOM     55  C   UNL A   1      43.701  27.712  32.082  1.00  0.00     0.074 A 
ATOM     56  C   UNL A   1      43.779  26.424  31.431  1.00  0.00     0.031 C 
ATOM     57  C   UNL A   1      45.120  31.835  27.363  1.00  0.00     0.029 A 
ATOM     58  C   UNL A   1      44.759  32.159  28.740  1.00  0.00     0.049 A 
ATOM     59  H   UNL A   1      44.268  30.824  30.265  1.00  0.00     0.167 HD
ATOM     60  C   UNL A   1      43.405  27.894  33.392  1.00  0.00     0.034 A 
ATOM     61  C   UNL A   1      44.678  33.407  29.242  1.00  0.00     0.034 A 
ATOM     62  C   UNL A   1      43.356  29.186  34.033  1.00  0.00     0.049 A 
ATOM     63  C   UNL A   1      44.328  33.580  30.694  1.00  0.00     0.074 A 
ATOM     64  C   UNL A   1      43.113  29.468  35.366  1.00  0.00     0.029 A 
ATOM     65  N   UNL A   1      43.550  30.407  33.400  1.00  0.00    -0.354 N 
ATOM     66  N   UNL A   1      44.117  32.661  31.606  1.00  0.00    -0.248 NA
ATOM     67  C   UNL A   1      44.206  34.957  31.192  1.00  0.00     0.031 C 
ATOM     68  C   UNL A   1      43.078  30.853  35.523  1.00  0.00     0.029 A 
ATOM     69  C   UNL A   1      43.390  31.443  34.308  1.00  0.00     0.049 A 
ATOM     70  H   UNL A   1      43.770  30.519  32.447  1.00  0.00     0.167 HD
ATOM     71  C   UNL A   1      43.846  33.346  32.787  1.00  0.00     0.074 A 
ATOM     72  C   UNL A   1      43.968  34.756  32.481  1.00  0.00     0.031 C 
ATOM     73  C   UNL A   1      43.513  32.850  34.005  1.00  0.00     0.034 A 
BRANCH  60  74
ATOM     74  C   UNL A   1      43.122  26.684  34.256  1.00  0.00     0.023 A 
ATOM     75  C   UNL A   1      44.156  25.770  34.544  1.00  0.00     0.031 A 
ATOM     76  C   UNL A   1      41.816  26.352  34.657  1.00  0.00     0.131 A 
ATOM     77  C   UNL A   1      43.857  24.551  35.165  1.00  0.00     0.055 A 
ATOM     78  C   UNL A   1      41.532  25.159  35.324  1.00  0.00     0.041 A 
ATOM     79  F   UNL A   1      40.792  27.183  34.403  1.00  0.00    -0.206 F 
ATOM     80  C   UNL A   1      42.553  24.244  35.566  1.00  0.00     0.022 A 
BRANCH  77  81
ATOM     81  S   UNL A   1      45.130  23.279  35.400  1.00  0.00     0.124 S 
ATOM     82  O   UNL A   1      46.227  23.798  34.585  1.00  0.00    -0.237 OA
ATOM     83  O   UNL A   1      45.348  23.330  36.844  1.00  0.00    -0.237 OA
ATOM     84  O   UNL A   1      44.505  22.060  34.898  1.00  0.00    -0.744 OA
ENDBRANCH  77  81
ENDBRANCH  60  74
BRANCH  61  85
ATOM     85  C   UNL A   1      44.975  34.566  28.349  1.00  0.00     0.023 A 
ATOM     86  C   UNL A   1      46.264  35.133  28.309  1.00  0.00     0.031 A 
ATOM     87  C   UNL A   1      43.955  35.203  27.623  1.00  0.00     0.131 A 
ATOM     88  C   UNL A   1      46.475  36.343  27.641  1.00  0.00     0.055 A 
ATOM     89  C   UNL A   1      44.193  36.362  26.882  1.00  0.00     0.041 A 
ATOM     90  F   UNL A   1      42.706  34.712  27.638  1.00  0.00    -0.206 F 
ATOM     91  C   UNL A   1      45.453  36.951  26.908  1.00  0.00     0.022 A 
BRANCH  88  92
ATOM     92  S   UNL A   1      48.036  37.249  27.836  1.00  0.00     0.124 S 
ATOM     93  O   UNL A   1      48.960  36.441  27.046  1.00  0.00    -0.237 OA
ATOM     94  O   UNL A   1      47.695  38.552  27.270  1.00  0.00    -0.237 OA
ATOM     95  O   UNL A   1      48.262  37.240  29.277  1.00  0.00    -0.744 OA
ENDBRANCH  88  92
ENDBRANCH  61  85
BRANCH  73  96
ATOM     96  C   UNL A   1      43.229  33.825  35.127  1.00  0.00     0.023 A 
ATOM     97  C   UNL A   1      41.903  34.182  35.437  1.00  0.00     0.031 A 
ATOM     98  C   UNL A   1      44.269  34.504  35.785  1.00  0.00     0.131 A 
ATOM     99  C   UNL A   1      41.653  35.220  36.344  1.00  0.00     0.055 A 
ATOM    100  C   UNL A   1      44.014  35.496  36.734  1.00  0.00     0.041 A 
ATOM    101  F   UNL A   1      45.552  34.212  35.517  1.00  0.00    -0.206 F 
ATOM    102  C   UNL A   1      42.701  35.869  37.004  1.00  0.00     0.022 A 
BRANCH  99 103
ATOM    103  S   UNL A   1      39.970  35.834  36.626  1.00  0.00     0.124 S 
ATOM    104  O   UNL A   1      40.168  36.760  37.739  1.00  0.00    -0.237 OA
ATOM    105  O   UNL A   1      39.653  36.460  35.345  1.00  0.00    -0.237 OA
ATOM    106  O   UNL A   1      39.205  34.633  36.945  1.00  0.00    -0.744 OA
ENDBRANCH  99 103
ENDBRANCH  73  96
ENDBRANCH  47  48
ENDBRANCH  39  42
ENDBRANCH  37  38
ENDBRANCH   1  37
TORSDOF 15
ENDMDL
MODEL 3
REMARK VINA RESULT:      -9.9      0.735      2.325
REMARK SMILES C[C@]12c3ccccc3[C@](C)(c3ccccc31)[C@@H]1C(=O)N(c3ccc(C(=O)NCCCCNC(=O)c4ccc(-c5c6nc(c(-c7cc(S(=O)(=O)[O-])ccc7F)c7ccc([nH]7)c(-c7cc(S(=O)(=O)[O-])ccc7F)c7nc(c(-c8cc(S(=O)(=O)[O-])ccc8F)c8ccc5[nH]8)C=C7)C=C6)cc4)cc3)C(=O)[C@H]12
REMARK SMILES IDX 30 1 29 2 28 3 27 4 25 5 26 6 24 8 21 9 22 10 99 11 23 12
REMARK SMILES IDX 98 13 20 14 1 15 2 16 16 17 3 18 102 19 15 20 11 21 8 22
REMARK SMILES IDX 4 23 17 24 100 25 14 26 12 27 9 28 7 29 5 30 18 31 101 32
REMARK SMILES IDX 13 33 10 34 6 35 19 36 31 37 32 38 33 39 34 41 35 42 36 43
REMARK SMILES IDX 97 44 37 45 96 46 38 47 39 48 40 49 90 50 41 51 95 52 89 53
REMARK SMILES IDX 91 54 42 55 94 56 88 57 87 58 43 60 75 61 55 62 74 63 56 64
REMARK SMILES IDX 59 65 73 66 92 67 57 68 58 69 72 71 93 72 60 73 44 74 45 75
REMARK SMILES IDX 53 76 46 77 52 78 54 79 51 80 47 81 48 82 49 83 50 84 76 85
REMARK SMILES IDX 77 86 85 87 78 88 84 89 86 90 83 91 79 92 80 93 81 94 82 95
REMARK SMILES IDX 61 96 62 97 70 98 63 99 69 100 71 101 68 102 64 103 65 104
REMARK SMILES IDX 66 105 67 106
REMARK H PARENT 27 7 32 40 91 59 59 70
REMARK Flexibility Score: inf
ROOT
ATOM      1  C   UNL A   1      42.455  21.757  26.671  1.00  0.00     0.023 C 
ENDROOT
BRANCH   1   2
ATOM      2  C   UNL A   1      42.344  22.720  27.845  1.00  0.00     0.023 C 
BRANCH   2   3
ATOM      3  C   UNL A   1      40.937  22.967  28.377  1.00  0.00     0.116 C 
BRANCH   3   4
ATOM      4  N   UNL A   1      39.948  23.254  27.350  1.00  0.00    -0.352 N 
ATOM      5  C   UNL A   1      39.288  24.428  27.063  1.00  0.00     0.251 C 
ATOM      6  O   UNL A   1      38.457  24.456  26.159  1.00  0.00    -0.269 OA
ATOM      7  H   UNL A   1      39.715  22.493  26.771  1.00  0.00     0.163 HD
BRANCH   5   8
ATOM      8  C   UNL A   1      39.508  25.644  27.882  1.00  0.00     0.039 A 
ATOM      9  C   UNL A   1      39.672  28.125  29.193  1.00  0.00     0.052 A 
ATOM     10  C   UNL A   1      40.318  27.924  27.966  1.00  0.00     0.027 A 
ATOM     11  C   UNL A   1      39.047  27.032  29.808  1.00  0.00     0.027 A 
ATOM     12  C   UNL A   1      40.249  26.688  27.318  1.00  0.00     0.016 A 
ATOM     13  C   UNL A   1      38.979  25.793  29.163  1.00  0.00     0.016 A 
BRANCH   9  14
ATOM     14  N   UNL A   1      39.584  29.415  29.770  1.00  0.00    -0.250 N 
ATOM     15  C   UNL A   1      41.589  32.037  32.873  1.00  0.00     0.022 C 
ATOM     16  C   UNL A   1      40.529  32.438  31.849  1.00  0.00     0.030 C 
ATOM     17  C   UNL A   1      40.979  33.502  30.813  1.00  0.00    -0.033 A 
ATOM     18  C   UNL A   1      39.227  33.047  32.465  1.00  0.00    -0.033 A 
ATOM     19  C   UNL A   1      39.893  31.208  31.154  1.00  0.00     0.108 C 
ATOM     20  C   UNL A   1      42.229  34.111  30.751  1.00  0.00     0.005 A 
ATOM     21  C   UNL A   1      39.945  33.913  29.901  1.00  0.00    -0.033 A 
ATOM     22  C   UNL A   1      38.195  33.285  31.492  1.00  0.00    -0.033 A 
ATOM     23  C   UNL A   1      39.000  33.305  33.814  1.00  0.00     0.005 A 
ATOM     24  C   UNL A   1      39.261  31.664  29.838  1.00  0.00     0.108 C 
ATOM     25  C   UNL A   1      40.511  29.925  30.695  1.00  0.00     0.238 C 
ATOM     26  C   UNL A   1      42.449  35.125  29.813  1.00  0.00     0.000 A 
ATOM     27  C   UNL A   1      40.175  34.934  28.982  1.00  0.00     0.005 A 
ATOM     28  C   UNL A   1      38.639  33.065  30.025  1.00  0.00     0.030 C 
ATOM     29  C   UNL A   1      36.949  33.746  31.909  1.00  0.00     0.005 A 
ATOM     30  C   UNL A   1      37.749  33.777  34.207  1.00  0.00     0.000 A 
ATOM     31  C   UNL A   1      38.642  30.382  29.399  1.00  0.00     0.238 C 
ATOM     32  O   UNL A   1      41.545  29.445  31.118  1.00  0.00    -0.274 OA
ATOM     33  C   UNL A   1      41.430  35.539  28.946  1.00  0.00     0.000 A 
ATOM     34  C   UNL A   1      37.582  33.366  28.964  1.00  0.00     0.022 C 
ATOM     35  C   UNL A   1      36.732  33.985  33.267  1.00  0.00     0.000 A 
ATOM     36  O   UNL A   1      37.608  30.268  28.762  1.00  0.00    -0.274 OA
ENDBRANCH   9  14
ENDBRANCH   5   8
ENDBRANCH   3   4
ENDBRANCH   2   3
ENDBRANCH   1   2
BRANCH   1  37
ATOM     37  C   UNL A   1      43.868  21.326  26.306  1.00  0.00     0.116 C 
BRANCH  37  38
ATOM     38  N   UNL A   1      44.239  21.622  24.926  1.00  0.00    -0.352 N 
ATOM     39  C   UNL A   1      44.571  22.823  24.336  1.00  0.00     0.251 C 
ATOM     40  H   UNL A   1      44.254  20.843  24.324  1.00  0.00     0.163 HD
ATOM     41  O   UNL A   1      44.758  22.876  23.125  1.00  0.00    -0.269 OA
BRANCH  39  42
ATOM     42  C   UNL A   1      44.648  24.050  25.162  1.00  0.00     0.039 A 
ATOM     43  C   UNL A   1      45.786  24.320  25.915  1.00  0.00     0.014 A 
ATOM     44  C   UNL A   1      43.543  24.902  25.238  1.00  0.00     0.014 A 
ATOM     45  C   UNL A   1      45.728  25.274  26.921  1.00  0.00     0.010 A 
ATOM     46  C   UNL A   1      43.541  25.956  26.161  1.00  0.00     0.010 A 
ATOM     47  C   UNL A   1      44.605  26.109  27.062  1.00  0.00    -0.014 A 
BRANCH  47  48
ATOM     48  C   UNL A   1      44.601  27.132  28.145  1.00  0.00     0.031 A 
ATOM     49  C   UNL A   1      44.375  26.753  29.586  1.00  0.00     0.074 A 
ATOM     50  C   UNL A   1      44.880  28.411  27.825  1.00  0.00     0.049 A 
ATOM     51  N   UNL A   1      44.430  27.513  30.651  1.00  0.00    -0.248 NA
ATOM     52  C   UNL A   1      44.037  25.350  29.877  1.00  0.00     0.031 C 
ATOM     53  C   UNL A   1      45.101  28.897  26.462  1.00  0.00     0.029 A 
ATOM     54  N   UNL A   1      45.065  29.524  28.606  1.00  0.00    -0.354 N 
ATOM     55  C   UNL A   1      44.120  26.692  31.730  1.00  0.00     0.074 A 
ATOM     56  C   UNL A   1      43.834  25.383  31.188  1.00  0.00     0.031 C 
ATOM     57  C   UNL A   1      45.469  30.183  26.507  1.00  0.00     0.029 A 
ATOM     58  C   UNL A   1      45.421  30.645  27.891  1.00  0.00     0.049 A 
ATOM     59  H   UNL A   1      44.953  29.522  29.584  1.00  0.00     0.167 HD
ATOM     60  C   UNL A   1      44.096  26.999  33.050  1.00  0.00     0.034 A 
ATOM     61  C   UNL A   1      45.670  31.909  28.290  1.00  0.00     0.034 A 
ATOM     62  C   UNL A   1      44.409  28.306  33.576  1.00  0.00     0.049 A 
ATOM     63  C   UNL A   1      45.616  32.226  29.759  1.00  0.00     0.074 A 
ATOM     64  C   UNL A   1      44.459  28.701  34.901  1.00  0.00     0.029 A 
ATOM     65  N   UNL A   1      44.721  29.426  32.818  1.00  0.00    -0.354 N 
ATOM     66  N   UNL A   1      45.393  31.418  30.769  1.00  0.00    -0.248 NA
ATOM     67  C   UNL A   1      45.851  33.622  30.149  1.00  0.00     0.031 C 
ATOM     68  C   UNL A   1      44.719  30.070  34.942  1.00  0.00     0.029 A 
ATOM     69  C   UNL A   1      44.924  30.519  33.647  1.00  0.00     0.049 A 
ATOM     70  H   UNL A   1      44.791  29.441  31.836  1.00  0.00     0.167 HD
ATOM     71  C   UNL A   1      45.468  32.206  31.914  1.00  0.00     0.074 A 
ATOM     72  C   UNL A   1      45.804  33.544  31.473  1.00  0.00     0.031 C 
ATOM     73  C   UNL A   1      45.261  31.853  33.208  1.00  0.00     0.034 A 
BRANCH  60  74
ATOM     74  C   UNL A   1      43.739  25.920  34.049  1.00  0.00     0.023 A 
ATOM     75  C   UNL A   1      44.654  24.882  34.318  1.00  0.00     0.031 A 
ATOM     76  C   UNL A   1      42.452  25.827  34.608  1.00  0.00     0.131 A 
ATOM     77  C   UNL A   1      44.253  23.777  35.079  1.00  0.00     0.055 A 
ATOM     78  C   UNL A   1      42.074  24.749  35.410  1.00  0.00     0.041 A 
ATOM     79  F   UNL A   1      41.539  26.784  34.379  1.00  0.00    -0.206 F 
ATOM     80  C   UNL A   1      42.972  23.709  35.635  1.00  0.00     0.022 A 
BRANCH  77  81
ATOM     81  S   UNL A   1      45.345  22.345  35.306  1.00  0.00     0.124 S 
ATOM     82  O   UNL A   1      46.523  22.742  34.537  1.00  0.00    -0.237 OA
ATOM     83  O   UNL A   1      45.524  22.326  36.755  1.00  0.00    -0.237 OA
ATOM     84  O   UNL A   1      44.585  21.232  34.748  1.00  0.00    -0.744 OA
ENDBRANCH  77  81
ENDBRANCH  60  74
BRANCH  61  85
ATOM     85  C   UNL A   1      46.026  32.934  27.265  1.00  0.00     0.023 A 
ATOM     86  C   UNL A   1      47.368  33.143  26.891  1.00  0.00     0.031 A 
ATOM     87  C   UNL A   1      45.055  33.802  26.739  1.00  0.00     0.131 A 
ATOM     88  C   UNL A   1      47.709  34.245  26.099  1.00  0.00     0.055 A 
ATOM     89  C   UNL A   1      45.391  34.846  25.875  1.00  0.00     0.041 A 
ATOM     90  F   UNL A   1      43.763  33.655  27.074  1.00  0.00    -0.206 F 
ATOM     91  C   UNL A   1      46.727  35.086  25.570  1.00  0.00     0.022 A 
BRANCH  88  92
ATOM     92  S   UNL A   1      49.447  34.714  25.866  1.00  0.00     0.124 S 
ATOM     93  O   UNL A   1      49.421  35.336  24.546  1.00  0.00    -0.237 OA
ATOM     94  O   UNL A   1      49.661  35.625  26.988  1.00  0.00    -0.237 OA
ATOM     95  O   UNL A   1      50.162  33.446  25.953  1.00  0.00    -0.744 OA
ENDBRANCH  88  92
ENDBRANCH  61  85
BRANCH  73  96
ATOM     96  C   UNL A   1      45.370  32.923  34.273  1.00  0.00     0.023 A 
ATOM     97  C   UNL A   1      44.278  33.771  34.539  1.00  0.00     0.031 A 
ATOM     98  C   UNL A   1      46.590  33.194  34.914  1.00  0.00     0.131 A 
ATOM     99  C   UNL A   1      44.440  34.875  35.386  1.00  0.00     0.055 A 
ATOM    100  C   UNL A   1      46.731  34.260  35.806  1.00  0.00     0.041 A 
ATOM    101  F   UNL A   1      47.667  32.426  34.686  1.00  0.00    -0.206 F 
ATOM    102  C   UNL A   1      45.657  35.115  36.031  1.00  0.00     0.022 A 
BRANCH  99 103
ATOM    103  S   UNL A   1      43.114  36.094  35.604  1.00  0.00     0.124 S 
ATOM    104  O   UNL A   1      42.699  35.845  36.983  1.00  0.00    -0.237 OA
ATOM    105  O   UNL A   1      43.819  37.355  35.384  1.00  0.00    -0.237 OA
ATOM    106  O   UNL A   1      42.135  35.735  34.584  1.00  0.00    -0.744 OA
ENDBRANCH  99 103
ENDBRANCH  73  96
ENDBRANCH  47  48
ENDBRANCH  39  42
ENDBRANCH  37  38
ENDBRANCH   1  37
TORSDOF 15
ENDMDL
