MODEL 1
REMARK VINA RESULT:     -12.5      0.000      0.000
REMARK SMILES O=C(NCCCCNC(=O)c1ccc(-c2c3nc(c(-c4cc(S(=O)(=O)[O-])ccc4F)c4ccc([nH]4)c(-c4cc(S(=O)(=O)[O-])ccc4F)c4nc(c(-c5cc(S(=O)(=O)[O-])ccc5F)c5ccc2[nH]5)C=C4)C=C3)cc1)C1=Cc2cc(S(F)(F)(F)(F)F)ccc2O[C@@H]1C(F)(F)F
REMARK SMILES IDX 6 1 5 2 4 3 3 4 1 5 2 6 74 8 75 9 89 10 76 11 88 12 77 13
REMARK SMILES IDX 87 14 78 15 86 16 85 17 90 18 91 19 92 20 93 21 79 22 80 23
REMARK SMILES IDX 81 24 82 25 83 26 84 27 7 28 8 29 9 30 10 32 11 33 12 34
REMARK SMILES IDX 73 35 13 36 72 37 14 38 15 39 16 40 66 41 17 42 71 43 65 44
REMARK SMILES IDX 67 45 18 46 70 47 64 48 63 49 19 51 51 52 31 53 50 54 32 55
REMARK SMILES IDX 35 56 49 57 68 58 33 59 34 60 48 62 69 63 36 64 20 65 21 66
REMARK SMILES IDX 29 67 22 68 28 69 30 70 27 71 23 72 24 73 25 74 26 75 52 76
REMARK SMILES IDX 53 77 61 78 54 79 60 80 62 81 59 82 55 83 56 84 57 85 58 86
REMARK SMILES IDX 37 87 38 88 46 89 39 90 45 91 47 92 44 93 40 94 41 95 42 96
REMARK SMILES IDX 43 97
REMARK H PARENT 3 7 8 31 67 50 35 61
REMARK Flexibility Score: inf
ROOT
ATOM      1  C   UNL A   1      39.043  21.782  25.764  1.00  0.00     0.023 C 
ENDROOT
BRANCH   1   2
ATOM      2  C   UNL A   1      38.850  23.138  26.424  1.00  0.00     0.023 C 
BRANCH   2   3
ATOM      3  C   UNL A   1      37.505  23.715  26.011  1.00  0.00     0.116 C 
BRANCH   3   4
ATOM      4  N   UNL A   1      37.358  23.620  24.551  1.00  0.00    -0.352 N 
ATOM      5  O   UNL A   1      36.107  22.787  22.712  1.00  0.00    -0.270 OA
ATOM      6  C   UNL A   1      36.233  22.870  23.973  1.00  0.00     0.251 C 
ATOM      7  H   UNL A   1      38.013  24.058  23.961  1.00  0.00     0.163 HD
BRANCH   6   8
ATOM      8  C   UNL A   1      35.224  22.192  24.884  1.00  0.00     0.067 C 
ATOM      9  C   UNL A   1      34.197  22.909  25.416  1.00  0.00     0.025 C 
ATOM     10  C   UNL A   1      35.360  20.711  25.201  1.00  0.00     0.314 C 
ATOM     11  C   UNL A   1      34.060  24.389  25.098  1.00  0.00     0.019 A 
ATOM     12  O   UNL A   1      34.739  23.956  22.862  1.00  0.00    -0.475 OA
ATOM     13  C   UNL A   1      33.691  25.249  26.120  1.00  0.00     0.036 A 
ATOM     14  C   UNL A   1      34.205  24.824  23.852  1.00  0.00     0.128 A 
ATOM     15  C   UNL A   1      33.211  26.502  25.670  1.00  0.00     0.107 A 
ATOM     16  C   UNL A   1      33.844  26.105  23.511  1.00  0.00     0.048 A 
ATOM     17  C   UNL A   1      33.413  26.990  24.460  1.00  0.00     0.028 A 
BRANCH  10  18
ATOM     18  C   UNL A   1      34.115  19.976  24.731  1.00  0.00     0.429 C 
ATOM     19  F   UNL A   1      33.278  19.823  25.754  1.00  0.00    -0.167 F 
ATOM     20  F   UNL A   1      33.520  20.680  23.773  1.00  0.00    -0.167 F 
ATOM     21  F   UNL A   1      34.458  18.782  24.256  1.00  0.00    -0.167 F 
ENDBRANCH  10  18
BRANCH  15  22
ATOM     22  S   UNL A   1      32.256  27.506  26.835  1.00  0.00     0.310 S 
ATOM     23  F   UNL A   1      32.254  28.752  25.854  1.00  0.00    -0.094 F 
ATOM     24  F   UNL A   1      33.610  28.056  27.422  1.00  0.00    -0.094 F 
ATOM     25  F   UNL A   1      31.438  28.369  27.835  1.00  0.00    -0.094 F 
ATOM     26  F   UNL A   1      30.911  27.050  26.142  1.00  0.00    -0.094 F 
ATOM     27  F   UNL A   1      33.073  26.711  25.739  1.00  0.00    -0.094 F 
ENDBRANCH  15  22
ENDBRANCH   6   8
ENDBRANCH   3   4
ENDBRANCH   2   3
ENDBRANCH   1   2
BRANCH   1  28
ATOM     28  C   UNL A   1      39.666  20.818  26.760  1.00  0.00     0.116 C 
BRANCH  28  29
ATOM     29  N   UNL A   1      40.716  20.035  26.093  1.00  0.00    -0.352 N 
ATOM     30  C   UNL A   1      42.076  20.581  25.973  1.00  0.00     0.251 C 
ATOM     31  H   UNL A   1      40.508  19.146  25.726  1.00  0.00     0.163 HD
ATOM     32  O   UNL A   1      42.984  19.903  25.397  1.00  0.00    -0.269 OA
BRANCH  30  33
ATOM     33  C   UNL A   1      42.396  21.954  26.540  1.00  0.00     0.039 A 
ATOM     34  C   UNL A   1      42.512  22.141  27.907  1.00  0.00     0.014 A 
ATOM     35  C   UNL A   1      42.471  22.977  25.697  1.00  0.00     0.014 A 
ATOM     36  C   UNL A   1      42.417  23.494  28.311  1.00  0.00     0.010 A 
ATOM     37  C   UNL A   1      42.512  24.268  26.164  1.00  0.00     0.010 A 
ATOM     38  C   UNL A   1      42.569  24.528  27.505  1.00  0.00    -0.014 A 
BRANCH  38  39
ATOM     39  C   UNL A   1      42.794  25.934  28.040  1.00  0.00     0.031 A 
ATOM     40  C   UNL A   1      44.107  26.404  27.992  1.00  0.00     0.074 A 
ATOM     41  C   UNL A   1      41.711  26.700  28.434  1.00  0.00     0.049 A 
ATOM     42  N   UNL A   1      44.540  27.634  28.270  1.00  0.00    -0.248 NA
ATOM     43  C   UNL A   1      45.264  25.583  27.607  1.00  0.00     0.031 C 
ATOM     44  C   UNL A   1      40.381  26.235  28.477  1.00  0.00     0.029 A 
ATOM     45  N   UNL A   1      41.711  28.014  28.847  1.00  0.00    -0.354 N 
ATOM     46  C   UNL A   1      45.861  27.709  28.092  1.00  0.00     0.074 A 
ATOM     47  C   UNL A   1      46.346  26.389  27.668  1.00  0.00     0.031 C 
ATOM     48  C   UNL A   1      39.594  27.250  28.920  1.00  0.00     0.029 A 
ATOM     49  C   UNL A   1      40.416  28.367  29.160  1.00  0.00     0.049 A 
ATOM     50  H   UNL A   1      42.499  28.600  28.907  1.00  0.00     0.167 HD
ATOM     51  C   UNL A   1      46.679  28.827  28.263  1.00  0.00     0.034 A 
ATOM     52  C   UNL A   1      39.960  29.587  29.633  1.00  0.00     0.034 A 
ATOM     53  C   UNL A   1      46.216  30.060  28.694  1.00  0.00     0.049 A 
ATOM     54  C   UNL A   1      40.788  30.688  29.860  1.00  0.00     0.074 A 
ATOM     55  C   UNL A   1      47.026  31.199  28.865  1.00  0.00     0.029 A 
ATOM     56  N   UNL A   1      44.926  30.405  29.031  1.00  0.00    -0.354 N 
ATOM     57  N   UNL A   1      42.102  30.774  29.644  1.00  0.00    -0.248 NA
ATOM     58  C   UNL A   1      40.321  31.976  30.392  1.00  0.00     0.031 C 
ATOM     59  C   UNL A   1      46.238  32.214  29.308  1.00  0.00     0.029 A 
ATOM     60  C   UNL A   1      44.922  31.725  29.422  1.00  0.00     0.049 A 
ATOM     61  H   UNL A   1      44.142  29.811  28.999  1.00  0.00     0.167 HD
ATOM     62  C   UNL A   1      42.541  31.994  29.963  1.00  0.00     0.074 A 
ATOM     63  C   UNL A   1      41.403  32.782  30.455  1.00  0.00     0.031 C 
ATOM     64  C   UNL A   1      43.845  32.480  29.859  1.00  0.00     0.034 A 
BRANCH  51  65
ATOM     65  C   UNL A   1      48.162  28.684  27.959  1.00  0.00     0.023 A 
ATOM     66  C   UNL A   1      48.499  28.722  26.616  1.00  0.00     0.031 A 
ATOM     67  C   UNL A   1      49.095  28.597  28.901  1.00  0.00     0.131 A 
ATOM     68  C   UNL A   1      49.843  28.368  26.352  1.00  0.00     0.055 A 
ATOM     69  C   UNL A   1      50.410  28.386  28.566  1.00  0.00     0.041 A 
ATOM     70  F   UNL A   1      48.752  28.713  30.181  1.00  0.00    -0.206 F 
ATOM     71  C   UNL A   1      50.805  28.353  27.257  1.00  0.00     0.022 A 
BRANCH  68  72
ATOM     72  S   UNL A   1      50.274  27.906  24.656  1.00  0.00     0.124 S 
ATOM     73  O   UNL A   1      51.223  28.952  24.068  1.00  0.00    -0.237 OA
ATOM     74  O   UNL A   1      50.960  26.538  24.660  1.00  0.00    -0.237 OA
ATOM     75  O   UNL A   1      48.853  27.828  23.708  1.00  0.00    -0.744 OA
ENDBRANCH  68  72
ENDBRANCH  51  65
BRANCH  52  76
ATOM     76  C   UNL A   1      38.474  29.734  29.920  1.00  0.00     0.023 A 
ATOM     77  C   UNL A   1      37.634  30.311  28.982  1.00  0.00     0.031 A 
ATOM     78  C   UNL A   1      38.032  29.396  31.126  1.00  0.00     0.131 A 
ATOM     79  C   UNL A   1      36.403  30.761  29.515  1.00  0.00     0.055 A 
ATOM     80  C   UNL A   1      36.769  29.750  31.531  1.00  0.00     0.041 A 
ATOM     81  F   UNL A   1      38.821  28.709  31.948  1.00  0.00    -0.206 F 
ATOM     82  C   UNL A   1      35.904  30.375  30.676  1.00  0.00     0.022 A 
BRANCH  79  83
ATOM     83  S   UNL A   1      35.444  31.945  28.538  1.00  0.00     0.124 S 
ATOM     84  O   UNL A   1      34.394  32.609  29.431  1.00  0.00    -0.237 OA
ATOM     85  O   UNL A   1      36.381  33.014  27.970  1.00  0.00    -0.237 OA
ATOM     86  O   UNL A   1      34.666  31.127  27.254  1.00  0.00    -0.744 OA
ENDBRANCH  79  83
ENDBRANCH  52  76
BRANCH  64  87
ATOM     87  C   UNL A   1      44.099  33.929  30.247  1.00  0.00     0.023 A 
ATOM     88  C   UNL A   1      44.307  34.280  31.571  1.00  0.00     0.031 A 
ATOM     89  C   UNL A   1      43.976  34.851  29.301  1.00  0.00     0.131 A 
ATOM     90  C   UNL A   1      44.082  35.651  31.842  1.00  0.00     0.055 A 
ATOM     91  C   UNL A   1      43.898  36.183  29.627  1.00  0.00     0.041 A 
ATOM     92  F   UNL A   1      43.928  34.482  28.023  1.00  0.00    -0.206 F 
ATOM     93  C   UNL A   1      44.036  36.598  30.923  1.00  0.00     0.022 A 
BRANCH  90  94
ATOM     94  S   UNL A   1      43.839  36.139  33.568  1.00  0.00     0.124 S 
ATOM     95  O   UNL A   1      42.957  35.105  34.271  1.00  0.00    -0.237 OA
ATOM     96  O   UNL A   1      45.195  36.216  34.272  1.00  0.00    -0.237 OA
ATOM     97  O   UNL A   1      43.079  37.669  33.626  1.00  0.00    -0.744 OA
ENDBRANCH  90  94
ENDBRANCH  64  87
ENDBRANCH  38  39
ENDBRANCH  30  33
ENDBRANCH  28  29
ENDBRANCH   1  28
TORSDOF 16
ENDMDL
MODEL 2
REMARK VINA RESULT:     -12.4      4.957      9.994
REMARK SMILES O=C(NCCCCNC(=O)c1ccc(-c2c3nc(c(-c4cc(S(=O)(=O)[O-])ccc4F)c4ccc([nH]4)c(-c4cc(S(=O)(=O)[O-])ccc4F)c4nc(c(-c5cc(S(=O)(=O)[O-])ccc5F)c5ccc2[nH]5)C=C4)C=C3)cc1)C1=Cc2cc(S(F)(F)(F)(F)F)ccc2O[C@@H]1C(F)(F)F
REMARK SMILES IDX 6 1 5 2 4 3 3 4 1 5 2 6 74 8 75 9 89 10 76 11 88 12 77 13
REMARK SMILES IDX 87 14 78 15 86 16 85 17 90 18 91 19 92 20 93 21 79 22 80 23
REMARK SMILES IDX 81 24 82 25 83 26 84 27 7 28 8 29 9 30 10 32 11 33 12 34
REMARK SMILES IDX 73 35 13 36 72 37 14 38 15 39 16 40 66 41 17 42 71 43 65 44
REMARK SMILES IDX 67 45 18 46 70 47 64 48 63 49 19 51 51 52 31 53 50 54 32 55
REMARK SMILES IDX 35 56 49 57 68 58 33 59 34 60 48 62 69 63 36 64 20 65 21 66
REMARK SMILES IDX 29 67 22 68 28 69 30 70 27 71 23 72 24 73 25 74 26 75 52 76
REMARK SMILES IDX 53 77 61 78 54 79 60 80 62 81 59 82 55 83 56 84 57 85 58 86
REMARK SMILES IDX 37 87 38 88 46 89 39 90 45 91 47 92 44 93 40 94 41 95 42 96
REMARK SMILES IDX 43 97
REMARK H PARENT 3 7 8 31 67 50 35 61
REMARK Flexibility Score: inf
ROOT
ATOM      1  C   UNL A   1      33.084  31.179  27.601  1.00  0.00     0.023 C 
ENDROOT
BRANCH   1   2
ATOM      2  C   UNL A   1      34.346  30.331  27.595  1.00  0.00     0.023 C 
BRANCH   2   3
ATOM      3  C   UNL A   1      34.052  28.992  26.938  1.00  0.00     0.116 C 
BRANCH   3   4
ATOM      4  N   UNL A   1      32.884  28.376  27.583  1.00  0.00    -0.352 N 
ATOM      5  O   UNL A   1      30.738  27.391  27.325  1.00  0.00    -0.270 OA
ATOM      6  C   UNL A   1      31.747  27.923  26.767  1.00  0.00     0.251 C 
ATOM      7  H   UNL A   1      32.862  28.266  28.561  1.00  0.00     0.163 HD
BRANCH   6   8
ATOM      8  C   UNL A   1      31.780  28.094  25.257  1.00  0.00     0.067 C 
ATOM      9  C   UNL A   1      32.417  27.175  24.482  1.00  0.00     0.025 C 
ATOM     10  C   UNL A   1      31.099  29.291  24.613  1.00  0.00     0.314 C 
ATOM     11  C   UNL A   1      33.096  25.978  25.126  1.00  0.00     0.019 A 
ATOM     12  O   UNL A   1      31.304  25.815  26.678  1.00  0.00    -0.475 OA
ATOM     13  C   UNL A   1      34.325  25.574  24.628  1.00  0.00     0.036 A 
ATOM     14  C   UNL A   1      32.480  25.289  26.079  1.00  0.00     0.128 A 
ATOM     15  C   UNL A   1      34.690  24.259  25.001  1.00  0.00     0.107 A 
ATOM     16  C   UNL A   1      32.968  24.073  26.491  1.00  0.00     0.048 A 
ATOM     17  C   UNL A   1      34.146  23.585  25.997  1.00  0.00     0.028 A 
BRANCH  10  18
ATOM     18  C   UNL A   1      30.022  28.807  23.656  1.00  0.00     0.429 C 
ATOM     19  F   UNL A   1      30.546  28.646  22.444  1.00  0.00    -0.167 F 
ATOM     20  F   UNL A   1      29.536  27.647  24.087  1.00  0.00    -0.167 F 
ATOM     21  F   UNL A   1      29.042  29.704  23.600  1.00  0.00    -0.167 F 
ENDBRANCH  10  18
BRANCH  15  22
ATOM     22  S   UNL A   1      35.994  23.444  24.046  1.00  0.00     0.310 S 
ATOM     23  F   UNL A   1      35.783  22.072  24.812  1.00  0.00    -0.094 F 
ATOM     24  F   UNL A   1      37.022  23.837  25.173  1.00  0.00    -0.094 F 
ATOM     25  F   UNL A   1      37.115  22.745  23.228  1.00  0.00    -0.094 F 
ATOM     26  F   UNL A   1      34.925  22.940  22.997  1.00  0.00    -0.094 F 
ATOM     27  F   UNL A   1      34.826  24.053  24.921  1.00  0.00    -0.094 F 
ENDBRANCH  15  22
ENDBRANCH   6   8
ENDBRANCH   3   4
ENDBRANCH   2   3
ENDBRANCH   1   2
BRANCH   1  28
ATOM     28  C   UNL A   1      33.375  32.525  26.958  1.00  0.00     0.116 C 
BRANCH  28  29
ATOM     29  N   UNL A   1      32.700  33.588  27.718  1.00  0.00    -0.352 N 
ATOM     30  C   UNL A   1      33.304  34.103  28.956  1.00  0.00     0.251 C 
ATOM     31  H   UNL A   1      31.844  33.953  27.399  1.00  0.00     0.163 HD
ATOM     32  O   UNL A   1      32.721  35.021  29.613  1.00  0.00    -0.269 OA
BRANCH  30  33
ATOM     33  C   UNL A   1      34.626  33.538  29.449  1.00  0.00     0.039 A 
ATOM     34  C   UNL A   1      35.816  33.899  28.841  1.00  0.00     0.014 A 
ATOM     35  C   UNL A   1      34.595  32.626  30.414  1.00  0.00     0.014 A 
ATOM     36  C   UNL A   1      36.893  33.026  29.123  1.00  0.00     0.010 A 
ATOM     37  C   UNL A   1      35.721  31.903  30.730  1.00  0.00     0.010 A 
ATOM     38  C   UNL A   1      36.918  32.168  30.126  1.00  0.00    -0.014 A 
BRANCH  38  39
ATOM     39  C   UNL A   1      38.209  31.508  30.583  1.00  0.00     0.031 A 
ATOM     40  C   UNL A   1      38.707  31.928  31.818  1.00  0.00     0.074 A 
ATOM     41  C   UNL A   1      38.756  30.479  29.837  1.00  0.00     0.049 A 
ATOM     42  N   UNL A   1      39.735  31.417  32.495  1.00  0.00    -0.248 NA
ATOM     43  C   UNL A   1      38.149  33.044  32.595  1.00  0.00     0.031 C 
ATOM     44  C   UNL A   1      38.254  30.043  28.594  1.00  0.00     0.029 A 
ATOM     45  N   UNL A   1      39.854  29.705  30.142  1.00  0.00    -0.354 N 
ATOM     46  C   UNL A   1      39.900  32.072  33.647  1.00  0.00     0.074 A 
ATOM     47  C   UNL A   1      38.885  33.132  33.724  1.00  0.00     0.031 C 
ATOM     48  C   UNL A   1      39.044  29.030  28.153  1.00  0.00     0.029 A 
ATOM     49  C   UNL A   1      40.052  28.813  29.110  1.00  0.00     0.049 A 
ATOM     50  H   UNL A   1      40.401  29.775  30.957  1.00  0.00     0.167 HD
ATOM     51  C   UNL A   1      40.854  31.825  34.636  1.00  0.00     0.034 A 
ATOM     52  C   UNL A   1      41.051  27.860  28.992  1.00  0.00     0.034 A 
ATOM     53  C   UNL A   1      41.827  30.843  34.537  1.00  0.00     0.049 A 
ATOM     54  C   UNL A   1      42.042  27.653  29.955  1.00  0.00     0.074 A 
ATOM     55  C   UNL A   1      42.792  30.577  35.528  1.00  0.00     0.029 A 
ATOM     56  N   UNL A   1      42.040  29.970  33.494  1.00  0.00    -0.354 N 
ATOM     57  N   UNL A   1      42.181  28.281  31.124  1.00  0.00    -0.248 NA
ATOM     58  C   UNL A   1      43.125  26.669  29.826  1.00  0.00     0.031 C 
ATOM     59  C   UNL A   1      43.582  29.563  35.085  1.00  0.00     0.029 A 
ATOM     60  C   UNL A   1      43.124  29.180  33.810  1.00  0.00     0.049 A 
ATOM     61  H   UNL A   1      41.511  29.918  32.666  1.00  0.00     0.167 HD
ATOM     62  C   UNL A   1      43.236  27.797  31.783  1.00  0.00     0.074 A 
ATOM     63  C   UNL A   1      43.862  26.757  30.954  1.00  0.00     0.031 C 
ATOM     64  C   UNL A   1      43.699  28.178  33.043  1.00  0.00     0.034 A 
BRANCH  51  65
ATOM     65  C   UNL A   1      40.824  32.683  35.890  1.00  0.00     0.023 A 
ATOM     66  C   UNL A   1      39.965  32.246  36.886  1.00  0.00     0.031 A 
ATOM     67  C   UNL A   1      41.607  33.741  36.071  1.00  0.00     0.131 A 
ATOM     68  C   UNL A   1      39.794  33.173  37.941  1.00  0.00     0.055 A 
ATOM     69  C   UNL A   1      41.476  34.525  37.192  1.00  0.00     0.041 A 
ATOM     70  F   UNL A   1      42.525  34.044  35.158  1.00  0.00    -0.206 F 
ATOM     71  C   UNL A   1      40.605  34.185  38.189  1.00  0.00     0.022 A 
BRANCH  68  72
ATOM     72  S   UNL A   1      38.362  32.955  39.028  1.00  0.00     0.124 S 
ATOM     73  O   UNL A   1      38.640  31.820  40.015  1.00  0.00    -0.237 OA
ATOM     74  O   UNL A   1      38.106  34.252  39.799  1.00  0.00    -0.237 OA
ATOM     75  O   UNL A   1      36.987  32.570  38.088  1.00  0.00    -0.744 OA
ENDBRANCH  68  72
ENDBRANCH  51  65
BRANCH  52  76
ATOM     76  C   UNL A   1      41.070  26.993  27.744  1.00  0.00     0.023 A 
ATOM     77  C   UNL A   1      40.605  25.689  27.791  1.00  0.00     0.031 A 
ATOM     78  C   UNL A   1      41.640  27.481  26.649  1.00  0.00     0.131 A 
ATOM     79  C   UNL A   1      41.050  24.882  26.718  1.00  0.00     0.055 A 
ATOM     80  C   UNL A   1      41.925  26.662  25.584  1.00  0.00     0.041 A 
ATOM     81  F   UNL A   1      41.940  28.776  26.585  1.00  0.00    -0.206 F 
ATOM     82  C   UNL A   1      41.546  25.348  25.586  1.00  0.00     0.022 A 
BRANCH  79  83
ATOM     83  S   UNL A   1      40.932  23.086  26.909  1.00  0.00     0.124 S 
ATOM     84  O   UNL A   1      41.391  22.692  28.315  1.00  0.00    -0.237 OA
ATOM     85  O   UNL A   1      39.481  22.645  26.703  1.00  0.00    -0.237 OA
ATOM     86  O   UNL A   1      41.930  22.323  25.749  1.00  0.00    -0.744 OA
ENDBRANCH  79  83
ENDBRANCH  52  76
BRANCH  64  87
ATOM     87  C   UNL A   1      44.906  27.449  33.611  1.00  0.00     0.023 A 
ATOM     88  C   UNL A   1      44.746  26.307  34.379  1.00  0.00     0.031 A 
ATOM     89  C   UNL A   1      46.096  28.018  33.462  1.00  0.00     0.131 A 
ATOM     90  C   UNL A   1      45.863  26.003  35.193  1.00  0.00     0.055 A 
ATOM     91  C   UNL A   1      47.176  27.581  34.190  1.00  0.00     0.041 A 
ATOM     92  F   UNL A   1      46.244  29.021  32.601  1.00  0.00    -0.206 F 
ATOM     93  C   UNL A   1      47.075  26.495  35.015  1.00  0.00     0.022 A 
BRANCH  90  94
ATOM     94  S   UNL A   1      45.612  24.861  36.574  1.00  0.00     0.124 S 
ATOM     95  O   UNL A   1      46.673  25.117  37.647  1.00  0.00    -0.237 OA
ATOM     96  O   UNL A   1      44.220  25.080  37.171  1.00  0.00    -0.237 OA
ATOM     97  O   UNL A   1      45.745  23.251  36.014  1.00  0.00    -0.744 OA
ENDBRANCH  90  94
ENDBRANCH  64  87
ENDBRANCH  38  39
ENDBRANCH  30  33
ENDBRANCH  28  29
ENDBRANCH   1  28
TORSDOF 16
ENDMDL
MODEL 3
REMARK VINA RESULT:     -12.4      2.600      3.114
REMARK SMILES O=C(NCCCCNC(=O)c1ccc(-c2c3nc(c(-c4cc(S(=O)(=O)[O-])ccc4F)c4ccc([nH]4)c(-c4cc(S(=O)(=O)[O-])ccc4F)c4nc(c(-c5cc(S(=O)(=O)[O-])ccc5F)c5ccc2[nH]5)C=C4)C=C3)cc1)C1=Cc2cc(S(F)(F)(F)(F)F)ccc2O[C@@H]1C(F)(F)F
REMARK SMILES IDX 6 1 5 2 4 3 3 4 1 5 2 6 74 8 75 9 89 10 76 11 88 12 77 13
REMARK SMILES IDX 87 14 78 15 86 16 85 17 90 18 91 19 92 20 93 21 79 22 80 23
REMARK SMILES IDX 81 24 82 25 83 26 84 27 7 28 8 29 9 30 10 32 11 33 12 34
REMARK SMILES IDX 73 35 13 36 72 37 14 38 15 39 16 40 66 41 17 42 71 43 65 44
REMARK SMILES IDX 67 45 18 46 70 47 64 48 63 49 19 51 51 52 31 53 50 54 32 55
REMARK SMILES IDX 35 56 49 57 68 58 33 59 34 60 48 62 69 63 36 64 20 65 21 66
REMARK SMILES IDX 29 67 22 68 28 69 30 70 27 71 23 72 24 73 25 74 26 75 52 76
REMARK SMILES IDX 53 77 61 78 54 79 60 80 62 81 59 82 55 83 56 84 57 85 58 86
REMARK SMILES IDX 37 87 38 88 46 89 39 90 45 91 47 92 44 93 40 94 41 95 42 96
REMARK SMILES IDX 43 97
REMARK H PARENT 3 7 8 31 67 50 35 61
REMARK Flexibility Score: inf
ROOT
ATOM      1  C   UNL A   1      38.907  21.454  25.699  1.00  0.00     0.023 C 
ENDROOT
BRANCH   1   2
ATOM      2  C   UNL A   1      38.899  22.910  26.136  1.00  0.00     0.023 C 
BRANCH   2   3
ATOM      3  C   UNL A   1      37.537  23.518  25.842  1.00  0.00     0.116 C 
BRANCH   3   4
ATOM      4  N   UNL A   1      37.301  23.514  24.391  1.00  0.00    -0.352 N 
ATOM      5  O   UNL A   1      35.898  22.857  22.590  1.00  0.00    -0.270 OA
ATOM      6  C   UNL A   1      36.103  22.861  23.843  1.00  0.00     0.251 C 
ATOM      7  H   UNL A   1      37.944  23.948  23.786  1.00  0.00     0.163 HD
BRANCH   6   8
ATOM      8  C   UNL A   1      35.109  22.189  24.777  1.00  0.00     0.067 C 
ATOM      9  C   UNL A   1      34.112  22.918  25.348  1.00  0.00     0.025 C 
ATOM     10  C   UNL A   1      35.229  20.702  25.072  1.00  0.00     0.314 C 
ATOM     11  C   UNL A   1      33.991  24.404  25.053  1.00  0.00     0.019 A 
ATOM     12  O   UNL A   1      34.594  23.987  22.792  1.00  0.00    -0.475 OA
ATOM     13  C   UNL A   1      33.669  25.256  26.096  1.00  0.00     0.036 A 
ATOM     14  C   UNL A   1      34.106  24.851  23.808  1.00  0.00     0.128 A 
ATOM     15  C   UNL A   1      33.198  26.523  25.676  1.00  0.00     0.107 A 
ATOM     16  C   UNL A   1      33.757  26.142  23.494  1.00  0.00     0.048 A 
ATOM     17  C   UNL A   1      33.371  27.023  24.466  1.00  0.00     0.028 A 
BRANCH  10  18
ATOM     18  C   UNL A   1      33.958  19.994  24.631  1.00  0.00     0.429 C 
ATOM     19  F   UNL A   1      34.256  18.767  24.214  1.00  0.00    -0.167 F 
ATOM     20  F   UNL A   1      33.115  19.921  25.657  1.00  0.00    -0.167 F 
ATOM     21  F   UNL A   1      33.392  20.676  23.640  1.00  0.00    -0.167 F 
ENDBRANCH  10  18
BRANCH  15  22
ATOM     22  S   UNL A   1      32.296  27.528  26.881  1.00  0.00     0.310 S 
ATOM     23  F   UNL A   1      31.824  28.553  25.767  1.00  0.00    -0.094 F 
ATOM     24  F   UNL A   1      33.585  28.417  27.057  1.00  0.00    -0.094 F 
ATOM     25  F   UNL A   1      31.524  28.393  27.916  1.00  0.00    -0.094 F 
ATOM     26  F   UNL A   1      30.975  26.713  26.589  1.00  0.00    -0.094 F 
ATOM     27  F   UNL A   1      33.034  26.712  25.746  1.00  0.00    -0.094 F 
ENDBRANCH  15  22
ENDBRANCH   6   8
ENDBRANCH   3   4
ENDBRANCH   2   3
ENDBRANCH   1   2
BRANCH   1  28
ATOM     28  C   UNL A   1      39.546  20.603  26.784  1.00  0.00     0.116 C 
BRANCH  28  29
ATOM     29  N   UNL A   1      40.399  19.578  26.165  1.00  0.00    -0.352 N 
ATOM     30  C   UNL A   1      41.823  19.854  25.926  1.00  0.00     0.251 C 
ATOM     31  H   UNL A   1      40.016  18.708  25.910  1.00  0.00     0.163 HD
ATOM     32  O   UNL A   1      42.561  18.968  25.391  1.00  0.00    -0.269 OA
BRANCH  30  33
ATOM     33  C   UNL A   1      42.414  21.198  26.320  1.00  0.00     0.039 A 
ATOM     34  C   UNL A   1      42.693  21.482  27.646  1.00  0.00     0.014 A 
ATOM     35  C   UNL A   1      42.567  22.116  25.372  1.00  0.00     0.014 A 
ATOM     36  C   UNL A   1      42.856  22.862  27.915  1.00  0.00     0.010 A 
ATOM     37  C   UNL A   1      42.859  23.418  25.699  1.00  0.00     0.010 A 
ATOM     38  C   UNL A   1      43.090  23.781  26.996  1.00  0.00    -0.014 A 
BRANCH  38  39
ATOM     39  C   UNL A   1      43.589  25.170  27.363  1.00  0.00     0.031 A 
ATOM     40  C   UNL A   1      44.927  25.437  27.069  1.00  0.00     0.074 A 
ATOM     41  C   UNL A   1      42.700  26.112  27.851  1.00  0.00     0.049 A 
ATOM     42  N   UNL A   1      45.562  26.606  27.166  1.00  0.00    -0.248 NA
ATOM     43  C   UNL A   1      45.881  24.430  26.583  1.00  0.00     0.031 C 
ATOM     44  C   UNL A   1      41.346  25.852  28.142  1.00  0.00     0.029 A 
ATOM     45  N   UNL A   1      42.946  27.436  28.141  1.00  0.00    -0.354 N 
ATOM     46  C   UNL A   1      46.833  26.473  26.778  1.00  0.00     0.074 A 
ATOM     47  C   UNL A   1      47.057  25.070  26.403  1.00  0.00     0.031 C 
ATOM     48  C   UNL A   1      40.788  26.999  28.610  1.00  0.00     0.029 A 
ATOM     49  C   UNL A   1      41.782  27.995  28.620  1.00  0.00     0.049 A 
ATOM     50  H   UNL A   1      43.805  27.902  28.025  1.00  0.00     0.167 HD
ATOM     51  C   UNL A   1      47.811  27.467  26.720  1.00  0.00     0.034 A 
ATOM     52  C   UNL A   1      41.580  29.298  29.048  1.00  0.00     0.034 A 
ATOM     53  C   UNL A   1      47.597  28.780  27.108  1.00  0.00     0.049 A 
ATOM     54  C   UNL A   1      42.575  30.278  29.045  1.00  0.00     0.074 A 
ATOM     55  C   UNL A   1      48.571  29.795  27.048  1.00  0.00     0.029 A 
ATOM     56  N   UNL A   1      46.440  29.333  27.610  1.00  0.00    -0.354 N 
ATOM     57  N   UNL A   1      43.833  30.154  28.619  1.00  0.00    -0.248 NA
ATOM     58  C   UNL A   1      42.381  31.652  29.527  1.00  0.00     0.031 C 
ATOM     59  C   UNL A   1      48.012  30.943  27.517  1.00  0.00     0.029 A 
ATOM     60  C   UNL A   1      46.680  30.662  27.878  1.00  0.00     0.049 A 
ATOM     61  H   UNL A   1      45.589  28.860  27.753  1.00  0.00     0.167 HD
ATOM     62  C   UNL A   1      44.481  31.314  28.756  1.00  0.00     0.074 A 
ATOM     63  C   UNL A   1      43.558  32.292  29.349  1.00  0.00     0.031 C 
ATOM     64  C   UNL A   1      45.802  31.595  28.409  1.00  0.00     0.034 A 
BRANCH  51  65
ATOM     65  C   UNL A   1      49.190  27.086  26.203  1.00  0.00     0.023 A 
ATOM     66  C   UNL A   1      49.533  27.630  24.977  1.00  0.00     0.031 A 
ATOM     67  C   UNL A   1      50.048  26.344  26.893  1.00  0.00     0.131 A 
ATOM     68  C   UNL A   1      50.717  27.089  24.422  1.00  0.00     0.055 A 
ATOM     69  C   UNL A   1      51.247  25.965  26.339  1.00  0.00     0.041 A 
ATOM     70  F   UNL A   1      49.745  25.963  28.130  1.00  0.00    -0.206 F 
ATOM     71  C   UNL A   1      51.626  26.417  25.106  1.00  0.00     0.022 A 
BRANCH  68  72
ATOM     72  S   UNL A   1      51.008  27.337  22.653  1.00  0.00     0.124 S 
ATOM     73  O   UNL A   1      51.083  28.836  22.354  1.00  0.00    -0.237 OA
ATOM     74  O   UNL A   1      52.325  26.669  22.254  1.00  0.00    -0.237 OA
ATOM     75  O   UNL A   1      49.724  26.642  21.762  1.00  0.00    -0.744 OA
ENDBRANCH  68  72
ENDBRANCH  51  65
BRANCH  52  76
ATOM     76  C   UNL A   1      40.197  29.681  29.549  1.00  0.00     0.023 A 
ATOM     77  C   UNL A   1      39.967  29.859  30.903  1.00  0.00     0.031 A 
ATOM     78  C   UNL A   1      39.203  29.732  28.669  1.00  0.00     0.131 A 
ATOM     79  C   UNL A   1      38.600  29.798  31.266  1.00  0.00     0.055 A 
ATOM     80  C   UNL A   1      37.898  29.808  29.091  1.00  0.00     0.041 A 
ATOM     81  F   UNL A   1      39.475  29.707  27.367  1.00  0.00    -0.206 F 
ATOM     82  C   UNL A   1      37.595  29.928  30.419  1.00  0.00     0.022 A 
BRANCH  79  83
ATOM     83  S   UNL A   1      38.203  29.525  33.010  1.00  0.00     0.124 S 
ATOM     84  O   UNL A   1      37.336  28.271  33.145  1.00  0.00    -0.237 OA
ATOM     85  O   UNL A   1      39.498  29.338  33.805  1.00  0.00    -0.237 OA
ATOM     86  O   UNL A   1      37.350  30.876  33.618  1.00  0.00    -0.744 OA
ENDBRANCH  79  83
ENDBRANCH  52  76
BRANCH  64  87
ATOM     87  C   UNL A   1      46.310  33.012  28.622  1.00  0.00     0.023 A 
ATOM     88  C   UNL A   1      46.358  33.913  27.571  1.00  0.00     0.031 A 
ATOM     89  C   UNL A   1      46.831  33.308  29.807  1.00  0.00     0.131 A 
ATOM     90  C   UNL A   1      47.240  34.998  27.786  1.00  0.00     0.055 A 
ATOM     91  C   UNL A   1      47.568  34.454  29.981  1.00  0.00     0.041 A 
ATOM     92  F   UNL A   1      46.637  32.487  30.836  1.00  0.00    -0.206 F 
ATOM     93  C   UNL A   1      47.708  35.361  28.966  1.00  0.00     0.022 A 
BRANCH  90  94
ATOM     94  S   UNL A   1      47.765  35.956  26.342  1.00  0.00     0.124 S 
ATOM     95  O   UNL A   1      46.688  36.987  25.996  1.00  0.00    -0.237 OA
ATOM     96  O   UNL A   1      49.078  36.676  26.657  1.00  0.00    -0.237 OA
ATOM     97  O   UNL A   1      47.996  34.904  25.014  1.00  0.00    -0.744 OA
ENDBRANCH  90  94
ENDBRANCH  64  87
ENDBRANCH  38  39
ENDBRANCH  30  33
ENDBRANCH  28  29
ENDBRANCH   1  28
TORSDOF 16
ENDMDL
