MODEL 1
REMARK VINA RESULT:     -12.1      0.000      0.000
REMARK SMILES Cc1cccc([C@@H](CC(=O)NCCCCNC(=O)c2ccc(-c3c4nc(c(-c5cc(S(=O)(=O)[O-])ccc5F)c5ccc([nH]5)c(-c5cc(S(=O)(=O)[O-])ccc5F)c5nc(c(-c6cc(S(=O)(=O)[O-])ccc6F)c6ccc3[nH]6)C=C5)C=C4)cc2)NC(=O)OC(C)(C)C)c1
REMARK SMILES IDX 13 1 12 2 11 3 9 4 10 5 8 7 7 8 6 9 1 10 2 11 3 12 90 13
REMARK SMILES IDX 4 14 5 15 82 16 83 17 84 19 85 20 86 21 87 22 88 23 89 24
REMARK SMILES IDX 14 25 15 26 16 27 17 28 18 30 19 31 20 32 81 33 21 34 80 35
REMARK SMILES IDX 22 36 23 37 24 38 74 39 25 40 79 41 73 42 75 43 26 44 78 45
REMARK SMILES IDX 72 46 71 47 27 49 59 50 39 51 58 52 40 53 43 54 57 55 76 56
REMARK SMILES IDX 41 57 42 58 56 60 77 61 44 62 28 63 29 64 37 65 30 66 36 67
REMARK SMILES IDX 38 68 35 69 31 70 32 71 33 72 34 73 60 74 61 75 69 76 62 77
REMARK SMILES IDX 68 78 70 79 67 80 63 81 64 82 65 83 66 84 45 85 46 86 54 87
REMARK SMILES IDX 47 88 53 89 55 90 52 91 48 92 49 93 50 94 51 95
REMARK H PARENT 11 6 82 18 16 29 75 48 43 59
REMARK Flexibility Score: inf
ROOT
ATOM      1  C   UNL A   1      34.625  23.312  26.058  1.00  0.00     0.023 C 
ENDROOT
BRANCH   1   2
ATOM      2  C   UNL A   1      33.489  23.912  25.231  1.00  0.00     0.116 C 
BRANCH   2   3
ATOM      3  N   UNL A   1      32.221  23.730  25.929  1.00  0.00    -0.356 N 
ATOM      4  C   UNL A   1      31.039  24.373  25.701  1.00  0.00     0.222 C 
ATOM      5  O   UNL A   1      30.193  24.361  26.602  1.00  0.00    -0.275 OA
ATOM      6  H   UNL A   1      32.217  23.062  26.650  1.00  0.00     0.163 HD
BRANCH   4   7
ATOM      7  C   UNL A   1      30.743  25.050  24.373  1.00  0.00     0.130 C 
BRANCH   7   8
ATOM      8  C   UNL A   1      30.842  26.590  24.330  1.00  0.00     0.125 C 
BRANCH   8   9
ATOM      9  C   UNL A   1      29.625  27.332  23.786  1.00  0.00    -0.025 A 
ATOM     10  C   UNL A   1      28.894  30.463  21.737  1.00  0.00     0.044 C 
ATOM     11  C   UNL A   1      28.689  29.261  22.611  1.00  0.00    -0.051 A 
ATOM     12  C   UNL A   1      27.399  28.832  22.923  1.00  0.00     0.003 A 
ATOM     13  C   UNL A   1      29.795  28.536  23.083  1.00  0.00     0.009 A 
ATOM     14  C   UNL A   1      27.209  27.616  23.566  1.00  0.00     0.001 A 
ATOM     15  C   UNL A   1      28.315  26.844  23.934  1.00  0.00     0.006 A 
ENDBRANCH   8   9
BRANCH   8  16
ATOM     16  N   UNL A   1      32.066  27.061  23.700  1.00  0.00    -0.314 N 
ATOM     17  C   UNL A   1      33.088  27.698  24.338  1.00  0.00     0.408 C 
ATOM     18  H   UNL A   1      32.163  26.906  22.733  1.00  0.00     0.167 HD
ATOM     19  O   UNL A   1      33.960  28.279  23.726  1.00  0.00    -0.225 OA
BRANCH  17  20
ATOM     20  O   UNL A   1      33.002  27.565  25.684  1.00  0.00    -0.444 OA
BRANCH  20  21
ATOM     21  C   UNL A   1      32.781  28.713  26.531  1.00  0.00     0.106 C 
ATOM     22  C   UNL A   1      34.091  29.209  27.155  1.00  0.00     0.056 C 
ATOM     23  C   UNL A   1      32.046  29.812  25.760  1.00  0.00     0.056 C 
ATOM     24  C   UNL A   1      31.872  28.199  27.656  1.00  0.00     0.056 C 
ENDBRANCH  20  21
ENDBRANCH  17  20
ENDBRANCH   8  16
ENDBRANCH   7   8
ENDBRANCH   4   7
ENDBRANCH   2   3
ENDBRANCH   1   2
BRANCH   1  25
ATOM     25  C   UNL A   1      35.957  22.923  25.412  1.00  0.00     0.023 C 
BRANCH  25  26
ATOM     26  C   UNL A   1      37.159  23.724  25.877  1.00  0.00     0.116 C 
BRANCH  26  27
ATOM     27  N   UNL A   1      38.240  22.934  26.517  1.00  0.00    -0.352 N 
ATOM     28  C   UNL A   1      39.571  23.295  26.753  1.00  0.00     0.251 C 
ATOM     29  H   UNL A   1      37.985  22.031  26.816  1.00  0.00     0.163 HD
ATOM     30  O   UNL A   1      40.489  22.482  26.761  1.00  0.00    -0.269 OA
BRANCH  28  31
ATOM     31  C   UNL A   1      39.841  24.717  27.027  1.00  0.00     0.039 A 
ATOM     32  C   UNL A   1      40.467  25.659  26.203  1.00  0.00     0.014 A 
ATOM     33  C   UNL A   1      39.474  25.091  28.293  1.00  0.00     0.014 A 
ATOM     34  C   UNL A   1      40.644  26.949  26.716  1.00  0.00     0.010 A 
ATOM     35  C   UNL A   1      39.105  26.364  28.492  1.00  0.00     0.010 A 
ATOM     36  C   UNL A   1      39.959  27.262  27.890  1.00  0.00    -0.014 A 
BRANCH  36  37
ATOM     37  C   UNL A   1      40.137  28.379  28.791  1.00  0.00     0.031 A 
ATOM     38  C   UNL A   1      39.143  29.435  28.776  1.00  0.00     0.074 A 
ATOM     39  C   UNL A   1      40.975  28.113  29.828  1.00  0.00     0.049 A 
ATOM     40  N   UNL A   1      39.371  30.645  29.125  1.00  0.00    -0.248 NA
ATOM     41  C   UNL A   1      37.774  29.201  28.314  1.00  0.00     0.031 C 
ATOM     42  C   UNL A   1      41.062  28.668  31.168  1.00  0.00     0.029 A 
ATOM     43  N   UNL A   1      42.021  27.181  29.804  1.00  0.00    -0.354 N 
ATOM     44  C   UNL A   1      38.131  31.199  29.341  1.00  0.00     0.074 A 
ATOM     45  C   UNL A   1      37.196  30.363  28.628  1.00  0.00     0.031 C 
ATOM     46  C   UNL A   1      42.263  28.337  31.691  1.00  0.00     0.029 A 
ATOM     47  C   UNL A   1      43.023  27.661  30.648  1.00  0.00     0.049 A 
ATOM     48  H   UNL A   1      42.045  26.344  29.287  1.00  0.00     0.167 HD
ATOM     49  C   UNL A   1      37.985  32.117  30.335  1.00  0.00     0.034 A 
ATOM     50  C   UNL A   1      44.168  28.103  30.046  1.00  0.00     0.034 A 
ATOM     51  C   UNL A   1      39.230  32.233  31.101  1.00  0.00     0.049 A 
ATOM     52  C   UNL A   1      44.272  29.597  30.143  1.00  0.00     0.074 A 
ATOM     53  C   UNL A   1      39.627  31.722  32.327  1.00  0.00     0.029 A 
ATOM     54  N   UNL A   1      40.390  32.631  30.455  1.00  0.00    -0.354 N 
ATOM     55  N   UNL A   1      43.259  30.389  30.360  1.00  0.00    -0.248 NA
ATOM     56  C   UNL A   1      45.540  30.301  30.078  1.00  0.00     0.031 C 
ATOM     57  C   UNL A   1      41.049  31.786  32.387  1.00  0.00     0.029 A 
ATOM     58  C   UNL A   1      41.510  32.348  31.209  1.00  0.00     0.049 A 
ATOM     59  H   UNL A   1      40.412  33.060  29.569  1.00  0.00     0.167 HD
ATOM     60  C   UNL A   1      43.698  31.676  30.491  1.00  0.00     0.074 A 
ATOM     61  C   UNL A   1      45.140  31.559  30.327  1.00  0.00     0.031 C 
ATOM     62  C   UNL A   1      42.829  32.713  30.708  1.00  0.00     0.034 A 
BRANCH  49  63
ATOM     63  C   UNL A   1      36.660  32.632  30.825  1.00  0.00     0.023 A 
ATOM     64  C   UNL A   1      35.937  33.524  30.011  1.00  0.00     0.031 A 
ATOM     65  C   UNL A   1      36.035  32.265  32.033  1.00  0.00     0.131 A 
ATOM     66  C   UNL A   1      34.706  34.059  30.419  1.00  0.00     0.055 A 
ATOM     67  C   UNL A   1      34.829  32.836  32.466  1.00  0.00     0.041 A 
ATOM     68  F   UNL A   1      36.532  31.299  32.819  1.00  0.00    -0.206 F 
ATOM     69  C   UNL A   1      34.158  33.742  31.657  1.00  0.00     0.022 A 
BRANCH  66  70
ATOM     70  S   UNL A   1      33.818  35.141  29.270  1.00  0.00     0.124 S 
ATOM     71  O   UNL A   1      34.810  35.350  28.219  1.00  0.00    -0.237 OA
ATOM     72  O   UNL A   1      32.661  34.330  28.912  1.00  0.00    -0.237 OA
ATOM     73  O   UNL A   1      33.518  36.319  30.080  1.00  0.00    -0.744 OA
ENDBRANCH  66  70
ENDBRANCH  49  63
BRANCH  50  74
ATOM     74  C   UNL A   1      44.536  27.247  28.862  1.00  0.00     0.023 A 
ATOM     75  C   UNL A   1      44.733  27.964  27.665  1.00  0.00     0.031 A 
ATOM     76  C   UNL A   1      45.212  26.024  29.006  1.00  0.00     0.131 A 
ATOM     77  C   UNL A   1      45.796  27.619  26.818  1.00  0.00     0.055 A 
ATOM     78  C   UNL A   1      46.174  25.611  28.068  1.00  0.00     0.041 A 
ATOM     79  F   UNL A   1      45.072  25.292  30.121  1.00  0.00    -0.206 F 
ATOM     80  C   UNL A   1      46.517  26.442  26.999  1.00  0.00     0.022 A 
BRANCH  77  81
ATOM     81  S   UNL A   1      46.398  28.924  25.715  1.00  0.00     0.124 S 
ATOM     82  O   UNL A   1      46.154  28.323  24.409  1.00  0.00    -0.237 OA
ATOM     83  O   UNL A   1      45.533  30.048  26.081  1.00  0.00    -0.237 OA
ATOM     84  O   UNL A   1      47.799  29.098  26.080  1.00  0.00    -0.744 OA
ENDBRANCH  77  81
ENDBRANCH  50  74
BRANCH  62  85
ATOM     85  C   UNL A   1      43.148  34.180  30.507  1.00  0.00     0.023 A 
ATOM     86  C   UNL A   1      42.750  34.887  29.373  1.00  0.00     0.031 A 
ATOM     87  C   UNL A   1      43.806  34.955  31.497  1.00  0.00     0.131 A 
ATOM     88  C   UNL A   1      43.077  36.238  29.193  1.00  0.00     0.055 A 
ATOM     89  C   UNL A   1      44.037  36.327  31.366  1.00  0.00     0.041 A 
ATOM     90  F   UNL A   1      44.244  34.433  32.651  1.00  0.00    -0.206 F 
ATOM     91  C   UNL A   1      43.695  36.976  30.193  1.00  0.00     0.022 A 
BRANCH  88  92
ATOM     92  S   UNL A   1      42.738  36.957  27.572  1.00  0.00     0.124 S 
ATOM     93  O   UNL A   1      41.977  35.891  26.925  1.00  0.00    -0.237 OA
ATOM     94  O   UNL A   1      41.976  38.154  27.914  1.00  0.00    -0.237 OA
ATOM     95  O   UNL A   1      44.068  37.198  27.018  1.00  0.00    -0.744 OA
ENDBRANCH  88  92
ENDBRANCH  62  85
ENDBRANCH  36  37
ENDBRANCH  28  31
ENDBRANCH  26  27
ENDBRANCH  25  26
ENDBRANCH   1  25
TORSDOF 19
ENDMDL
MODEL 2
REMARK VINA RESULT:     -12.0      4.084      9.162
REMARK SMILES Cc1cccc([C@@H](CC(=O)NCCCCNC(=O)c2ccc(-c3c4nc(c(-c5cc(S(=O)(=O)[O-])ccc5F)c5ccc([nH]5)c(-c5cc(S(=O)(=O)[O-])ccc5F)c5nc(c(-c6cc(S(=O)(=O)[O-])ccc6F)c6ccc3[nH]6)C=C5)C=C4)cc2)NC(=O)OC(C)(C)C)c1
REMARK SMILES IDX 13 1 12 2 11 3 9 4 10 5 8 7 7 8 6 9 1 10 2 11 3 12 90 13
REMARK SMILES IDX 4 14 5 15 82 16 83 17 84 19 85 20 86 21 87 22 88 23 89 24
REMARK SMILES IDX 14 25 15 26 16 27 17 28 18 30 19 31 20 32 81 33 21 34 80 35
REMARK SMILES IDX 22 36 23 37 24 38 74 39 25 40 79 41 73 42 75 43 26 44 78 45
REMARK SMILES IDX 72 46 71 47 27 49 59 50 39 51 58 52 40 53 43 54 57 55 76 56
REMARK SMILES IDX 41 57 42 58 56 60 77 61 44 62 28 63 29 64 37 65 30 66 36 67
REMARK SMILES IDX 38 68 35 69 31 70 32 71 33 72 34 73 60 74 61 75 69 76 62 77
REMARK SMILES IDX 68 78 70 79 67 80 63 81 64 82 65 83 66 84 45 85 46 86 54 87
REMARK SMILES IDX 47 88 53 89 55 90 52 91 48 92 49 93 50 94 51 95
REMARK H PARENT 11 6 82 18 16 29 75 48 43 59
REMARK Flexibility Score: inf
ROOT
ATOM      1  C   UNL A   1      31.793  27.927  27.399  1.00  0.00     0.023 C 
ENDROOT
BRANCH   1   2
ATOM      2  C   UNL A   1      31.067  26.854  26.588  1.00  0.00     0.116 C 
BRANCH   2   3
ATOM      3  N   UNL A   1      31.495  25.530  27.028  1.00  0.00    -0.356 N 
ATOM      4  C   UNL A   1      31.260  24.329  26.423  1.00  0.00     0.222 C 
ATOM      5  O   UNL A   1      31.376  23.307  27.106  1.00  0.00    -0.275 OA
ATOM      6  H   UNL A   1      32.017  25.499  27.861  1.00  0.00     0.163 HD
BRANCH   4   7
ATOM      7  C   UNL A   1      30.909  24.237  24.946  1.00  0.00     0.130 C 
BRANCH   7   8
ATOM      8  C   UNL A   1      31.979  24.706  23.938  1.00  0.00     0.125 C 
BRANCH   8   9
ATOM      9  C   UNL A   1      31.861  26.145  23.445  1.00  0.00    -0.025 A 
ATOM     10  C   UNL A   1      34.111  29.195  23.028  1.00  0.00     0.044 C 
ATOM     11  C   UNL A   1      32.880  28.341  23.098  1.00  0.00    -0.051 A 
ATOM     12  C   UNL A   1      31.642  28.862  22.719  1.00  0.00     0.003 A 
ATOM     13  C   UNL A   1      32.973  27.000  23.504  1.00  0.00     0.009 A 
ATOM     14  C   UNL A   1      30.544  28.020  22.599  1.00  0.00     0.001 A 
ATOM     15  C   UNL A   1      30.673  26.661  22.898  1.00  0.00     0.006 A 
ENDBRANCH   8   9
BRANCH   8  16
ATOM     16  N   UNL A   1      32.151  23.785  22.825  1.00  0.00    -0.314 N 
ATOM     17  C   UNL A   1      33.315  23.567  22.152  1.00  0.00     0.408 C 
ATOM     18  H   UNL A   1      31.359  23.278  22.534  1.00  0.00     0.167 HD
ATOM     19  O   UNL A   1      33.340  22.981  21.090  1.00  0.00    -0.225 OA
BRANCH  17  20
ATOM     20  O   UNL A   1      34.386  24.052  22.828  1.00  0.00    -0.444 OA
BRANCH  20  21
ATOM     21  C   UNL A   1      35.161  23.201  23.700  1.00  0.00     0.106 C 
ATOM     22  C   UNL A   1      34.399  21.920  24.054  1.00  0.00     0.056 C 
ATOM     23  C   UNL A   1      36.534  22.918  23.086  1.00  0.00     0.056 C 
ATOM     24  C   UNL A   1      35.347  24.024  24.983  1.00  0.00     0.056 C 
ENDBRANCH  20  21
ENDBRANCH  17  20
ENDBRANCH   8  16
ENDBRANCH   7   8
ENDBRANCH   4   7
ENDBRANCH   2   3
ENDBRANCH   1   2
BRANCH   1  25
ATOM     25  C   UNL A   1      32.467  29.119  26.714  1.00  0.00     0.023 C 
BRANCH  25  26
ATOM     26  C   UNL A   1      33.955  29.255  26.973  1.00  0.00     0.116 C 
BRANCH  26  27
ATOM     27  N   UNL A   1      34.474  30.646  26.979  1.00  0.00    -0.352 N 
ATOM     28  C   UNL A   1      35.388  31.241  27.856  1.00  0.00     0.251 C 
ATOM     29  H   UNL A   1      34.127  31.231  26.266  1.00  0.00     0.163 HD
ATOM     30  O   UNL A   1      35.353  32.432  28.144  1.00  0.00    -0.269 OA
BRANCH  28  31
ATOM     31  C   UNL A   1      36.439  30.375  28.416  1.00  0.00     0.039 A 
ATOM     32  C   UNL A   1      36.442  29.684  29.633  1.00  0.00     0.014 A 
ATOM     33  C   UNL A   1      37.564  30.335  27.634  1.00  0.00     0.014 A 
ATOM     34  C   UNL A   1      37.591  28.955  29.959  1.00  0.00     0.010 A 
ATOM     35  C   UNL A   1      38.312  29.222  27.663  1.00  0.00     0.010 A 
ATOM     36  C   UNL A   1      38.527  28.764  28.943  1.00  0.00    -0.014 A 
BRANCH  36  37
ATOM     37  C   UNL A   1      39.897  28.305  29.027  1.00  0.00     0.031 A 
ATOM     38  C   UNL A   1      40.183  26.934  28.649  1.00  0.00     0.074 A 
ATOM     39  C   UNL A   1      40.808  29.314  29.046  1.00  0.00     0.049 A 
ATOM     40  N   UNL A   1      41.176  26.257  29.089  1.00  0.00    -0.248 NA
ATOM     41  C   UNL A   1      39.315  26.185  27.739  1.00  0.00     0.031 C 
ATOM     42  C   UNL A   1      42.198  29.369  28.628  1.00  0.00     0.029 A 
ATOM     43  N   UNL A   1      40.572  30.607  29.529  1.00  0.00    -0.354 N 
ATOM     44  C   UNL A   1      41.309  25.201  28.219  1.00  0.00     0.074 A 
ATOM     45  C   UNL A   1      40.034  25.076  27.554  1.00  0.00     0.031 C 
ATOM     46  C   UNL A   1      42.764  30.470  29.170  1.00  0.00     0.029 A 
ATOM     47  C   UNL A   1      41.776  31.083  30.048  1.00  0.00     0.049 A 
ATOM     48  H   UNL A   1      39.714  31.091  29.508  1.00  0.00     0.167 HD
ATOM     49  C   UNL A   1      42.555  24.739  27.930  1.00  0.00     0.034 A 
ATOM     50  C   UNL A   1      41.849  31.206  31.408  1.00  0.00     0.034 A 
ATOM     51  C   UNL A   1      43.568  25.603  28.545  1.00  0.00     0.049 A 
ATOM     52  C   UNL A   1      42.760  30.163  31.985  1.00  0.00     0.074 A 
ATOM     53  C   UNL A   1      44.377  26.608  28.035  1.00  0.00     0.029 A 
ATOM     54  N   UNL A   1      43.586  25.755  29.922  1.00  0.00    -0.354 N 
ATOM     55  N   UNL A   1      43.085  29.056  31.377  1.00  0.00    -0.248 NA
ATOM     56  C   UNL A   1      43.436  30.331  33.259  1.00  0.00     0.031 C 
ATOM     57  C   UNL A   1      44.848  27.387  29.131  1.00  0.00     0.029 A 
ATOM     58  C   UNL A   1      44.339  26.847  30.300  1.00  0.00     0.049 A 
ATOM     59  H   UNL A   1      43.118  25.160  30.552  1.00  0.00     0.167 HD
ATOM     60  C   UNL A   1      44.003  28.372  32.121  1.00  0.00     0.074 A 
ATOM     61  C   UNL A   1      44.204  29.229  33.281  1.00  0.00     0.031 C 
ATOM     62  C   UNL A   1      44.498  27.161  31.714  1.00  0.00     0.034 A 
BRANCH  49  63
ATOM     63  C   UNL A   1      42.862  23.751  26.838  1.00  0.00     0.023 A 
ATOM     64  C   UNL A   1      42.544  22.396  27.043  1.00  0.00     0.031 A 
ATOM     65  C   UNL A   1      43.410  24.066  25.580  1.00  0.00     0.131 A 
ATOM     66  C   UNL A   1      42.824  21.420  26.075  1.00  0.00     0.055 A 
ATOM     67  C   UNL A   1      43.737  23.087  24.630  1.00  0.00     0.041 A 
ATOM     68  F   UNL A   1      43.601  25.335  25.192  1.00  0.00    -0.206 F 
ATOM     69  C   UNL A   1      43.445  21.753  24.877  1.00  0.00     0.022 A 
BRANCH  66  70
ATOM     70  S   UNL A   1      42.310  19.714  26.403  1.00  0.00     0.124 S 
ATOM     71  O   UNL A   1      41.194  19.548  25.476  1.00  0.00    -0.237 OA
ATOM     72  O   UNL A   1      43.521  18.962  26.095  1.00  0.00    -0.237 OA
ATOM     73  O   UNL A   1      41.942  19.739  27.816  1.00  0.00    -0.744 OA
ENDBRANCH  66  70
ENDBRANCH  49  63
BRANCH  50  74
ATOM     74  C   UNL A   1      40.545  31.688  31.989  1.00  0.00     0.023 A 
ATOM     75  C   UNL A   1      40.058  30.903  33.054  1.00  0.00     0.031 A 
ATOM     76  C   UNL A   1      40.163  33.039  31.950  1.00  0.00     0.131 A 
ATOM     77  C   UNL A   1      39.493  31.529  34.174  1.00  0.00     0.055 A 
ATOM     78  C   UNL A   1      39.461  33.627  33.016  1.00  0.00     0.041 A 
ATOM     79  F   UNL A   1      40.592  33.843  30.966  1.00  0.00    -0.206 F 
ATOM     80  C   UNL A   1      39.178  32.886  34.166  1.00  0.00     0.022 A 
BRANCH  77  81
ATOM     81  S   UNL A   1      39.519  30.584  35.719  1.00  0.00     0.124 S 
ATOM     82  O   UNL A   1      38.101  30.289  35.892  1.00  0.00    -0.237 OA
ATOM     83  O   UNL A   1      40.376  29.451  35.363  1.00  0.00    -0.237 OA
ATOM     84  O   UNL A   1      40.099  31.495  36.699  1.00  0.00    -0.744 OA
ENDBRANCH  77  81
ENDBRANCH  50  74
BRANCH  62  85
ATOM     85  C   UNL A   1      45.217  26.166  32.601  1.00  0.00     0.023 A 
ATOM     86  C   UNL A   1      44.542  25.305  33.467  1.00  0.00     0.031 A 
ATOM     87  C   UNL A   1      46.624  25.987  32.555  1.00  0.00     0.131 A 
ATOM     88  C   UNL A   1      45.226  24.409  34.299  1.00  0.00     0.055 A 
ATOM     89  C   UNL A   1      47.298  25.019  33.306  1.00  0.00     0.041 A 
ATOM     90  F   UNL A   1      47.421  26.725  31.769  1.00  0.00    -0.206 F 
ATOM     91  C   UNL A   1      46.601  24.237  34.207  1.00  0.00     0.022 A 
BRANCH  88  92
ATOM     92  S   UNL A   1      44.256  23.549  35.556  1.00  0.00     0.124 S 
ATOM     93  O   UNL A   1      43.094  23.109  34.786  1.00  0.00    -0.237 OA
ATOM     94  O   UNL A   1      45.165  22.489  35.981  1.00  0.00    -0.237 OA
ATOM     95  O   UNL A   1      43.990  24.583  36.551  1.00  0.00    -0.744 OA
ENDBRANCH  88  92
ENDBRANCH  62  85
ENDBRANCH  36  37
ENDBRANCH  28  31
ENDBRANCH  26  27
ENDBRANCH  25  26
ENDBRANCH   1  25
TORSDOF 19
ENDMDL
MODEL 3
REMARK VINA RESULT:     -11.9      4.251      9.423
REMARK SMILES Cc1cccc([C@@H](CC(=O)NCCCCNC(=O)c2ccc(-c3c4nc(c(-c5cc(S(=O)(=O)[O-])ccc5F)c5ccc([nH]5)c(-c5cc(S(=O)(=O)[O-])ccc5F)c5nc(c(-c6cc(S(=O)(=O)[O-])ccc6F)c6ccc3[nH]6)C=C5)C=C4)cc2)NC(=O)OC(C)(C)C)c1
REMARK SMILES IDX 13 1 12 2 11 3 9 4 10 5 8 7 7 8 6 9 1 10 2 11 3 12 90 13
REMARK SMILES IDX 4 14 5 15 82 16 83 17 84 19 85 20 86 21 87 22 88 23 89 24
REMARK SMILES IDX 14 25 15 26 16 27 17 28 18 30 19 31 20 32 81 33 21 34 80 35
REMARK SMILES IDX 22 36 23 37 24 38 74 39 25 40 79 41 73 42 75 43 26 44 78 45
REMARK SMILES IDX 72 46 71 47 27 49 59 50 39 51 58 52 40 53 43 54 57 55 76 56
REMARK SMILES IDX 41 57 42 58 56 60 77 61 44 62 28 63 29 64 37 65 30 66 36 67
REMARK SMILES IDX 38 68 35 69 31 70 32 71 33 72 34 73 60 74 61 75 69 76 62 77
REMARK SMILES IDX 68 78 70 79 67 80 63 81 64 82 65 83 66 84 45 85 46 86 54 87
REMARK SMILES IDX 47 88 53 89 55 90 52 91 48 92 49 93 50 94 51 95
REMARK H PARENT 11 6 82 18 16 29 75 48 43 59
REMARK Flexibility Score: inf
ROOT
ATOM      1  C   UNL A   1      31.724  27.321  27.026  1.00  0.00     0.023 C 
ENDROOT
BRANCH   1   2
ATOM      2  C   UNL A   1      32.054  25.971  26.388  1.00  0.00     0.116 C 
BRANCH   2   3
ATOM      3  N   UNL A   1      31.087  24.969  26.825  1.00  0.00    -0.356 N 
ATOM      4  C   UNL A   1      31.125  23.621  26.617  1.00  0.00     0.222 C 
ATOM      5  O   UNL A   1      30.070  22.990  26.733  1.00  0.00    -0.275 OA
ATOM      6  H   UNL A   1      30.314  25.307  27.331  1.00  0.00     0.163 HD
BRANCH   4   7
ATOM      7  C   UNL A   1      32.425  22.901  26.295  1.00  0.00     0.130 C 
BRANCH   7   8
ATOM      8  C   UNL A   1      32.721  22.613  24.808  1.00  0.00     0.125 C 
BRANCH   8   9
ATOM      9  C   UNL A   1      32.565  21.165  24.355  1.00  0.00    -0.025 A 
ATOM     10  C   UNL A   1      32.702  17.679  25.896  1.00  0.00     0.044 C 
ATOM     11  C   UNL A   1      32.652  18.776  24.875  1.00  0.00    -0.051 A 
ATOM     12  C   UNL A   1      32.467  18.471  23.525  1.00  0.00     0.003 A 
ATOM     13  C   UNL A   1      32.746  20.119  25.275  1.00  0.00     0.009 A 
ATOM     14  C   UNL A   1      32.229  19.489  22.611  1.00  0.00     0.001 A 
ATOM     15  C   UNL A   1      32.213  20.819  23.039  1.00  0.00     0.006 A 
ENDBRANCH   8   9
BRANCH   8  16
ATOM     16  N   UNL A   1      33.992  23.165  24.366  1.00  0.00    -0.314 N 
ATOM     17  C   UNL A   1      34.232  23.715  23.143  1.00  0.00     0.408 C 
ATOM     18  H   UNL A   1      34.740  23.140  25.005  1.00  0.00     0.167 HD
ATOM     19  O   UNL A   1      35.360  23.930  22.749  1.00  0.00    -0.225 OA
BRANCH  17  20
ATOM     20  O   UNL A   1      33.082  23.995  22.482  1.00  0.00    -0.444 OA
BRANCH  20  21
ATOM     21  C   UNL A   1      32.628  25.357  22.327  1.00  0.00     0.106 C 
ATOM     22  C   UNL A   1      33.467  26.326  23.167  1.00  0.00     0.056 C 
ATOM     23  C   UNL A   1      32.592  25.742  20.846  1.00  0.00     0.056 C 
ATOM     24  C   UNL A   1      31.195  25.354  22.877  1.00  0.00     0.056 C 
ENDBRANCH  20  21
ENDBRANCH  17  20
ENDBRANCH   8  16
ENDBRANCH   7   8
ENDBRANCH   4   7
ENDBRANCH   2   3
ENDBRANCH   1   2
BRANCH   1  25
ATOM     25  C   UNL A   1      32.349  28.617  26.506  1.00  0.00     0.023 C 
BRANCH  25  26
ATOM     26  C   UNL A   1      33.753  28.901  27.003  1.00  0.00     0.116 C 
BRANCH  26  27
ATOM     27  N   UNL A   1      34.192  30.315  26.894  1.00  0.00    -0.352 N 
ATOM     28  C   UNL A   1      35.062  31.033  27.723  1.00  0.00     0.251 C 
ATOM     29  H   UNL A   1      33.820  30.817  26.133  1.00  0.00     0.163 HD
ATOM     30  O   UNL A   1      34.956  32.240  27.910  1.00  0.00    -0.269 OA
BRANCH  28  31
ATOM     31  C   UNL A   1      36.155  30.279  28.359  1.00  0.00     0.039 A 
ATOM     32  C   UNL A   1      36.228  29.788  29.668  1.00  0.00     0.014 A 
ATOM     33  C   UNL A   1      37.243  30.131  27.539  1.00  0.00     0.014 A 
ATOM     34  C   UNL A   1      37.406  29.133  30.047  1.00  0.00     0.010 A 
ATOM     35  C   UNL A   1      38.014  29.046  27.705  1.00  0.00     0.010 A 
ATOM     36  C   UNL A   1      38.297  28.796  29.029  1.00  0.00    -0.014 A 
BRANCH  36  37
ATOM     37  C   UNL A   1      39.678  28.374  29.116  1.00  0.00     0.031 A 
ATOM     38  C   UNL A   1      40.002  27.012  28.736  1.00  0.00     0.074 A 
ATOM     39  C   UNL A   1      40.562  29.407  29.142  1.00  0.00     0.049 A 
ATOM     40  N   UNL A   1      41.011  26.360  29.178  1.00  0.00    -0.248 NA
ATOM     41  C   UNL A   1      39.157  26.244  27.820  1.00  0.00     0.031 C 
ATOM     42  C   UNL A   1      41.952  29.500  28.729  1.00  0.00     0.029 A 
ATOM     43  N   UNL A   1      40.290  30.692  29.628  1.00  0.00    -0.354 N 
ATOM     44  C   UNL A   1      41.174  25.311  28.305  1.00  0.00     0.074 A 
ATOM     45  C   UNL A   1      39.906  25.154  27.635  1.00  0.00     0.031 C 
ATOM     46  C   UNL A   1      42.486  30.614  29.276  1.00  0.00     0.029 A 
ATOM     47  C   UNL A   1      41.480  31.198  30.152  1.00  0.00     0.049 A 
ATOM     48  H   UNL A   1      39.420  31.153  29.605  1.00  0.00     0.167 HD
ATOM     49  C   UNL A   1      42.434  24.883  28.019  1.00  0.00     0.034 A 
ATOM     50  C   UNL A   1      41.544  31.319  31.512  1.00  0.00     0.034 A 
ATOM     51  C   UNL A   1      43.421  25.771  28.640  1.00  0.00     0.049 A 
ATOM     52  C   UNL A   1      42.481  30.299  32.090  1.00  0.00     0.074 A 
ATOM     53  C   UNL A   1      44.205  26.799  28.136  1.00  0.00     0.029 A 
ATOM     54  N   UNL A   1      43.430  25.920  30.018  1.00  0.00    -0.354 N 
ATOM     55  N   UNL A   1      42.837  29.202  31.480  1.00  0.00    -0.248 NA
ATOM     56  C   UNL A   1      43.147  30.480  33.367  1.00  0.00     0.031 C 
ATOM     57  C   UNL A   1      44.652  27.587  29.235  1.00  0.00     0.029 A 
ATOM     58  C   UNL A   1      44.153  27.030  30.401  1.00  0.00     0.049 A 
ATOM     59  H   UNL A   1      42.976  25.311  30.644  1.00  0.00     0.167 HD
ATOM     60  C   UNL A   1      43.770  28.540  32.225  1.00  0.00     0.074 A 
ATOM     61  C   UNL A   1      43.945  29.399  33.389  1.00  0.00     0.031 C 
ATOM     62  C   UNL A   1      44.299  27.344  31.817  1.00  0.00     0.034 A 
BRANCH  49  63
ATOM     63  C   UNL A   1      42.770  23.906  26.925  1.00  0.00     0.023 A 
ATOM     64  C   UNL A   1      42.323  22.578  27.043  1.00  0.00     0.031 A 
ATOM     65  C   UNL A   1      43.470  24.212  25.743  1.00  0.00     0.131 A 
ATOM     66  C   UNL A   1      42.621  21.612  26.070  1.00  0.00     0.055 A 
ATOM     67  C   UNL A   1      43.813  23.239  24.792  1.00  0.00     0.041 A 
ATOM     68  F   UNL A   1      43.805  25.471  25.426  1.00  0.00    -0.206 F 
ATOM     69  C   UNL A   1      43.389  21.928  24.955  1.00  0.00     0.022 A 
BRANCH  66  70
ATOM     70  S   UNL A   1      41.938  19.947  26.276  1.00  0.00     0.124 S 
ATOM     71  O   UNL A   1      42.551  19.226  25.165  1.00  0.00    -0.237 OA
ATOM     72  O   UNL A   1      42.399  19.587  27.612  1.00  0.00    -0.237 OA
ATOM     73  O   UNL A   1      40.497  20.158  26.158  1.00  0.00    -0.744 OA
ENDBRANCH  66  70
ENDBRANCH  49  63
BRANCH  50  74
ATOM     74  C   UNL A   1      40.226  31.764  32.090  1.00  0.00     0.023 A 
ATOM     75  C   UNL A   1      39.784  30.997  33.188  1.00  0.00     0.031 A 
ATOM     76  C   UNL A   1      39.785  33.095  32.008  1.00  0.00     0.131 A 
ATOM     77  C   UNL A   1      39.203  31.638  34.291  1.00  0.00     0.055 A 
ATOM     78  C   UNL A   1      39.068  33.689  33.060  1.00  0.00     0.041 A 
ATOM     79  F   UNL A   1      40.170  33.881  30.992  1.00  0.00    -0.206 F 
ATOM     80  C   UNL A   1      38.829  32.979  34.238  1.00  0.00     0.022 A 
BRANCH  77  81
ATOM     81  S   UNL A   1      39.283  30.750  35.868  1.00  0.00     0.124 S 
ATOM     82  O   UNL A   1      37.875  30.723  36.248  1.00  0.00    -0.237 OA
ATOM     83  O   UNL A   1      39.869  29.471  35.462  1.00  0.00    -0.237 OA
ATOM     84  O   UNL A   1      40.149  31.570  36.709  1.00  0.00    -0.744 OA
ENDBRANCH  77  81
ENDBRANCH  50  74
BRANCH  62  85
ATOM     85  C   UNL A   1      45.041  26.366  32.704  1.00  0.00     0.023 A 
ATOM     86  C   UNL A   1      44.389  25.525  33.606  1.00  0.00     0.031 A 
ATOM     87  C   UNL A   1      46.445  26.182  32.621  1.00  0.00     0.131 A 
ATOM     88  C   UNL A   1      45.095  24.645  34.437  1.00  0.00     0.055 A 
ATOM     89  C   UNL A   1      47.138  25.228  33.372  1.00  0.00     0.041 A 
ATOM     90  F   UNL A   1      47.221  26.900  31.797  1.00  0.00    -0.206 F 
ATOM     91  C   UNL A   1      46.465  24.466  34.309  1.00  0.00     0.022 A 
BRANCH  88  92
ATOM     92  S   UNL A   1      44.159  23.814  35.739  1.00  0.00     0.124 S 
ATOM     93  O   UNL A   1      44.171  24.817  36.802  1.00  0.00    -0.237 OA
ATOM     94  O   UNL A   1      42.865  23.591  35.101  1.00  0.00    -0.237 OA
ATOM     95  O   UNL A   1      44.940  22.611  36.008  1.00  0.00    -0.744 OA
ENDBRANCH  88  92
ENDBRANCH  62  85
ENDBRANCH  36  37
ENDBRANCH  28  31
ENDBRANCH  26  27
ENDBRANCH  25  26
ENDBRANCH   1  25
TORSDOF 19
ENDMDL
