MODEL 1
REMARK VINA RESULT:     -11.2      0.000      0.000
REMARK SMILES C[C@@H](O)[C@@H](NC(=O)Nc1ccc(F)cc1F)C(=O)NCCCCNC(=O)c1ccc(-c2c3nc(c(-c4cc(S(=O)(=O)[O-])ccc4F)c4ccc([nH]4)c(-c4cc(S(=O)(=O)[O-])ccc4F)c4nc(c(-c5cc(S(=O)(=O)[O-])ccc5F)c5ccc2[nH]5)C=C4)C=C3)cc1
REMARK SMILES IDX 22 1 21 2 20 3 19 4 17 5 18 6 4 8 2 9 1 10 3 11 5 13 6 14
REMARK SMILES IDX 7 16 8 17 9 19 10 20 15 21 11 22 14 23 16 24 12 25 13 26
REMARK SMILES IDX 23 27 24 28 25 29 26 31 27 32 28 33 89 34 29 35 88 36 30 37
REMARK SMILES IDX 31 38 32 39 82 40 33 41 87 42 81 43 83 44 34 45 86 46 80 47
REMARK SMILES IDX 79 48 35 50 67 51 47 52 66 53 48 54 51 55 65 56 84 57 49 58
REMARK SMILES IDX 50 59 64 61 85 62 52 63 36 64 37 65 45 66 38 67 44 68 46 69
REMARK SMILES IDX 43 70 39 71 40 72 41 73 42 74 68 75 69 76 77 77 70 78 76 79
REMARK SMILES IDX 78 80 75 81 71 82 72 83 73 84 74 85 53 86 54 87 62 88 55 89
REMARK SMILES IDX 61 90 63 91 60 92 56 93 57 94 58 95 59 96
REMARK H PARENT 19 7 3 12 5 15 8 18 24 30 83 49 51 60
REMARK Flexibility Score: inf
ROOT
ATOM      1  C   UNL A   1      34.051  34.469  27.841  1.00  0.00     0.023 C 
ENDROOT
BRANCH   1   2
ATOM      2  C   UNL A   1      33.262  34.944  29.072  1.00  0.00     0.023 C 
BRANCH   2   3
ATOM      3  C   UNL A   1      34.090  34.970  30.359  1.00  0.00     0.116 C 
BRANCH   3   4
ATOM      4  N   UNL A   1      33.194  34.931  31.492  1.00  0.00    -0.354 N 
ATOM      5  C   UNL A   1      33.586  34.515  32.731  1.00  0.00     0.245 C 
ATOM      6  O   UNL A   1      33.215  33.419  33.152  1.00  0.00    -0.273 OA
ATOM      7  H   UNL A   1      32.260  35.215  31.364  1.00  0.00     0.163 HD
BRANCH   5   8
ATOM      8  C   UNL A   1      34.567  35.394  33.521  1.00  0.00     0.201 C 
BRANCH   8   9
ATOM      9  C   UNL A   1      33.848  36.763  33.654  1.00  0.00     0.143 C 
ATOM     10  C   UNL A   1      34.160  37.758  32.548  1.00  0.00     0.041 C 
BRANCH   9  11
ATOM     11  O   UNL A   1      32.422  36.566  33.619  1.00  0.00    -0.391 OA
ATOM     12  H   UNL A   1      31.983  37.307  34.069  1.00  0.00     0.211 HD
ENDBRANCH   9  11
ENDBRANCH   8   9
BRANCH   8  13
ATOM     13  N   UNL A   1      35.018  34.762  34.773  1.00  0.00    -0.323 N 
ATOM     14  C   UNL A   1      35.949  33.818  35.049  1.00  0.00     0.320 C 
ATOM     15  H   UNL A   1      34.546  35.093  35.572  1.00  0.00     0.166 HD
ATOM     16  O   UNL A   1      36.047  33.459  36.226  1.00  0.00    -0.248 OA
ATOM     17  N   UNL A   1      36.620  33.132  34.093  1.00  0.00    -0.305 N 
ATOM     18  H   UNL A   1      36.886  32.222  34.360  1.00  0.00     0.171 HD
BRANCH  17  19
ATOM     19  C   UNL A   1      37.002  33.484  32.791  1.00  0.00     0.079 A 
ATOM     20  C   UNL A   1      36.475  32.838  31.673  1.00  0.00     0.032 A 
ATOM     21  C   UNL A   1      37.997  34.460  32.622  1.00  0.00     0.149 A 
ATOM     22  C   UNL A   1      37.043  33.065  30.419  1.00  0.00     0.041 A 
ATOM     23  C   UNL A   1      38.584  34.670  31.380  1.00  0.00     0.080 A 
ATOM     24  F   UNL A   1      38.517  35.074  33.697  1.00  0.00    -0.205 F 
ATOM     25  C   UNL A   1      38.114  33.949  30.292  1.00  0.00     0.126 A 
ATOM     26  F   UNL A   1      38.709  34.086  29.100  1.00  0.00    -0.207 F 
ENDBRANCH  17  19
ENDBRANCH   8  13
ENDBRANCH   5   8
ENDBRANCH   3   4
ENDBRANCH   2   3
ENDBRANCH   1   2
BRANCH   1  27
ATOM     27  C   UNL A   1      34.777  33.143  28.039  1.00  0.00     0.116 C 
BRANCH  27  28
ATOM     28  N   UNL A   1      33.910  32.019  27.732  1.00  0.00    -0.352 N 
ATOM     29  C   UNL A   1      34.240  30.694  27.620  1.00  0.00     0.251 C 
ATOM     30  H   UNL A   1      32.961  32.239  27.584  1.00  0.00     0.163 HD
ATOM     31  O   UNL A   1      33.466  29.910  27.088  1.00  0.00    -0.269 OA
BRANCH  29  32
ATOM     32  C   UNL A   1      35.545  30.243  28.137  1.00  0.00     0.039 A 
ATOM     33  C   UNL A   1      35.621  29.722  29.429  1.00  0.00     0.014 A 
ATOM     34  C   UNL A   1      36.686  30.325  27.330  1.00  0.00     0.014 A 
ATOM     35  C   UNL A   1      36.843  29.243  29.901  1.00  0.00     0.010 A 
ATOM     36  C   UNL A   1      37.884  29.781  27.777  1.00  0.00     0.010 A 
ATOM     37  C   UNL A   1      37.978  29.248  29.073  1.00  0.00    -0.014 A 
BRANCH  37  38
ATOM     38  C   UNL A   1      39.285  28.737  29.556  1.00  0.00     0.031 A 
ATOM     39  C   UNL A   1      39.983  29.441  30.687  1.00  0.00     0.074 A 
ATOM     40  C   UNL A   1      39.858  27.680  28.950  1.00  0.00     0.049 A 
ATOM     41  N   UNL A   1      41.166  29.218  31.197  1.00  0.00    -0.248 NA
ATOM     42  C   UNL A   1      39.263  30.566  31.308  1.00  0.00     0.031 C 
ATOM     43  C   UNL A   1      39.281  26.930  27.832  1.00  0.00     0.029 A 
ATOM     44  N   UNL A   1      41.056  27.053  29.184  1.00  0.00    -0.354 N 
ATOM     45  C   UNL A   1      41.335  30.175  32.192  1.00  0.00     0.074 A 
ATOM     46  C   UNL A   1      40.163  31.022  32.165  1.00  0.00     0.031 C 
ATOM     47  C   UNL A   1      40.113  25.932  27.496  1.00  0.00     0.029 A 
ATOM     48  C   UNL A   1      41.306  26.001  28.333  1.00  0.00     0.049 A 
ATOM     49  H   UNL A   1      41.679  27.332  29.894  1.00  0.00     0.167 HD
ATOM     50  C   UNL A   1      42.362  30.315  33.066  1.00  0.00     0.034 A 
ATOM     51  C   UNL A   1      42.382  25.195  28.234  1.00  0.00     0.034 A 
ATOM     52  C   UNL A   1      43.519  29.455  33.083  1.00  0.00     0.049 A 
ATOM     53  C   UNL A   1      43.537  25.407  29.184  1.00  0.00     0.074 A 
ATOM     54  C   UNL A   1      44.606  29.489  33.940  1.00  0.00     0.029 A 
ATOM     55  N   UNL A   1      43.742  28.405  32.202  1.00  0.00    -0.354 N 
ATOM     56  N   UNL A   1      43.670  26.300  30.137  1.00  0.00    -0.248 NA
ATOM     57  C   UNL A   1      44.681  24.496  29.050  1.00  0.00     0.031 C 
ATOM     58  C   UNL A   1      45.515  28.508  33.533  1.00  0.00     0.029 A 
ATOM     59  C   UNL A   1      44.959  27.803  32.477  1.00  0.00     0.049 A 
ATOM     60  H   UNL A   1      43.126  28.129  31.484  1.00  0.00     0.167 HD
ATOM     61  C   UNL A   1      44.894  26.025  30.746  1.00  0.00     0.074 A 
ATOM     62  C   UNL A   1      45.451  24.881  30.056  1.00  0.00     0.031 C 
ATOM     63  C   UNL A   1      45.498  26.657  31.784  1.00  0.00     0.034 A 
BRANCH  50  64
ATOM     64  C   UNL A   1      42.284  31.453  34.056  1.00  0.00     0.023 A 
ATOM     65  C   UNL A   1      41.398  31.419  35.149  1.00  0.00     0.031 A 
ATOM     66  C   UNL A   1      43.091  32.593  33.899  1.00  0.00     0.131 A 
ATOM     67  C   UNL A   1      41.291  32.530  35.998  1.00  0.00     0.055 A 
ATOM     68  C   UNL A   1      43.040  33.661  34.797  1.00  0.00     0.041 A 
ATOM     69  F   UNL A   1      43.938  32.694  32.862  1.00  0.00    -0.206 F 
ATOM     70  C   UNL A   1      42.125  33.639  35.847  1.00  0.00     0.022 A 
BRANCH  67  71
ATOM     71  S   UNL A   1      39.948  32.561  37.216  1.00  0.00     0.124 S 
ATOM     72  O   UNL A   1      39.370  33.884  36.983  1.00  0.00    -0.237 OA
ATOM     73  O   UNL A   1      39.128  31.426  36.810  1.00  0.00    -0.237 OA
ATOM     74  O   UNL A   1      40.640  32.407  38.493  1.00  0.00    -0.744 OA
ENDBRANCH  67  71
ENDBRANCH  50  64
BRANCH  51  75
ATOM     75  C   UNL A   1      42.439  24.122  27.198  1.00  0.00     0.023 A 
ATOM     76  C   UNL A   1      41.676  22.951  27.330  1.00  0.00     0.031 A 
ATOM     77  C   UNL A   1      43.309  24.218  26.098  1.00  0.00     0.131 A 
ATOM     78  C   UNL A   1      41.845  21.898  26.419  1.00  0.00     0.055 A 
ATOM     79  C   UNL A   1      43.425  23.193  25.156  1.00  0.00     0.041 A 
ATOM     80  F   UNL A   1      44.063  25.314  25.919  1.00  0.00    -0.206 F 
ATOM     81  C   UNL A   1      42.703  22.015  25.325  1.00  0.00     0.022 A 
BRANCH  78  82
ATOM     82  S   UNL A   1      41.015  20.320  26.758  1.00  0.00     0.124 S 
ATOM     83  O   UNL A   1      39.739  20.505  26.076  1.00  0.00    -0.237 OA
ATOM     84  O   UNL A   1      41.933  19.360  26.156  1.00  0.00    -0.237 OA
ATOM     85  O   UNL A   1      40.942  20.281  28.217  1.00  0.00    -0.744 OA
ENDBRANCH  78  82
ENDBRANCH  51  75
BRANCH  63  86
ATOM     86  C   UNL A   1      46.800  26.076  32.282  1.00  0.00     0.023 A 
ATOM     87  C   UNL A   1      48.023  26.323  31.636  1.00  0.00     0.031 A 
ATOM     88  C   UNL A   1      46.810  25.260  33.428  1.00  0.00     0.131 A 
ATOM     89  C   UNL A   1      49.197  25.716  32.107  1.00  0.00     0.055 A 
ATOM     90  C   UNL A   1      47.990  24.711  33.929  1.00  0.00     0.041 A 
ATOM     91  F   UNL A   1      45.670  24.987  34.083  1.00  0.00    -0.206 F 
ATOM     92  C   UNL A   1      49.191  24.928  33.261  1.00  0.00     0.022 A 
BRANCH  89  93
ATOM     93  S   UNL A   1      50.720  25.895  31.139  1.00  0.00     0.124 S 
ATOM     94  O   UNL A   1      51.649  25.040  31.872  1.00  0.00    -0.237 OA
ATOM     95  O   UNL A   1      50.313  25.414  29.824  1.00  0.00    -0.237 OA
ATOM     96  O   UNL A   1      51.006  27.327  31.212  1.00  0.00    -0.744 OA
ENDBRANCH  89  93
ENDBRANCH  63  86
ENDBRANCH  37  38
ENDBRANCH  29  32
ENDBRANCH  27  28
ENDBRANCH   1  27
TORSDOF 18
ENDMDL
MODEL 2
REMARK VINA RESULT:     -11.2      1.775      2.078
REMARK SMILES C[C@@H](O)[C@@H](NC(=O)Nc1ccc(F)cc1F)C(=O)NCCCCNC(=O)c1ccc(-c2c3nc(c(-c4cc(S(=O)(=O)[O-])ccc4F)c4ccc([nH]4)c(-c4cc(S(=O)(=O)[O-])ccc4F)c4nc(c(-c5cc(S(=O)(=O)[O-])ccc5F)c5ccc2[nH]5)C=C4)C=C3)cc1
REMARK SMILES IDX 22 1 21 2 20 3 19 4 17 5 18 6 4 8 2 9 1 10 3 11 5 13 6 14
REMARK SMILES IDX 7 16 8 17 9 19 10 20 15 21 11 22 14 23 16 24 12 25 13 26
REMARK SMILES IDX 23 27 24 28 25 29 26 31 27 32 28 33 89 34 29 35 88 36 30 37
REMARK SMILES IDX 31 38 32 39 82 40 33 41 87 42 81 43 83 44 34 45 86 46 80 47
REMARK SMILES IDX 79 48 35 50 67 51 47 52 66 53 48 54 51 55 65 56 84 57 49 58
REMARK SMILES IDX 50 59 64 61 85 62 52 63 36 64 37 65 45 66 38 67 44 68 46 69
REMARK SMILES IDX 43 70 39 71 40 72 41 73 42 74 68 75 69 76 77 77 70 78 76 79
REMARK SMILES IDX 78 80 75 81 71 82 72 83 73 84 74 85 53 86 54 87 62 88 55 89
REMARK SMILES IDX 61 90 63 91 60 92 56 93 57 94 58 95 59 96
REMARK H PARENT 19 7 3 12 5 15 8 18 24 30 83 49 51 60
REMARK Flexibility Score: inf
ROOT
ATOM      1  C   UNL A   1      33.993  34.373  27.842  1.00  0.00     0.023 C 
ENDROOT
BRANCH   1   2
ATOM      2  C   UNL A   1      33.207  34.862  29.069  1.00  0.00     0.023 C 
BRANCH   2   3
ATOM      3  C   UNL A   1      34.049  34.944  30.345  1.00  0.00     0.116 C 
BRANCH   3   4
ATOM      4  N   UNL A   1      33.168  34.905  31.489  1.00  0.00    -0.354 N 
ATOM      5  C   UNL A   1      33.579  34.500  32.726  1.00  0.00     0.245 C 
ATOM      6  O   UNL A   1      33.222  33.403  33.158  1.00  0.00    -0.273 OA
ATOM      7  H   UNL A   1      32.230  35.181  31.371  1.00  0.00     0.163 HD
BRANCH   5   8
ATOM      8  C   UNL A   1      34.563  35.391  33.497  1.00  0.00     0.201 C 
BRANCH   8   9
ATOM      9  C   UNL A   1      33.837  36.757  33.626  1.00  0.00     0.143 C 
ATOM     10  C   UNL A   1      34.135  37.745  32.511  1.00  0.00     0.041 C 
BRANCH   9  11
ATOM     11  O   UNL A   1      32.413  36.552  33.605  1.00  0.00    -0.391 OA
ATOM     12  H   UNL A   1      31.997  37.102  34.289  1.00  0.00     0.211 HD
ENDBRANCH   9  11
ENDBRANCH   8   9
BRANCH   8  13
ATOM     13  N   UNL A   1      35.031  34.772  34.749  1.00  0.00    -0.323 N 
ATOM     14  C   UNL A   1      35.961  33.826  35.022  1.00  0.00     0.320 C 
ATOM     15  H   UNL A   1      34.575  35.117  35.552  1.00  0.00     0.166 HD
ATOM     16  O   UNL A   1      36.077  33.482  36.201  1.00  0.00    -0.248 OA
ATOM     17  N   UNL A   1      36.611  33.123  34.064  1.00  0.00    -0.305 N 
ATOM     18  H   UNL A   1      36.875  32.215  34.339  1.00  0.00     0.171 HD
BRANCH  17  19
ATOM     19  C   UNL A   1      36.973  33.455  32.751  1.00  0.00     0.079 A 
ATOM     20  C   UNL A   1      36.424  32.797  31.651  1.00  0.00     0.032 A 
ATOM     21  C   UNL A   1      37.969  34.424  32.552  1.00  0.00     0.149 A 
ATOM     22  C   UNL A   1      36.972  33.003  30.385  1.00  0.00     0.041 A 
ATOM     23  C   UNL A   1      38.537  34.615  31.298  1.00  0.00     0.080 A 
ATOM     24  F   UNL A   1      38.509  35.050  33.610  1.00  0.00    -0.205 F 
ATOM     25  C   UNL A   1      38.045  33.881  30.227  1.00  0.00     0.126 A 
ATOM     26  F   UNL A   1      38.621  33.999  29.024  1.00  0.00    -0.207 F 
ENDBRANCH  17  19
ENDBRANCH   8  13
ENDBRANCH   5   8
ENDBRANCH   3   4
ENDBRANCH   2   3
ENDBRANCH   1   2
BRANCH   1  27
ATOM     27  C   UNL A   1      34.723  33.051  28.054  1.00  0.00     0.116 C 
BRANCH  27  28
ATOM     28  N   UNL A   1      33.884  31.924  27.684  1.00  0.00    -0.352 N 
ATOM     29  C   UNL A   1      34.241  30.610  27.538  1.00  0.00     0.251 C 
ATOM     30  H   UNL A   1      32.937  32.133  27.516  1.00  0.00     0.163 HD
ATOM     31  O   UNL A   1      33.497  29.831  26.957  1.00  0.00    -0.269 OA
BRANCH  29  32
ATOM     32  C   UNL A   1      35.539  30.163  28.078  1.00  0.00     0.039 A 
ATOM     33  C   UNL A   1      35.598  29.668  29.380  1.00  0.00     0.014 A 
ATOM     34  C   UNL A   1      36.688  30.222  27.280  1.00  0.00     0.014 A 
ATOM     35  C   UNL A   1      36.813  29.194  29.875  1.00  0.00     0.010 A 
ATOM     36  C   UNL A   1      37.879  29.682  27.751  1.00  0.00     0.010 A 
ATOM     37  C   UNL A   1      37.956  29.176  29.059  1.00  0.00    -0.014 A 
BRANCH  37  38
ATOM     38  C   UNL A   1      39.256  28.669  29.565  1.00  0.00     0.031 A 
ATOM     39  C   UNL A   1      39.884  29.314  30.770  1.00  0.00     0.074 A 
ATOM     40  C   UNL A   1      39.886  27.670  28.918  1.00  0.00     0.049 A 
ATOM     41  N   UNL A   1      41.049  29.089  31.318  1.00  0.00    -0.248 NA
ATOM     42  C   UNL A   1      39.105  30.375  31.430  1.00  0.00     0.031 C 
ATOM     43  C   UNL A   1      39.380  26.981  27.729  1.00  0.00     0.029 A 
ATOM     44  N   UNL A   1      41.090  27.060  29.165  1.00  0.00    -0.354 N 
ATOM     45  C   UNL A   1      41.147  29.981  32.380  1.00  0.00     0.074 A 
ATOM     46  C   UNL A   1      39.954  30.798  32.356  1.00  0.00     0.031 C 
ATOM     47  C   UNL A   1      40.255  26.030  27.366  1.00  0.00     0.029 A 
ATOM     48  C   UNL A   1      41.407  26.074  28.259  1.00  0.00     0.049 A 
ATOM     49  H   UNL A   1      41.674  27.308  29.918  1.00  0.00     0.167 HD
ATOM     50  C   UNL A   1      42.131  30.090  33.307  1.00  0.00     0.034 A 
ATOM     51  C   UNL A   1      42.510  25.306  28.155  1.00  0.00     0.034 A 
ATOM     52  C   UNL A   1      43.311  29.262  33.320  1.00  0.00     0.049 A 
ATOM     53  C   UNL A   1      43.616  25.484  29.168  1.00  0.00     0.074 A 
ATOM     54  C   UNL A   1      44.358  29.267  34.224  1.00  0.00     0.029 A 
ATOM     55  N   UNL A   1      43.603  28.279  32.382  1.00  0.00    -0.354 N 
ATOM     56  N   UNL A   1      43.682  26.315  30.183  1.00  0.00    -0.248 NA
ATOM     57  C   UNL A   1      44.791  24.615  29.027  1.00  0.00     0.031 C 
ATOM     58  C   UNL A   1      45.313  28.340  33.795  1.00  0.00     0.029 A 
ATOM     59  C   UNL A   1      44.824  27.693  32.672  1.00  0.00     0.049 A 
ATOM     60  H   UNL A   1      43.027  28.035  31.621  1.00  0.00     0.167 HD
ATOM     61  C   UNL A   1      44.886  26.033  30.827  1.00  0.00     0.074 A 
ATOM     62  C   UNL A   1      45.506  24.952  30.090  1.00  0.00     0.031 C 
ATOM     63  C   UNL A   1      45.426  26.610  31.930  1.00  0.00     0.034 A 
BRANCH  50  64
ATOM     64  C   UNL A   1      41.977  31.157  34.364  1.00  0.00     0.023 A 
ATOM     65  C   UNL A   1      42.456  32.465  34.165  1.00  0.00     0.031 A 
ATOM     66  C   UNL A   1      41.357  30.863  35.591  1.00  0.00     0.131 A 
ATOM     67  C   UNL A   1      42.372  33.406  35.202  1.00  0.00     0.055 A 
ATOM     68  C   UNL A   1      41.201  31.830  36.587  1.00  0.00     0.041 A 
ATOM     69  F   UNL A   1      40.901  29.627  35.849  1.00  0.00    -0.206 F 
ATOM     70  C   UNL A   1      41.723  33.107  36.401  1.00  0.00     0.022 A 
BRANCH  67  71
ATOM     71  S   UNL A   1      43.248  34.983  35.011  1.00  0.00     0.124 S 
ATOM     72  O   UNL A   1      42.921  35.337  33.631  1.00  0.00    -0.237 OA
ATOM     73  O   UNL A   1      42.637  35.810  36.045  1.00  0.00    -0.237 OA
ATOM     74  O   UNL A   1      44.646  34.627  35.242  1.00  0.00    -0.744 OA
ENDBRANCH  67  71
ENDBRANCH  50  64
BRANCH  51  75
ATOM     75  C   UNL A   1      42.644  24.306  27.056  1.00  0.00     0.023 A 
ATOM     76  C   UNL A   1      42.015  23.053  27.140  1.00  0.00     0.031 A 
ATOM     77  C   UNL A   1      43.457  24.558  25.937  1.00  0.00     0.131 A 
ATOM     78  C   UNL A   1      42.261  22.078  26.162  1.00  0.00     0.055 A 
ATOM     79  C   UNL A   1      43.648  23.607  24.933  1.00  0.00     0.041 A 
ATOM     80  F   UNL A   1      44.083  25.738  25.802  1.00  0.00    -0.206 F 
ATOM     81  C   UNL A   1      43.062  22.350  25.051  1.00  0.00     0.022 A 
BRANCH  78  82
ATOM     82  S   UNL A   1      41.617  20.403  26.430  1.00  0.00     0.124 S 
ATOM     83  O   UNL A   1      42.317  19.649  25.396  1.00  0.00    -0.237 OA
ATOM     84  O   UNL A   1      42.024  20.138  27.805  1.00  0.00    -0.237 OA
ATOM     85  O   UNL A   1      40.178  20.556  26.225  1.00  0.00    -0.744 OA
ENDBRANCH  78  82
ENDBRANCH  51  75
BRANCH  63  86
ATOM     86  C   UNL A   1      46.721  26.032  32.447  1.00  0.00     0.023 A 
ATOM     87  C   UNL A   1      46.750  25.015  33.417  1.00  0.00     0.031 A 
ATOM     88  C   UNL A   1      47.948  26.512  31.955  1.00  0.00     0.131 A 
ATOM     89  C   UNL A   1      47.982  24.549  33.903  1.00  0.00     0.055 A 
ATOM     90  C   UNL A   1      49.169  25.999  32.395  1.00  0.00     0.041 A 
ATOM     91  F   UNL A   1      47.981  27.484  31.030  1.00  0.00    -0.206 F 
ATOM     92  C   UNL A   1      49.190  25.021  33.384  1.00  0.00     0.022 A 
BRANCH  89  93
ATOM     93  S   UNL A   1      47.984  23.381  35.291  1.00  0.00     0.124 S 
ATOM     94  O   UNL A   1      48.928  24.006  36.213  1.00  0.00    -0.237 OA
ATOM     95  O   UNL A   1      46.587  23.389  35.708  1.00  0.00    -0.237 OA
ATOM     96  O   UNL A   1      48.443  22.132  34.687  1.00  0.00    -0.744 OA
ENDBRANCH  89  93
ENDBRANCH  63  86
ENDBRANCH  37  38
ENDBRANCH  29  32
ENDBRANCH  27  28
ENDBRANCH   1  27
TORSDOF 18
ENDMDL
MODEL 3
REMARK VINA RESULT:     -11.1      4.719     10.638
REMARK SMILES C[C@@H](O)[C@@H](NC(=O)Nc1ccc(F)cc1F)C(=O)NCCCCNC(=O)c1ccc(-c2c3nc(c(-c4cc(S(=O)(=O)[O-])ccc4F)c4ccc([nH]4)c(-c4cc(S(=O)(=O)[O-])ccc4F)c4nc(c(-c5cc(S(=O)(=O)[O-])ccc5F)c5ccc2[nH]5)C=C4)C=C3)cc1
REMARK SMILES IDX 22 1 21 2 20 3 19 4 17 5 18 6 4 8 2 9 1 10 3 11 5 13 6 14
REMARK SMILES IDX 7 16 8 17 9 19 10 20 15 21 11 22 14 23 16 24 12 25 13 26
REMARK SMILES IDX 23 27 24 28 25 29 26 31 27 32 28 33 89 34 29 35 88 36 30 37
REMARK SMILES IDX 31 38 32 39 82 40 33 41 87 42 81 43 83 44 34 45 86 46 80 47
REMARK SMILES IDX 79 48 35 50 67 51 47 52 66 53 48 54 51 55 65 56 84 57 49 58
REMARK SMILES IDX 50 59 64 61 85 62 52 63 36 64 37 65 45 66 38 67 44 68 46 69
REMARK SMILES IDX 43 70 39 71 40 72 41 73 42 74 68 75 69 76 77 77 70 78 76 79
REMARK SMILES IDX 78 80 75 81 71 82 72 83 73 84 74 85 53 86 54 87 62 88 55 89
REMARK SMILES IDX 61 90 63 91 60 92 56 93 57 94 58 95 59 96
REMARK H PARENT 19 7 3 12 5 15 8 18 24 30 83 49 51 60
REMARK Flexibility Score: inf
ROOT
ATOM      1  C   UNL A   1      31.720  31.488  26.653  1.00  0.00     0.023 C 
ENDROOT
BRANCH   1   2
ATOM      2  C   UNL A   1      31.850  29.974  26.418  1.00  0.00     0.023 C 
BRANCH   2   3
ATOM      3  C   UNL A   1      32.218  29.606  24.978  1.00  0.00     0.116 C 
BRANCH   3   4
ATOM      4  N   UNL A   1      31.004  29.473  24.206  1.00  0.00    -0.354 N 
ATOM      5  C   UNL A   1      30.965  28.854  22.990  1.00  0.00     0.245 C 
ATOM      6  O   UNL A   1      30.841  29.527  21.966  1.00  0.00    -0.273 OA
ATOM      7  H   UNL A   1      30.170  29.846  24.571  1.00  0.00     0.163 HD
BRANCH   5   8
ATOM      8  C   UNL A   1      31.180  27.335  22.936  1.00  0.00     0.201 C 
BRANCH   8   9
ATOM      9  C   UNL A   1      29.800  26.729  23.305  1.00  0.00     0.143 C 
ATOM     10  C   UNL A   1      29.671  26.265  24.747  1.00  0.00     0.041 C 
BRANCH   9  11
ATOM     11  O   UNL A   1      28.771  27.717  23.113  1.00  0.00    -0.391 OA
ATOM     12  H   UNL A   1      28.686  28.256  23.917  1.00  0.00     0.211 HD
ENDBRANCH   9  11
ENDBRANCH   8   9
BRANCH   8  13
ATOM     13  N   UNL A   1      31.778  26.888  21.666  1.00  0.00    -0.323 N 
ATOM     14  C   UNL A   1      32.751  25.995  21.365  1.00  0.00     0.320 C 
ATOM     15  H   UNL A   1      31.392  27.328  20.874  1.00  0.00     0.166 HD
ATOM     16  O   UNL A   1      33.063  25.890  20.176  1.00  0.00    -0.248 OA
ATOM     17  N   UNL A   1      33.508  25.376  22.302  1.00  0.00    -0.305 N 
ATOM     18  H   UNL A   1      34.417  25.147  22.000  1.00  0.00     0.171 HD
BRANCH  17  19
ATOM     19  C   UNL A   1      33.231  25.004  23.625  1.00  0.00     0.079 A 
ATOM     20  C   UNL A   1      32.545  23.829  23.928  1.00  0.00     0.032 A 
ATOM     21  C   UNL A   1      33.592  25.881  24.661  1.00  0.00     0.149 A 
ATOM     22  C   UNL A   1      32.100  23.611  25.232  1.00  0.00     0.041 A 
ATOM     23  C   UNL A   1      33.130  25.683  25.956  1.00  0.00     0.080 A 
ATOM     24  F   UNL A   1      34.241  27.021  24.372  1.00  0.00    -0.205 F 
ATOM     25  C   UNL A   1      32.364  24.556  26.223  1.00  0.00     0.126 A 
ATOM     26  F   UNL A   1      31.852  24.379  27.447  1.00  0.00    -0.207 F 
ENDBRANCH  17  19
ENDBRANCH   8  13
ENDBRANCH   5   8
ENDBRANCH   3   4
ENDBRANCH   2   3
ENDBRANCH   1   2
BRANCH   1  27
ATOM     27  C   UNL A   1      32.969  32.139  27.238  1.00  0.00     0.116 C 
BRANCH  27  28
ATOM     28  N   UNL A   1      32.748  33.549  27.506  1.00  0.00    -0.352 N 
ATOM     29  C   UNL A   1      33.272  34.316  28.512  1.00  0.00     0.251 C 
ATOM     30  H   UNL A   1      32.142  34.013  26.884  1.00  0.00     0.163 HD
ATOM     31  O   UNL A   1      32.783  35.407  28.773  1.00  0.00    -0.269 OA
BRANCH  29  32
ATOM     32  C   UNL A   1      34.421  33.794  29.277  1.00  0.00     0.039 A 
ATOM     33  C   UNL A   1      34.195  32.864  30.290  1.00  0.00     0.014 A 
ATOM     34  C   UNL A   1      35.718  34.219  28.970  1.00  0.00     0.014 A 
ATOM     35  C   UNL A   1      35.284  32.327  30.978  1.00  0.00     0.010 A 
ATOM     36  C   UNL A   1      36.803  33.629  29.606  1.00  0.00     0.010 A 
ATOM     37  C   UNL A   1      36.596  32.687  30.627  1.00  0.00    -0.014 A 
BRANCH  37  38
ATOM     38  C   UNL A   1      37.766  32.121  31.343  1.00  0.00     0.031 A 
ATOM     39  C   UNL A   1      38.558  31.012  30.706  1.00  0.00     0.074 A 
ATOM     40  C   UNL A   1      38.082  32.568  32.573  1.00  0.00     0.049 A 
ATOM     41  N   UNL A   1      39.552  30.318  31.194  1.00  0.00    -0.248 NA
ATOM     42  C   UNL A   1      38.158  30.614  29.346  1.00  0.00     0.031 C 
ATOM     43  C   UNL A   1      37.374  33.627  33.296  1.00  0.00     0.029 A 
ATOM     44  N   UNL A   1      39.078  32.188  33.437  1.00  0.00    -0.354 N 
ATOM     45  C   UNL A   1      39.892  29.399  30.208  1.00  0.00     0.074 A 
ATOM     46  C   UNL A   1      38.953  29.578  29.123  1.00  0.00     0.031 C 
ATOM     47  C   UNL A   1      37.973  33.826  34.481  1.00  0.00     0.029 A 
ATOM     48  C   UNL A   1      39.071  32.877  34.628  1.00  0.00     0.049 A 
ATOM     49  H   UNL A   1      39.735  31.485  33.225  1.00  0.00     0.167 HD
ATOM     50  C   UNL A   1      40.913  28.505  30.198  1.00  0.00     0.034 A 
ATOM     51  C   UNL A   1      39.853  32.745  35.718  1.00  0.00     0.034 A 
ATOM     52  C   UNL A   1      41.844  28.346  31.286  1.00  0.00     0.049 A 
ATOM     53  C   UNL A   1      40.949  31.705  35.703  1.00  0.00     0.074 A 
ATOM     54  C   UNL A   1      42.930  27.491  31.373  1.00  0.00     0.029 A 
ATOM     55  N   UNL A   1      41.802  29.055  32.480  1.00  0.00    -0.354 N 
ATOM     56  N   UNL A   1      41.274  30.861  34.751  1.00  0.00    -0.248 NA
ATOM     57  C   UNL A   1      41.787  31.607  36.905  1.00  0.00     0.031 C 
ATOM     58  C   UNL A   1      43.498  27.634  32.643  1.00  0.00     0.029 A 
ATOM     59  C   UNL A   1      42.824  28.638  33.317  1.00  0.00     0.049 A 
ATOM     60  H   UNL A   1      41.141  29.751  32.700  1.00  0.00     0.167 HD
ATOM     61  C   UNL A   1      42.385  30.166  35.225  1.00  0.00     0.074 A 
ATOM     62  C   UNL A   1      42.676  30.696  36.540  1.00  0.00     0.031 C 
ATOM     63  C   UNL A   1      43.104  29.183  34.625  1.00  0.00     0.034 A 
BRANCH  50  64
ATOM     64  C   UNL A   1      41.053  27.622  28.981  1.00  0.00     0.023 A 
ATOM     65  C   UNL A   1      42.047  27.855  28.013  1.00  0.00     0.031 A 
ATOM     66  C   UNL A   1      40.174  26.544  28.776  1.00  0.00     0.131 A 
ATOM     67  C   UNL A   1      42.093  27.067  26.854  1.00  0.00     0.055 A 
ATOM     68  C   UNL A   1      40.280  25.711  27.660  1.00  0.00     0.041 A 
ATOM     69  F   UNL A   1      39.190  26.287  29.652  1.00  0.00    -0.206 F 
ATOM     70  C   UNL A   1      41.235  25.979  26.683  1.00  0.00     0.022 A 
BRANCH  67  71
ATOM     71  S   UNL A   1      43.199  27.572  25.508  1.00  0.00     0.124 S 
ATOM     72  O   UNL A   1      42.261  28.192  24.574  1.00  0.00    -0.237 OA
ATOM     73  O   UNL A   1      44.122  28.478  26.182  1.00  0.00    -0.237 OA
ATOM     74  O   UNL A   1      43.781  26.313  25.052  1.00  0.00    -0.744 OA
ENDBRANCH  67  71
ENDBRANCH  50  64
BRANCH  51  75
ATOM     75  C   UNL A   1      39.637  33.600  36.922  1.00  0.00     0.023 A 
ATOM     76  C   UNL A   1      38.983  33.095  38.057  1.00  0.00     0.031 A 
ATOM     77  C   UNL A   1      40.017  34.954  36.931  1.00  0.00     0.131 A 
ATOM     78  C   UNL A   1      38.669  33.950  39.123  1.00  0.00     0.055 A 
ATOM     79  C   UNL A   1      39.761  35.786  38.023  1.00  0.00     0.041 A 
ATOM     80  F   UNL A   1      40.646  35.492  35.874  1.00  0.00    -0.206 F 
ATOM     81  C   UNL A   1      39.066  35.289  39.122  1.00  0.00     0.022 A 
BRANCH  78  82
ATOM     82  S   UNL A   1      37.623  33.315  40.463  1.00  0.00     0.124 S 
ATOM     83  O   UNL A   1      37.379  34.522  41.245  1.00  0.00    -0.237 OA
ATOM     84  O   UNL A   1      36.482  32.782  39.729  1.00  0.00    -0.237 OA
ATOM     85  O   UNL A   1      38.470  32.314  41.109  1.00  0.00    -0.744 OA
ENDBRANCH  78  82
ENDBRANCH  51  75
BRANCH  63  86
ATOM     86  C   UNL A   1      44.319  28.670  35.360  1.00  0.00     0.023 A 
ATOM     87  C   UNL A   1      44.231  27.660  36.333  1.00  0.00     0.031 A 
ATOM     88  C   UNL A   1      45.589  29.206  35.075  1.00  0.00     0.131 A 
ATOM     89  C   UNL A   1      45.383  27.255  37.026  1.00  0.00     0.055 A 
ATOM     90  C   UNL A   1      46.739  28.754  35.721  1.00  0.00     0.041 A 
ATOM     91  F   UNL A   1      45.731  30.175  34.157  1.00  0.00    -0.206 F 
ATOM     92  C   UNL A   1      46.639  27.783  36.711  1.00  0.00     0.022 A 
BRANCH  89  93
ATOM     93  S   UNL A   1      45.206  26.095  38.408  1.00  0.00     0.124 S 
ATOM     94  O   UNL A   1      45.048  24.820  37.716  1.00  0.00    -0.237 OA
ATOM     95  O   UNL A   1      46.459  26.277  39.132  1.00  0.00    -0.237 OA
ATOM     96  O   UNL A   1      44.014  26.573  39.106  1.00  0.00    -0.744 OA
ENDBRANCH  89  93
ENDBRANCH  63  86
ENDBRANCH  37  38
ENDBRANCH  29  32
ENDBRANCH  27  28
ENDBRANCH   1  27
TORSDOF 18
ENDMDL
