MODEL 1
REMARK VINA RESULT:     -13.4      0.000      0.000
REMARK SMILES CC(C)OC(=O)c1c(NC(=O)[C@H]2[C@@H](C(=O)NCCCCNC(=O)c3ccc(-c4c5nc(c(-c6cc(S(=O)(=O)[O-])ccc6F)c6ccc([nH]6)c(-c6cc(S(=O)(=O)[O-])ccc6F)c6nc(c(-c7cc(S(=O)(=O)[O-])ccc7F)c7ccc4[nH]7)C=C6)C=C5)cc3)[C@@H]3C=C[C@H]2CC3)sc2c1CCC2
REMARK SMILES IDX 17 1 16 2 14 3 15 4 13 6 12 7 90 8 87 9 89 10 91 11 88 12
REMARK SMILES IDX 92 13 10 14 9 15 11 17 8 18 7 19 95 20 93 21 94 22 96 23
REMARK SMILES IDX 98 24 97 25 5 26 6 27 4 28 2 29 1 30 3 31 18 32 19 33 20 34
REMARK SMILES IDX 21 35 22 36 23 38 24 39 25 40 86 41 26 42 85 43 27 44 28 45
REMARK SMILES IDX 29 46 79 47 30 48 84 49 78 50 80 51 31 52 83 53 77 54 76 55
REMARK SMILES IDX 32 57 64 58 44 59 63 60 45 61 48 62 62 63 81 64 46 65 47 66
REMARK SMILES IDX 61 68 82 69 49 70 33 71 34 72 42 73 35 74 41 75 43 76 40 77
REMARK SMILES IDX 36 78 37 79 38 80 39 81 65 82 66 83 74 84 67 85 73 86 75 87
REMARK SMILES IDX 72 88 68 89 69 90 70 91 71 92 50 93 51 94 59 95 52 96 58 97
REMARK SMILES IDX 60 98 57 99 53 100 54 101 55 102 56 103
REMARK H PARENT 16 5 9 16 21 37 80 56 48 67
REMARK Flexibility Score: inf
ROOT
ATOM      1  C   UNL A   1      31.365  28.021  26.380  1.00  0.00     0.116 C 
ENDROOT
BRANCH   1   2
ATOM      2  N   UNL A   1      31.438  26.691  26.957  1.00  0.00    -0.356 N 
ATOM      3  C   UNL A   1      31.715  25.457  26.483  1.00  0.00     0.224 C 
ATOM      4  O   UNL A   1      31.750  24.591  27.374  1.00  0.00    -0.275 OA
ATOM      5  H   UNL A   1      31.241  26.689  27.921  1.00  0.00     0.163 HD
BRANCH   3   6
ATOM      6  C   UNL A   1      31.845  25.014  25.008  1.00  0.00     0.098 C 
ATOM      7  C   UNL A   1      31.088  23.673  24.776  1.00  0.00     0.099 C 
ATOM      8  C   UNL A   1      31.380  23.157  23.329  1.00  0.00     0.025 C 
ATOM      9  C   UNL A   1      33.033  25.080  23.962  1.00  0.00     0.025 C 
ATOM     10  C   UNL A   1      31.402  24.341  22.345  1.00  0.00    -0.027 C 
ATOM     11  C   UNL A   1      32.803  22.591  23.291  1.00  0.00     0.009 C 
ATOM     12  C   UNL A   1      32.277  25.322  22.649  1.00  0.00    -0.027 C 
ATOM     13  C   UNL A   1      33.784  23.752  23.547  1.00  0.00     0.009 C 
BRANCH   7  14
ATOM     14  C   UNL A   1      31.003  22.520  25.830  1.00  0.00     0.229 C 
ATOM     15  N   UNL A   1      31.951  21.688  26.355  1.00  0.00    -0.317 N 
ATOM     16  H   UNL A   1      31.556  21.037  26.980  1.00  0.00     0.170 HD
ATOM     17  O   UNL A   1      29.842  22.221  26.185  1.00  0.00    -0.274 OA
BRANCH  15  18
ATOM     18  C   UNL A   1      33.316  21.520  26.240  1.00  0.00     0.110 A 
ATOM     19  C   UNL A   1      34.073  20.585  25.518  1.00  0.00     0.098 A 
ATOM     20  C   UNL A   1      35.418  21.079  25.398  1.00  0.00    -0.017 A 
ATOM     21  S   UNL A   1      34.384  22.387  27.202  1.00  0.00    -0.122 S 
ATOM     22  C   UNL A   1      35.592  22.218  26.119  1.00  0.00     0.011 A 
ATOM     23  C   UNL A   1      36.664  20.799  24.651  1.00  0.00     0.038 C 
ATOM     24  C   UNL A   1      36.837  22.962  25.911  1.00  0.00     0.047 C 
ATOM     25  C   UNL A   1      37.661  21.878  25.211  1.00  0.00     0.010 C 
BRANCH  19  26
ATOM     26  C   UNL A   1      33.520  19.360  24.963  1.00  0.00     0.341 C 
ATOM     27  O   UNL A   1      32.331  19.172  24.817  1.00  0.00    -0.246 OA
BRANCH  26  28
ATOM     28  O   UNL A   1      34.509  18.431  24.806  1.00  0.00    -0.459 OA
BRANCH  28  29
ATOM     29  C   UNL A   1      34.188  17.063  24.483  1.00  0.00     0.170 C 
ATOM     30  C   UNL A   1      34.035  16.817  22.982  1.00  0.00     0.052 C 
ATOM     31  C   UNL A   1      35.151  16.102  25.160  1.00  0.00     0.052 C 
ENDBRANCH  28  29
ENDBRANCH  26  28
ENDBRANCH  19  26
ENDBRANCH  15  18
ENDBRANCH   7  14
ENDBRANCH   3   6
ENDBRANCH   1   2
BRANCH   1  32
ATOM     32  C   UNL A   1      32.051  29.057  27.292  1.00  0.00     0.023 C 
BRANCH  32  33
ATOM     33  C   UNL A   1      33.592  28.983  27.388  1.00  0.00     0.023 C 
BRANCH  33  34
ATOM     34  C   UNL A   1      34.321  30.217  26.861  1.00  0.00     0.116 C 
BRANCH  34  35
ATOM     35  N   UNL A   1      34.207  31.371  27.749  1.00  0.00    -0.352 N 
ATOM     36  C   UNL A   1      34.903  31.683  28.903  1.00  0.00     0.251 C 
ATOM     37  H   UNL A   1      33.527  32.031  27.484  1.00  0.00     0.163 HD
ATOM     38  O   UNL A   1      34.453  32.553  29.645  1.00  0.00    -0.269 OA
BRANCH  36  39
ATOM     39  C   UNL A   1      36.159  30.978  29.263  1.00  0.00     0.039 A 
ATOM     40  C   UNL A   1      36.126  29.727  29.901  1.00  0.00     0.014 A 
ATOM     41  C   UNL A   1      37.389  31.555  28.984  1.00  0.00     0.014 A 
ATOM     42  C   UNL A   1      37.322  29.065  30.221  1.00  0.00     0.010 A 
ATOM     43  C   UNL A   1      38.547  30.828  29.156  1.00  0.00     0.010 A 
ATOM     44  C   UNL A   1      38.546  29.633  29.853  1.00  0.00    -0.014 A 
BRANCH  44  45
ATOM     45  C   UNL A   1      39.830  28.932  29.948  1.00  0.00     0.031 A 
ATOM     46  C   UNL A   1      40.219  28.598  31.334  1.00  0.00     0.074 A 
ATOM     47  C   UNL A   1      40.478  28.316  28.931  1.00  0.00     0.049 A 
ATOM     48  N   UNL A   1      41.221  29.070  31.990  1.00  0.00    -0.248 NA
ATOM     49  C   UNL A   1      39.333  27.738  32.130  1.00  0.00     0.031 C 
ATOM     50  C   UNL A   1      40.078  28.235  27.527  1.00  0.00     0.029 A 
ATOM     51  N   UNL A   1      41.590  27.515  28.967  1.00  0.00    -0.354 N 
ATOM     52  C   UNL A   1      41.243  28.387  33.198  1.00  0.00     0.074 A 
ATOM     53  C   UNL A   1      39.957  27.750  33.308  1.00  0.00     0.031 C 
ATOM     54  C   UNL A   1      40.790  27.265  26.903  1.00  0.00     0.029 A 
ATOM     55  C   UNL A   1      41.811  26.767  27.809  1.00  0.00     0.049 A 
ATOM     56  H   UNL A   1      42.186  27.471  29.750  1.00  0.00     0.167 HD
ATOM     57  C   UNL A   1      42.409  28.219  33.879  1.00  0.00     0.034 A 
ATOM     58  C   UNL A   1      42.756  25.805  27.601  1.00  0.00     0.034 A 
ATOM     59  C   UNL A   1      43.438  29.105  33.363  1.00  0.00     0.049 A 
ATOM     60  C   UNL A   1      43.852  26.075  28.554  1.00  0.00     0.074 A 
ATOM     61  C   UNL A   1      43.522  30.471  33.151  1.00  0.00     0.029 A 
ATOM     62  N   UNL A   1      44.455  28.562  32.607  1.00  0.00    -0.354 N 
ATOM     63  N   UNL A   1      44.598  27.142  28.498  1.00  0.00    -0.248 NA
ATOM     64  C   UNL A   1      43.851  25.382  29.832  1.00  0.00     0.031 C 
ATOM     65  C   UNL A   1      44.212  30.610  31.909  1.00  0.00     0.029 A 
ATOM     66  C   UNL A   1      44.584  29.335  31.480  1.00  0.00     0.049 A 
ATOM     67  H   UNL A   1      44.989  27.766  32.832  1.00  0.00     0.167 HD
ATOM     68  C   UNL A   1      44.784  27.508  29.819  1.00  0.00     0.074 A 
ATOM     69  C   UNL A   1      44.418  26.323  30.592  1.00  0.00     0.031 C 
ATOM     70  C   UNL A   1      44.936  28.818  30.171  1.00  0.00     0.034 A 
BRANCH  57  71
ATOM     71  C   UNL A   1      42.742  27.031  34.756  1.00  0.00     0.023 A 
ATOM     72  C   UNL A   1      43.544  26.030  34.178  1.00  0.00     0.031 A 
ATOM     73  C   UNL A   1      42.118  26.683  35.975  1.00  0.00     0.131 A 
ATOM     74  C   UNL A   1      43.584  24.733  34.712  1.00  0.00     0.055 A 
ATOM     75  C   UNL A   1      42.232  25.412  36.551  1.00  0.00     0.041 A 
ATOM     76  F   UNL A   1      41.295  27.503  36.635  1.00  0.00    -0.206 F 
ATOM     77  C   UNL A   1      42.935  24.415  35.900  1.00  0.00     0.022 A 
BRANCH  74  78
ATOM     78  S   UNL A   1      44.321  23.428  33.700  1.00  0.00     0.124 S 
ATOM     79  O   UNL A   1      44.128  22.261  34.554  1.00  0.00    -0.237 OA
ATOM     80  O   UNL A   1      43.501  23.486  32.494  1.00  0.00    -0.237 OA
ATOM     81  O   UNL A   1      45.704  23.866  33.539  1.00  0.00    -0.744 OA
ENDBRANCH  74  78
ENDBRANCH  57  71
BRANCH  58  82
ATOM     82  C   UNL A   1      42.689  24.562  26.780  1.00  0.00     0.023 A 
ATOM     83  C   UNL A   1      43.757  24.070  26.005  1.00  0.00     0.031 A 
ATOM     84  C   UNL A   1      41.614  23.677  26.980  1.00  0.00     0.131 A 
ATOM     85  C   UNL A   1      43.706  22.761  25.463  1.00  0.00     0.055 A 
ATOM     86  C   UNL A   1      41.545  22.397  26.425  1.00  0.00     0.041 A 
ATOM     87  F   UNL A   1      40.642  24.000  27.836  1.00  0.00    -0.206 F 
ATOM     88  C   UNL A   1      42.602  21.927  25.667  1.00  0.00     0.022 A 
BRANCH  85  89
ATOM     89  S   UNL A   1      45.149  22.061  24.597  1.00  0.00     0.124 S 
ATOM     90  O   UNL A   1      45.351  23.017  23.515  1.00  0.00    -0.237 OA
ATOM     91  O   UNL A   1      46.163  22.037  25.644  1.00  0.00    -0.237 OA
ATOM     92  O   UNL A   1      44.682  20.740  24.172  1.00  0.00    -0.744 OA
ENDBRANCH  85  89
ENDBRANCH  58  82
BRANCH  70  93
ATOM     93  C   UNL A   1      45.258  29.832  29.091  1.00  0.00     0.023 A 
ATOM     94  C   UNL A   1      46.560  30.218  28.697  1.00  0.00     0.031 A 
ATOM     95  C   UNL A   1      44.177  30.344  28.350  1.00  0.00     0.131 A 
ATOM     96  C   UNL A   1      46.738  31.088  27.602  1.00  0.00     0.055 A 
ATOM     97  C   UNL A   1      44.358  31.188  27.256  1.00  0.00     0.041 A 
ATOM     98  F   UNL A   1      42.916  29.997  28.658  1.00  0.00    -0.206 F 
ATOM     99  C   UNL A   1      45.641  31.568  26.881  1.00  0.00     0.022 A 
BRANCH  96 100
ATOM    100  S   UNL A   1      48.408  31.622  27.101  1.00  0.00     0.124 S 
ATOM    101  O   UNL A   1      48.154  32.692  26.143  1.00  0.00    -0.237 OA
ATOM    102  O   UNL A   1      49.004  32.031  28.370  1.00  0.00    -0.237 OA
ATOM    103  O   UNL A   1      48.992  30.411  26.519  1.00  0.00    -0.744 OA
ENDBRANCH  96 100
ENDBRANCH  70  93
ENDBRANCH  44  45
ENDBRANCH  36  39
ENDBRANCH  34  35
ENDBRANCH  33  34
ENDBRANCH  32  33
ENDBRANCH   1  32
TORSDOF 19
ENDMDL
MODEL 2
REMARK VINA RESULT:     -13.3      3.652      9.624
REMARK SMILES CC(C)OC(=O)c1c(NC(=O)[C@H]2[C@@H](C(=O)NCCCCNC(=O)c3ccc(-c4c5nc(c(-c6cc(S(=O)(=O)[O-])ccc6F)c6ccc([nH]6)c(-c6cc(S(=O)(=O)[O-])ccc6F)c6nc(c(-c7cc(S(=O)(=O)[O-])ccc7F)c7ccc4[nH]7)C=C6)C=C5)cc3)[C@@H]3C=C[C@H]2CC3)sc2c1CCC2
REMARK SMILES IDX 17 1 16 2 14 3 15 4 13 6 12 7 90 8 87 9 89 10 91 11 88 12
REMARK SMILES IDX 92 13 10 14 9 15 11 17 8 18 7 19 95 20 93 21 94 22 96 23
REMARK SMILES IDX 98 24 97 25 5 26 6 27 4 28 2 29 1 30 3 31 18 32 19 33 20 34
REMARK SMILES IDX 21 35 22 36 23 38 24 39 25 40 86 41 26 42 85 43 27 44 28 45
REMARK SMILES IDX 29 46 79 47 30 48 84 49 78 50 80 51 31 52 83 53 77 54 76 55
REMARK SMILES IDX 32 57 64 58 44 59 63 60 45 61 48 62 62 63 81 64 46 65 47 66
REMARK SMILES IDX 61 68 82 69 49 70 33 71 34 72 42 73 35 74 41 75 43 76 40 77
REMARK SMILES IDX 36 78 37 79 38 80 39 81 65 82 66 83 74 84 67 85 73 86 75 87
REMARK SMILES IDX 72 88 68 89 69 90 70 91 71 92 50 93 51 94 59 95 52 96 58 97
REMARK SMILES IDX 60 98 57 99 53 100 54 101 55 102 56 103
REMARK H PARENT 16 5 9 16 21 37 80 56 48 67
REMARK Flexibility Score: inf
ROOT
ATOM      1  C   UNL A   1      36.344  23.571  25.705  1.00  0.00     0.116 C 
ENDROOT
BRANCH   1   2
ATOM      2  N   UNL A   1      35.745  24.092  24.491  1.00  0.00    -0.356 N 
ATOM      3  C   UNL A   1      34.516  24.527  24.141  1.00  0.00     0.224 C 
ATOM      4  O   UNL A   1      34.471  24.980  22.984  1.00  0.00    -0.275 OA
ATOM      5  H   UNL A   1      36.388  24.141  23.747  1.00  0.00     0.163 HD
BRANCH   3   6
ATOM      6  C   UNL A   1      33.200  24.394  24.940  1.00  0.00     0.098 C 
ATOM      7  C   UNL A   1      31.973  24.579  23.999  1.00  0.00     0.099 C 
ATOM      8  C   UNL A   1      30.664  24.617  24.856  1.00  0.00     0.025 C 
ATOM      9  C   UNL A   1      32.765  24.863  26.390  1.00  0.00     0.025 C 
ATOM     10  C   UNL A   1      30.755  23.587  25.997  1.00  0.00    -0.027 C 
ATOM     11  C   UNL A   1      30.581  25.974  25.559  1.00  0.00     0.009 C 
ATOM     12  C   UNL A   1      31.821  23.730  26.812  1.00  0.00    -0.027 C 
ATOM     13  C   UNL A   1      31.756  26.069  26.553  1.00  0.00     0.009 C 
BRANCH   7  14
ATOM     14  C   UNL A   1      31.938  25.567  22.787  1.00  0.00     0.229 C 
ATOM     15  N   UNL A   1      32.072  26.924  22.708  1.00  0.00    -0.317 N 
ATOM     16  H   UNL A   1      31.962  27.247  21.784  1.00  0.00     0.170 HD
ATOM     17  O   UNL A   1      31.621  25.045  21.696  1.00  0.00    -0.274 OA
BRANCH  15  18
ATOM     18  C   UNL A   1      32.321  27.963  23.583  1.00  0.00     0.110 A 
ATOM     19  C   UNL A   1      31.476  28.956  24.100  1.00  0.00     0.098 A 
ATOM     20  C   UNL A   1      32.100  29.529  25.261  1.00  0.00    -0.017 A 
ATOM     21  S   UNL A   1      33.884  28.342  24.061  1.00  0.00    -0.122 S 
ATOM     22  C   UNL A   1      33.358  29.047  25.436  1.00  0.00     0.011 A 
ATOM     23  C   UNL A   1      31.772  30.413  26.402  1.00  0.00     0.038 C 
ATOM     24  C   UNL A   1      34.031  29.360  26.699  1.00  0.00     0.047 C 
ATOM     25  C   UNL A   1      33.136  30.506  27.179  1.00  0.00     0.010 C 
BRANCH  19  26
ATOM     26  C   UNL A   1      30.171  29.272  23.541  1.00  0.00     0.341 C 
ATOM     27  O   UNL A   1      29.529  28.496  22.866  1.00  0.00    -0.246 OA
BRANCH  26  28
ATOM     28  O   UNL A   1      29.884  30.592  23.745  1.00  0.00    -0.459 OA
BRANCH  28  29
ATOM     29  C   UNL A   1      28.793  31.224  23.045  1.00  0.00     0.170 C 
ATOM     30  C   UNL A   1      27.423  30.878  23.626  1.00  0.00     0.052 C 
ATOM     31  C   UNL A   1      29.031  32.718  22.899  1.00  0.00     0.052 C 
ENDBRANCH  28  29
ENDBRANCH  26  28
ENDBRANCH  19  26
ENDBRANCH  15  18
ENDBRANCH   7  14
ENDBRANCH   3   6
ENDBRANCH   1   2
BRANCH   1  32
ATOM     32  C   UNL A   1      36.607  22.057  25.585  1.00  0.00     0.023 C 
BRANCH  32  33
ATOM     33  C   UNL A   1      38.085  21.616  25.471  1.00  0.00     0.023 C 
BRANCH  33  34
ATOM     34  C   UNL A   1      39.035  22.322  26.434  1.00  0.00     0.116 C 
BRANCH  34  35
ATOM     35  N   UNL A   1      40.440  22.166  26.070  1.00  0.00    -0.352 N 
ATOM     36  C   UNL A   1      41.489  23.065  26.147  1.00  0.00     0.251 C 
ATOM     37  H   UNL A   1      40.679  21.281  25.712  1.00  0.00     0.163 HD
ATOM     38  O   UNL A   1      42.519  22.822  25.523  1.00  0.00    -0.269 OA
BRANCH  36  39
ATOM     39  C   UNL A   1      41.382  24.312  26.946  1.00  0.00     0.039 A 
ATOM     40  C   UNL A   1      42.207  24.525  28.062  1.00  0.00     0.014 A 
ATOM     41  C   UNL A   1      40.451  25.282  26.606  1.00  0.00     0.014 A 
ATOM     42  C   UNL A   1      42.105  25.717  28.798  1.00  0.00     0.010 A 
ATOM     43  C   UNL A   1      40.471  26.508  27.235  1.00  0.00     0.010 A 
ATOM     44  C   UNL A   1      41.215  26.712  28.382  1.00  0.00    -0.014 A 
BRANCH  44  45
ATOM     45  C   UNL A   1      41.184  28.064  28.949  1.00  0.00     0.031 A 
ATOM     46  C   UNL A   1      42.170  28.981  28.343  1.00  0.00     0.074 A 
ATOM     47  C   UNL A   1      40.182  28.594  29.690  1.00  0.00     0.049 A 
ATOM     48  N   UNL A   1      43.189  29.514  28.923  1.00  0.00    -0.248 NA
ATOM     49  C   UNL A   1      42.096  29.246  26.899  1.00  0.00     0.031 C 
ATOM     50  C   UNL A   1      38.940  27.950  30.116  1.00  0.00     0.029 A 
ATOM     51  N   UNL A   1      40.008  29.884  30.121  1.00  0.00    -0.354 N 
ATOM     52  C   UNL A   1      43.749  30.378  27.992  1.00  0.00     0.074 A 
ATOM     53  C   UNL A   1      43.173  30.013  26.725  1.00  0.00     0.031 C 
ATOM     54  C   UNL A   1      38.058  28.889  30.537  1.00  0.00     0.029 A 
ATOM     55  C   UNL A   1      38.719  30.182  30.570  1.00  0.00     0.049 A 
ATOM     56  H   UNL A   1      40.735  30.547  30.112  1.00  0.00     0.167 HD
ATOM     57  C   UNL A   1      44.458  31.468  28.396  1.00  0.00     0.034 A 
ATOM     58  C   UNL A   1      38.222  31.397  30.940  1.00  0.00     0.034 A 
ATOM     59  C   UNL A   1      44.800  31.366  29.804  1.00  0.00     0.049 A 
ATOM     60  C   UNL A   1      39.379  32.224  31.340  1.00  0.00     0.074 A 
ATOM     61  C   UNL A   1      45.437  30.412  30.578  1.00  0.00     0.029 A 
ATOM     62  N   UNL A   1      44.129  32.168  30.702  1.00  0.00    -0.354 N 
ATOM     63  N   UNL A   1      40.121  31.956  32.378  1.00  0.00    -0.248 NA
ATOM     64  C   UNL A   1      39.984  33.101  30.352  1.00  0.00     0.031 C 
ATOM     65  C   UNL A   1      44.703  30.378  31.801  1.00  0.00     0.029 A 
ATOM     66  C   UNL A   1      43.719  31.366  31.738  1.00  0.00     0.049 A 
ATOM     67  H   UNL A   1      43.973  33.137  30.618  1.00  0.00     0.167 HD
ATOM     68  C   UNL A   1      41.411  32.239  31.967  1.00  0.00     0.074 A 
ATOM     69  C   UNL A   1      41.253  33.059  30.768  1.00  0.00     0.031 C 
ATOM     70  C   UNL A   1      42.475  31.544  32.464  1.00  0.00     0.034 A 
BRANCH  57  71
ATOM     71  C   UNL A   1      44.541  32.780  27.644  1.00  0.00     0.023 A 
ATOM     72  C   UNL A   1      43.851  33.869  28.207  1.00  0.00     0.031 A 
ATOM     73  C   UNL A   1      44.990  32.963  26.317  1.00  0.00     0.131 A 
ATOM     74  C   UNL A   1      43.512  34.991  27.435  1.00  0.00     0.055 A 
ATOM     75  C   UNL A   1      44.725  34.122  25.578  1.00  0.00     0.041 A 
ATOM     76  F   UNL A   1      45.627  32.015  25.624  1.00  0.00    -0.206 F 
ATOM     77  C   UNL A   1      43.946  35.129  26.122  1.00  0.00     0.022 A 
BRANCH  74  78
ATOM     78  S   UNL A   1      42.308  36.153  28.123  1.00  0.00     0.124 S 
ATOM     79  O   UNL A   1      42.480  37.299  27.236  1.00  0.00    -0.237 OA
ATOM     80  O   UNL A   1      41.061  35.410  27.982  1.00  0.00    -0.237 OA
ATOM     81  O   UNL A   1      42.772  36.346  29.494  1.00  0.00    -0.744 OA
ENDBRANCH  74  78
ENDBRANCH  57  71
BRANCH  58  82
ATOM     82  C   UNL A   1      36.848  31.954  30.784  1.00  0.00     0.023 A 
ATOM     83  C   UNL A   1      36.096  32.506  31.839  1.00  0.00     0.031 A 
ATOM     84  C   UNL A   1      36.360  32.198  29.487  1.00  0.00     0.131 A 
ATOM     85  C   UNL A   1      34.915  33.243  31.569  1.00  0.00     0.055 A 
ATOM     86  C   UNL A   1      35.183  32.898  29.216  1.00  0.00     0.041 A 
ATOM     87  F   UNL A   1      37.099  31.857  28.428  1.00  0.00    -0.206 F 
ATOM     88  C   UNL A   1      34.455  33.435  30.262  1.00  0.00     0.022 A 
BRANCH  85  89
ATOM     89  S   UNL A   1      34.027  34.093  32.915  1.00  0.00     0.124 S 
ATOM     90  O   UNL A   1      33.529  35.290  32.246  1.00  0.00    -0.237 OA
ATOM     91  O   UNL A   1      33.030  33.105  33.308  1.00  0.00    -0.237 OA
ATOM     92  O   UNL A   1      35.072  34.333  33.912  1.00  0.00    -0.744 OA
ENDBRANCH  85  89
ENDBRANCH  58  82
BRANCH  70  93
ATOM     93  C   UNL A   1      42.285  30.716  33.720  1.00  0.00     0.023 A 
ATOM     94  C   UNL A   1      42.021  29.327  33.750  1.00  0.00     0.031 A 
ATOM     95  C   UNL A   1      42.500  31.362  34.952  1.00  0.00     0.131 A 
ATOM     96  C   UNL A   1      41.975  28.643  34.982  1.00  0.00     0.055 A 
ATOM     97  C   UNL A   1      42.473  30.679  36.166  1.00  0.00     0.041 A 
ATOM     98  F   UNL A   1      42.779  32.676  34.991  1.00  0.00    -0.206 F 
ATOM     99  C   UNL A   1      42.204  29.316  36.186  1.00  0.00     0.022 A 
BRANCH  96 100
ATOM    100  S   UNL A   1      41.603  26.858  35.041  1.00  0.00     0.124 S 
ATOM    101  O   UNL A   1      42.827  26.235  34.552  1.00  0.00    -0.237 OA
ATOM    102  O   UNL A   1      41.299  26.646  36.455  1.00  0.00    -0.237 OA
ATOM    103  O   UNL A   1      40.451  26.721  34.147  1.00  0.00    -0.744 OA
ENDBRANCH  96 100
ENDBRANCH  70  93
ENDBRANCH  44  45
ENDBRANCH  36  39
ENDBRANCH  34  35
ENDBRANCH  33  34
ENDBRANCH  32  33
ENDBRANCH   1  32
TORSDOF 19
ENDMDL
MODEL 3
REMARK VINA RESULT:     -13.3      3.290      8.113
REMARK SMILES CC(C)OC(=O)c1c(NC(=O)[C@H]2[C@@H](C(=O)NCCCCNC(=O)c3ccc(-c4c5nc(c(-c6cc(S(=O)(=O)[O-])ccc6F)c6ccc([nH]6)c(-c6cc(S(=O)(=O)[O-])ccc6F)c6nc(c(-c7cc(S(=O)(=O)[O-])ccc7F)c7ccc4[nH]7)C=C6)C=C5)cc3)[C@@H]3C=C[C@H]2CC3)sc2c1CCC2
REMARK SMILES IDX 17 1 16 2 14 3 15 4 13 6 12 7 90 8 87 9 89 10 91 11 88 12
REMARK SMILES IDX 92 13 10 14 9 15 11 17 8 18 7 19 95 20 93 21 94 22 96 23
REMARK SMILES IDX 98 24 97 25 5 26 6 27 4 28 2 29 1 30 3 31 18 32 19 33 20 34
REMARK SMILES IDX 21 35 22 36 23 38 24 39 25 40 86 41 26 42 85 43 27 44 28 45
REMARK SMILES IDX 29 46 79 47 30 48 84 49 78 50 80 51 31 52 83 53 77 54 76 55
REMARK SMILES IDX 32 57 64 58 44 59 63 60 45 61 48 62 62 63 81 64 46 65 47 66
REMARK SMILES IDX 61 68 82 69 49 70 33 71 34 72 42 73 35 74 41 75 43 76 40 77
REMARK SMILES IDX 36 78 37 79 38 80 39 81 65 82 66 83 74 84 67 85 73 86 75 87
REMARK SMILES IDX 72 88 68 89 69 90 70 91 71 92 50 93 51 94 59 95 52 96 58 97
REMARK SMILES IDX 60 98 57 99 53 100 54 101 55 102 56 103
REMARK H PARENT 16 5 9 16 21 37 80 56 48 67
REMARK Flexibility Score: inf
ROOT
ATOM      1  C   UNL A   1      35.412  22.199  24.133  1.00  0.00     0.116 C 
ENDROOT
BRANCH   1   2
ATOM      2  N   UNL A   1      35.458  23.592  24.535  1.00  0.00    -0.356 N 
ATOM      3  C   UNL A   1      34.600  24.441  25.141  1.00  0.00     0.224 C 
ATOM      4  O   UNL A   1      35.101  25.554  25.374  1.00  0.00    -0.275 OA
ATOM      5  H   UNL A   1      36.317  24.018  24.315  1.00  0.00     0.163 HD
BRANCH   3   6
ATOM      6  C   UNL A   1      33.097  24.227  25.428  1.00  0.00     0.098 C 
ATOM      7  C   UNL A   1      32.290  24.191  24.096  1.00  0.00     0.099 C 
ATOM      8  C   UNL A   1      30.760  24.151  24.419  1.00  0.00     0.025 C 
ATOM      9  C   UNL A   1      32.126  24.763  26.560  1.00  0.00     0.025 C 
ATOM     10  C   UNL A   1      30.503  23.238  25.632  1.00  0.00    -0.027 C 
ATOM     11  C   UNL A   1      30.322  25.545  24.879  1.00  0.00     0.009 C 
ATOM     12  C   UNL A   1      31.182  23.569  26.750  1.00  0.00    -0.027 C 
ATOM     13  C   UNL A   1      31.040  25.856  26.208  1.00  0.00     0.009 C 
BRANCH   7  14
ATOM     14  C   UNL A   1      32.627  25.064  22.843  1.00  0.00     0.229 C 
ATOM     15  N   UNL A   1      32.787  26.411  22.681  1.00  0.00    -0.317 N 
ATOM     16  H   UNL A   1      32.962  26.645  21.741  1.00  0.00     0.170 HD
ATOM     17  O   UNL A   1      32.650  24.438  21.761  1.00  0.00    -0.274 OA
BRANCH  15  18
ATOM     18  C   UNL A   1      32.768  27.530  23.490  1.00  0.00     0.110 A 
ATOM     19  C   UNL A   1      31.738  28.437  23.784  1.00  0.00     0.098 A 
ATOM     20  C   UNL A   1      32.095  29.164  24.972  1.00  0.00    -0.017 A 
ATOM     21  S   UNL A   1      34.177  28.143  24.163  1.00  0.00    -0.122 S 
ATOM     22  C   UNL A   1      33.357  28.864  25.375  1.00  0.00     0.011 A 
ATOM     23  C   UNL A   1      31.487  30.073  25.968  1.00  0.00     0.038 C 
ATOM     24  C   UNL A   1      33.777  29.348  26.693  1.00  0.00     0.047 C 
ATOM     25  C   UNL A   1      32.687  30.396  26.931  1.00  0.00     0.010 C 
BRANCH  19  26
ATOM     26  C   UNL A   1      30.512  28.541  23.010  1.00  0.00     0.341 C 
ATOM     27  O   UNL A   1      30.342  27.975  21.951  1.00  0.00    -0.246 OA
BRANCH  26  28
ATOM     28  O   UNL A   1      29.690  29.482  23.562  1.00  0.00    -0.459 OA
BRANCH  28  29
ATOM     29  C   UNL A   1      28.493  29.905  22.878  1.00  0.00     0.170 C 
ATOM     30  C   UNL A   1      27.304  28.974  23.111  1.00  0.00     0.052 C 
ATOM     31  C   UNL A   1      28.187  31.365  23.168  1.00  0.00     0.052 C 
ENDBRANCH  28  29
ENDBRANCH  26  28
ENDBRANCH  19  26
ENDBRANCH  15  18
ENDBRANCH   7  14
ENDBRANCH   3   6
ENDBRANCH   1   2
BRANCH   1  32
ATOM     32  C   UNL A   1      35.781  21.272  25.308  1.00  0.00     0.023 C 
BRANCH  32  33
ATOM     33  C   UNL A   1      36.809  20.155  25.014  1.00  0.00     0.023 C 
BRANCH  33  34
ATOM     34  C   UNL A   1      38.265  20.612  25.026  1.00  0.00     0.116 C 
BRANCH  34  35
ATOM     35  N   UNL A   1      39.197  19.545  25.380  1.00  0.00    -0.352 N 
ATOM     36  C   UNL A   1      40.475  19.612  25.906  1.00  0.00     0.251 C 
ATOM     37  H   UNL A   1      38.863  18.633  25.219  1.00  0.00     0.163 HD
ATOM     38  O   UNL A   1      41.185  18.610  25.858  1.00  0.00    -0.269 OA
BRANCH  36  39
ATOM     39  C   UNL A   1      41.002  20.866  26.501  1.00  0.00     0.039 A 
ATOM     40  C   UNL A   1      41.520  21.887  25.687  1.00  0.00     0.014 A 
ATOM     41  C   UNL A   1      41.001  21.041  27.877  1.00  0.00     0.014 A 
ATOM     42  C   UNL A   1      42.000  23.074  26.264  1.00  0.00     0.010 A 
ATOM     43  C   UNL A   1      41.323  22.267  28.416  1.00  0.00     0.010 A 
ATOM     44  C   UNL A   1      41.910  23.255  27.648  1.00  0.00    -0.014 A 
BRANCH  44  45
ATOM     45  C   UNL A   1      42.182  24.529  28.320  1.00  0.00     0.031 A 
ATOM     46  C   UNL A   1      41.095  25.518  28.176  1.00  0.00     0.074 A 
ATOM     47  C   UNL A   1      43.127  24.744  29.268  1.00  0.00     0.049 A 
ATOM     48  N   UNL A   1      41.147  26.639  27.545  1.00  0.00    -0.248 NA
ATOM     49  C   UNL A   1      39.757  25.178  28.682  1.00  0.00     0.031 C 
ATOM     50  C   UNL A   1      44.093  23.788  29.808  1.00  0.00     0.029 A 
ATOM     51  N   UNL A   1      43.339  25.851  30.048  1.00  0.00    -0.354 N 
ATOM     52  C   UNL A   1      39.931  27.266  27.777  1.00  0.00     0.074 A 
ATOM     53  C   UNL A   1      39.058  26.244  28.292  1.00  0.00     0.031 C 
ATOM     54  C   UNL A   1      44.624  24.273  30.956  1.00  0.00     0.029 A 
ATOM     55  C   UNL A   1      44.167  25.638  31.153  1.00  0.00     0.049 A 
ATOM     56  H   UNL A   1      42.939  26.727  29.844  1.00  0.00     0.167 HD
ATOM     57  C   UNL A   1      39.832  28.623  27.744  1.00  0.00     0.034 A 
ATOM     58  C   UNL A   1      44.458  26.510  32.160  1.00  0.00     0.034 A 
ATOM     59  C   UNL A   1      41.007  29.210  27.123  1.00  0.00     0.049 A 
ATOM     60  C   UNL A   1      44.240  27.869  31.622  1.00  0.00     0.074 A 
ATOM     61  C   UNL A   1      41.658  29.024  25.916  1.00  0.00     0.029 A 
ATOM     62  N   UNL A   1      41.921  29.856  27.928  1.00  0.00    -0.354 N 
ATOM     63  N   UNL A   1      44.963  28.379  30.664  1.00  0.00    -0.248 NA
ATOM     64  C   UNL A   1      42.953  28.506  31.838  1.00  0.00     0.031 C 
ATOM     65  C   UNL A   1      43.048  29.086  26.231  1.00  0.00     0.029 A 
ATOM     66  C   UNL A   1      43.167  29.388  27.589  1.00  0.00     0.049 A 
ATOM     67  H   UNL A   1      41.720  30.529  28.618  1.00  0.00     0.167 HD
ATOM     68  C   UNL A   1      44.060  29.073  29.878  1.00  0.00     0.074 A 
ATOM     69  C   UNL A   1      42.873  29.226  30.715  1.00  0.00     0.031 C 
ATOM     70  C   UNL A   1      44.252  29.199  28.533  1.00  0.00     0.034 A 
BRANCH  57  71
ATOM     71  C   UNL A   1      38.871  29.447  28.575  1.00  0.00     0.023 A 
ATOM     72  C   UNL A   1      39.097  29.466  29.963  1.00  0.00     0.031 A 
ATOM     73  C   UNL A   1      37.624  29.962  28.155  1.00  0.00     0.131 A 
ATOM     74  C   UNL A   1      38.083  29.833  30.860  1.00  0.00     0.055 A 
ATOM     75  C   UNL A   1      36.646  30.411  29.050  1.00  0.00     0.041 A 
ATOM     76  F   UNL A   1      37.235  29.982  26.876  1.00  0.00    -0.206 F 
ATOM     77  C   UNL A   1      36.856  30.311  30.414  1.00  0.00     0.022 A 
BRANCH  74  78
ATOM     78  S   UNL A   1      38.334  29.462  32.612  1.00  0.00     0.124 S 
ATOM     79  O   UNL A   1      37.875  30.700  33.234  1.00  0.00    -0.237 OA
ATOM     80  O   UNL A   1      37.480  28.294  32.796  1.00  0.00    -0.237 OA
ATOM     81  O   UNL A   1      39.769  29.210  32.701  1.00  0.00    -0.744 OA
ENDBRANCH  74  78
ENDBRANCH  57  71
BRANCH  58  82
ATOM     82  C   UNL A   1      44.716  26.248  33.605  1.00  0.00     0.023 A 
ATOM     83  C   UNL A   1      43.787  26.507  34.632  1.00  0.00     0.031 A 
ATOM     84  C   UNL A   1      45.824  25.458  33.962  1.00  0.00     0.131 A 
ATOM     85  C   UNL A   1      44.002  25.997  35.938  1.00  0.00     0.055 A 
ATOM     86  C   UNL A   1      46.055  24.977  35.252  1.00  0.00     0.041 A 
ATOM     87  F   UNL A   1      46.660  25.026  33.014  1.00  0.00    -0.206 F 
ATOM     88  C   UNL A   1      45.134  25.239  36.250  1.00  0.00     0.022 A 
BRANCH  85  89
ATOM     89  S   UNL A   1      42.729  26.192  37.228  1.00  0.00     0.124 S 
ATOM     90  O   UNL A   1      42.075  27.432  36.829  1.00  0.00    -0.237 OA
ATOM     91  O   UNL A   1      41.948  24.969  37.086  1.00  0.00    -0.237 OA
ATOM     92  O   UNL A   1      43.509  26.276  38.464  1.00  0.00    -0.744 OA
ENDBRANCH  85  89
ENDBRANCH  58  82
BRANCH  70  93
ATOM     93  C   UNL A   1      45.622  28.894  27.958  1.00  0.00     0.023 A 
ATOM     94  C   UNL A   1      46.044  27.632  27.482  1.00  0.00     0.031 A 
ATOM     95  C   UNL A   1      46.499  29.981  27.782  1.00  0.00     0.131 A 
ATOM     96  C   UNL A   1      47.305  27.494  26.866  1.00  0.00     0.055 A 
ATOM     97  C   UNL A   1      47.735  29.845  27.154  1.00  0.00     0.041 A 
ATOM     98  F   UNL A   1      46.147  31.212  28.190  1.00  0.00    -0.206 F 
ATOM     99  C   UNL A   1      48.146  28.599  26.698  1.00  0.00     0.022 A 
BRANCH  96 100
ATOM    100  S   UNL A   1      47.880  25.867  26.277  1.00  0.00     0.124 S 
ATOM    101  O   UNL A   1      49.116  26.175  25.568  1.00  0.00    -0.237 OA
ATOM    102  O   UNL A   1      48.028  25.115  27.521  1.00  0.00    -0.237 OA
ATOM    103  O   UNL A   1      46.785  25.410  25.419  1.00  0.00    -0.744 OA
ENDBRANCH  96 100
ENDBRANCH  70  93
ENDBRANCH  44  45
ENDBRANCH  36  39
ENDBRANCH  34  35
ENDBRANCH  33  34
ENDBRANCH  32  33
ENDBRANCH   1  32
TORSDOF 19
ENDMDL
