MODEL 1
REMARK VINA RESULT:     -12.1      0.000      0.000
REMARK SMILES COc1ccccc1NC(=O)N[C@@](C)(C(=O)NCCCCNC(=O)c1ccc(-c2c3nc(c(-c4cc(S(=O)(=O)[O-])ccc4F)c4ccc([nH]4)c(-c4cc(S(=O)(=O)[O-])ccc4F)c4nc(c(-c5cc(S(=O)(=O)[O-])ccc5F)c5ccc2[nH]5)C=C4)C=C3)cc1)C(F)(F)F
REMARK SMILES IDX 19 1 18 2 17 3 15 4 16 5 13 7 14 8 12 9 9 10 10 11 11 13
REMARK SMILES IDX 8 15 3 16 4 17 5 18 7 19 6 20 2 21 1 22 88 23 89 24 90 25
REMARK SMILES IDX 91 26 20 27 21 28 22 29 23 30 24 32 25 33 26 34 87 35 27 36
REMARK SMILES IDX 86 37 28 38 29 39 30 40 80 41 31 42 85 43 79 44 81 45 32 46
REMARK SMILES IDX 84 47 78 48 77 49 33 51 65 52 45 53 64 54 46 55 49 56 63 57
REMARK SMILES IDX 82 58 47 59 48 60 62 62 83 63 50 64 34 65 35 66 43 67 36 68
REMARK SMILES IDX 42 69 44 70 41 71 37 72 38 73 39 74 40 75 66 76 67 77 75 78
REMARK SMILES IDX 68 79 74 80 76 81 73 82 69 83 70 84 71 85 72 86 51 87 52 88
REMARK SMILES IDX 60 89 53 90 59 91 61 92 58 93 54 94 55 95 56 96 57 97
REMARK H PARENT 17 6 9 12 12 14 22 31 81 50 49 61
REMARK Flexibility Score: inf
ROOT
ATOM      1  C   UNL A   1      35.754  23.533  26.131  1.00  0.00     0.023 C 
ENDROOT
BRANCH   1   2
ATOM      2  C   UNL A   1      34.237  23.735  26.208  1.00  0.00     0.116 C 
BRANCH   2   3
ATOM      3  N   UNL A   1      33.766  24.320  24.971  1.00  0.00    -0.354 N 
ATOM      4  C   UNL A   1      32.871  24.023  24.007  1.00  0.00     0.255 C 
ATOM      5  O   UNL A   1      32.956  24.805  23.051  1.00  0.00    -0.272 OA
ATOM      6  H   UNL A   1      34.226  25.170  24.781  1.00  0.00     0.163 HD
BRANCH   4   7
ATOM      7  C   UNL A   1      31.671  23.054  24.181  1.00  0.00     0.213 C 
ATOM      8  C   UNL A   1      30.596  23.655  23.258  1.00  0.00     0.056 C 
BRANCH   7   9
ATOM      9  N   UNL A   1      31.160  23.026  25.595  1.00  0.00    -0.316 N 
ATOM     10  N   UNL A   1      29.856  24.970  26.112  1.00  0.00    -0.305 N 
ATOM     11  C   UNL A   1      30.422  23.793  26.410  1.00  0.00     0.320 C 
ATOM     12  H   UNL A   1      29.035  25.124  26.633  1.00  0.00     0.172 HD
ATOM     13  O   UNL A   1      30.111  23.274  27.489  1.00  0.00    -0.248 OA
ATOM     14  H   UNL A   1      31.451  22.205  26.055  1.00  0.00     0.166 HD
BRANCH  10  15
ATOM     15  C   UNL A   1      30.134  26.037  25.248  1.00  0.00     0.085 A 
ATOM     16  C   UNL A   1      31.242  26.862  25.522  1.00  0.00     0.142 A 
ATOM     17  C   UNL A   1      31.382  28.090  24.872  1.00  0.00     0.048 A 
ATOM     18  C   UNL A   1      30.488  28.447  23.863  1.00  0.00     0.004 A 
ATOM     19  C   UNL A   1      29.341  26.334  24.146  1.00  0.00     0.030 A 
ATOM     20  C   UNL A   1      29.501  27.546  23.467  1.00  0.00     0.002 A 
BRANCH  16  21
ATOM     21  O   UNL A   1      32.094  26.615  26.570  1.00  0.00    -0.495 OA
ATOM     22  C   UNL A   1      33.250  27.450  26.527  1.00  0.00     0.278 C 
ENDBRANCH  16  21
ENDBRANCH  10  15
ENDBRANCH   7   9
BRANCH   7  23
ATOM     23  C   UNL A   1      32.292  21.724  23.670  1.00  0.00     0.420 C 
ATOM     24  F   UNL A   1      32.006  20.693  24.506  1.00  0.00    -0.168 F 
ATOM     25  F   UNL A   1      31.840  21.341  22.467  1.00  0.00    -0.168 F 
ATOM     26  F   UNL A   1      33.637  21.797  23.527  1.00  0.00    -0.168 F 
ENDBRANCH   7  23
ENDBRANCH   4   7
ENDBRANCH   2   3
ENDBRANCH   1   2
BRANCH   1  27
ATOM     27  C   UNL A   1      36.208  22.148  25.630  1.00  0.00     0.023 C 
BRANCH  27  28
ATOM     28  C   UNL A   1      37.605  22.069  25.018  1.00  0.00     0.116 C 
BRANCH  28  29
ATOM     29  N   UNL A   1      38.440  21.064  25.642  1.00  0.00    -0.352 N 
ATOM     30  C   UNL A   1      39.532  21.244  26.455  1.00  0.00     0.251 C 
ATOM     31  H   UNL A   1      38.192  20.129  25.459  1.00  0.00     0.163 HD
ATOM     32  O   UNL A   1      40.191  20.272  26.812  1.00  0.00    -0.269 OA
BRANCH  30  33
ATOM     33  C   UNL A   1      39.931  22.610  26.858  1.00  0.00     0.039 A 
ATOM     34  C   UNL A   1      40.861  22.756  27.890  1.00  0.00     0.014 A 
ATOM     35  C   UNL A   1      39.410  23.738  26.214  1.00  0.00     0.014 A 
ATOM     36  C   UNL A   1      41.312  24.030  28.241  1.00  0.00     0.010 A 
ATOM     37  C   UNL A   1      39.904  25.003  26.528  1.00  0.00     0.010 A 
ATOM     38  C   UNL A   1      40.860  25.162  27.544  1.00  0.00    -0.014 A 
BRANCH  38  39
ATOM     39  C   UNL A   1      41.379  26.517  27.874  1.00  0.00     0.031 A 
ATOM     40  C   UNL A   1      42.788  26.896  27.508  1.00  0.00     0.074 A 
ATOM     41  C   UNL A   1      40.597  27.385  28.545  1.00  0.00     0.049 A 
ATOM     42  N   UNL A   1      43.439  28.004  27.753  1.00  0.00    -0.248 NA
ATOM     43  C   UNL A   1      43.578  25.877  26.800  1.00  0.00     0.031 C 
ATOM     44  C   UNL A   1      39.230  27.115  28.996  1.00  0.00     0.029 A 
ATOM     45  N   UNL A   1      40.841  28.665  28.978  1.00  0.00    -0.354 N 
ATOM     46  C   UNL A   1      44.719  27.813  27.244  1.00  0.00     0.074 A 
ATOM     47  C   UNL A   1      44.765  26.460  26.731  1.00  0.00     0.031 C 
ATOM     48  C   UNL A   1      38.752  28.200  29.627  1.00  0.00     0.029 A 
ATOM     49  C   UNL A   1      39.787  29.229  29.659  1.00  0.00     0.049 A 
ATOM     50  H   UNL A   1      41.690  29.136  28.815  1.00  0.00     0.167 HD
ATOM     51  C   UNL A   1      45.752  28.693  27.189  1.00  0.00     0.034 A 
ATOM     52  C   UNL A   1      39.671  30.434  30.252  1.00  0.00     0.034 A 
ATOM     53  C   UNL A   1      45.682  30.042  27.695  1.00  0.00     0.049 A 
ATOM     54  C   UNL A   1      40.829  31.395  30.181  1.00  0.00     0.074 A 
ATOM     55  C   UNL A   1      46.643  31.038  27.636  1.00  0.00     0.029 A 
ATOM     56  N   UNL A   1      44.592  30.586  28.364  1.00  0.00    -0.354 N 
ATOM     57  N   UNL A   1      42.013  31.222  29.638  1.00  0.00    -0.248 NA
ATOM     58  C   UNL A   1      40.632  32.717  30.788  1.00  0.00     0.031 C 
ATOM     59  C   UNL A   1      46.159  32.158  28.322  1.00  0.00     0.029 A 
ATOM     60  C   UNL A   1      44.868  31.890  28.748  1.00  0.00     0.049 A 
ATOM     61  H   UNL A   1      43.746  30.113  28.540  1.00  0.00     0.167 HD
ATOM     62  C   UNL A   1      42.691  32.425  29.816  1.00  0.00     0.074 A 
ATOM     63  C   UNL A   1      41.778  33.317  30.503  1.00  0.00     0.031 C 
ATOM     64  C   UNL A   1      43.952  32.764  29.444  1.00  0.00     0.034 A 
BRANCH  51  65
ATOM     65  C   UNL A   1      47.047  28.201  26.585  1.00  0.00     0.023 A 
ATOM     66  C   UNL A   1      47.280  28.244  25.199  1.00  0.00     0.031 A 
ATOM     67  C   UNL A   1      48.048  27.645  27.401  1.00  0.00     0.131 A 
ATOM     68  C   UNL A   1      48.439  27.662  24.664  1.00  0.00     0.055 A 
ATOM     69  C   UNL A   1      49.239  27.145  26.869  1.00  0.00     0.041 A 
ATOM     70  F   UNL A   1      47.879  27.559  28.730  1.00  0.00    -0.206 F 
ATOM     71  C   UNL A   1      49.432  27.136  25.491  1.00  0.00     0.022 A 
BRANCH  68  72
ATOM     72  S   UNL A   1      48.553  27.462  22.864  1.00  0.00     0.124 S 
ATOM     73  O   UNL A   1      48.493  26.009  22.724  1.00  0.00    -0.237 OA
ATOM     74  O   UNL A   1      47.387  28.198  22.390  1.00  0.00    -0.237 OA
ATOM     75  O   UNL A   1      49.845  28.059  22.534  1.00  0.00    -0.744 OA
ENDBRANCH  68  72
ENDBRANCH  51  65
BRANCH  52  76
ATOM     76  C   UNL A   1      38.418  30.800  30.973  1.00  0.00     0.023 A 
ATOM     77  C   UNL A   1      37.382  31.490  30.324  1.00  0.00     0.031 A 
ATOM     78  C   UNL A   1      38.254  30.492  32.335  1.00  0.00     0.131 A 
ATOM     79  C   UNL A   1      36.246  31.887  31.047  1.00  0.00     0.055 A 
ATOM     80  C   UNL A   1      37.102  30.847  33.039  1.00  0.00     0.041 A 
ATOM     81  F   UNL A   1      39.212  29.827  33.000  1.00  0.00    -0.206 F 
ATOM     82  C   UNL A   1      36.094  31.560  32.397  1.00  0.00     0.022 A 
BRANCH  79  83
ATOM     83  S   UNL A   1      34.996  32.904  30.214  1.00  0.00     0.124 S 
ATOM     84  O   UNL A   1      34.472  31.976  29.218  1.00  0.00    -0.237 OA
ATOM     85  O   UNL A   1      34.097  33.240  31.315  1.00  0.00    -0.237 OA
ATOM     86  O   UNL A   1      35.768  34.024  29.680  1.00  0.00    -0.744 OA
ENDBRANCH  79  83
ENDBRANCH  52  76
BRANCH  64  87
ATOM     87  C   UNL A   1      44.395  34.175  29.738  1.00  0.00     0.023 A 
ATOM     88  C   UNL A   1      44.221  35.215  28.806  1.00  0.00     0.031 A 
ATOM     89  C   UNL A   1      45.013  34.481  30.963  1.00  0.00     0.131 A 
ATOM     90  C   UNL A   1      44.708  36.498  29.094  1.00  0.00     0.055 A 
ATOM     91  C   UNL A   1      45.444  35.773  31.267  1.00  0.00     0.041 A 
ATOM     92  F   UNL A   1      45.206  33.527  31.888  1.00  0.00    -0.206 F 
ATOM     93  C   UNL A   1      45.304  36.788  30.324  1.00  0.00     0.022 A 
BRANCH  90  94
ATOM     94  S   UNL A   1      44.633  37.769  27.801  1.00  0.00     0.124 S 
ATOM     95  O   UNL A   1      45.813  37.457  27.000  1.00  0.00    -0.237 OA
ATOM     96  O   UNL A   1      43.346  37.498  27.171  1.00  0.00    -0.237 OA
ATOM     97  O   UNL A   1      44.705  39.024  28.548  1.00  0.00    -0.744 OA
ENDBRANCH  90  94
ENDBRANCH  64  87
ENDBRANCH  38  39
ENDBRANCH  30  33
ENDBRANCH  28  29
ENDBRANCH  27  28
ENDBRANCH   1  27
TORSDOF 18
ENDMDL
MODEL 2
REMARK VINA RESULT:     -12.0      4.751      9.912
REMARK SMILES COc1ccccc1NC(=O)N[C@@](C)(C(=O)NCCCCNC(=O)c1ccc(-c2c3nc(c(-c4cc(S(=O)(=O)[O-])ccc4F)c4ccc([nH]4)c(-c4cc(S(=O)(=O)[O-])ccc4F)c4nc(c(-c5cc(S(=O)(=O)[O-])ccc5F)c5ccc2[nH]5)C=C4)C=C3)cc1)C(F)(F)F
REMARK SMILES IDX 19 1 18 2 17 3 15 4 16 5 13 7 14 8 12 9 9 10 10 11 11 13
REMARK SMILES IDX 8 15 3 16 4 17 5 18 7 19 6 20 2 21 1 22 88 23 89 24 90 25
REMARK SMILES IDX 91 26 20 27 21 28 22 29 23 30 24 32 25 33 26 34 87 35 27 36
REMARK SMILES IDX 86 37 28 38 29 39 30 40 80 41 31 42 85 43 79 44 81 45 32 46
REMARK SMILES IDX 84 47 78 48 77 49 33 51 65 52 45 53 64 54 46 55 49 56 63 57
REMARK SMILES IDX 82 58 47 59 48 60 62 62 83 63 50 64 34 65 35 66 43 67 36 68
REMARK SMILES IDX 42 69 44 70 41 71 37 72 38 73 39 74 40 75 66 76 67 77 75 78
REMARK SMILES IDX 68 79 74 80 76 81 73 82 69 83 70 84 71 85 72 86 51 87 52 88
REMARK SMILES IDX 60 89 53 90 59 91 61 92 58 93 54 94 55 95 56 96 57 97
REMARK H PARENT 17 6 9 12 12 14 22 31 81 50 49 61
REMARK Flexibility Score: inf
ROOT
ATOM      1  C   UNL A   1      31.410  28.370  25.087  1.00  0.00     0.023 C 
ENDROOT
BRANCH   1   2
ATOM      2  C   UNL A   1      30.717  27.011  25.227  1.00  0.00     0.116 C 
BRANCH   2   3
ATOM      3  N   UNL A   1      30.887  26.255  24.005  1.00  0.00    -0.354 N 
ATOM      4  C   UNL A   1      31.778  25.383  23.489  1.00  0.00     0.255 C 
ATOM      5  O   UNL A   1      31.531  25.131  22.303  1.00  0.00    -0.272 OA
ATOM      6  H   UNL A   1      30.148  26.425  23.376  1.00  0.00     0.163 HD
BRANCH   4   7
ATOM      7  C   UNL A   1      32.781  24.543  24.324  1.00  0.00     0.213 C 
ATOM      8  C   UNL A   1      33.064  23.331  23.420  1.00  0.00     0.056 C 
BRANCH   7   9
ATOM      9  N   UNL A   1      32.188  24.072  25.623  1.00  0.00    -0.316 N 
ATOM     10  N   UNL A   1      33.808  22.951  26.989  1.00  0.00    -0.305 N 
ATOM     11  C   UNL A   1      32.581  23.418  26.726  1.00  0.00     0.320 C 
ATOM     12  H   UNL A   1      33.996  22.937  27.956  1.00  0.00     0.172 HD
ATOM     13  O   UNL A   1      31.757  23.391  27.649  1.00  0.00    -0.248 OA
ATOM     14  H   UNL A   1      31.236  24.315  25.681  1.00  0.00     0.166 HD
BRANCH  10  15
ATOM     15  C   UNL A   1      34.894  22.479  26.240  1.00  0.00     0.085 A 
ATOM     16  C   UNL A   1      34.781  21.236  25.588  1.00  0.00     0.142 A 
ATOM     17  C   UNL A   1      35.918  20.599  25.086  1.00  0.00     0.048 A 
ATOM     18  C   UNL A   1      37.151  21.249  25.123  1.00  0.00     0.004 A 
ATOM     19  C   UNL A   1      36.093  23.175  26.139  1.00  0.00     0.030 A 
ATOM     20  C   UNL A   1      37.227  22.556  25.603  1.00  0.00     0.002 A 
BRANCH  16  21
ATOM     21  O   UNL A   1      33.620  20.504  25.611  1.00  0.00    -0.495 OA
ATOM     22  C   UNL A   1      33.693  19.359  24.764  1.00  0.00     0.278 C 
ENDBRANCH  16  21
ENDBRANCH  10  15
ENDBRANCH   7   9
BRANCH   7  23
ATOM     23  C   UNL A   1      33.963  25.544  24.455  1.00  0.00     0.420 C 
ATOM     24  F   UNL A   1      34.061  26.030  25.719  1.00  0.00    -0.168 F 
ATOM     25  F   UNL A   1      35.161  25.005  24.188  1.00  0.00    -0.168 F 
ATOM     26  F   UNL A   1      33.857  26.591  23.602  1.00  0.00    -0.168 F 
ENDBRANCH   7  23
ENDBRANCH   4   7
ENDBRANCH   2   3
ENDBRANCH   1   2
BRANCH   1  27
ATOM     27  C   UNL A   1      31.917  28.989  26.405  1.00  0.00     0.023 C 
BRANCH  27  28
ATOM     28  C   UNL A   1      33.220  29.782  26.328  1.00  0.00     0.116 C 
BRANCH  28  29
ATOM     29  N   UNL A   1      33.074  31.152  26.774  1.00  0.00    -0.352 N 
ATOM     30  C   UNL A   1      33.886  31.866  27.621  1.00  0.00     0.251 C 
ATOM     31  H   UNL A   1      32.291  31.635  26.425  1.00  0.00     0.163 HD
ATOM     32  O   UNL A   1      33.551  32.992  27.979  1.00  0.00    -0.269 OA
BRANCH  30  33
ATOM     33  C   UNL A   1      35.134  31.257  28.131  1.00  0.00     0.039 A 
ATOM     34  C   UNL A   1      36.310  32.009  28.085  1.00  0.00     0.014 A 
ATOM     35  C   UNL A   1      35.145  29.965  28.666  1.00  0.00     0.014 A 
ATOM     36  C   UNL A   1      37.487  31.488  28.626  1.00  0.00     0.010 A 
ATOM     37  C   UNL A   1      36.307  29.470  29.256  1.00  0.00     0.010 A 
ATOM     38  C   UNL A   1      37.490  30.227  29.242  1.00  0.00    -0.014 A 
BRANCH  38  39
ATOM     39  C   UNL A   1      38.725  29.689  29.872  1.00  0.00     0.031 A 
ATOM     40  C   UNL A   1      39.181  30.210  31.208  1.00  0.00     0.074 A 
ATOM     41  C   UNL A   1      39.461  28.769  29.217  1.00  0.00     0.049 A 
ATOM     42  N   UNL A   1      40.252  29.908  31.895  1.00  0.00    -0.248 NA
ATOM     43  C   UNL A   1      38.331  31.232  31.837  1.00  0.00     0.031 C 
ATOM     44  C   UNL A   1      39.148  28.222  27.896  1.00  0.00     0.029 A 
ATOM     45  N   UNL A   1      40.630  28.140  29.567  1.00  0.00    -0.354 N 
ATOM     46  C   UNL A   1      40.215  30.710  33.029  1.00  0.00     0.074 A 
ATOM     47  C   UNL A   1      39.045  31.554  32.905  1.00  0.00     0.031 C 
ATOM     48  C   UNL A   1      40.091  27.330  27.554  1.00  0.00     0.029 A 
ATOM     49  C   UNL A   1      41.095  27.265  28.611  1.00  0.00     0.049 A 
ATOM     50  H   UNL A   1      41.093  28.298  30.421  1.00  0.00     0.167 HD
ATOM     51  C   UNL A   1      41.066  30.726  34.087  1.00  0.00     0.034 A 
ATOM     52  C   UNL A   1      42.209  26.507  28.584  1.00  0.00     0.034 A 
ATOM     53  C   UNL A   1      42.221  29.869  34.199  1.00  0.00     0.049 A 
ATOM     54  C   UNL A   1      43.141  26.540  29.768  1.00  0.00     0.074 A 
ATOM     55  C   UNL A   1      43.114  29.755  35.252  1.00  0.00     0.029 A 
ATOM     56  N   UNL A   1      42.652  28.983  33.219  1.00  0.00    -0.354 N 
ATOM     57  N   UNL A   1      43.057  27.259  30.865  1.00  0.00    -0.248 NA
ATOM     58  C   UNL A   1      44.307  25.651  29.718  1.00  0.00     0.031 C 
ATOM     59  C   UNL A   1      44.117  28.850  34.883  1.00  0.00     0.029 A 
ATOM     60  C   UNL A   1      43.813  28.342  33.629  1.00  0.00     0.049 A 
ATOM     61  H   UNL A   1      42.200  28.832  32.357  1.00  0.00     0.167 HD
ATOM     62  C   UNL A   1      44.148  26.886  31.646  1.00  0.00     0.074 A 
ATOM     63  C   UNL A   1      44.863  25.870  30.900  1.00  0.00     0.031 C 
ATOM     64  C   UNL A   1      44.523  27.340  32.869  1.00  0.00     0.034 A 
BRANCH  51  65
ATOM     65  C   UNL A   1      40.785  31.725  35.186  1.00  0.00     0.023 A 
ATOM     66  C   UNL A   1      39.785  31.503  36.149  1.00  0.00     0.031 A 
ATOM     67  C   UNL A   1      41.498  32.935  35.249  1.00  0.00     0.131 A 
ATOM     68  C   UNL A   1      39.465  32.508  37.075  1.00  0.00     0.055 A 
ATOM     69  C   UNL A   1      41.234  33.896  36.228  1.00  0.00     0.041 A 
ATOM     70  F   UNL A   1      42.453  33.215  34.348  1.00  0.00    -0.206 F 
ATOM     71  C   UNL A   1      40.200  33.693  37.137  1.00  0.00     0.022 A 
BRANCH  68  72
ATOM     72  S   UNL A   1      37.974  32.307  38.089  1.00  0.00     0.124 S 
ATOM     73  O   UNL A   1      37.158  33.433  37.640  1.00  0.00    -0.237 OA
ATOM     74  O   UNL A   1      37.504  30.982  37.700  1.00  0.00    -0.237 OA
ATOM     75  O   UNL A   1      38.474  32.416  39.458  1.00  0.00    -0.744 OA
ENDBRANCH  68  72
ENDBRANCH  51  65
BRANCH  52  76
ATOM     76  C   UNL A   1      42.513  25.659  27.397  1.00  0.00     0.023 A 
ATOM     77  C   UNL A   1      42.111  24.315  27.341  1.00  0.00     0.031 A 
ATOM     78  C   UNL A   1      43.242  26.175  26.310  1.00  0.00     0.131 A 
ATOM     79  C   UNL A   1      42.476  23.520  26.243  1.00  0.00     0.055 A 
ATOM     80  C   UNL A   1      43.562  25.394  25.198  1.00  0.00     0.041 A 
ATOM     81  F   UNL A   1      43.643  27.456  26.310  1.00  0.00    -0.206 F 
ATOM     82  C   UNL A   1      43.188  24.054  25.166  1.00  0.00     0.022 A 
BRANCH  79  83
ATOM     83  S   UNL A   1      42.067  21.753  26.274  1.00  0.00     0.124 S 
ATOM     84  O   UNL A   1      42.951  21.224  25.242  1.00  0.00    -0.237 OA
ATOM     85  O   UNL A   1      42.397  21.391  27.649  1.00  0.00    -0.237 OA
ATOM     86  O   UNL A   1      40.642  21.727  25.950  1.00  0.00    -0.744 OA
ENDBRANCH  79  83
ENDBRANCH  52  76
BRANCH  64  87
ATOM     87  C   UNL A   1      45.741  26.703  33.490  1.00  0.00     0.023 A 
ATOM     88  C   UNL A   1      45.659  25.501  34.216  1.00  0.00     0.031 A 
ATOM     89  C   UNL A   1      47.000  27.316  33.364  1.00  0.00     0.131 A 
ATOM     90  C   UNL A   1      46.805  24.979  34.833  1.00  0.00     0.055 A 
ATOM     91  C   UNL A   1      48.148  26.761  33.932  1.00  0.00     0.041 A 
ATOM     92  F   UNL A   1      47.135  28.465  32.683  1.00  0.00    -0.206 F 
ATOM     93  C   UNL A   1      48.052  25.593  34.682  1.00  0.00     0.022 A 
BRANCH  90  94
ATOM     94  S   UNL A   1      46.632  23.532  35.913  1.00  0.00     0.124 S 
ATOM     95  O   UNL A   1      45.189  23.483  36.125  1.00  0.00    -0.237 OA
ATOM     96  O   UNL A   1      47.192  22.462  35.094  1.00  0.00    -0.237 OA
ATOM     97  O   UNL A   1      47.421  23.886  37.092  1.00  0.00    -0.744 OA
ENDBRANCH  90  94
ENDBRANCH  64  87
ENDBRANCH  38  39
ENDBRANCH  30  33
ENDBRANCH  28  29
ENDBRANCH  27  28
ENDBRANCH   1  27
TORSDOF 18
ENDMDL
MODEL 3
REMARK VINA RESULT:     -12.0      2.520      8.157
REMARK SMILES COc1ccccc1NC(=O)N[C@@](C)(C(=O)NCCCCNC(=O)c1ccc(-c2c3nc(c(-c4cc(S(=O)(=O)[O-])ccc4F)c4ccc([nH]4)c(-c4cc(S(=O)(=O)[O-])ccc4F)c4nc(c(-c5cc(S(=O)(=O)[O-])ccc5F)c5ccc2[nH]5)C=C4)C=C3)cc1)C(F)(F)F
REMARK SMILES IDX 19 1 18 2 17 3 15 4 16 5 13 7 14 8 12 9 9 10 10 11 11 13
REMARK SMILES IDX 8 15 3 16 4 17 5 18 7 19 6 20 2 21 1 22 88 23 89 24 90 25
REMARK SMILES IDX 91 26 20 27 21 28 22 29 23 30 24 32 25 33 26 34 87 35 27 36
REMARK SMILES IDX 86 37 28 38 29 39 30 40 80 41 31 42 85 43 79 44 81 45 32 46
REMARK SMILES IDX 84 47 78 48 77 49 33 51 65 52 45 53 64 54 46 55 49 56 63 57
REMARK SMILES IDX 82 58 47 59 48 60 62 62 83 63 50 64 34 65 35 66 43 67 36 68
REMARK SMILES IDX 42 69 44 70 41 71 37 72 38 73 39 74 40 75 66 76 67 77 75 78
REMARK SMILES IDX 68 79 74 80 76 81 73 82 69 83 70 84 71 85 72 86 51 87 52 88
REMARK SMILES IDX 60 89 53 90 59 91 61 92 58 93 54 94 55 95 56 96 57 97
REMARK H PARENT 17 6 9 12 12 14 22 31 81 50 49 61
REMARK Flexibility Score: inf
ROOT
ATOM      1  C   UNL A   1      37.068  21.239  24.911  1.00  0.00     0.023 C 
ENDROOT
BRANCH   1   2
ATOM      2  C   UNL A   1      35.626  20.723  24.953  1.00  0.00     0.116 C 
BRANCH   2   3
ATOM      3  N   UNL A   1      34.986  21.180  26.168  1.00  0.00    -0.354 N 
ATOM      4  C   UNL A   1      34.247  22.236  26.567  1.00  0.00     0.255 C 
ATOM      5  O   UNL A   1      34.063  22.223  27.791  1.00  0.00    -0.272 OA
ATOM      6  H   UNL A   1      35.129  20.544  26.906  1.00  0.00     0.163 HD
BRANCH   4   7
ATOM      7  C   UNL A   1      33.450  23.169  25.618  1.00  0.00     0.213 C 
ATOM      8  C   UNL A   1      32.251  23.606  26.479  1.00  0.00     0.056 C 
BRANCH   7   9
ATOM      9  N   UNL A   1      32.953  22.450  24.394  1.00  0.00    -0.316 N 
ATOM     10  N   UNL A   1      31.898  23.945  22.847  1.00  0.00    -0.305 N 
ATOM     11  C   UNL A   1      32.315  22.738  23.252  1.00  0.00     0.320 C 
ATOM     12  H   UNL A   1      31.889  24.020  21.865  1.00  0.00     0.172 HD
ATOM     13  O   UNL A   1      32.253  21.815  22.430  1.00  0.00    -0.248 OA
ATOM     14  H   UNL A   1      33.157  21.488  24.448  1.00  0.00     0.166 HD
BRANCH  10  15
ATOM     15  C   UNL A   1      31.470  25.129  23.464  1.00  0.00     0.085 A 
ATOM     16  C   UNL A   1      32.204  26.311  23.247  1.00  0.00     0.142 A 
ATOM     17  C   UNL A   1      31.995  27.427  24.060  1.00  0.00     0.048 A 
ATOM     18  C   UNL A   1      30.975  27.412  25.010  1.00  0.00     0.004 A 
ATOM     19  C   UNL A   1      30.367  25.177  24.307  1.00  0.00     0.030 A 
ATOM     20  C   UNL A   1      30.130  26.307  25.097  1.00  0.00     0.002 A 
BRANCH  16  21
ATOM     21  O   UNL A   1      33.285  26.354  22.401  1.00  0.00    -0.495 OA
ATOM     22  C   UNL A   1      33.723  27.690  22.161  1.00  0.00     0.278 C 
ENDBRANCH  16  21
ENDBRANCH  10  15
ENDBRANCH   7   9
BRANCH   7  23
ATOM     23  C   UNL A   1      34.498  24.285  25.356  1.00  0.00     0.420 C 
ATOM     24  F   UNL A   1      35.641  24.064  26.056  1.00  0.00    -0.168 F 
ATOM     25  F   UNL A   1      34.881  24.380  24.074  1.00  0.00    -0.168 F 
ATOM     26  F   UNL A   1      34.037  25.519  25.671  1.00  0.00    -0.168 F 
ENDBRANCH   7  23
ENDBRANCH   4   7
ENDBRANCH   2   3
ENDBRANCH   1   2
BRANCH   1  27
ATOM     27  C   UNL A   1      38.158  20.153  25.007  1.00  0.00     0.023 C 
BRANCH  27  28
ATOM     28  C   UNL A   1      39.319  20.436  25.958  1.00  0.00     0.116 C 
BRANCH  28  29
ATOM     29  N   UNL A   1      40.302  19.373  25.980  1.00  0.00    -0.352 N 
ATOM     30  C   UNL A   1      41.661  19.470  26.156  1.00  0.00     0.251 C 
ATOM     31  H   UNL A   1      39.951  18.462  25.852  1.00  0.00     0.163 HD
ATOM     32  O   UNL A   1      42.362  18.468  26.039  1.00  0.00    -0.269 OA
BRANCH  30  33
ATOM     33  C   UNL A   1      42.274  20.785  26.442  1.00  0.00     0.039 A 
ATOM     34  C   UNL A   1      42.604  21.614  25.368  1.00  0.00     0.014 A 
ATOM     35  C   UNL A   1      42.506  21.207  27.756  1.00  0.00     0.014 A 
ATOM     36  C   UNL A   1      43.115  22.890  25.610  1.00  0.00     0.010 A 
ATOM     37  C   UNL A   1      42.962  22.502  27.995  1.00  0.00     0.010 A 
ATOM     38  C   UNL A   1      43.272  23.358  26.925  1.00  0.00    -0.014 A 
BRANCH  38  39
ATOM     39  C   UNL A   1      43.761  24.737  27.191  1.00  0.00     0.031 A 
ATOM     40  C   UNL A   1      42.823  25.779  27.736  1.00  0.00     0.074 A 
ATOM     41  C   UNL A   1      45.035  25.061  26.894  1.00  0.00     0.049 A 
ATOM     42  N   UNL A   1      43.043  27.044  27.986  1.00  0.00    -0.248 NA
ATOM     43  C   UNL A   1      41.444  25.343  28.006  1.00  0.00     0.031 C 
ATOM     44  C   UNL A   1      46.025  24.150  26.317  1.00  0.00     0.029 A 
ATOM     45  N   UNL A   1      45.713  26.247  27.025  1.00  0.00    -0.354 N 
ATOM     46  C   UNL A   1      41.830  27.561  28.427  1.00  0.00     0.074 A 
ATOM     47  C   UNL A   1      40.866  26.483  28.353  1.00  0.00     0.031 C 
ATOM     48  C   UNL A   1      47.186  24.806  26.158  1.00  0.00     0.029 A 
ATOM     49  C   UNL A   1      47.017  26.191  26.586  1.00  0.00     0.049 A 
ATOM     50  H   UNL A   1      45.307  27.062  27.398  1.00  0.00     0.167 HD
ATOM     51  C   UNL A   1      41.552  28.813  28.874  1.00  0.00     0.034 A 
ATOM     52  C   UNL A   1      47.963  27.149  26.525  1.00  0.00     0.034 A 
ATOM     53  C   UNL A   1      42.530  29.870  28.952  1.00  0.00     0.049 A 
ATOM     54  C   UNL A   1      47.634  28.531  27.025  1.00  0.00     0.074 A 
ATOM     55  C   UNL A   1      42.375  31.155  29.448  1.00  0.00     0.029 A 
ATOM     56  N   UNL A   1      43.845  29.772  28.515  1.00  0.00    -0.354 N 
ATOM     57  N   UNL A   1      46.497  28.988  27.501  1.00  0.00    -0.248 NA
ATOM     58  C   UNL A   1      48.716  29.522  26.995  1.00  0.00     0.031 C 
ATOM     59  C   UNL A   1      43.575  31.850  29.252  1.00  0.00     0.029 A 
ATOM     60  C   UNL A   1      44.503  30.980  28.701  1.00  0.00     0.049 A 
ATOM     61  H   UNL A   1      44.252  28.963  28.129  1.00  0.00     0.167 HD
ATOM     62  C   UNL A   1      46.738  30.314  27.850  1.00  0.00     0.074 A 
ATOM     63  C   UNL A   1      48.131  30.576  27.545  1.00  0.00     0.031 C 
ATOM     64  C   UNL A   1      45.889  31.231  28.379  1.00  0.00     0.034 A 
BRANCH  51  65
ATOM     65  C   UNL A   1      40.126  29.100  29.282  1.00  0.00     0.023 A 
ATOM     66  C   UNL A   1      39.737  29.145  30.632  1.00  0.00     0.031 A 
ATOM     67  C   UNL A   1      39.131  29.293  28.307  1.00  0.00     0.131 A 
ATOM     68  C   UNL A   1      38.382  29.286  30.969  1.00  0.00     0.055 A 
ATOM     69  C   UNL A   1      37.796  29.521  28.651  1.00  0.00     0.041 A 
ATOM     70  F   UNL A   1      39.434  29.245  27.000  1.00  0.00    -0.206 F 
ATOM     71  C   UNL A   1      37.412  29.500  29.989  1.00  0.00     0.022 A 
BRANCH  68  72
ATOM     72  S   UNL A   1      37.889  29.028  32.696  1.00  0.00     0.124 S 
ATOM     73  O   UNL A   1      36.645  29.791  32.765  1.00  0.00    -0.237 OA
ATOM     74  O   UNL A   1      37.754  27.578  32.773  1.00  0.00    -0.237 OA
ATOM     75  O   UNL A   1      39.001  29.593  33.458  1.00  0.00    -0.744 OA
ENDBRANCH  68  72
ENDBRANCH  51  65
BRANCH  52  76
ATOM     76  C   UNL A   1      49.309  26.841  25.962  1.00  0.00     0.023 A 
ATOM     77  C   UNL A   1      49.661  27.235  24.662  1.00  0.00     0.031 A 
ATOM     78  C   UNL A   1      50.253  26.115  26.710  1.00  0.00     0.131 A 
ATOM     79  C   UNL A   1      50.908  26.867  24.133  1.00  0.00     0.055 A 
ATOM     80  C   UNL A   1      51.510  25.791  26.197  1.00  0.00     0.041 A 
ATOM     81  F   UNL A   1      49.969  25.721  27.961  1.00  0.00    -0.206 F 
ATOM     82  C   UNL A   1      51.839  26.158  24.896  1.00  0.00     0.022 A 
BRANCH  79  83
ATOM     83  S   UNL A   1      51.270  27.266  22.400  1.00  0.00     0.124 S 
ATOM     84  O   UNL A   1      51.443  28.713  22.457  1.00  0.00    -0.237 OA
ATOM     85  O   UNL A   1      52.479  26.484  22.156  1.00  0.00    -0.237 OA
ATOM     86  O   UNL A   1      50.079  26.806  21.689  1.00  0.00    -0.744 OA
ENDBRANCH  79  83
ENDBRANCH  52  76
BRANCH  64  87
ATOM     87  C   UNL A   1      46.461  32.589  28.698  1.00  0.00     0.023 A 
ATOM     88  C   UNL A   1      46.450  33.636  27.758  1.00  0.00     0.031 A 
ATOM     89  C   UNL A   1      47.039  32.834  29.955  1.00  0.00     0.131 A 
ATOM     90  C   UNL A   1      47.053  34.863  28.074  1.00  0.00     0.055 A 
ATOM     91  C   UNL A   1      47.587  34.075  30.284  1.00  0.00     0.041 A 
ATOM     92  F   UNL A   1      47.079  31.870  30.889  1.00  0.00    -0.206 F 
ATOM     93  C   UNL A   1      47.607  35.094  29.336  1.00  0.00     0.022 A 
BRANCH  90  94
ATOM     94  S   UNL A   1      47.184  36.128  26.780  1.00  0.00     0.124 S 
ATOM     95  O   UNL A   1      47.770  35.373  25.676  1.00  0.00    -0.237 OA
ATOM     96  O   UNL A   1      45.796  36.540  26.604  1.00  0.00    -0.237 OA
ATOM     97  O   UNL A   1      48.060  37.138  27.374  1.00  0.00    -0.744 OA
ENDBRANCH  90  94
ENDBRANCH  64  87
ENDBRANCH  38  39
ENDBRANCH  30  33
ENDBRANCH  28  29
ENDBRANCH  27  28
ENDBRANCH   1  27
TORSDOF 18
ENDMDL
