MODEL 1
REMARK VINA RESULT:     -10.7      0.000      0.000
REMARK SMILES C[C@@H](C(=O)NCCCCNC(=O)c1ccc(-c2c3nc(c(-c4cc(S(=O)(=O)[O-])ccc4F)c4ccc([nH]4)c(-c4cc(S(=O)(=O)[O-])ccc4F)c4nc(c(-c5cc(S(=O)(=O)[O-])ccc5F)c5ccc2[nH]5)C=C4)C=C3)cc1)c1cc(C(=O)c2ccccc2)ccc1O
REMARK SMILES IDX 7 1 6 2 5 3 3 4 4 5 2 7 1 8 76 9 77 10 89 11 78 12 88 13
REMARK SMILES IDX 87 14 90 15 79 17 80 18 81 19 82 20 86 21 83 22 85 23 84 24
REMARK SMILES IDX 8 25 9 26 10 27 11 28 12 30 13 31 14 32 75 33 15 34 74 35
REMARK SMILES IDX 16 36 17 37 18 38 68 39 19 40 73 41 67 42 69 43 20 44 72 45
REMARK SMILES IDX 66 46 65 47 21 49 53 50 33 51 52 52 34 53 37 54 51 55 70 56
REMARK SMILES IDX 35 57 36 58 50 60 71 61 38 62 22 63 23 64 31 65 24 66 30 67
REMARK SMILES IDX 32 68 29 69 25 70 26 71 27 72 28 73 54 74 55 75 63 76 56 77
REMARK SMILES IDX 62 78 64 79 61 80 57 81 58 82 59 83 60 84 39 85 40 86 48 87
REMARK SMILES IDX 41 88 47 89 49 90 46 91 42 92 43 93 44 94 45 95
REMARK H PARENT 5 6 90 16 10 29 69 48 37 59
REMARK Flexibility Score: inf
ROOT
ATOM      1  C   UNL A   1      33.781  35.255  29.099  1.00  0.00     0.023 C 
ENDROOT
BRANCH   1   2
ATOM      2  C   UNL A   1      32.907  35.782  30.237  1.00  0.00     0.116 C 
BRANCH   2   3
ATOM      3  N   UNL A   1      33.498  36.954  30.847  1.00  0.00    -0.356 N 
ATOM      4  C   UNL A   1      33.726  37.243  32.159  1.00  0.00     0.227 C 
ATOM      5  O   UNL A   1      34.191  38.357  32.405  1.00  0.00    -0.274 OA
ATOM      6  H   UNL A   1      33.780  37.653  30.215  1.00  0.00     0.163 HD
BRANCH   4   7
ATOM      7  C   UNL A   1      33.456  36.180  33.242  1.00  0.00     0.109 C 
ATOM      8  C   UNL A   1      33.462  36.759  34.661  1.00  0.00     0.023 C 
BRANCH   7   9
ATOM      9  C   UNL A   1      34.443  35.018  33.164  1.00  0.00     0.007 A 
ATOM     10  C   UNL A   1      35.827  35.309  33.163  1.00  0.00     0.020 A 
ATOM     11  C   UNL A   1      34.066  33.671  33.126  1.00  0.00     0.119 A 
ATOM     12  C   UNL A   1      36.795  34.300  33.119  1.00  0.00     0.023 A 
ATOM     13  C   UNL A   1      35.026  32.657  33.106  1.00  0.00     0.047 A 
ATOM     14  C   UNL A   1      36.386  32.966  33.110  1.00  0.00     0.016 A 
BRANCH  11  15
ATOM     15  O   UNL A   1      32.772  33.235  33.131  1.00  0.00    -0.508 OA
ATOM     16  H   UNL A   1      32.080  33.828  33.348  1.00  0.00     0.293 HD
ENDBRANCH  11  15
BRANCH  12  17
ATOM     17  C   UNL A   1      38.228  34.704  33.150  1.00  0.00     0.193 C 
ATOM     18  O   UNL A   1      38.723  35.130  34.191  1.00  0.00    -0.289 OA
BRANCH  17  19
ATOM     19  C   UNL A   1      39.101  34.551  31.964  1.00  0.00     0.022 A 
ATOM     20  C   UNL A   1      38.494  34.494  30.705  1.00  0.00     0.012 A 
ATOM     21  C   UNL A   1      40.492  34.454  32.080  1.00  0.00     0.012 A 
ATOM     22  C   UNL A   1      39.281  34.402  29.557  1.00  0.00     0.001 A 
ATOM     23  C   UNL A   1      41.275  34.366  30.928  1.00  0.00     0.001 A 
ATOM     24  C   UNL A   1      40.671  34.350  29.671  1.00  0.00     0.000 A 
ENDBRANCH  17  19
ENDBRANCH  12  17
ENDBRANCH   7   9
ENDBRANCH   4   7
ENDBRANCH   2   3
ENDBRANCH   1   2
BRANCH   1  25
ATOM     25  C   UNL A   1      34.377  33.867  29.346  1.00  0.00     0.023 C 
BRANCH  25  26
ATOM     26  C   UNL A   1      34.878  33.149  28.102  1.00  0.00     0.116 C 
BRANCH  26  27
ATOM     27  N   UNL A   1      34.003  32.063  27.694  1.00  0.00    -0.352 N 
ATOM     28  C   UNL A   1      34.278  30.722  27.595  1.00  0.00     0.251 C 
ATOM     29  H   UNL A   1      33.085  32.326  27.457  1.00  0.00     0.163 HD
ATOM     30  O   UNL A   1      33.454  29.977  27.066  1.00  0.00    -0.269 OA
BRANCH  28  31
ATOM     31  C   UNL A   1      35.564  30.188  28.093  1.00  0.00     0.039 A 
ATOM     32  C   UNL A   1      36.672  30.201  27.242  1.00  0.00     0.014 A 
ATOM     33  C   UNL A   1      35.680  29.669  29.385  1.00  0.00     0.014 A 
ATOM     34  C   UNL A   1      37.901  29.727  27.701  1.00  0.00     0.010 A 
ATOM     35  C   UNL A   1      36.927  29.279  29.869  1.00  0.00     0.010 A 
ATOM     36  C   UNL A   1      38.047  29.283  29.027  1.00  0.00    -0.014 A 
BRANCH  36  37
ATOM     37  C   UNL A   1      39.355  28.784  29.525  1.00  0.00     0.031 A 
ATOM     38  C   UNL A   1      40.019  29.454  30.700  1.00  0.00     0.074 A 
ATOM     39  C   UNL A   1      39.956  27.749  28.907  1.00  0.00     0.049 A 
ATOM     40  N   UNL A   1      41.159  29.173  31.279  1.00  0.00    -0.248 NA
ATOM     41  C   UNL A   1      39.323  30.612  31.281  1.00  0.00     0.031 C 
ATOM     42  C   UNL A   1      39.431  27.045  27.735  1.00  0.00     0.029 A 
ATOM     43  N   UNL A   1      41.136  27.103  29.178  1.00  0.00    -0.354 N 
ATOM     44  C   UNL A   1      41.323  30.127  32.279  1.00  0.00     0.074 A 
ATOM     45  C   UNL A   1      40.199  31.034  32.178  1.00  0.00     0.031 C 
ATOM     46  C   UNL A   1      40.259  26.037  27.419  1.00  0.00     0.029 A 
ATOM     47  C   UNL A   1      41.398  26.050  28.332  1.00  0.00     0.049 A 
ATOM     48  H   UNL A   1      41.739  27.367  29.911  1.00  0.00     0.167 HD
ATOM     49  C   UNL A   1      42.303  30.222  33.211  1.00  0.00     0.034 A 
ATOM     50  C   UNL A   1      42.438  25.194  28.296  1.00  0.00     0.034 A 
ATOM     51  C   UNL A   1      43.409  29.299  33.303  1.00  0.00     0.049 A 
ATOM     52  C   UNL A   1      43.530  25.334  29.328  1.00  0.00     0.074 A 
ATOM     53  C   UNL A   1      44.425  29.263  34.242  1.00  0.00     0.029 A 
ATOM     54  N   UNL A   1      43.651  28.255  32.418  1.00  0.00    -0.354 N 
ATOM     55  N   UNL A   1      43.638  26.202  30.308  1.00  0.00    -0.248 NA
ATOM     56  C   UNL A   1      44.631  24.366  29.258  1.00  0.00     0.031 C 
ATOM     57  C   UNL A   1      45.323  28.254  33.877  1.00  0.00     0.029 A 
ATOM     58  C   UNL A   1      44.820  27.595  32.767  1.00  0.00     0.049 A 
ATOM     59  H   UNL A   1      43.077  28.019  31.654  1.00  0.00     0.167 HD
ATOM     60  C   UNL A   1      44.799  25.855  30.995  1.00  0.00     0.074 A 
ATOM     61  C   UNL A   1      45.343  24.692  30.326  1.00  0.00     0.031 C 
ATOM     62  C   UNL A   1      45.360  26.441  32.086  1.00  0.00     0.034 A 
BRANCH  49  63
ATOM     63  C   UNL A   1      42.237  31.385  34.178  1.00  0.00     0.023 A 
ATOM     64  C   UNL A   1      41.417  31.356  35.321  1.00  0.00     0.031 A 
ATOM     65  C   UNL A   1      42.978  32.554  33.933  1.00  0.00     0.131 A 
ATOM     66  C   UNL A   1      41.293  32.500  36.124  1.00  0.00     0.055 A 
ATOM     67  C   UNL A   1      42.921  33.657  34.789  1.00  0.00     0.041 A 
ATOM     68  F   UNL A   1      43.761  32.654  32.847  1.00  0.00    -0.206 F 
ATOM     69  C   UNL A   1      42.061  33.641  35.882  1.00  0.00     0.022 A 
BRANCH  66  70
ATOM     70  S   UNL A   1      39.989  32.535  37.385  1.00  0.00     0.124 S 
ATOM     71  O   UNL A   1      39.109  31.461  36.929  1.00  0.00    -0.237 OA
ATOM     72  O   UNL A   1      40.731  32.275  38.613  1.00  0.00    -0.237 OA
ATOM     73  O   UNL A   1      39.431  33.881  37.265  1.00  0.00    -0.744 OA
ENDBRANCH  66  70
ENDBRANCH  49  63
BRANCH  50  74
ATOM     74  C   UNL A   1      42.504  24.118  27.263  1.00  0.00     0.023 A 
ATOM     75  C   UNL A   1      41.668  22.992  27.340  1.00  0.00     0.031 A 
ATOM     76  C   UNL A   1      43.436  24.175  26.211  1.00  0.00     0.131 A 
ATOM     77  C   UNL A   1      41.819  21.944  26.418  1.00  0.00     0.055 A 
ATOM     78  C   UNL A   1      43.540  23.158  25.262  1.00  0.00     0.041 A 
ATOM     79  F   UNL A   1      44.257  25.231  26.088  1.00  0.00    -0.206 F 
ATOM     80  C   UNL A   1      42.739  22.026  25.371  1.00  0.00     0.022 A 
BRANCH  77  81
ATOM     81  S   UNL A   1      40.859  20.425  26.668  1.00  0.00     0.124 S 
ATOM     82  O   UNL A   1      41.621  19.461  25.883  1.00  0.00    -0.237 OA
ATOM     83  O   UNL A   1      40.918  20.263  28.116  1.00  0.00    -0.237 OA
ATOM     84  O   UNL A   1      39.542  20.764  26.133  1.00  0.00    -0.744 OA
ENDBRANCH  77  81
ENDBRANCH  50  74
BRANCH  62  85
ATOM     85  C   UNL A   1      46.599  25.787  32.653  1.00  0.00     0.023 A 
ATOM     86  C   UNL A   1      47.860  25.923  32.045  1.00  0.00     0.031 A 
ATOM     87  C   UNL A   1      46.509  24.991  33.810  1.00  0.00     0.131 A 
ATOM     88  C   UNL A   1      48.960  25.214  32.549  1.00  0.00     0.055 A 
ATOM     89  C   UNL A   1      47.624  24.349  34.352  1.00  0.00     0.041 A 
ATOM     90  F   UNL A   1      45.332  24.820  34.433  1.00  0.00    -0.206 F 
ATOM     91  C   UNL A   1      48.854  24.444  33.711  1.00  0.00     0.022 A 
BRANCH  88  92
ATOM     92  S   UNL A   1      50.503  25.207  31.595  1.00  0.00     0.124 S 
ATOM     93  O   UNL A   1      51.294  26.215  32.292  1.00  0.00    -0.237 OA
ATOM     94  O   UNL A   1      50.955  23.827  31.744  1.00  0.00    -0.237 OA
ATOM     95  O   UNL A   1      50.074  25.577  30.247  1.00  0.00    -0.744 OA
ENDBRANCH  88  92
ENDBRANCH  62  85
ENDBRANCH  36  37
ENDBRANCH  28  31
ENDBRANCH  26  27
ENDBRANCH  25  26
ENDBRANCH   1  25
TORSDOF 18
ENDMDL
MODEL 2
REMARK VINA RESULT:     -10.5      4.340      8.262
REMARK SMILES C[C@@H](C(=O)NCCCCNC(=O)c1ccc(-c2c3nc(c(-c4cc(S(=O)(=O)[O-])ccc4F)c4ccc([nH]4)c(-c4cc(S(=O)(=O)[O-])ccc4F)c4nc(c(-c5cc(S(=O)(=O)[O-])ccc5F)c5ccc2[nH]5)C=C4)C=C3)cc1)c1cc(C(=O)c2ccccc2)ccc1O
REMARK SMILES IDX 7 1 6 2 5 3 3 4 4 5 2 7 1 8 76 9 77 10 89 11 78 12 88 13
REMARK SMILES IDX 87 14 90 15 79 17 80 18 81 19 82 20 86 21 83 22 85 23 84 24
REMARK SMILES IDX 8 25 9 26 10 27 11 28 12 30 13 31 14 32 75 33 15 34 74 35
REMARK SMILES IDX 16 36 17 37 18 38 68 39 19 40 73 41 67 42 69 43 20 44 72 45
REMARK SMILES IDX 66 46 65 47 21 49 53 50 33 51 52 52 34 53 37 54 51 55 70 56
REMARK SMILES IDX 35 57 36 58 50 60 71 61 38 62 22 63 23 64 31 65 24 66 30 67
REMARK SMILES IDX 32 68 29 69 25 70 26 71 27 72 28 73 54 74 55 75 63 76 56 77
REMARK SMILES IDX 62 78 64 79 61 80 57 81 58 82 59 83 60 84 39 85 40 86 48 87
REMARK SMILES IDX 41 88 47 89 49 90 46 91 42 92 43 93 44 94 45 95
REMARK H PARENT 5 6 90 16 10 29 69 48 37 59
REMARK Flexibility Score: inf
ROOT
ATOM      1  C   UNL A   1      32.706  27.513  26.264  1.00  0.00     0.023 C 
ENDROOT
BRANCH   1   2
ATOM      2  C   UNL A   1      31.286  26.979  26.081  1.00  0.00     0.116 C 
BRANCH   2   3
ATOM      3  N   UNL A   1      31.101  25.737  26.802  1.00  0.00    -0.356 N 
ATOM      4  C   UNL A   1      31.243  24.448  26.385  1.00  0.00     0.227 C 
ATOM      5  O   UNL A   1      30.955  23.570  27.201  1.00  0.00    -0.274 OA
ATOM      6  H   UNL A   1      30.828  25.840  27.742  1.00  0.00     0.163 HD
BRANCH   4   7
ATOM      7  C   UNL A   1      31.795  24.147  24.978  1.00  0.00     0.109 C 
ATOM      8  C   UNL A   1      30.694  23.837  23.958  1.00  0.00     0.023 C 
BRANCH   7   9
ATOM      9  C   UNL A   1      32.811  23.007  24.992  1.00  0.00     0.007 A 
ATOM     10  C   UNL A   1      32.433  21.762  24.438  1.00  0.00     0.020 A 
ATOM     11  C   UNL A   1      34.113  23.124  25.491  1.00  0.00     0.119 A 
ATOM     12  C   UNL A   1      33.313  20.676  24.390  1.00  0.00     0.023 A 
ATOM     13  C   UNL A   1      35.006  22.052  25.425  1.00  0.00     0.047 A 
ATOM     14  C   UNL A   1      34.614  20.834  24.870  1.00  0.00     0.016 A 
BRANCH  11  15
ATOM     15  O   UNL A   1      34.623  24.262  26.045  1.00  0.00    -0.508 OA
ATOM     16  H   UNL A   1      34.572  24.396  26.971  1.00  0.00     0.293 HD
ENDBRANCH  11  15
BRANCH  12  17
ATOM     17  C   UNL A   1      32.833  19.414  23.762  1.00  0.00     0.193 C 
ATOM     18  O   UNL A   1      32.156  19.458  22.737  1.00  0.00    -0.289 OA
BRANCH  17  19
ATOM     19  C   UNL A   1      33.202  18.089  24.309  1.00  0.00     0.022 A 
ATOM     20  C   UNL A   1      32.360  17.516  25.267  1.00  0.00     0.012 A 
ATOM     21  C   UNL A   1      34.360  17.419  23.899  1.00  0.00     0.012 A 
ATOM     22  C   UNL A   1      32.642  16.247  25.771  1.00  0.00     0.001 A 
ATOM     23  C   UNL A   1      34.636  16.147  24.403  1.00  0.00     0.001 A 
ATOM     24  C   UNL A   1      33.773  15.560  25.329  1.00  0.00     0.000 A 
ENDBRANCH  17  19
ENDBRANCH  12  17
ENDBRANCH   7   9
ENDBRANCH   4   7
ENDBRANCH   2   3
ENDBRANCH   1   2
BRANCH   1  25
ATOM     25  C   UNL A   1      32.813  28.732  27.184  1.00  0.00     0.023 C 
BRANCH  25  26
ATOM     26  C   UNL A   1      34.009  29.636  26.921  1.00  0.00     0.116 C 
BRANCH  26  27
ATOM     27  N   UNL A   1      33.827  30.972  27.463  1.00  0.00    -0.352 N 
ATOM     28  C   UNL A   1      34.583  31.636  28.397  1.00  0.00     0.251 C 
ATOM     29  H   UNL A   1      33.055  31.470  27.112  1.00  0.00     0.163 HD
ATOM     30  O   UNL A   1      34.171  32.700  28.858  1.00  0.00    -0.269 OA
BRANCH  28  31
ATOM     31  C   UNL A   1      35.863  31.061  28.862  1.00  0.00     0.039 A 
ATOM     32  C   UNL A   1      35.833  29.975  29.741  1.00  0.00     0.014 A 
ATOM     33  C   UNL A   1      37.088  31.589  28.446  1.00  0.00     0.014 A 
ATOM     34  C   UNL A   1      37.030  29.400  30.171  1.00  0.00     0.010 A 
ATOM     35  C   UNL A   1      38.277  30.959  28.805  1.00  0.00     0.010 A 
ATOM     36  C   UNL A   1      38.263  29.871  29.689  1.00  0.00    -0.014 A 
BRANCH  36  37
ATOM     37  C   UNL A   1      39.541  29.259  30.137  1.00  0.00     0.031 A 
ATOM     38  C   UNL A   1      40.234  29.779  31.370  1.00  0.00     0.074 A 
ATOM     39  C   UNL A   1      40.091  28.259  29.422  1.00  0.00     0.049 A 
ATOM     40  N   UNL A   1      41.355  29.386  31.918  1.00  0.00    -0.248 NA
ATOM     41  C   UNL A   1      39.596  30.911  32.059  1.00  0.00     0.031 C 
ATOM     42  C   UNL A   1      39.535  27.698  28.188  1.00  0.00     0.029 A 
ATOM     43  N   UNL A   1      41.235  27.530  29.629  1.00  0.00    -0.354 N 
ATOM     44  C   UNL A   1      41.564  30.230  33.005  1.00  0.00     0.074 A 
ATOM     45  C   UNL A   1      40.489  31.199  32.992  1.00  0.00     0.031 C 
ATOM     46  C   UNL A   1      40.313  26.684  27.777  1.00  0.00     0.029 A 
ATOM     47  C   UNL A   1      41.447  26.550  28.686  1.00  0.00     0.049 A 
ATOM     48  H   UNL A   1      41.848  27.692  30.383  1.00  0.00     0.167 HD
ATOM     49  C   UNL A   1      42.544  30.185  33.941  1.00  0.00     0.034 A 
ATOM     50  C   UNL A   1      42.441  25.649  28.567  1.00  0.00     0.034 A 
ATOM     51  C   UNL A   1      43.600  29.202  33.944  1.00  0.00     0.049 A 
ATOM     52  C   UNL A   1      43.534  25.633  29.608  1.00  0.00     0.074 A 
ATOM     53  C   UNL A   1      44.609  29.023  34.875  1.00  0.00     0.029 A 
ATOM     54  N   UNL A   1      43.792  28.236  32.963  1.00  0.00    -0.354 N 
ATOM     55  N   UNL A   1      43.682  26.398  30.666  1.00  0.00    -0.248 NA
ATOM     56  C   UNL A   1      44.585  24.622  29.445  1.00  0.00     0.031 C 
ATOM     57  C   UNL A   1      45.455  28.009  34.414  1.00  0.00     0.029 A 
ATOM     58  C   UNL A   1      44.924  27.486  33.246  1.00  0.00     0.049 A 
ATOM     59  H   UNL A   1      43.210  28.104  32.180  1.00  0.00     0.167 HD
ATOM     60  C   UNL A   1      44.821  25.927  31.317  1.00  0.00     0.074 A 
ATOM     61  C   UNL A   1      45.308  24.806  30.538  1.00  0.00     0.031 C 
ATOM     62  C   UNL A   1      45.407  26.376  32.458  1.00  0.00     0.034 A 
BRANCH  49  63
ATOM     63  C   UNL A   1      42.533  31.252  35.015  1.00  0.00     0.023 A 
ATOM     64  C   UNL A   1      43.136  32.508  34.821  1.00  0.00     0.031 A 
ATOM     65  C   UNL A   1      41.943  30.995  36.264  1.00  0.00     0.131 A 
ATOM     66  C   UNL A   1      43.210  33.422  35.883  1.00  0.00     0.055 A 
ATOM     67  C   UNL A   1      41.938  31.946  37.288  1.00  0.00     0.041 A 
ATOM     68  F   UNL A   1      41.373  29.807  36.522  1.00  0.00    -0.206 F 
ATOM     69  C   UNL A   1      42.590  33.162  37.107  1.00  0.00     0.022 A 
BRANCH  66  70
ATOM     70  S   UNL A   1      44.273  34.881  35.697  1.00  0.00     0.124 S 
ATOM     71  O   UNL A   1      43.851  35.700  36.830  1.00  0.00    -0.237 OA
ATOM     72  O   UNL A   1      45.611  34.309  35.784  1.00  0.00    -0.237 OA
ATOM     73  O   UNL A   1      43.904  35.410  34.384  1.00  0.00    -0.744 OA
ENDBRANCH  66  70
ENDBRANCH  49  63
BRANCH  50  74
ATOM     74  C   UNL A   1      42.456  24.676  27.436  1.00  0.00     0.023 A 
ATOM     75  C   UNL A   1      41.630  23.539  27.451  1.00  0.00     0.031 A 
ATOM     76  C   UNL A   1      43.330  24.838  26.347  1.00  0.00     0.131 A 
ATOM     77  C   UNL A   1      41.736  22.583  26.429  1.00  0.00     0.055 A 
ATOM     78  C   UNL A   1      43.388  23.915  25.303  1.00  0.00     0.041 A 
ATOM     79  F   UNL A   1      44.139  25.908  26.280  1.00  0.00    -0.206 F 
ATOM     80  C   UNL A   1      42.598  22.771  25.347  1.00  0.00     0.022 A 
BRANCH  77  81
ATOM     81  S   UNL A   1      40.797  21.039  26.585  1.00  0.00     0.124 S 
ATOM     82  O   UNL A   1      41.615  20.116  25.808  1.00  0.00    -0.237 OA
ATOM     83  O   UNL A   1      40.791  20.833  28.029  1.00  0.00    -0.237 OA
ATOM     84  O   UNL A   1      39.500  21.370  26.000  1.00  0.00    -0.744 OA
ENDBRANCH  77  81
ENDBRANCH  50  74
BRANCH  62  85
ATOM     85  C   UNL A   1      46.609  25.608  32.959  1.00  0.00     0.023 A 
ATOM     86  C   UNL A   1      47.906  25.856  32.480  1.00  0.00     0.031 A 
ATOM     87  C   UNL A   1      46.445  24.590  33.916  1.00  0.00     0.131 A 
ATOM     88  C   UNL A   1      48.974  25.049  32.898  1.00  0.00     0.055 A 
ATOM     89  C   UNL A   1      47.523  23.839  34.386  1.00  0.00     0.041 A 
ATOM     90  F   UNL A   1      45.229  24.302  34.409  1.00  0.00    -0.206 F 
ATOM     91  C   UNL A   1      48.794  24.055  33.864  1.00  0.00     0.022 A 
BRANCH  88  92
ATOM     92  S   UNL A   1      50.578  25.228  32.070  1.00  0.00     0.124 S 
ATOM     93  O   UNL A   1      51.416  25.754  33.143  1.00  0.00    -0.237 OA
ATOM     94  O   UNL A   1      50.866  23.860  31.650  1.00  0.00    -0.237 OA
ATOM     95  O   UNL A   1      50.301  26.165  30.983  1.00  0.00    -0.744 OA
ENDBRANCH  88  92
ENDBRANCH  62  85
ENDBRANCH  36  37
ENDBRANCH  28  31
ENDBRANCH  26  27
ENDBRANCH  25  26
ENDBRANCH   1  25
TORSDOF 18
ENDMDL
MODEL 3
REMARK VINA RESULT:     -10.5      4.412     10.741
REMARK SMILES C[C@@H](C(=O)NCCCCNC(=O)c1ccc(-c2c3nc(c(-c4cc(S(=O)(=O)[O-])ccc4F)c4ccc([nH]4)c(-c4cc(S(=O)(=O)[O-])ccc4F)c4nc(c(-c5cc(S(=O)(=O)[O-])ccc5F)c5ccc2[nH]5)C=C4)C=C3)cc1)c1cc(C(=O)c2ccccc2)ccc1O
REMARK SMILES IDX 7 1 6 2 5 3 3 4 4 5 2 7 1 8 76 9 77 10 89 11 78 12 88 13
REMARK SMILES IDX 87 14 90 15 79 17 80 18 81 19 82 20 86 21 83 22 85 23 84 24
REMARK SMILES IDX 8 25 9 26 10 27 11 28 12 30 13 31 14 32 75 33 15 34 74 35
REMARK SMILES IDX 16 36 17 37 18 38 68 39 19 40 73 41 67 42 69 43 20 44 72 45
REMARK SMILES IDX 66 46 65 47 21 49 53 50 33 51 52 52 34 53 37 54 51 55 70 56
REMARK SMILES IDX 35 57 36 58 50 60 71 61 38 62 22 63 23 64 31 65 24 66 30 67
REMARK SMILES IDX 32 68 29 69 25 70 26 71 27 72 28 73 54 74 55 75 63 76 56 77
REMARK SMILES IDX 62 78 64 79 61 80 57 81 58 82 59 83 60 84 39 85 40 86 48 87
REMARK SMILES IDX 41 88 47 89 49 90 46 91 42 92 43 93 44 94 45 95
REMARK H PARENT 5 6 90 16 10 29 69 48 37 59
REMARK Flexibility Score: inf
ROOT
ATOM      1  C   UNL A   1      31.400  31.288  26.388  1.00  0.00     0.023 C 
ENDROOT
BRANCH   1   2
ATOM      2  C   UNL A   1      32.457  30.404  27.048  1.00  0.00     0.116 C 
BRANCH   2   3
ATOM      3  N   UNL A   1      31.880  29.159  27.509  1.00  0.00    -0.356 N 
ATOM      4  C   UNL A   1      31.999  27.896  27.012  1.00  0.00     0.227 C 
ATOM      5  O   UNL A   1      31.339  27.019  27.571  1.00  0.00    -0.274 OA
ATOM      6  H   UNL A   1      31.311  29.237  28.308  1.00  0.00     0.163 HD
BRANCH   4   7
ATOM      7  C   UNL A   1      32.967  27.613  25.846  1.00  0.00     0.109 C 
ATOM      8  C   UNL A   1      34.027  28.707  25.672  1.00  0.00     0.023 C 
BRANCH   7   9
ATOM      9  C   UNL A   1      32.229  27.406  24.526  1.00  0.00     0.007 A 
ATOM     10  C   UNL A   1      30.943  27.973  24.377  1.00  0.00     0.020 A 
ATOM     11  C   UNL A   1      32.761  26.713  23.432  1.00  0.00     0.119 A 
ATOM     12  C   UNL A   1      30.213  27.850  23.189  1.00  0.00     0.023 A 
ATOM     13  C   UNL A   1      32.050  26.606  22.235  1.00  0.00     0.047 A 
ATOM     14  C   UNL A   1      30.783  27.178  22.108  1.00  0.00     0.016 A 
BRANCH  11  15
ATOM     15  O   UNL A   1      33.991  26.121  23.422  1.00  0.00    -0.508 OA
ATOM     16  H   UNL A   1      34.081  25.224  23.676  1.00  0.00     0.293 HD
ENDBRANCH  11  15
BRANCH  12  17
ATOM     17  C   UNL A   1      28.879  28.506  23.118  1.00  0.00     0.193 C 
ATOM     18  O   UNL A   1      27.868  27.875  23.418  1.00  0.00    -0.289 OA
BRANCH  17  19
ATOM     19  C   UNL A   1      28.737  29.933  22.750  1.00  0.00     0.022 A 
ATOM     20  C   UNL A   1      28.958  30.893  23.743  1.00  0.00     0.012 A 
ATOM     21  C   UNL A   1      28.385  30.329  21.455  1.00  0.00     0.012 A 
ATOM     22  C   UNL A   1      28.886  32.249  23.427  1.00  0.00     0.001 A 
ATOM     23  C   UNL A   1      28.318  31.687  21.142  1.00  0.00     0.001 A 
ATOM     24  C   UNL A   1      28.578  32.644  22.125  1.00  0.00     0.000 A 
ENDBRANCH  17  19
ENDBRANCH  12  17
ENDBRANCH   7   9
ENDBRANCH   4   7
ENDBRANCH   2   3
ENDBRANCH   1   2
BRANCH   1  25
ATOM     25  C   UNL A   1      31.651  32.792  26.530  1.00  0.00     0.023 C 
BRANCH  25  26
ATOM     26  C   UNL A   1      32.677  33.179  27.586  1.00  0.00     0.116 C 
BRANCH  26  27
ATOM     27  N   UNL A   1      32.617  34.589  27.930  1.00  0.00    -0.352 N 
ATOM     28  C   UNL A   1      33.330  35.277  28.880  1.00  0.00     0.251 C 
ATOM     29  H   UNL A   1      31.978  35.125  27.409  1.00  0.00     0.163 HD
ATOM     30  O   UNL A   1      33.017  36.438  29.142  1.00  0.00    -0.269 OA
BRANCH  28  31
ATOM     31  C   UNL A   1      34.442  34.618  29.598  1.00  0.00     0.039 A 
ATOM     32  C   UNL A   1      34.183  34.022  30.835  1.00  0.00     0.014 A 
ATOM     33  C   UNL A   1      35.734  34.592  29.066  1.00  0.00     0.014 A 
ATOM     34  C   UNL A   1      35.212  33.370  31.516  1.00  0.00     0.010 A 
ATOM     35  C   UNL A   1      36.736  33.867  29.705  1.00  0.00     0.010 A 
ATOM     36  C   UNL A   1      36.493  33.266  30.947  1.00  0.00    -0.014 A 
BRANCH  36  37
ATOM     37  C   UNL A   1      37.592  32.568  31.664  1.00  0.00     0.031 A 
ATOM     38  C   UNL A   1      38.330  31.437  30.994  1.00  0.00     0.074 A 
ATOM     39  C   UNL A   1      37.907  32.929  32.923  1.00  0.00     0.049 A 
ATOM     40  N   UNL A   1      39.310  30.701  31.451  1.00  0.00    -0.248 NA
ATOM     41  C   UNL A   1      37.885  31.068  29.641  1.00  0.00     0.031 C 
ATOM     42  C   UNL A   1      37.237  33.981  33.691  1.00  0.00     0.029 A 
ATOM     43  N   UNL A   1      38.872  32.460  33.778  1.00  0.00    -0.354 N 
ATOM     44  C   UNL A   1      39.588  29.773  30.451  1.00  0.00     0.074 A 
ATOM     45  C   UNL A   1      38.624  29.998  29.396  1.00  0.00     0.031 C 
ATOM     46  C   UNL A   1      37.842  34.109  34.883  1.00  0.00     0.029 A 
ATOM     47  C   UNL A   1      38.911  33.119  34.985  1.00  0.00     0.049 A 
ATOM     48  H   UNL A   1      39.482  31.722  33.548  1.00  0.00     0.167 HD
ATOM     49  C   UNL A   1      40.571  28.841  30.406  1.00  0.00     0.034 A 
ATOM     50  C   UNL A   1      39.714  32.945  36.053  1.00  0.00     0.034 A 
ATOM     51  C   UNL A   1      41.531  28.641  31.465  1.00  0.00     0.049 A 
ATOM     52  C   UNL A   1      40.786  31.884  35.989  1.00  0.00     0.074 A 
ATOM     53  C   UNL A   1      42.605  27.769  31.501  1.00  0.00     0.029 A 
ATOM     54  N   UNL A   1      41.528  29.315  32.681  1.00  0.00    -0.354 N 
ATOM     55  N   UNL A   1      41.077  31.058  35.010  1.00  0.00    -0.248 NA
ATOM     56  C   UNL A   1      41.646  31.745  37.170  1.00  0.00     0.031 C 
ATOM     57  C   UNL A   1      43.197  27.855  32.766  1.00  0.00     0.029 A 
ATOM     58  C   UNL A   1      42.556  28.850  33.487  1.00  0.00     0.049 A 
ATOM     59  H   UNL A   1      40.888  30.020  32.934  1.00  0.00     0.167 HD
ATOM     60  C   UNL A   1      42.184  30.331  35.444  1.00  0.00     0.074 A 
ATOM     61  C   UNL A   1      42.512  30.830  36.764  1.00  0.00     0.031 C 
ATOM     62  C   UNL A   1      42.870  29.347  34.807  1.00  0.00     0.034 A 
BRANCH  49  63
ATOM     63  C   UNL A   1      40.629  27.946  29.187  1.00  0.00     0.023 A 
ATOM     64  C   UNL A   1      41.591  28.127  28.176  1.00  0.00     0.031 A 
ATOM     65  C   UNL A   1      39.686  26.918  29.015  1.00  0.00     0.131 A 
ATOM     66  C   UNL A   1      41.534  27.354  27.007  1.00  0.00     0.055 A 
ATOM     67  C   UNL A   1      39.691  26.090  27.890  1.00  0.00     0.041 A 
ATOM     68  F   UNL A   1      38.726  26.709  29.931  1.00  0.00    -0.206 F 
ATOM     69  C   UNL A   1      40.608  26.318  26.868  1.00  0.00     0.022 A 
BRANCH  66  70
ATOM     70  S   UNL A   1      42.574  27.835  25.599  1.00  0.00     0.124 S 
ATOM     71  O   UNL A   1      41.813  28.948  25.037  1.00  0.00    -0.237 OA
ATOM     72  O   UNL A   1      43.834  28.183  26.245  1.00  0.00    -0.237 OA
ATOM     73  O   UNL A   1      42.608  26.631  24.771  1.00  0.00    -0.744 OA
ENDBRANCH  66  70
ENDBRANCH  49  63
BRANCH  50  74
ATOM     74  C   UNL A   1      39.557  33.793  37.271  1.00  0.00     0.023 A 
ATOM     75  C   UNL A   1      38.867  33.317  38.398  1.00  0.00     0.031 A 
ATOM     76  C   UNL A   1      40.050  35.109  37.310  1.00  0.00     0.131 A 
ATOM     77  C   UNL A   1      38.640  34.168  39.491  1.00  0.00     0.055 A 
ATOM     78  C   UNL A   1      39.874  35.931  38.423  1.00  0.00     0.041 A 
ATOM     79  F   UNL A   1      40.720  35.614  36.261  1.00  0.00    -0.206 F 
ATOM     80  C   UNL A   1      39.152  35.466  39.518  1.00  0.00     0.022 A 
BRANCH  77  81
ATOM     81  S   UNL A   1      37.579  33.581  40.841  1.00  0.00     0.124 S 
ATOM     82  O   UNL A   1      36.439  33.045  40.108  1.00  0.00    -0.237 OA
ATOM     83  O   UNL A   1      38.439  32.602  41.498  1.00  0.00    -0.237 OA
ATOM     84  O   UNL A   1      37.313  34.791  41.614  1.00  0.00    -0.744 OA
ENDBRANCH  77  81
ENDBRANCH  50  74
BRANCH  62  85
ATOM     85  C   UNL A   1      44.085  28.790  35.514  1.00  0.00     0.023 A 
ATOM     86  C   UNL A   1      43.993  27.725  36.427  1.00  0.00     0.031 A 
ATOM     87  C   UNL A   1      45.352  29.355  35.289  1.00  0.00     0.131 A 
ATOM     88  C   UNL A   1      45.130  27.310  37.136  1.00  0.00     0.055 A 
ATOM     89  C   UNL A   1      46.495  28.888  35.940  1.00  0.00     0.041 A 
ATOM     90  F   UNL A   1      45.504  30.378  34.431  1.00  0.00    -0.206 F 
ATOM     91  C   UNL A   1      46.385  27.871  36.883  1.00  0.00     0.022 A 
BRANCH  88  92
ATOM     92  S   UNL A   1      44.927  26.116  38.486  1.00  0.00     0.124 S 
ATOM     93  O   UNL A   1      46.179  26.273  39.219  1.00  0.00    -0.237 OA
ATOM     94  O   UNL A   1      43.729  26.607  39.159  1.00  0.00    -0.237 OA
ATOM     95  O   UNL A   1      44.770  24.838  37.794  1.00  0.00    -0.744 OA
ENDBRANCH  88  92
ENDBRANCH  62  85
ENDBRANCH  36  37
ENDBRANCH  28  31
ENDBRANCH  26  27
ENDBRANCH  25  26
ENDBRANCH   1  25
TORSDOF 18
ENDMDL
