MODEL 1
REMARK VINA RESULT:     -13.3      0.000      0.000
REMARK SMILES COc1cccc([C@@H]2CC(c3cccc(C)c3)=NN2C(=O)CCC(=O)NCCCCNC(=O)c2ccc(-c3c4nc(c(-c5cc(S(=O)(=O)[O-])ccc5F)c5ccc([nH]5)c(-c5cc(S(=O)(=O)[O-])ccc5F)c5nc(c(-c6cc(S(=O)(=O)[O-])ccc6F)c6ccc3[nH]6)C=C5)C=C4)cc2)c1
REMARK SMILES IDX 27 1 26 2 24 3 25 4 23 6 22 7 20 8 21 9 19 10 8 11 9 12
REMARK SMILES IDX 10 13 18 14 7 15 3 16 4 17 97 18 5 19 6 20 2 21 1 22 11 23
REMARK SMILES IDX 12 24 17 25 13 26 15 27 14 28 16 29 28 30 29 31 30 32 31 33
REMARK SMILES IDX 32 34 33 36 34 37 35 38 96 39 36 40 95 41 37 42 38 43 39 44
REMARK SMILES IDX 89 45 40 46 94 47 88 48 90 49 41 50 93 51 87 52 86 53 42 55
REMARK SMILES IDX 74 56 54 57 73 58 55 59 58 60 72 61 91 62 56 63 57 64 71 66
REMARK SMILES IDX 92 67 59 68 43 69 44 70 52 71 45 72 51 73 53 74 50 75 46 76
REMARK SMILES IDX 47 77 48 78 49 79 75 80 76 81 84 82 77 83 83 84 85 85 82 86
REMARK SMILES IDX 78 87 79 88 80 89 81 90 60 91 61 92 69 93 62 94 68 95 70 96
REMARK SMILES IDX 67 97 63 98 64 99 65 100 66 101
REMARK H PARENT 26 5 31 35 90 54 58 65
REMARK Flexibility Score: inf
ROOT
ATOM      1  C   UNL A   1      36.496  30.582  28.639  1.00  0.00     0.116 C 
ENDROOT
BRANCH   1   2
ATOM      2  N   UNL A   1      35.325  31.639  28.388  1.00  0.00    -0.356 N 
ATOM      3  C   UNL A   1      34.121  31.594  27.765  1.00  0.00     0.220 C 
ATOM      4  O   UNL A   1      33.499  32.658  27.688  1.00  0.00    -0.275 OA
ATOM      5  H   UNL A   1      35.523  32.524  28.772  1.00  0.00     0.163 HD
BRANCH   3   6
ATOM      6  C   UNL A   1      33.560  30.311  27.199  1.00  0.00     0.110 C 
BRANCH   6   7
ATOM      7  C   UNL A   1      32.056  30.199  26.932  1.00  0.00     0.112 C 
BRANCH   7   8
ATOM      8  C   UNL A   1      31.531  28.760  26.982  1.00  0.00     0.243 C 
ATOM      9  O   UNL A   1      31.057  28.299  28.017  1.00  0.00    -0.273 OA
BRANCH   8  10
ATOM     10  N   UNL A   1      31.821  28.014  25.817  1.00  0.00    -0.225 N 
ATOM     11  C   UNL A   1      31.930  28.858  24.151  1.00  0.00     0.147 C 
ATOM     12  C   UNL A   1      33.634  28.019  23.383  1.00  0.00     0.091 C 
ATOM     13  C   UNL A   1      33.986  26.453  24.793  1.00  0.00     0.071 C 
ATOM     14  N   UNL A   1      33.019  26.634  26.012  1.00  0.00    -0.174 NA
BRANCH  11  15
ATOM     15  C   UNL A   1      30.393  28.793  23.663  1.00  0.00    -0.019 A 
ATOM     16  C   UNL A   1      28.253  29.846  23.195  1.00  0.00     0.119 A 
ATOM     17  C   UNL A   1      27.617  28.601  23.164  1.00  0.00     0.046 A 
ATOM     18  C   UNL A   1      29.639  29.951  23.432  1.00  0.00     0.052 A 
ATOM     19  C   UNL A   1      28.346  27.443  23.352  1.00  0.00     0.004 A 
ATOM     20  C   UNL A   1      29.707  27.543  23.610  1.00  0.00     0.006 A 
BRANCH  16  21
ATOM     21  O   UNL A   1      27.390  30.900  23.059  1.00  0.00    -0.497 OA
ATOM     22  C   UNL A   1      27.985  32.132  22.688  1.00  0.00     0.278 C 
ENDBRANCH  16  21
ENDBRANCH  11  15
BRANCH  13  23
ATOM     23  C   UNL A   1      34.500  24.800  24.670  1.00  0.00    -0.002 A 
ATOM     24  C   UNL A   1      34.573  24.244  23.410  1.00  0.00     0.010 A 
ATOM     25  C   UNL A   1      35.077  23.913  25.690  1.00  0.00     0.013 A 
ATOM     26  C   UNL A   1      35.176  22.980  23.276  1.00  0.00     0.001 A 
ATOM     27  C   UNL A   1      35.086  22.443  25.820  1.00  0.00    -0.050 A 
ATOM     28  C   UNL A   1      35.453  22.135  24.410  1.00  0.00     0.003 A 
ATOM     29  C   UNL A   1      34.079  21.280  27.307  1.00  0.00     0.044 C 
ENDBRANCH  13  23
ENDBRANCH   8  10
ENDBRANCH   7   8
ENDBRANCH   6   7
ENDBRANCH   3   6
ENDBRANCH   1   2
BRANCH   1  30
ATOM     30  C   UNL A   1      37.224  29.723  30.561  1.00  0.00     0.023 C 
BRANCH  30  31
ATOM     31  C   UNL A   1      36.434  30.457  32.137  1.00  0.00     0.023 C 
BRANCH  31  32
ATOM     32  C   UNL A   1      35.541  32.036  32.063  1.00  0.00     0.116 C 
BRANCH  32  33
ATOM     33  N   UNL A   1      36.094  33.416  32.743  1.00  0.00    -0.352 N 
ATOM     34  C   UNL A   1      37.297  33.951  33.322  1.00  0.00     0.251 C 
ATOM     35  H   UNL A   1      35.381  34.094  32.760  1.00  0.00     0.163 HD
ATOM     36  O   UNL A   1      37.260  34.975  33.996  1.00  0.00    -0.269 OA
BRANCH  34  37
ATOM     37  C   UNL A   1      38.588  33.244  33.101  1.00  0.00     0.039 A 
ATOM     38  C   UNL A   1      39.521  31.975  34.091  1.00  0.00     0.014 A 
ATOM     39  C   UNL A   1      38.900  33.397  31.329  1.00  0.00     0.014 A 
ATOM     40  C   UNL A   1      40.788  30.912  33.217  1.00  0.00     0.010 A 
ATOM     41  C   UNL A   1      39.978  32.267  30.484  1.00  0.00     0.010 A 
ATOM     42  C   UNL A   1      40.965  31.061  31.375  1.00  0.00    -0.014 A 
BRANCH  42  43
ATOM     43  C   UNL A   1      42.069  30.681  30.381  1.00  0.00     0.031 A 
ATOM     44  C   UNL A   1      42.011  29.318  29.630  1.00  0.00     0.074 A 
ATOM     45  C   UNL A   1      43.319  31.153  30.604  1.00  0.00     0.049 A 
ATOM     46  N   UNL A   1      42.951  28.657  28.978  1.00  0.00    -0.248 NA
ATOM     47  C   UNL A   1      40.762  28.554  29.705  1.00  0.00     0.031 C 
ATOM     48  C   UNL A   1      43.667  32.235  31.522  1.00  0.00     0.029 A 
ATOM     49  N   UNL A   1      44.546  30.719  30.135  1.00  0.00    -0.354 N 
ATOM     50  C   UNL A   1      42.374  27.447  28.567  1.00  0.00     0.074 A 
ATOM     51  C   UNL A   1      41.072  27.393  29.164  1.00  0.00     0.031 C 
ATOM     52  C   UNL A   1      45.003  32.393  31.538  1.00  0.00     0.029 A 
ATOM     53  C   UNL A   1      45.622  31.413  30.645  1.00  0.00     0.049 A 
ATOM     54  H   UNL A   1      44.643  29.980  29.492  1.00  0.00     0.167 HD
ATOM     55  C   UNL A   1      42.823  26.468  27.738  1.00  0.00     0.034 A 
ATOM     56  C   UNL A   1      46.950  31.294  30.422  1.00  0.00     0.034 A 
ATOM     57  C   UNL A   1      44.159  26.419  27.216  1.00  0.00     0.049 A 
ATOM     58  C   UNL A   1      47.480  30.238  29.476  1.00  0.00     0.074 A 
ATOM     59  C   UNL A   1      44.708  25.544  26.296  1.00  0.00     0.029 A 
ATOM     60  N   UNL A   1      45.180  27.253  27.637  1.00  0.00    -0.354 N 
ATOM     61  N   UNL A   1      46.837  29.266  28.872  1.00  0.00    -0.248 NA
ATOM     62  C   UNL A   1      48.919  30.282  29.170  1.00  0.00     0.031 C 
ATOM     63  C   UNL A   1      46.082  25.798  26.222  1.00  0.00     0.029 A 
ATOM     64  C   UNL A   1      46.368  26.886  27.032  1.00  0.00     0.049 A 
ATOM     65  H   UNL A   1      45.077  27.998  28.272  1.00  0.00     0.167 HD
ATOM     66  C   UNL A   1      47.786  28.617  28.078  1.00  0.00     0.074 A 
ATOM     67  C   UNL A   1      49.042  29.303  28.285  1.00  0.00     0.031 C 
ATOM     68  C   UNL A   1      47.625  27.559  27.243  1.00  0.00     0.034 A 
BRANCH  55  69
ATOM     69  C   UNL A   1      41.834  25.378  27.343  1.00  0.00     0.023 A 
ATOM     70  C   UNL A   1      42.068  24.033  27.698  1.00  0.00     0.031 A 
ATOM     71  C   UNL A   1      40.685  25.654  26.582  1.00  0.00     0.131 A 
ATOM     72  C   UNL A   1      41.238  23.013  27.207  1.00  0.00     0.055 A 
ATOM     73  C   UNL A   1      39.809  24.643  26.175  1.00  0.00     0.041 A 
ATOM     74  F   UNL A   1      40.406  26.909  26.195  1.00  0.00    -0.206 F 
ATOM     75  C   UNL A   1      40.093  23.311  26.469  1.00  0.00     0.022 A 
BRANCH  72  76
ATOM     76  S   UNL A   1      41.777  21.291  27.404  1.00  0.00     0.124 S 
ATOM     77  O   UNL A   1      40.634  20.704  28.100  1.00  0.00    -0.237 OA
ATOM     78  O   UNL A   1      41.975  20.863  26.023  1.00  0.00    -0.237 OA
ATOM     79  O   UNL A   1      42.994  21.403  28.204  1.00  0.00    -0.744 OA
ENDBRANCH  72  76
ENDBRANCH  55  69
BRANCH  56  80
ATOM     80  C   UNL A   1      47.897  32.275  31.033  1.00  0.00     0.023 A 
ATOM     81  C   UNL A   1      48.219  33.458  30.346  1.00  0.00     0.031 A 
ATOM     82  C   UNL A   1      48.497  32.054  32.283  1.00  0.00     0.131 A 
ATOM     83  C   UNL A   1      49.137  34.364  30.898  1.00  0.00     0.055 A 
ATOM     84  C   UNL A   1      49.381  32.978  32.846  1.00  0.00     0.041 A 
ATOM     85  F   UNL A   1      48.217  30.943  32.982  1.00  0.00    -0.206 F 
ATOM     86  C   UNL A   1      49.711  34.139  32.149  1.00  0.00     0.022 A 
BRANCH  83  87
ATOM     87  S   UNL A   1      49.598  35.827  29.930  1.00  0.00     0.124 S 
ATOM     88  O   UNL A   1      50.601  35.281  29.024  1.00  0.00    -0.237 OA
ATOM     89  O   UNL A   1      48.325  36.204  29.325  1.00  0.00    -0.237 OA
ATOM     90  O   UNL A   1      50.104  36.756  30.937  1.00  0.00    -0.744 OA
ENDBRANCH  83  87
ENDBRANCH  56  80
BRANCH  68  91
ATOM     91  C   UNL A   1      48.816  27.102  26.441  1.00  0.00     0.023 A 
ATOM     92  C   UNL A   1      49.171  27.708  25.224  1.00  0.00     0.031 A 
ATOM     93  C   UNL A   1      49.618  26.048  26.915  1.00  0.00     0.131 A 
ATOM     94  C   UNL A   1      50.268  27.221  24.497  1.00  0.00     0.055 A 
ATOM     95  C   UNL A   1      50.741  25.605  26.215  1.00  0.00     0.041 A 
ATOM     96  F   UNL A   1      49.327  25.436  28.074  1.00  0.00    -0.206 F 
ATOM     97  C   UNL A   1      51.063  26.184  24.992  1.00  0.00     0.022 A 
BRANCH  94  98
ATOM     98  S   UNL A   1      50.594  27.907  22.850  1.00  0.00     0.124 S 
ATOM     99  O   UNL A   1      51.410  26.861  22.242  1.00  0.00    -0.237 OA
ATOM    100  O   UNL A   1      49.249  28.062  22.305  1.00  0.00    -0.237 OA
ATOM    101  O   UNL A   1      51.297  29.158  23.131  1.00  0.00    -0.744 OA
ENDBRANCH  94  98
ENDBRANCH  68  91
ENDBRANCH  42  43
ENDBRANCH  34  37
ENDBRANCH  32  33
ENDBRANCH  31  32
ENDBRANCH  30  31
ENDBRANCH   1  30
TORSDOF 20
ENDMDL
MODEL 2
REMARK VINA RESULT:     -12.6      5.141     11.092
REMARK SMILES COc1cccc([C@@H]2CC(c3cccc(C)c3)=NN2C(=O)CCC(=O)NCCCCNC(=O)c2ccc(-c3c4nc(c(-c5cc(S(=O)(=O)[O-])ccc5F)c5ccc([nH]5)c(-c5cc(S(=O)(=O)[O-])ccc5F)c5nc(c(-c6cc(S(=O)(=O)[O-])ccc6F)c6ccc3[nH]6)C=C5)C=C4)cc2)c1
REMARK SMILES IDX 27 1 26 2 24 3 25 4 23 6 22 7 20 8 21 9 19 10 8 11 9 12
REMARK SMILES IDX 10 13 18 14 7 15 3 16 4 17 97 18 5 19 6 20 2 21 1 22 11 23
REMARK SMILES IDX 12 24 17 25 13 26 15 27 14 28 16 29 28 30 29 31 30 32 31 33
REMARK SMILES IDX 32 34 33 36 34 37 35 38 96 39 36 40 95 41 37 42 38 43 39 44
REMARK SMILES IDX 89 45 40 46 94 47 88 48 90 49 41 50 93 51 87 52 86 53 42 55
REMARK SMILES IDX 74 56 54 57 73 58 55 59 58 60 72 61 91 62 56 63 57 64 71 66
REMARK SMILES IDX 92 67 59 68 43 69 44 70 52 71 45 72 51 73 53 74 50 75 46 76
REMARK SMILES IDX 47 77 48 78 49 79 75 80 76 81 84 82 77 83 83 84 85 85 82 86
REMARK SMILES IDX 78 87 79 88 80 89 81 90 60 91 61 92 69 93 62 94 68 95 70 96
REMARK SMILES IDX 67 97 63 98 64 99 65 100 66 101
REMARK H PARENT 26 5 31 35 90 54 58 65
REMARK Flexibility Score: inf
ROOT
ATOM      1  C   UNL A   1      43.627  27.270  31.919  1.00  0.00     0.116 C 
ENDROOT
BRANCH   1   2
ATOM      2  N   UNL A   1      42.706  27.157  33.218  1.00  0.00    -0.356 N 
ATOM      3  C   UNL A   1      41.641  27.851  33.694  1.00  0.00     0.220 C 
ATOM      4  O   UNL A   1      41.223  27.525  34.808  1.00  0.00    -0.275 OA
ATOM      5  H   UNL A   1      42.972  26.415  33.809  1.00  0.00     0.163 HD
BRANCH   3   6
ATOM      6  C   UNL A   1      40.991  28.960  32.902  1.00  0.00     0.110 C 
BRANCH   6   7
ATOM      7  C   UNL A   1      40.681  28.745  31.418  1.00  0.00     0.112 C 
BRANCH   7   8
ATOM      8  C   UNL A   1      39.215  28.395  31.143  1.00  0.00     0.243 C 
ATOM      9  O   UNL A   1      38.416  28.264  32.068  1.00  0.00    -0.273 OA
BRANCH   8  10
ATOM     10  N   UNL A   1      38.956  28.069  29.793  1.00  0.00    -0.225 N 
ATOM     11  C   UNL A   1      39.266  29.321  28.438  1.00  0.00     0.147 C 
ATOM     12  C   UNL A   1      40.229  28.174  27.039  1.00  0.00     0.091 C 
ATOM     13  C   UNL A   1      39.930  26.218  27.844  1.00  0.00     0.071 C 
ATOM     14  N   UNL A   1      39.332  26.342  29.287  1.00  0.00    -0.174 NA
BRANCH  11  15
ATOM     15  C   UNL A   1      37.851  30.096  28.395  1.00  0.00    -0.019 A 
ATOM     16  C   UNL A   1      35.584  30.362  27.558  1.00  0.00     0.119 A 
ATOM     17  C   UNL A   1      35.526  31.668  28.055  1.00  0.00     0.046 A 
ATOM     18  C   UNL A   1      36.735  29.566  27.733  1.00  0.00     0.052 A 
ATOM     19  C   UNL A   1      36.600  32.199  28.743  1.00  0.00     0.004 A 
ATOM     20  C   UNL A   1      37.744  31.427  28.897  1.00  0.00     0.006 A 
BRANCH  16  21
ATOM     21  O   UNL A   1      34.473  30.002  26.844  1.00  0.00    -0.497 OA
ATOM     22  C   UNL A   1      33.895  28.758  27.201  1.00  0.00     0.278 C 
ENDBRANCH  16  21
ENDBRANCH  11  15
BRANCH  13  23
ATOM     23  C   UNL A   1      39.543  24.669  27.162  1.00  0.00    -0.002 A 
ATOM     24  C   UNL A   1      38.230  24.433  26.813  1.00  0.00     0.010 A 
ATOM     25  C   UNL A   1      40.431  23.596  26.694  1.00  0.00     0.013 A 
ATOM     26  C   UNL A   1      37.936  23.270  26.079  1.00  0.00     0.001 A 
ATOM     27  C   UNL A   1      40.228  22.140  26.569  1.00  0.00    -0.050 A 
ATOM     28  C   UNL A   1      38.884  22.194  25.929  1.00  0.00     0.003 A 
ATOM     29  C   UNL A   1      41.190  20.606  27.710  1.00  0.00     0.044 C 
ENDBRANCH  13  23
ENDBRANCH   8  10
ENDBRANCH   7   8
ENDBRANCH   6   7
ENDBRANCH   3   6
ENDBRANCH   1   2
BRANCH   1  30
ATOM     30  C   UNL A   1      43.169  26.690  29.818  1.00  0.00     0.023 C 
BRANCH  30  31
ATOM     31  C   UNL A   1      43.049  24.812  29.495  1.00  0.00     0.023 C 
BRANCH  31  32
ATOM     32  C   UNL A   1      43.848  24.081  28.038  1.00  0.00     0.116 C 
BRANCH  32  33
ATOM     33  N   UNL A   1      45.465  24.076  27.806  1.00  0.00    -0.352 N 
ATOM     34  C   UNL A   1      46.562  24.999  27.685  1.00  0.00     0.251 C 
ATOM     35  H   UNL A   1      45.793  23.151  27.725  1.00  0.00     0.163 HD
ATOM     36  O   UNL A   1      47.639  24.628  27.232  1.00  0.00    -0.269 OA
BRANCH  34  37
ATOM     37  C   UNL A   1      46.372  26.413  28.109  1.00  0.00     0.039 A 
ATOM     38  C   UNL A   1      46.848  27.349  29.645  1.00  0.00     0.014 A 
ATOM     39  C   UNL A   1      46.063  27.315  26.575  1.00  0.00     0.014 A 
ATOM     40  C   UNL A   1      46.961  29.214  29.558  1.00  0.00     0.010 A 
ATOM     41  C   UNL A   1      46.341  29.066  26.467  1.00  0.00     0.010 A 
ATOM     42  C   UNL A   1      46.734  30.050  27.915  1.00  0.00    -0.014 A 
BRANCH  42  43
ATOM     43  C   UNL A   1      46.390  31.483  27.493  1.00  0.00     0.031 A 
ATOM     44  C   UNL A   1      47.524  32.483  27.121  1.00  0.00     0.074 A 
ATOM     45  C   UNL A   1      45.280  32.055  28.019  1.00  0.00     0.049 A 
ATOM     46  N   UNL A   1      47.506  33.800  27.018  1.00  0.00    -0.248 NA
ATOM     47  C   UNL A   1      48.873  31.941  26.934  1.00  0.00     0.031 C 
ATOM     48  C   UNL A   1      44.207  31.345  28.712  1.00  0.00     0.029 A 
ATOM     49  N   UNL A   1      44.912  33.384  28.128  1.00  0.00    -0.354 N 
ATOM     50  C   UNL A   1      48.822  34.194  26.735  1.00  0.00     0.074 A 
ATOM     51  C   UNL A   1      49.631  33.015  26.833  1.00  0.00     0.031 C 
ATOM     52  C   UNL A   1      43.300  32.234  29.156  1.00  0.00     0.029 A 
ATOM     53  C   UNL A   1      43.727  33.588  28.799  1.00  0.00     0.049 A 
ATOM     54  H   UNL A   1      45.451  34.120  27.757  1.00  0.00     0.167 HD
ATOM     55  C   UNL A   1      49.348  35.395  26.375  1.00  0.00     0.034 A 
ATOM     56  C   UNL A   1      43.047  34.720  29.090  1.00  0.00     0.034 A 
ATOM     57  C   UNL A   1      48.604  36.622  26.382  1.00  0.00     0.049 A 
ATOM     58  C   UNL A   1      43.587  36.071  28.673  1.00  0.00     0.074 A 
ATOM     59  C   UNL A   1      48.986  37.880  25.951  1.00  0.00     0.029 A 
ATOM     60  N   UNL A   1      47.336  36.750  26.920  1.00  0.00    -0.354 N 
ATOM     61  N   UNL A   1      44.746  36.372  28.135  1.00  0.00    -0.248 NA
ATOM     62  C   UNL A   1      42.709  37.233  28.888  1.00  0.00     0.031 C 
ATOM     63  C   UNL A   1      47.978  38.785  26.304  1.00  0.00     0.029 A 
ATOM     64  C   UNL A   1      46.936  38.073  26.876  1.00  0.00     0.049 A 
ATOM     65  H   UNL A   1      46.796  36.009  27.280  1.00  0.00     0.167 HD
ATOM     66  C   UNL A   1      44.712  37.749  27.904  1.00  0.00     0.074 A 
ATOM     67  C   UNL A   1      43.425  38.219  28.366  1.00  0.00     0.031 C 
ATOM     68  C   UNL A   1      45.658  38.548  27.345  1.00  0.00     0.034 A 
BRANCH  55  69
ATOM     69  C   UNL A   1      50.806  35.416  25.934  1.00  0.00     0.023 A 
ATOM     70  C   UNL A   1      51.207  34.775  24.744  1.00  0.00     0.031 A 
ATOM     71  C   UNL A   1      51.809  36.029  26.706  1.00  0.00     0.131 A 
ATOM     72  C   UNL A   1      52.567  34.666  24.418  1.00  0.00     0.055 A 
ATOM     73  C   UNL A   1      53.155  35.999  26.326  1.00  0.00     0.041 A 
ATOM     74  F   UNL A   1      51.505  36.645  27.859  1.00  0.00    -0.206 F 
ATOM     75  C   UNL A   1      53.544  35.298  25.187  1.00  0.00     0.022 A 
BRANCH  72  76
ATOM     76  S   UNL A   1      53.046  33.545  23.073  1.00  0.00     0.124 S 
ATOM     77  O   UNL A   1      54.345  33.065  23.539  1.00  0.00    -0.237 OA
ATOM     78  O   UNL A   1      51.963  32.568  23.077  1.00  0.00    -0.237 OA
ATOM     79  O   UNL A   1      53.097  34.417  21.902  1.00  0.00    -0.744 OA
ENDBRANCH  72  76
ENDBRANCH  55  69
BRANCH  56  80
ATOM     80  C   UNL A   1      41.705  34.634  29.739  1.00  0.00     0.023 A 
ATOM     81  C   UNL A   1      41.604  34.274  31.094  1.00  0.00     0.031 A 
ATOM     82  C   UNL A   1      40.517  34.892  29.036  1.00  0.00     0.131 A 
ATOM     83  C   UNL A   1      40.344  34.154  31.699  1.00  0.00     0.055 A 
ATOM     84  C   UNL A   1      39.265  34.809  29.653  1.00  0.00     0.041 A 
ATOM     85  F   UNL A   1      40.559  35.247  27.742  1.00  0.00    -0.206 F 
ATOM     86  C   UNL A   1      39.174  34.432  30.992  1.00  0.00     0.022 A 
BRANCH  83  87
ATOM     87  S   UNL A   1      40.260  33.590  33.421  1.00  0.00     0.124 S 
ATOM     88  O   UNL A   1      39.470  34.646  34.042  1.00  0.00    -0.237 OA
ATOM     89  O   UNL A   1      39.603  32.295  33.284  1.00  0.00    -0.237 OA
ATOM     90  O   UNL A   1      41.662  33.533  33.830  1.00  0.00    -0.744 OA
ENDBRANCH  83  87
ENDBRANCH  56  80
BRANCH  68  91
ATOM     91  C   UNL A   1      45.327  40.004  27.146  1.00  0.00     0.023 A 
ATOM     92  C   UNL A   1      44.715  40.474  25.972  1.00  0.00     0.031 A 
ATOM     93  C   UNL A   1      45.620  40.935  28.159  1.00  0.00     0.131 A 
ATOM     94  C   UNL A   1      44.461  41.846  25.819  1.00  0.00     0.055 A 
ATOM     95  C   UNL A   1      45.314  42.290  28.025  1.00  0.00     0.041 A 
ATOM     96  F   UNL A   1      46.200  40.539  29.303  1.00  0.00    -0.206 F 
ATOM     97  C   UNL A   1      44.743  42.754  26.844  1.00  0.00     0.022 A 
BRANCH  94  98
ATOM     98  S   UNL A   1      43.833  42.443  24.226  1.00  0.00     0.124 S 
ATOM     99  O   UNL A   1      44.929  42.109  23.323  1.00  0.00    -0.237 OA
ATOM    100  O   UNL A   1      42.611  41.664  24.061  1.00  0.00    -0.237 OA
ATOM    101  O   UNL A   1      43.630  43.874  24.451  1.00  0.00    -0.744 OA
ENDBRANCH  94  98
ENDBRANCH  68  91
ENDBRANCH  42  43
ENDBRANCH  34  37
ENDBRANCH  32  33
ENDBRANCH  31  32
ENDBRANCH  30  31
ENDBRANCH   1  30
TORSDOF 20
ENDMDL
MODEL 3
REMARK VINA RESULT:     -12.5      3.040      9.247
REMARK SMILES COc1cccc([C@@H]2CC(c3cccc(C)c3)=NN2C(=O)CCC(=O)NCCCCNC(=O)c2ccc(-c3c4nc(c(-c5cc(S(=O)(=O)[O-])ccc5F)c5ccc([nH]5)c(-c5cc(S(=O)(=O)[O-])ccc5F)c5nc(c(-c6cc(S(=O)(=O)[O-])ccc6F)c6ccc3[nH]6)C=C5)C=C4)cc2)c1
REMARK SMILES IDX 27 1 26 2 24 3 25 4 23 6 22 7 20 8 21 9 19 10 8 11 9 12
REMARK SMILES IDX 10 13 18 14 7 15 3 16 4 17 97 18 5 19 6 20 2 21 1 22 11 23
REMARK SMILES IDX 12 24 17 25 13 26 15 27 14 28 16 29 28 30 29 31 30 32 31 33
REMARK SMILES IDX 32 34 33 36 34 37 35 38 96 39 36 40 95 41 37 42 38 43 39 44
REMARK SMILES IDX 89 45 40 46 94 47 88 48 90 49 41 50 93 51 87 52 86 53 42 55
REMARK SMILES IDX 74 56 54 57 73 58 55 59 58 60 72 61 91 62 56 63 57 64 71 66
REMARK SMILES IDX 92 67 59 68 43 69 44 70 52 71 45 72 51 73 53 74 50 75 46 76
REMARK SMILES IDX 47 77 48 78 49 79 75 80 76 81 84 82 77 83 83 84 85 85 82 86
REMARK SMILES IDX 78 87 79 88 80 89 81 90 60 91 61 92 69 93 62 94 68 95 70 96
REMARK SMILES IDX 67 97 63 98 64 99 65 100 66 101
REMARK H PARENT 26 5 31 35 90 54 58 65
REMARK Flexibility Score: inf
ROOT
ATOM      1  C   UNL A   1      35.430  22.222  26.121  1.00  0.00     0.116 C 
ENDROOT
BRANCH   1   2
ATOM      2  N   UNL A   1      34.382  22.038  27.311  1.00  0.00    -0.356 N 
ATOM      3  C   UNL A   1      33.147  22.533  27.577  1.00  0.00     0.220 C 
ATOM      4  O   UNL A   1      32.653  22.232  28.667  1.00  0.00    -0.275 OA
ATOM      5  H   UNL A   1      34.706  21.427  28.013  1.00  0.00     0.163 HD
BRANCH   3   6
ATOM      6  C   UNL A   1      32.404  23.401  26.589  1.00  0.00     0.110 C 
BRANCH   6   7
ATOM      7  C   UNL A   1      30.875  23.457  26.635  1.00  0.00     0.112 C 
BRANCH   7   8
ATOM      8  C   UNL A   1      30.309  24.874  26.494  1.00  0.00     0.243 C 
ATOM      9  O   UNL A   1      29.126  25.105  26.731  1.00  0.00    -0.273 OA
BRANCH   8  10
ATOM     10  N   UNL A   1      31.215  25.787  25.907  1.00  0.00    -0.225 N 
ATOM     11  C   UNL A   1      31.138  26.156  24.075  1.00  0.00     0.147 C 
ATOM     12  C   UNL A   1      31.296  28.198  24.066  1.00  0.00     0.091 C 
ATOM     13  C   UNL A   1      31.827  28.573  26.101  1.00  0.00     0.071 C 
ATOM     14  N   UNL A   1      31.668  27.249  26.925  1.00  0.00    -0.174 NA
BRANCH  11  15
ATOM     15  C   UNL A   1      32.102  25.006  23.481  1.00  0.00    -0.019 A 
ATOM     16  C   UNL A   1      32.521  22.713  22.791  1.00  0.00     0.119 A 
ATOM     17  C   UNL A   1      33.902  22.936  22.793  1.00  0.00     0.046 A 
ATOM     18  C   UNL A   1      31.616  23.742  23.121  1.00  0.00     0.052 A 
ATOM     19  C   UNL A   1      34.404  24.184  23.109  1.00  0.00     0.004 A 
ATOM     20  C   UNL A   1      33.517  25.195  23.458  1.00  0.00     0.006 A 
BRANCH  16  21
ATOM     21  O   UNL A   1      32.182  21.414  22.524  1.00  0.00    -0.497 OA
ATOM     22  C   UNL A   1      32.346  20.508  23.602  1.00  0.00     0.278 C 
ENDBRANCH  16  21
ENDBRANCH  11  15
BRANCH  13  23
ATOM     23  C   UNL A   1      32.943  29.644  26.889  1.00  0.00    -0.002 A 
ATOM     24  C   UNL A   1      32.673  30.996  26.846  1.00  0.00     0.010 A 
ATOM     25  C   UNL A   1      34.061  29.342  27.793  1.00  0.00     0.013 A 
ATOM     26  C   UNL A   1      33.449  31.854  27.644  1.00  0.00     0.001 A 
ATOM     27  C   UNL A   1      35.299  30.083  28.102  1.00  0.00    -0.050 A 
ATOM     28  C   UNL A   1      34.675  31.425  28.270  1.00  0.00     0.003 A 
ATOM     29  C   UNL A   1      37.300  29.505  27.608  1.00  0.00     0.044 C 
ENDBRANCH  13  23
ENDBRANCH   8  10
ENDBRANCH   7   8
ENDBRANCH   6   7
ENDBRANCH   3   6
ENDBRANCH   1   2
BRANCH   1  30
ATOM     30  C   UNL A   1      37.144  23.636  25.966  1.00  0.00     0.023 C 
BRANCH  30  31
ATOM     31  C   UNL A   1      38.872  22.857  26.202  1.00  0.00     0.023 C 
BRANCH  31  32
ATOM     32  C   UNL A   1      39.112  21.074  25.965  1.00  0.00     0.116 C 
BRANCH  32  33
ATOM     33  N   UNL A   1      40.569  20.340  26.064  1.00  0.00    -0.352 N 
ATOM     34  C   UNL A   1      41.929  20.640  26.425  1.00  0.00     0.251 C 
ATOM     35  H   UNL A   1      40.492  19.397  25.793  1.00  0.00     0.163 HD
ATOM     36  O   UNL A   1      42.838  19.881  26.107  1.00  0.00    -0.269 OA
BRANCH  34  37
ATOM     37  C   UNL A   1      42.222  21.887  27.182  1.00  0.00     0.039 A 
ATOM     38  C   UNL A   1      42.873  22.204  28.896  1.00  0.00     0.014 A 
ATOM     39  C   UNL A   1      42.381  23.167  25.917  1.00  0.00     0.014 A 
ATOM     40  C   UNL A   1      43.650  23.865  29.265  1.00  0.00     0.010 A 
ATOM     41  C   UNL A   1      43.273  24.669  26.237  1.00  0.00     0.010 A 
ATOM     42  C   UNL A   1      43.872  25.079  27.878  1.00  0.00    -0.014 A 
BRANCH  42  43
ATOM     43  C   UNL A   1      44.097  26.595  27.821  1.00  0.00     0.031 A 
ATOM     44  C   UNL A   1      45.529  27.166  27.602  1.00  0.00     0.074 A 
ATOM     45  C   UNL A   1      43.274  27.391  28.546  1.00  0.00     0.049 A 
ATOM     46  N   UNL A   1      46.008  28.380  27.804  1.00  0.00    -0.248 NA
ATOM     47  C   UNL A   1      46.579  26.227  27.196  1.00  0.00     0.031 C 
ATOM     48  C   UNL A   1      42.002  26.982  29.138  1.00  0.00     0.029 A 
ATOM     49  N   UNL A   1      43.430  28.695  28.982  1.00  0.00    -0.354 N 
ATOM     50  C   UNL A   1      47.380  28.318  27.520  1.00  0.00     0.074 A 
ATOM     51  C   UNL A   1      47.686  26.937  27.285  1.00  0.00     0.031 C 
ATOM     52  C   UNL A   1      41.488  28.008  29.840  1.00  0.00     0.029 A 
ATOM     53  C   UNL A   1      42.397  29.153  29.770  1.00  0.00     0.049 A 
ATOM     54  H   UNL A   1      44.211  29.247  28.749  1.00  0.00     0.167 HD
ATOM     55  C   UNL A   1      48.324  29.290  27.405  1.00  0.00     0.034 A 
ATOM     56  C   UNL A   1      42.187  30.350  30.362  1.00  0.00     0.034 A 
ATOM     57  C   UNL A   1      48.095  30.665  27.748  1.00  0.00     0.049 A 
ATOM     58  C   UNL A   1      43.202  31.465  30.225  1.00  0.00     0.074 A 
ATOM     59  C   UNL A   1      48.927  31.758  27.587  1.00  0.00     0.029 A 
ATOM     60  N   UNL A   1      46.958  31.117  28.395  1.00  0.00    -0.354 N 
ATOM     61  N   UNL A   1      44.397  31.439  29.683  1.00  0.00    -0.248 NA
ATOM     62  C   UNL A   1      42.820  32.780  30.765  1.00  0.00     0.031 C 
ATOM     63  C   UNL A   1      48.327  32.857  28.212  1.00  0.00     0.029 A 
ATOM     64  C   UNL A   1      47.085  32.463  28.684  1.00  0.00     0.049 A 
ATOM     65  H   UNL A   1      46.175  30.563  28.615  1.00  0.00     0.167 HD
ATOM     66  C   UNL A   1      44.886  32.744  29.776  1.00  0.00     0.074 A 
ATOM     67  C   UNL A   1      43.861  33.528  30.429  1.00  0.00     0.031 C 
ATOM     68  C   UNL A   1      46.071  33.247  29.344  1.00  0.00     0.034 A 
BRANCH  55  69
ATOM     69  C   UNL A   1      49.690  28.878  26.872  1.00  0.00     0.023 A 
ATOM     70  C   UNL A   1      49.914  28.754  25.485  1.00  0.00     0.031 A 
ATOM     71  C   UNL A   1      50.761  28.566  27.727  1.00  0.00     0.131 A 
ATOM     72  C   UNL A   1      51.123  28.231  25.003  1.00  0.00     0.055 A 
ATOM     73  C   UNL A   1      51.998  28.135  27.236  1.00  0.00     0.041 A 
ATOM     74  F   UNL A   1      50.618  28.646  29.060  1.00  0.00    -0.206 F 
ATOM     75  C   UNL A   1      52.179  27.946  25.868  1.00  0.00     0.022 A 
BRANCH  72  76
ATOM     76  S   UNL A   1      51.228  27.772  23.250  1.00  0.00     0.124 S 
ATOM     77  O   UNL A   1      49.948  27.097  23.046  1.00  0.00    -0.237 OA
ATOM     78  O   UNL A   1      51.381  29.066  22.594  1.00  0.00    -0.237 OA
ATOM     79  O   UNL A   1      52.399  26.900  23.193  1.00  0.00    -0.744 OA
ENDBRANCH  72  76
ENDBRANCH  55  69
BRANCH  56  80
ATOM     80  C   UNL A   1      40.901  30.611  31.074  1.00  0.00     0.023 A 
ATOM     81  C   UNL A   1      40.848  30.531  32.477  1.00  0.00     0.031 A 
ATOM     82  C   UNL A   1      39.718  30.927  30.387  1.00  0.00     0.131 A 
ATOM     83  C   UNL A   1      39.634  30.737  33.148  1.00  0.00     0.055 A 
ATOM     84  C   UNL A   1      38.518  31.170  31.063  1.00  0.00     0.041 A 
ATOM     85  F   UNL A   1      39.716  31.022  29.048  1.00  0.00    -0.206 F 
ATOM     86  C   UNL A   1      38.471  31.069  32.453  1.00  0.00     0.022 A 
BRANCH  83  87
ATOM     87  S   UNL A   1      39.593  30.526  34.949  1.00  0.00     0.124 S 
ATOM     88  O   UNL A   1      38.160  30.463  35.210  1.00  0.00    -0.237 OA
ATOM     89  O   UNL A   1      40.332  29.280  35.125  1.00  0.00    -0.237 OA
ATOM     90  O   UNL A   1      40.268  31.722  35.448  1.00  0.00    -0.744 OA
ENDBRANCH  83  87
ENDBRANCH  56  80
BRANCH  68  91
ATOM     91  C   UNL A   1      46.314  34.725  29.508  1.00  0.00     0.023 A 
ATOM     92  C   UNL A   1      46.010  35.646  28.491  1.00  0.00     0.031 A 
ATOM     93  C   UNL A   1      46.847  35.219  30.712  1.00  0.00     0.131 A 
ATOM     94  C   UNL A   1      46.290  37.009  28.678  1.00  0.00     0.055 A 
ATOM     95  C   UNL A   1      47.071  36.582  30.913  1.00  0.00     0.041 A 
ATOM     96  F   UNL A   1      47.151  34.384  31.717  1.00  0.00    -0.206 F 
ATOM     97  C   UNL A   1      46.804  37.483  29.888  1.00  0.00     0.022 A 
BRANCH  94  98
ATOM     98  S   UNL A   1      46.051  38.146  27.286  1.00  0.00     0.124 S 
ATOM     99  O   UNL A   1      44.650  38.524  27.440  1.00  0.00    -0.237 OA
ATOM    100  O   UNL A   1      47.028  39.193  27.568  1.00  0.00    -0.237 OA
ATOM    101  O   UNL A   1      46.346  37.323  26.114  1.00  0.00    -0.744 OA
ENDBRANCH  94  98
ENDBRANCH  68  91
ENDBRANCH  42  43
ENDBRANCH  34  37
ENDBRANCH  32  33
ENDBRANCH  31  32
ENDBRANCH  30  31
ENDBRANCH   1  30
TORSDOF 20
ENDMDL
