MODEL 1
REMARK VINA RESULT:      -8.2      0.000      0.000
REMARK SMILES CCSCc1cc(F)cc(/C=C/C(=O)NCCCCNC(=O)c2ccc(-c3c4nc(c(-c5cc(S(=O)(=O)[O-])ccc5F)c5ccc([nH]5)c(-c5cc(S(=O)(=O)[O-])ccc5F)c5nc(c(-c6cc(S(=O)(=O)[O-])ccc6F)c6ccc3[nH]6)C=C5)C=C4)cc2)c1
REMARK SMILES IDX 17 1 16 2 15 3 13 4 14 5 12 7 11 8 10 9 5 10 6 11 86 12 7 13
REMARK SMILES IDX 8 14 9 15 4 16 3 17 2 18 1 19 18 20 19 21 20 22 21 23 22 25
REMARK SMILES IDX 23 26 24 27 85 28 25 29 84 30 26 31 27 32 28 33 78 34 29 35
REMARK SMILES IDX 83 36 77 37 79 38 30 39 82 40 76 41 75 42 31 44 63 45 43 46
REMARK SMILES IDX 62 47 44 48 47 49 61 50 80 51 45 52 46 53 60 55 81 56 48 57
REMARK SMILES IDX 32 58 33 59 41 60 34 61 40 62 42 63 39 64 35 65 36 66 37 67
REMARK SMILES IDX 38 68 64 69 65 70 73 71 66 72 72 73 74 74 71 75 67 76 68 77
REMARK SMILES IDX 69 78 70 79 49 80 50 81 58 82 51 83 57 84 59 85 56 86 52 87
REMARK SMILES IDX 53 88 54 89 55 90
REMARK H PARENT 15 6 20 24 79 43 47 54
REMARK Flexibility Score: inf
ROOT
ATOM      1  C   UNL A   1      31.883  26.852  25.785  1.00  0.00     0.023 C 
ENDROOT
BRANCH   1   2
ATOM      2  C   UNL A   1      31.005  25.772  25.150  1.00  0.00     0.116 C 
BRANCH   2   3
ATOM      3  N   UNL A   1      30.274  25.027  26.158  1.00  0.00    -0.353 N 
ATOM      4  C   UNL A   1      30.448  23.757  26.615  1.00  0.00     0.243 C 
ATOM      5  O   UNL A   1      29.777  23.342  27.557  1.00  0.00    -0.270 OA
ATOM      6  H   UNL A   1      29.531  25.519  26.578  1.00  0.00     0.163 HD
BRANCH   4   7
ATOM      7  C   UNL A   1      31.501  22.887  26.044  1.00  0.00     0.072 C 
ATOM      8  C   UNL A   1      32.757  22.848  26.508  1.00  0.00     0.014 C 
BRANCH   8   9
ATOM      9  C   UNL A   1      33.818  22.006  25.949  1.00  0.00    -0.022 A 
ATOM     10  C   UNL A   1      34.435  19.864  24.931  1.00  0.00    -0.035 A 
ATOM     11  C   UNL A   1      35.783  20.237  25.017  1.00  0.00     0.043 A 
ATOM     12  C   UNL A   1      33.461  20.773  25.379  1.00  0.00     0.013 A 
ATOM     13  C   UNL A   1      36.132  21.467  25.566  1.00  0.00     0.124 A 
ATOM     14  F   UNL A   1      37.427  21.798  25.655  1.00  0.00    -0.207 F 
ATOM     15  C   UNL A   1      35.168  22.348  26.042  1.00  0.00     0.047 A 
BRANCH  10  16
ATOM     16  C   UNL A   1      34.055  18.526  24.347  1.00  0.00     0.105 C 
BRANCH  16  17
ATOM     17  S   UNL A   1      32.745  17.631  25.249  1.00  0.00    -0.157 SA
BRANCH  17  18
ATOM     18  C   UNL A   1      33.516  15.993  25.478  1.00  0.00     0.066 C 
ATOM     19  C   UNL A   1      35.000  15.996  25.166  1.00  0.00     0.015 C 
ENDBRANCH  17  18
ENDBRANCH  16  17
ENDBRANCH  10  16
ENDBRANCH   8   9
ENDBRANCH   4   7
ENDBRANCH   2   3
ENDBRANCH   1   2
BRANCH   1  20
ATOM     20  C   UNL A   1      31.942  28.167  25.002  1.00  0.00     0.023 C 
BRANCH  20  21
ATOM     21  C   UNL A   1      33.001  29.156  25.477  1.00  0.00     0.116 C 
BRANCH  21  22
ATOM     22  N   UNL A   1      32.444  30.435  25.891  1.00  0.00    -0.352 N 
ATOM     23  C   UNL A   1      32.898  31.291  26.865  1.00  0.00     0.251 C 
ATOM     24  H   UNL A   1      31.637  30.726  25.409  1.00  0.00     0.163 HD
ATOM     25  O   UNL A   1      32.239  32.277  27.165  1.00  0.00    -0.269 OA
BRANCH  23  26
ATOM     26  C   UNL A   1      34.162  30.986  27.574  1.00  0.00     0.039 A 
ATOM     27  C   UNL A   1      35.080  32.020  27.781  1.00  0.00     0.014 A 
ATOM     28  C   UNL A   1      34.439  29.696  28.033  1.00  0.00     0.014 A 
ATOM     29  C   UNL A   1      36.252  31.770  28.496  1.00  0.00     0.010 A 
ATOM     30  C   UNL A   1      35.576  29.464  28.802  1.00  0.00     0.010 A 
ATOM     31  C   UNL A   1      36.498  30.496  29.034  1.00  0.00    -0.014 A 
BRANCH  31  32
ATOM     32  C   UNL A   1      37.735  30.216  29.804  1.00  0.00     0.031 A 
ATOM     33  C   UNL A   1      38.826  29.385  29.187  1.00  0.00     0.074 A 
ATOM     34  C   UNL A   1      37.861  30.675  31.065  1.00  0.00     0.049 A 
ATOM     35  N   UNL A   1      39.947  28.970  29.716  1.00  0.00    -0.248 NA
ATOM     36  C   UNL A   1      38.616  28.939  27.800  1.00  0.00     0.031 C 
ATOM     37  C   UNL A   1      36.857  31.467  31.781  1.00  0.00     0.029 A 
ATOM     38  N   UNL A   1      38.884  30.544  31.969  1.00  0.00    -0.354 N 
ATOM     39  C   UNL A   1      40.568  28.204  28.736  1.00  0.00     0.074 A 
ATOM     40  C   UNL A   1      39.674  28.167  27.599  1.00  0.00     0.031 C 
ATOM     41  C   UNL A   1      37.331  31.782  32.997  1.00  0.00     0.029 A 
ATOM     42  C   UNL A   1      38.651  31.182  33.166  1.00  0.00     0.049 A 
ATOM     43  H   UNL A   1      39.709  30.041  31.780  1.00  0.00     0.167 HD
ATOM     44  C   UNL A   1      41.785  27.610  28.769  1.00  0.00     0.034 A 
ATOM     45  C   UNL A   1      39.412  31.266  34.275  1.00  0.00     0.034 A 
ATOM     46  C   UNL A   1      42.686  27.692  29.888  1.00  0.00     0.049 A 
ATOM     47  C   UNL A   1      40.750  30.577  34.298  1.00  0.00     0.074 A 
ATOM     48  C   UNL A   1      43.970  27.190  29.996  1.00  0.00     0.029 A 
ATOM     49  N   UNL A   1      42.397  28.316  31.093  1.00  0.00    -0.354 N 
ATOM     50  N   UNL A   1      41.329  29.874  33.354  1.00  0.00    -0.248 NA
ATOM     51  C   UNL A   1      41.534  30.683  35.538  1.00  0.00     0.031 C 
ATOM     52  C   UNL A   1      44.440  27.466  31.283  1.00  0.00     0.029 A 
ATOM     53  C   UNL A   1      43.468  28.185  31.960  1.00  0.00     0.049 A 
ATOM     54  H   UNL A   1      41.555  28.783  31.300  1.00  0.00     0.167 HD
ATOM     55  C   UNL A   1      42.548  29.463  33.881  1.00  0.00     0.074 A 
ATOM     56  C   UNL A   1      42.628  30.001  35.223  1.00  0.00     0.031 C 
ATOM     57  C   UNL A   1      43.517  28.711  33.302  1.00  0.00     0.034 A 
BRANCH  44  58
ATOM     58  C   UNL A   1      42.209  26.819  27.560  1.00  0.00     0.023 A 
ATOM     59  C   UNL A   1      41.978  25.436  27.474  1.00  0.00     0.031 A 
ATOM     60  C   UNL A   1      42.843  27.456  26.480  1.00  0.00     0.131 A 
ATOM     61  C   UNL A   1      42.428  24.723  26.354  1.00  0.00     0.055 A 
ATOM     62  C   UNL A   1      43.229  26.753  25.339  1.00  0.00     0.041 A 
ATOM     63  F   UNL A   1      43.102  28.772  26.520  1.00  0.00    -0.206 F 
ATOM     64  C   UNL A   1      43.029  25.375  25.274  1.00  0.00     0.022 A 
BRANCH  61  65
ATOM     65  S   UNL A   1      42.290  22.916  26.362  1.00  0.00     0.124 S 
ATOM     66  O   UNL A   1      40.900  22.731  26.769  1.00  0.00    -0.237 OA
ATOM     67  O   UNL A   1      42.602  22.566  24.980  1.00  0.00    -0.237 OA
ATOM     68  O   UNL A   1      43.285  22.501  27.348  1.00  0.00    -0.744 OA
ENDBRANCH  61  65
ENDBRANCH  44  58
BRANCH  45  69
ATOM     69  C   UNL A   1      38.921  32.024  35.458  1.00  0.00     0.023 A 
ATOM     70  C   UNL A   1      38.276  31.367  36.517  1.00  0.00     0.031 A 
ATOM     71  C   UNL A   1      39.095  33.416  35.547  1.00  0.00     0.131 A 
ATOM     72  C   UNL A   1      37.810  32.106  37.616  1.00  0.00     0.055 A 
ATOM     73  C   UNL A   1      38.659  34.142  36.657  1.00  0.00     0.041 A 
ATOM     74  F   UNL A   1      39.715  34.086  34.563  1.00  0.00    -0.206 F 
ATOM     75  C   UNL A   1      38.008  33.487  37.698  1.00  0.00     0.022 A 
BRANCH  72  76
ATOM     76  S   UNL A   1      36.920  31.239  38.938  1.00  0.00     0.124 S 
ATOM     77  O   UNL A   1      35.653  31.960  38.965  1.00  0.00    -0.237 OA
ATOM     78  O   UNL A   1      36.871  29.872  38.427  1.00  0.00    -0.237 OA
ATOM     79  O   UNL A   1      37.776  31.431  40.107  1.00  0.00    -0.744 OA
ENDBRANCH  72  76
ENDBRANCH  45  69
BRANCH  57  80
ATOM     80  C   UNL A   1      44.751  28.425  34.111  1.00  0.00     0.023 A 
ATOM     81  C   UNL A   1      45.785  29.370  34.214  1.00  0.00     0.031 A 
ATOM     82  C   UNL A   1      44.856  27.232  34.846  1.00  0.00     0.131 A 
ATOM     83  C   UNL A   1      46.892  29.098  35.031  1.00  0.00     0.055 A 
ATOM     84  C   UNL A   1      45.941  26.984  35.685  1.00  0.00     0.041 A 
ATOM     85  F   UNL A   1      43.887  26.304  34.783  1.00  0.00    -0.206 F 
ATOM     86  C   UNL A   1      46.967  27.921  35.780  1.00  0.00     0.022 A 
BRANCH  83  87
ATOM     87  S   UNL A   1      48.239  30.309  35.107  1.00  0.00     0.124 S 
ATOM     88  O   UNL A   1      48.007  31.093  33.897  1.00  0.00    -0.237 OA
ATOM     89  O   UNL A   1      47.981  30.996  36.369  1.00  0.00    -0.237 OA
ATOM     90  O   UNL A   1      49.444  29.483  35.091  1.00  0.00    -0.744 OA
ENDBRANCH  83  87
ENDBRANCH  57  80
ENDBRANCH  31  32
ENDBRANCH  23  26
ENDBRANCH  21  22
ENDBRANCH  20  21
ENDBRANCH   1  20
TORSDOF 18
ENDMDL
MODEL 2
REMARK VINA RESULT:      -8.2      5.853      9.955
REMARK SMILES CCSCc1cc(F)cc(/C=C/C(=O)NCCCCNC(=O)c2ccc(-c3c4nc(c(-c5cc(S(=O)(=O)[O-])ccc5F)c5ccc([nH]5)c(-c5cc(S(=O)(=O)[O-])ccc5F)c5nc(c(-c6cc(S(=O)(=O)[O-])ccc6F)c6ccc3[nH]6)C=C5)C=C4)cc2)c1
REMARK SMILES IDX 17 1 16 2 15 3 13 4 14 5 12 7 11 8 10 9 5 10 6 11 86 12 7 13
REMARK SMILES IDX 8 14 9 15 4 16 3 17 2 18 1 19 18 20 19 21 20 22 21 23 22 25
REMARK SMILES IDX 23 26 24 27 85 28 25 29 84 30 26 31 27 32 28 33 78 34 29 35
REMARK SMILES IDX 83 36 77 37 79 38 30 39 82 40 76 41 75 42 31 44 63 45 43 46
REMARK SMILES IDX 62 47 44 48 47 49 61 50 80 51 45 52 46 53 60 55 81 56 48 57
REMARK SMILES IDX 32 58 33 59 41 60 34 61 40 62 42 63 39 64 35 65 36 66 37 67
REMARK SMILES IDX 38 68 64 69 65 70 73 71 66 72 72 73 74 74 71 75 67 76 68 77
REMARK SMILES IDX 69 78 70 79 49 80 50 81 58 82 51 83 57 84 59 85 56 86 52 87
REMARK SMILES IDX 53 88 54 89 55 90
REMARK H PARENT 15 6 20 24 79 43 47 54
REMARK Flexibility Score: inf
ROOT
ATOM      1  C   UNL A   1      45.331  20.417  25.297  1.00  0.00     0.023 C 
ENDROOT
BRANCH   1   2
ATOM      2  C   UNL A   1      45.152  21.924  25.485  1.00  0.00     0.116 C 
BRANCH   2   3
ATOM      3  N   UNL A   1      46.192  22.668  24.796  1.00  0.00    -0.353 N 
ATOM      4  C   UNL A   1      46.298  23.999  24.537  1.00  0.00     0.243 C 
ATOM      5  O   UNL A   1      47.319  24.449  24.022  1.00  0.00    -0.270 OA
ATOM      6  H   UNL A   1      46.939  22.121  24.462  1.00  0.00     0.163 HD
BRANCH   4   7
ATOM      7  C   UNL A   1      45.227  24.936  24.945  1.00  0.00     0.072 C 
ATOM      8  C   UNL A   1      45.435  26.240  25.174  1.00  0.00     0.014 C 
BRANCH   8   9
ATOM      9  C   UNL A   1      44.393  27.181  25.593  1.00  0.00    -0.022 A 
ATOM     10  C   UNL A   1      43.831  29.240  26.797  1.00  0.00    -0.035 A 
ATOM     11  C   UNL A   1      42.473  28.960  26.597  1.00  0.00     0.043 A 
ATOM     12  C   UNL A   1      44.782  28.352  26.264  1.00  0.00     0.013 A 
ATOM     13  C   UNL A   1      42.092  27.807  25.916  1.00  0.00     0.124 A 
ATOM     14  F   UNL A   1      40.788  27.547  25.751  1.00  0.00    -0.207 F 
ATOM     15  C   UNL A   1      43.034  26.913  25.423  1.00  0.00     0.047 A 
BRANCH  10  16
ATOM     16  C   UNL A   1      44.245  30.482  27.546  1.00  0.00     0.105 C 
BRANCH  16  17
ATOM     17  S   UNL A   1      44.573  31.943  26.502  1.00  0.00    -0.157 SA
BRANCH  17  18
ATOM     18  C   UNL A   1      46.390  32.067  26.612  1.00  0.00     0.066 C 
ATOM     19  C   UNL A   1      46.865  32.502  27.985  1.00  0.00     0.015 C 
ENDBRANCH  17  18
ENDBRANCH  16  17
ENDBRANCH  10  16
ENDBRANCH   8   9
ENDBRANCH   4   7
ENDBRANCH   2   3
ENDBRANCH   1   2
BRANCH   1  20
ATOM     20  C   UNL A   1      44.065  19.675  24.859  1.00  0.00     0.023 C 
BRANCH  20  21
ATOM     21  C   UNL A   1      43.302  18.978  25.981  1.00  0.00     0.116 C 
BRANCH  21  22
ATOM     22  N   UNL A   1      41.863  18.960  25.770  1.00  0.00    -0.352 N 
ATOM     23  C   UNL A   1      40.935  19.912  26.121  1.00  0.00     0.251 C 
ATOM     24  H   UNL A   1      41.507  18.163  25.316  1.00  0.00     0.163 HD
ATOM     25  O   UNL A   1      39.742  19.683  25.970  1.00  0.00    -0.269 OA
BRANCH  23  26
ATOM     26  C   UNL A   1      41.389  21.189  26.716  1.00  0.00     0.039 A 
ATOM     27  C   UNL A   1      41.560  22.295  25.880  1.00  0.00     0.014 A 
ATOM     28  C   UNL A   1      41.638  21.298  28.087  1.00  0.00     0.014 A 
ATOM     29  C   UNL A   1      41.931  23.524  26.427  1.00  0.00     0.010 A 
ATOM     30  C   UNL A   1      41.944  22.539  28.639  1.00  0.00     0.010 A 
ATOM     31  C   UNL A   1      42.102  23.662  27.814  1.00  0.00    -0.014 A 
BRANCH  31  32
ATOM     32  C   UNL A   1      42.487  24.964  28.412  1.00  0.00     0.031 A 
ATOM     33  C   UNL A   1      43.941  25.288  28.619  1.00  0.00     0.074 A 
ATOM     34  C   UNL A   1      41.534  25.834  28.801  1.00  0.00     0.049 A 
ATOM     35  N   UNL A   1      44.481  26.335  29.188  1.00  0.00    -0.248 NA
ATOM     36  C   UNL A   1      44.916  24.291  28.149  1.00  0.00     0.031 C 
ATOM     37  C   UNL A   1      40.090  25.618  28.678  1.00  0.00     0.029 A 
ATOM     38  N   UNL A   1      41.634  27.075  29.378  1.00  0.00    -0.354 N 
ATOM     39  C   UNL A   1      45.853  26.116  29.157  1.00  0.00     0.074 A 
ATOM     40  C   UNL A   1      46.061  24.813  28.564  1.00  0.00     0.031 C 
ATOM     41  C   UNL A   1      39.443  26.704  29.129  1.00  0.00     0.029 A 
ATOM     42  C   UNL A   1      40.419  27.676  29.612  1.00  0.00     0.049 A 
ATOM     43  H   UNL A   1      42.495  27.496  29.603  1.00  0.00     0.167 HD
ATOM     44  C   UNL A   1      46.851  26.939  29.560  1.00  0.00     0.034 A 
ATOM     45  C   UNL A   1      40.126  28.872  30.161  1.00  0.00     0.034 A 
ATOM     46  C   UNL A   1      46.634  28.253  30.107  1.00  0.00     0.049 A 
ATOM     47  C   UNL A   1      41.251  29.759  30.625  1.00  0.00     0.074 A 
ATOM     48  C   UNL A   1      47.576  29.195  30.477  1.00  0.00     0.029 A 
ATOM     49  N   UNL A   1      45.389  28.809  30.362  1.00  0.00    -0.354 N 
ATOM     50  N   UNL A   1      42.544  29.544  30.570  1.00  0.00    -0.248 NA
ATOM     51  C   UNL A   1      40.878  31.045  31.233  1.00  0.00     0.031 C 
ATOM     52  C   UNL A   1      46.903  30.302  31.003  1.00  0.00     0.029 A 
ATOM     53  C   UNL A   1      45.540  30.070  30.912  1.00  0.00     0.049 A 
ATOM     54  H   UNL A   1      44.527  28.372  30.177  1.00  0.00     0.167 HD
ATOM     55  C   UNL A   1      43.139  30.670  31.126  1.00  0.00     0.074 A 
ATOM     56  C   UNL A   1      42.068  31.568  31.505  1.00  0.00     0.031 C 
ATOM     57  C   UNL A   1      44.457  30.938  31.303  1.00  0.00     0.034 A 
BRANCH  44  58
ATOM     58  C   UNL A   1      48.264  26.440  29.427  1.00  0.00     0.023 A 
ATOM     59  C   UNL A   1      48.978  26.577  28.224  1.00  0.00     0.031 A 
ATOM     60  C   UNL A   1      48.908  25.827  30.515  1.00  0.00     0.131 A 
ATOM     61  C   UNL A   1      50.276  26.059  28.121  1.00  0.00     0.055 A 
ATOM     62  C   UNL A   1      50.224  25.373  30.427  1.00  0.00     0.041 A 
ATOM     63  F   UNL A   1      48.265  25.657  31.681  1.00  0.00    -0.206 F 
ATOM     64  C   UNL A   1      50.914  25.480  29.222  1.00  0.00     0.022 A 
BRANCH  61  65
ATOM     65  S   UNL A   1      51.093  26.076  26.503  1.00  0.00     0.124 S 
ATOM     66  O   UNL A   1      49.947  26.129  25.599  1.00  0.00    -0.237 OA
ATOM     67  O   UNL A   1      51.908  27.285  26.570  1.00  0.00    -0.237 OA
ATOM     68  O   UNL A   1      51.841  24.821  26.483  1.00  0.00    -0.744 OA
ENDBRANCH  61  65
ENDBRANCH  44  58
BRANCH  45  69
ATOM     69  C   UNL A   1      38.707  29.294  30.311  1.00  0.00     0.023 A 
ATOM     70  C   UNL A   1      37.996  29.827  29.225  1.00  0.00     0.031 A 
ATOM     71  C   UNL A   1      38.042  29.165  31.542  1.00  0.00     0.131 A 
ATOM     72  C   UNL A   1      36.662  30.230  29.395  1.00  0.00     0.055 A 
ATOM     73  C   UNL A   1      36.706  29.537  31.698  1.00  0.00     0.041 A 
ATOM     74  F   UNL A   1      38.679  28.652  32.607  1.00  0.00    -0.206 F 
ATOM     75  C   UNL A   1      36.009  30.078  30.622  1.00  0.00     0.022 A 
BRANCH  72  76
ATOM     76  S   UNL A   1      35.789  30.978  27.993  1.00  0.00     0.124 S 
ATOM     77  O   UNL A   1      36.284  30.182  26.876  1.00  0.00    -0.237 OA
ATOM     78  O   UNL A   1      34.391  30.773  28.358  1.00  0.00    -0.237 OA
ATOM     79  O   UNL A   1      36.236  32.369  28.016  1.00  0.00    -0.744 OA
ENDBRANCH  72  76
ENDBRANCH  45  69
BRANCH  57  80
ATOM     80  C   UNL A   1      44.820  32.256  31.929  1.00  0.00     0.023 A 
ATOM     81  C   UNL A   1      44.934  33.420  31.154  1.00  0.00     0.031 A 
ATOM     82  C   UNL A   1      44.974  32.359  33.323  1.00  0.00     0.131 A 
ATOM     83  C   UNL A   1      45.209  34.645  31.779  1.00  0.00     0.055 A 
ATOM     84  C   UNL A   1      45.210  33.585  33.942  1.00  0.00     0.041 A 
ATOM     85  F   UNL A   1      44.865  31.272  34.104  1.00  0.00    -0.206 F 
ATOM     86  C   UNL A   1      45.328  34.737  33.168  1.00  0.00     0.022 A 
BRANCH  83  87
ATOM     87  S   UNL A   1      45.405  36.126  30.751  1.00  0.00     0.124 S 
ATOM     88  O   UNL A   1      46.322  35.655  29.717  1.00  0.00    -0.237 OA
ATOM     89  O   UNL A   1      44.038  36.396  30.315  1.00  0.00    -0.237 OA
ATOM     90  O   UNL A   1      45.963  37.111  31.674  1.00  0.00    -0.744 OA
ENDBRANCH  83  87
ENDBRANCH  57  80
ENDBRANCH  31  32
ENDBRANCH  23  26
ENDBRANCH  21  22
ENDBRANCH  20  21
ENDBRANCH   1  20
TORSDOF 18
ENDMDL
MODEL 3
REMARK VINA RESULT:      -8.1      2.852      8.208
REMARK SMILES CCSCc1cc(F)cc(/C=C/C(=O)NCCCCNC(=O)c2ccc(-c3c4nc(c(-c5cc(S(=O)(=O)[O-])ccc5F)c5ccc([nH]5)c(-c5cc(S(=O)(=O)[O-])ccc5F)c5nc(c(-c6cc(S(=O)(=O)[O-])ccc6F)c6ccc3[nH]6)C=C5)C=C4)cc2)c1
REMARK SMILES IDX 17 1 16 2 15 3 13 4 14 5 12 7 11 8 10 9 5 10 6 11 86 12 7 13
REMARK SMILES IDX 8 14 9 15 4 16 3 17 2 18 1 19 18 20 19 21 20 22 21 23 22 25
REMARK SMILES IDX 23 26 24 27 85 28 25 29 84 30 26 31 27 32 28 33 78 34 29 35
REMARK SMILES IDX 83 36 77 37 79 38 30 39 82 40 76 41 75 42 31 44 63 45 43 46
REMARK SMILES IDX 62 47 44 48 47 49 61 50 80 51 45 52 46 53 60 55 81 56 48 57
REMARK SMILES IDX 32 58 33 59 41 60 34 61 40 62 42 63 39 64 35 65 36 66 37 67
REMARK SMILES IDX 38 68 64 69 65 70 73 71 66 72 72 73 74 74 71 75 67 76 68 77
REMARK SMILES IDX 69 78 70 79 49 80 50 81 58 82 51 83 57 84 59 85 56 86 52 87
REMARK SMILES IDX 53 88 54 89 55 90
REMARK H PARENT 15 6 20 24 79 43 47 54
REMARK Flexibility Score: inf
ROOT
ATOM      1  C   UNL A   1      32.390  28.630  23.864  1.00  0.00     0.023 C 
ENDROOT
BRANCH   1   2
ATOM      2  C   UNL A   1      31.694  27.398  23.284  1.00  0.00     0.116 C 
BRANCH   2   3
ATOM      3  N   UNL A   1      32.299  26.994  22.027  1.00  0.00    -0.353 N 
ATOM      4  C   UNL A   1      32.891  25.823  21.670  1.00  0.00     0.243 C 
ATOM      5  O   UNL A   1      33.256  25.643  20.511  1.00  0.00    -0.270 OA
ATOM      6  H   UNL A   1      32.278  27.679  21.320  1.00  0.00     0.163 HD
BRANCH   4   7
ATOM      7  C   UNL A   1      33.030  24.718  22.646  1.00  0.00     0.072 C 
ATOM      8  C   UNL A   1      33.995  24.671  23.574  1.00  0.00     0.014 C 
BRANCH   8   9
ATOM      9  C   UNL A   1      34.159  23.581  24.539  1.00  0.00    -0.022 A 
ATOM     10  C   UNL A   1      34.161  21.164  24.948  1.00  0.00    -0.035 A 
ATOM     11  C   UNL A   1      34.280  21.419  26.320  1.00  0.00     0.043 A 
ATOM     12  C   UNL A   1      34.128  22.259  24.066  1.00  0.00     0.013 A 
ATOM     13  C   UNL A   1      34.328  22.730  26.785  1.00  0.00     0.124 A 
ATOM     14  F   UNL A   1      34.425  22.953  28.102  1.00  0.00    -0.207 F 
ATOM     15  C   UNL A   1      34.258  23.810  25.913  1.00  0.00     0.047 A 
BRANCH  10  16
ATOM     16  C   UNL A   1      34.096  19.744  24.444  1.00  0.00     0.105 C 
BRANCH  16  17
ATOM     17  S   UNL A   1      32.897  18.671  25.304  1.00  0.00    -0.157 SA
BRANCH  17  18
ATOM     18  C   UNL A   1      32.766  17.269  24.145  1.00  0.00     0.066 C 
ATOM     19  C   UNL A   1      34.058  17.008  23.394  1.00  0.00     0.015 C 
ENDBRANCH  17  18
ENDBRANCH  16  17
ENDBRANCH  10  16
ENDBRANCH   8   9
ENDBRANCH   4   7
ENDBRANCH   2   3
ENDBRANCH   1   2
BRANCH   1  20
ATOM     20  C   UNL A   1      33.802  28.372  24.397  1.00  0.00     0.023 C 
BRANCH  20  21
ATOM     21  C   UNL A   1      33.980  28.594  25.896  1.00  0.00     0.116 C 
BRANCH  21  22
ATOM     22  N   UNL A   1      33.639  29.943  26.319  1.00  0.00    -0.352 N 
ATOM     23  C   UNL A   1      34.280  30.739  27.237  1.00  0.00     0.251 C 
ATOM     24  H   UNL A   1      32.845  30.338  25.890  1.00  0.00     0.163 HD
ATOM     25  O   UNL A   1      33.788  31.812  27.561  1.00  0.00    -0.269 OA
BRANCH  23  26
ATOM     26  C   UNL A   1      35.539  30.269  27.858  1.00  0.00     0.039 A 
ATOM     27  C   UNL A   1      35.480  29.664  29.116  1.00  0.00     0.014 A 
ATOM     28  C   UNL A   1      36.766  30.419  27.205  1.00  0.00     0.014 A 
ATOM     29  C   UNL A   1      36.647  29.162  29.697  1.00  0.00     0.010 A 
ATOM     30  C   UNL A   1      37.915  29.859  27.755  1.00  0.00     0.010 A 
ATOM     31  C   UNL A   1      37.869  29.233  29.010  1.00  0.00    -0.014 A 
BRANCH  31  32
ATOM     32  C   UNL A   1      39.116  28.695  29.608  1.00  0.00     0.031 A 
ATOM     33  C   UNL A   1      39.642  29.283  30.889  1.00  0.00     0.074 A 
ATOM     34  C   UNL A   1      39.791  27.710  28.984  1.00  0.00     0.049 A 
ATOM     35  N   UNL A   1      40.745  29.004  31.534  1.00  0.00    -0.248 NA
ATOM     36  C   UNL A   1      38.833  30.342  31.514  1.00  0.00     0.031 C 
ATOM     37  C   UNL A   1      39.395  27.081  27.722  1.00  0.00     0.029 A 
ATOM     38  N   UNL A   1      40.952  27.063  29.326  1.00  0.00    -0.354 N 
ATOM     39  C   UNL A   1      40.770  29.861  32.628  1.00  0.00     0.074 A 
ATOM     40  C   UNL A   1      39.600  30.706  32.531  1.00  0.00     0.031 C 
ATOM     41  C   UNL A   1      40.277  26.116  27.415  1.00  0.00     0.029 A 
ATOM     42  C   UNL A   1      41.322  26.083  28.434  1.00  0.00     0.049 A 
ATOM     43  H   UNL A   1      41.472  27.280  30.133  1.00  0.00     0.167 HD
ATOM     44  C   UNL A   1      41.671  29.919  33.637  1.00  0.00     0.034 A 
ATOM     45  C   UNL A   1      42.387  25.256  28.435  1.00  0.00     0.034 A 
ATOM     46  C   UNL A   1      42.808  29.042  33.748  1.00  0.00     0.049 A 
ATOM     47  C   UNL A   1      43.389  25.355  29.554  1.00  0.00     0.074 A 
ATOM     48  C   UNL A   1      43.739  28.967  34.768  1.00  0.00     0.029 A 
ATOM     49  N   UNL A   1      43.167  28.088  32.807  1.00  0.00    -0.354 N 
ATOM     50  N   UNL A   1      43.386  26.159  30.591  1.00  0.00    -0.248 NA
ATOM     51  C   UNL A   1      44.542  24.445  29.499  1.00  0.00     0.031 C 
ATOM     52  C   UNL A   1      44.690  28.004  34.420  1.00  0.00     0.029 A 
ATOM     53  C   UNL A   1      44.322  27.441  33.208  1.00  0.00     0.049 A 
ATOM     54  H   UNL A   1      42.671  27.899  31.977  1.00  0.00     0.167 HD
ATOM     55  C   UNL A   1      44.529  25.844  31.318  1.00  0.00     0.074 A 
ATOM     56  C   UNL A   1      45.196  24.774  30.606  1.00  0.00     0.031 C 
ATOM     57  C   UNL A   1      44.982  26.392  32.473  1.00  0.00     0.034 A 
BRANCH  44  58
ATOM     58  C   UNL A   1      41.465  30.966  34.699  1.00  0.00     0.023 A 
ATOM     59  C   UNL A   1      40.309  30.980  35.497  1.00  0.00     0.031 A 
ATOM     60  C   UNL A   1      42.437  31.956  34.920  1.00  0.00     0.131 A 
ATOM     61  C   UNL A   1      40.129  31.997  36.444  1.00  0.00     0.055 A 
ATOM     62  C   UNL A   1      42.282  32.927  35.909  1.00  0.00     0.041 A 
ATOM     63  F   UNL A   1      43.551  31.998  34.173  1.00  0.00    -0.206 F 
ATOM     64  C   UNL A   1      41.118  32.957  36.674  1.00  0.00     0.022 A 
BRANCH  61  65
ATOM     65  S   UNL A   1      38.543  32.099  37.318  1.00  0.00     0.124 S 
ATOM     66  O   UNL A   1      37.956  30.798  37.011  1.00  0.00    -0.237 OA
ATOM     67  O   UNL A   1      38.955  32.302  38.703  1.00  0.00    -0.237 OA
ATOM     68  O   UNL A   1      37.880  33.241  36.692  1.00  0.00    -0.744 OA
ENDBRANCH  61  65
ENDBRANCH  44  58
BRANCH  45  69
ATOM     69  C   UNL A   1      42.565  24.271  27.334  1.00  0.00     0.023 A 
ATOM     70  C   UNL A   1      41.930  23.020  27.377  1.00  0.00     0.031 A 
ATOM     71  C   UNL A   1      43.369  24.570  26.220  1.00  0.00     0.131 A 
ATOM     72  C   UNL A   1      42.125  22.103  26.332  1.00  0.00     0.055 A 
ATOM     73  C   UNL A   1      43.533  23.668  25.168  1.00  0.00     0.041 A 
ATOM     74  F   UNL A   1      43.989  25.758  26.131  1.00  0.00    -0.206 F 
ATOM     75  C   UNL A   1      42.913  22.424  25.223  1.00  0.00     0.022 A 
BRANCH  72  76
ATOM     76  S   UNL A   1      41.347  20.469  26.447  1.00  0.00     0.124 S 
ATOM     77  O   UNL A   1      42.062  19.726  25.417  1.00  0.00    -0.237 OA
ATOM     78  O   UNL A   1      41.634  20.091  27.828  1.00  0.00    -0.237 OA
ATOM     79  O   UNL A   1      39.940  20.741  26.161  1.00  0.00    -0.744 OA
ENDBRANCH  72  76
ENDBRANCH  45  69
BRANCH  57  80
ATOM     80  C   UNL A   1      46.258  25.842  33.048  1.00  0.00     0.023 A 
ATOM     81  C   UNL A   1      46.245  24.747  33.926  1.00  0.00     0.031 A 
ATOM     82  C   UNL A   1      47.499  26.370  32.650  1.00  0.00     0.131 A 
ATOM     83  C   UNL A   1      47.457  24.218  34.392  1.00  0.00     0.055 A 
ATOM     84  C   UNL A   1      48.701  25.816  33.087  1.00  0.00     0.041 A 
ATOM     85  F   UNL A   1      47.558  27.412  31.806  1.00  0.00    -0.206 F 
ATOM     86  C   UNL A   1      48.684  24.733  33.963  1.00  0.00     0.022 A 
BRANCH  83  87
ATOM     87  S   UNL A   1      47.414  22.838  35.566  1.00  0.00     0.124 S 
ATOM     88  O   UNL A   1      46.149  23.071  36.258  1.00  0.00    -0.237 OA
ATOM     89  O   UNL A   1      47.455  21.670  34.690  1.00  0.00    -0.237 OA
ATOM     90  O   UNL A   1      48.612  23.040  36.377  1.00  0.00    -0.744 OA
ENDBRANCH  83  87
ENDBRANCH  57  80
ENDBRANCH  31  32
ENDBRANCH  23  26
ENDBRANCH  21  22
ENDBRANCH  20  21
ENDBRANCH   1  20
TORSDOF 18
ENDMDL
