MODEL 1
REMARK VINA RESULT:     -12.9      0.000      0.000
REMARK SMILES Cc1ccc(S(=O)(=O)n2cc(C(=O)C(=O)NCC(=O)NCC(=O)NCCCCNC(=O)c3ccc(-c4c5nc(c(-c6cc(S(=O)(=O)[O-])ccc6F)c6ccc([nH]6)c(-c6cc(S(=O)(=O)[O-])ccc6F)c6nc(c(-c7cc(S(=O)(=O)[O-])ccc7F)c7ccc4[nH]7)C=C6)C=C5)cc3)c3ccccc32)cc1
REMARK SMILES IDX 22 1 23 2 24 3 21 5 20 6 18 7 19 8 17 10 16 11 14 12 15 13
REMARK SMILES IDX 12 15 13 16 11 17 9 18 10 19 100 20 95 21 99 22 96 23 98 24
REMARK SMILES IDX 97 25 6 26 7 27 8 28 5 29 1 30 2 31 3 32 102 33 4 34 101 35
REMARK SMILES IDX 25 36 26 37 27 38 28 39 29 40 30 41 31 43 32 44 33 45 94 46
REMARK SMILES IDX 34 47 93 48 35 49 36 50 37 51 87 52 38 53 92 54 86 55 88 56
REMARK SMILES IDX 39 57 91 58 85 59 84 60 40 62 72 63 52 64 71 65 53 66 56 67
REMARK SMILES IDX 70 68 89 69 54 70 55 71 69 73 90 74 57 75 41 76 42 77 50 78
REMARK SMILES IDX 43 79 49 80 51 81 48 82 44 83 45 84 46 85 47 86 73 87 74 88
REMARK SMILES IDX 82 89 75 90 81 91 83 92 80 93 76 94 77 95 78 96 79 97 58 98
REMARK SMILES IDX 59 99 67 100 60 101 66 102 68 103 65 104 61 105 62 106
REMARK SMILES IDX 63 107 64 108
REMARK H PARENT 24 4 20 9 16 14 29 42 88 61 56 72
REMARK Flexibility Score: inf
ROOT
ATOM      1  C   UNL A   1      33.951  31.461  27.738  1.00  0.00     0.239 C 
ATOM      2  O   UNL A   1      34.917  30.695  27.800  1.00  0.00    -0.273 OA
ATOM      3  N   UNL A   1      34.105  32.731  28.212  1.00  0.00    -0.355 N 
ATOM      4  H   UNL A   1      34.954  32.911  28.679  1.00  0.00     0.163 HD
ENDROOT
BRANCH   1   5
ATOM      5  C   UNL A   1      32.670  31.037  26.998  1.00  0.00     0.216 C 
BRANCH   5   6
ATOM      6  N   UNL A   1      32.027  29.831  27.481  1.00  0.00    -0.346 N 
ATOM      7  C   UNL A   1      31.845  28.614  26.895  1.00  0.00     0.239 C 
ATOM      8  O   UNL A   1      31.515  27.700  27.662  1.00  0.00    -0.273 OA
ATOM      9  H   UNL A   1      31.657  29.904  28.391  1.00  0.00     0.164 HD
BRANCH   7  10
ATOM     10  C   UNL A   1      32.227  28.312  25.430  1.00  0.00     0.216 C 
BRANCH  10  11
ATOM     11  N   UNL A   1      31.438  28.947  24.380  1.00  0.00    -0.340 N 
ATOM     12  C   UNL A   1      30.385  28.533  23.601  1.00  0.00     0.292 C 
ATOM     13  O   UNL A   1      29.976  29.244  22.691  1.00  0.00    -0.265 OA
ATOM     14  H   UNL A   1      31.721  29.871  24.188  1.00  0.00     0.164 HD
BRANCH  12  15
ATOM     15  C   UNL A   1      29.730  27.156  23.846  1.00  0.00     0.252 C 
ATOM     16  O   UNL A   1      28.503  27.095  23.845  1.00  0.00    -0.283 OA
BRANCH  15  17
ATOM     17  C   UNL A   1      30.507  25.932  24.103  1.00  0.00     0.054 A 
ATOM     18  N   UNL A   1      31.408  24.103  25.018  1.00  0.00    -0.240 N 
ATOM     19  C   UNL A   1      30.540  25.144  25.241  1.00  0.00     0.117 A 
ATOM     20  C   UNL A   1      31.964  24.176  23.757  1.00  0.00     0.065 A 
ATOM     21  C   UNL A   1      31.419  25.322  23.167  1.00  0.00     0.012 A 
ATOM     22  C   UNL A   1      32.910  23.378  23.084  1.00  0.00     0.028 A 
ATOM     23  C   UNL A   1      31.832  25.666  21.859  1.00  0.00     0.011 A 
ATOM     24  C   UNL A   1      33.314  23.763  21.803  1.00  0.00     0.002 A 
ATOM     25  C   UNL A   1      32.781  24.890  21.193  1.00  0.00     0.001 A 
BRANCH  18  26
ATOM     26  S   UNL A   1      31.812  22.922  26.184  1.00  0.00     0.268 S 
ATOM     27  O   UNL A   1      31.153  21.716  25.725  1.00  0.00    -0.201 OA
ATOM     28  O   UNL A   1      31.513  23.528  27.470  1.00  0.00    -0.201 OA
BRANCH  26  29
ATOM     29  C   UNL A   1      33.564  22.651  26.095  1.00  0.00     0.088 A 
ATOM     30  C   UNL A   1      37.751  21.871  25.475  1.00  0.00     0.044 C 
ATOM     31  C   UNL A   1      36.295  22.145  25.708  1.00  0.00    -0.051 A 
ATOM     32  C   UNL A   1      35.353  21.127  25.522  1.00  0.00     0.005 A 
ATOM     33  C   UNL A   1      35.859  23.408  26.127  1.00  0.00     0.005 A 
ATOM     34  C   UNL A   1      33.992  21.378  25.708  1.00  0.00     0.022 A 
ATOM     35  C   UNL A   1      34.499  23.660  26.334  1.00  0.00     0.022 A 
ENDBRANCH  26  29
ENDBRANCH  18  26
ENDBRANCH  15  17
ENDBRANCH  12  15
ENDBRANCH  10  11
ENDBRANCH   7  10
ENDBRANCH   5   6
ENDBRANCH   1   5
BRANCH   3  36
ATOM     36  C   UNL A   1      33.186  33.851  28.119  1.00  0.00     0.116 C 
BRANCH  36  37
ATOM     37  C   UNL A   1      33.830  35.190  28.476  1.00  0.00     0.023 C 
BRANCH  37  38
ATOM     38  C   UNL A   1      33.055  36.006  29.500  1.00  0.00     0.023 C 
BRANCH  38  39
ATOM     39  C   UNL A   1      33.603  35.940  30.918  1.00  0.00     0.116 C 
BRANCH  39  40
ATOM     40  N   UNL A   1      33.300  34.746  31.691  1.00  0.00    -0.352 N 
ATOM     41  C   UNL A   1      34.160  33.726  32.079  1.00  0.00     0.251 C 
ATOM     42  H   UNL A   1      32.362  34.648  31.976  1.00  0.00     0.163 HD
ATOM     43  O   UNL A   1      33.733  32.690  32.584  1.00  0.00    -0.269 OA
BRANCH  41  44
ATOM     44  C   UNL A   1      35.634  33.963  32.075  1.00  0.00     0.039 A 
ATOM     45  C   UNL A   1      36.230  34.170  30.822  1.00  0.00     0.014 A 
ATOM     46  C   UNL A   1      36.422  33.612  33.161  1.00  0.00     0.014 A 
ATOM     47  C   UNL A   1      37.510  33.686  30.591  1.00  0.00     0.010 A 
ATOM     48  C   UNL A   1      37.606  32.975  32.910  1.00  0.00     0.010 A 
ATOM     49  C   UNL A   1      38.110  32.961  31.613  1.00  0.00    -0.014 A 
BRANCH  49  50
ATOM     50  C   UNL A   1      39.314  32.176  31.466  1.00  0.00     0.031 A 
ATOM     51  C   UNL A   1      39.144  30.829  30.914  1.00  0.00     0.074 A 
ATOM     52  C   UNL A   1      40.495  32.790  31.690  1.00  0.00     0.049 A 
ATOM     53  N   UNL A   1      39.881  29.820  31.191  1.00  0.00    -0.248 NA
ATOM     54  C   UNL A   1      38.025  30.493  30.033  1.00  0.00     0.031 C 
ATOM     55  C   UNL A   1      41.844  32.329  31.397  1.00  0.00     0.029 A 
ATOM     56  N   UNL A   1      40.686  33.944  32.460  1.00  0.00    -0.354 N 
ATOM     57  C   UNL A   1      39.571  28.835  30.275  1.00  0.00     0.074 A 
ATOM     58  C   UNL A   1      38.316  29.235  29.698  1.00  0.00     0.031 C 
ATOM     59  C   UNL A   1      42.701  32.969  32.217  1.00  0.00     0.029 A 
ATOM     60  C   UNL A   1      41.904  33.761  33.144  1.00  0.00     0.049 A 
ATOM     61  H   UNL A   1      40.090  34.726  32.512  1.00  0.00     0.167 HD
ATOM     62  C   UNL A   1      40.522  27.911  29.972  1.00  0.00     0.034 A 
ATOM     63  C   UNL A   1      41.890  33.614  34.503  1.00  0.00     0.034 A 
ATOM     64  C   UNL A   1      41.725  28.178  30.760  1.00  0.00     0.049 A 
ATOM     65  C   UNL A   1      42.315  32.219  34.902  1.00  0.00     0.074 A 
ATOM     66  C   UNL A   1      42.877  28.891  30.468  1.00  0.00     0.029 A 
ATOM     67  N   UNL A   1      41.672  28.056  32.141  1.00  0.00    -0.354 N 
ATOM     68  N   UNL A   1      42.214  31.171  34.125  1.00  0.00    -0.248 NA
ATOM     69  C   UNL A   1      42.944  31.913  36.181  1.00  0.00     0.031 C 
ATOM     70  C   UNL A   1      43.459  29.289  31.701  1.00  0.00     0.029 A 
ATOM     71  C   UNL A   1      42.683  28.790  32.733  1.00  0.00     0.049 A 
ATOM     72  H   UNL A   1      41.007  27.523  32.632  1.00  0.00     0.167 HD
ATOM     73  C   UNL A   1      42.759  30.083  34.753  1.00  0.00     0.074 A 
ATOM     74  C   UNL A   1      43.214  30.605  36.033  1.00  0.00     0.031 C 
ATOM     75  C   UNL A   1      42.799  28.839  34.182  1.00  0.00     0.034 A 
BRANCH  62  76
ATOM     76  C   UNL A   1      40.527  26.998  28.767  1.00  0.00     0.023 A 
ATOM     77  C   UNL A   1      41.511  27.218  27.781  1.00  0.00     0.031 A 
ATOM     78  C   UNL A   1      39.632  25.946  28.493  1.00  0.00     0.131 A 
ATOM     79  C   UNL A   1      41.542  26.485  26.583  1.00  0.00     0.055 A 
ATOM     80  C   UNL A   1      39.640  25.232  27.283  1.00  0.00     0.041 A 
ATOM     81  F   UNL A   1      38.736  25.514  29.388  1.00  0.00    -0.206 F 
ATOM     82  C   UNL A   1      40.597  25.503  26.318  1.00  0.00     0.022 A 
BRANCH  79  83
ATOM     83  S   UNL A   1      42.857  26.835  25.387  1.00  0.00     0.124 S 
ATOM     84  O   UNL A   1      43.985  27.161  26.254  1.00  0.00    -0.237 OA
ATOM     85  O   UNL A   1      42.951  25.577  24.652  1.00  0.00    -0.237 OA
ATOM     86  O   UNL A   1      42.323  27.958  24.619  1.00  0.00    -0.744 OA
ENDBRANCH  79  83
ENDBRANCH  62  76
BRANCH  63  87
ATOM     87  C   UNL A   1      40.817  34.440  35.150  1.00  0.00     0.023 A 
ATOM     88  C   UNL A   1      39.722  33.742  35.716  1.00  0.00     0.031 A 
ATOM     89  C   UNL A   1      41.060  35.742  35.606  1.00  0.00     0.131 A 
ATOM     90  C   UNL A   1      39.051  34.258  36.837  1.00  0.00     0.055 A 
ATOM     91  C   UNL A   1      40.333  36.283  36.676  1.00  0.00     0.041 A 
ATOM     92  F   UNL A   1      42.086  36.459  35.124  1.00  0.00    -0.206 F 
ATOM     93  C   UNL A   1      39.368  35.520  37.336  1.00  0.00     0.022 A 
BRANCH  90  94
ATOM     94  S   UNL A   1      37.971  33.154  37.795  1.00  0.00     0.124 S 
ATOM     95  O   UNL A   1      36.717  33.228  37.056  1.00  0.00    -0.237 OA
ATOM     96  O   UNL A   1      38.665  31.866  37.718  1.00  0.00    -0.237 OA
ATOM     97  O   UNL A   1      37.959  33.736  39.135  1.00  0.00    -0.744 OA
ENDBRANCH  90  94
ENDBRANCH  63  87
BRANCH  75  98
ATOM     98  C   UNL A   1      43.048  27.558  34.945  1.00  0.00     0.023 A 
ATOM     99  C   UNL A   1      44.089  26.687  34.613  1.00  0.00     0.031 A 
ATOM    100  C   UNL A   1      42.295  27.200  36.090  1.00  0.00     0.131 A 
ATOM    101  C   UNL A   1      44.250  25.462  35.272  1.00  0.00     0.055 A 
ATOM    102  C   UNL A   1      42.546  26.043  36.832  1.00  0.00     0.041 A 
ATOM    103  F   UNL A   1      41.287  27.957  36.548  1.00  0.00    -0.206 F 
ATOM    104  C   UNL A   1      43.508  25.144  36.403  1.00  0.00     0.022 A 
BRANCH 101 105
ATOM    105  S   UNL A   1      45.355  24.253  34.508  1.00  0.00     0.124 S 
ATOM    106  O   UNL A   1      44.756  24.103  33.183  1.00  0.00    -0.237 OA
ATOM    107  O   UNL A   1      46.644  24.935  34.543  1.00  0.00    -0.237 OA
ATOM    108  O   UNL A   1      45.241  23.086  35.379  1.00  0.00    -0.744 OA
ENDBRANCH 101 105
ENDBRANCH  75  98
ENDBRANCH  49  50
ENDBRANCH  41  44
ENDBRANCH  39  40
ENDBRANCH  38  39
ENDBRANCH  37  38
ENDBRANCH  36  37
ENDBRANCH   3  36
TORSDOF 21
ENDMDL
MODEL 2
REMARK VINA RESULT:     -12.2      3.069      4.563
REMARK SMILES Cc1ccc(S(=O)(=O)n2cc(C(=O)C(=O)NCC(=O)NCC(=O)NCCCCNC(=O)c3ccc(-c4c5nc(c(-c6cc(S(=O)(=O)[O-])ccc6F)c6ccc([nH]6)c(-c6cc(S(=O)(=O)[O-])ccc6F)c6nc(c(-c7cc(S(=O)(=O)[O-])ccc7F)c7ccc4[nH]7)C=C6)C=C5)cc3)c3ccccc32)cc1
REMARK SMILES IDX 22 1 23 2 24 3 21 5 20 6 18 7 19 8 17 10 16 11 14 12 15 13
REMARK SMILES IDX 12 15 13 16 11 17 9 18 10 19 100 20 95 21 99 22 96 23 98 24
REMARK SMILES IDX 97 25 6 26 7 27 8 28 5 29 1 30 2 31 3 32 102 33 4 34 101 35
REMARK SMILES IDX 25 36 26 37 27 38 28 39 29 40 30 41 31 43 32 44 33 45 94 46
REMARK SMILES IDX 34 47 93 48 35 49 36 50 37 51 87 52 38 53 92 54 86 55 88 56
REMARK SMILES IDX 39 57 91 58 85 59 84 60 40 62 72 63 52 64 71 65 53 66 56 67
REMARK SMILES IDX 70 68 89 69 54 70 55 71 69 73 90 74 57 75 41 76 42 77 50 78
REMARK SMILES IDX 43 79 49 80 51 81 48 82 44 83 45 84 46 85 47 86 73 87 74 88
REMARK SMILES IDX 82 89 75 90 81 91 83 92 80 93 76 94 77 95 78 96 79 97 58 98
REMARK SMILES IDX 59 99 67 100 60 101 66 102 68 103 65 104 61 105 62 106
REMARK SMILES IDX 63 107 64 108
REMARK H PARENT 24 4 20 9 16 14 29 42 88 61 56 72
REMARK Flexibility Score: inf
ROOT
ATOM      1  C   UNL A   1      34.860  30.358  27.550  1.00  0.00     0.239 C 
ATOM      2  O   UNL A   1      35.278  29.206  27.399  1.00  0.00    -0.273 OA
ATOM      3  N   UNL A   1      35.760  31.330  27.877  1.00  0.00    -0.355 N 
ATOM      4  H   UNL A   1      36.670  31.016  28.085  1.00  0.00     0.163 HD
ENDROOT
BRANCH   1   5
ATOM      5  C   UNL A   1      33.400  30.706  27.212  1.00  0.00     0.216 C 
BRANCH   5   6
ATOM      6  N   UNL A   1      32.407  29.725  27.606  1.00  0.00    -0.346 N 
ATOM      7  C   UNL A   1      31.888  28.656  26.940  1.00  0.00     0.239 C 
ATOM      8  O   UNL A   1      31.271  27.842  27.640  1.00  0.00    -0.273 OA
ATOM      9  H   UNL A   1      32.045  29.855  28.512  1.00  0.00     0.164 HD
BRANCH   7  10
ATOM     10  C   UNL A   1      32.211  28.336  25.464  1.00  0.00     0.216 C 
BRANCH  10  11
ATOM     11  N   UNL A   1      31.514  29.103  24.436  1.00  0.00    -0.340 N 
ATOM     12  C   UNL A   1      30.530  28.797  23.528  1.00  0.00     0.292 C 
ATOM     13  O   UNL A   1      30.200  29.618  22.680  1.00  0.00    -0.265 OA
ATOM     14  H   UNL A   1      31.813  30.040  24.383  1.00  0.00     0.164 HD
BRANCH  12  15
ATOM     15  C   UNL A   1      29.856  27.408  23.548  1.00  0.00     0.252 C 
ATOM     16  O   UNL A   1      28.633  27.361  23.446  1.00  0.00    -0.283 OA
BRANCH  15  17
ATOM     17  C   UNL A   1      30.609  26.153  23.709  1.00  0.00     0.054 A 
ATOM     18  N   UNL A   1      32.010  24.431  23.448  1.00  0.00    -0.240 N 
ATOM     19  C   UNL A   1      31.593  25.617  22.895  1.00  0.00     0.117 A 
ATOM     20  C   UNL A   1      31.324  24.154  24.614  1.00  0.00     0.065 A 
ATOM     21  C   UNL A   1      30.433  25.219  24.793  1.00  0.00     0.012 A 
ATOM     22  C   UNL A   1      31.368  23.070  25.512  1.00  0.00     0.028 A 
ATOM     23  C   UNL A   1      29.571  25.192  25.912  1.00  0.00     0.011 A 
ATOM     24  C   UNL A   1      30.483  23.064  26.593  1.00  0.00     0.002 A 
ATOM     25  C   UNL A   1      29.597  24.113  26.796  1.00  0.00     0.001 A 
BRANCH  18  26
ATOM     26  S   UNL A   1      33.165  23.393  22.738  1.00  0.00     0.268 S 
ATOM     27  O   UNL A   1      33.518  24.040  21.489  1.00  0.00    -0.201 OA
ATOM     28  O   UNL A   1      32.577  22.066  22.784  1.00  0.00    -0.201 OA
BRANCH  26  29
ATOM     29  C   UNL A   1      34.605  23.395  23.776  1.00  0.00     0.088 A 
ATOM     30  C   UNL A   1      38.313  23.547  25.956  1.00  0.00     0.044 C 
ATOM     31  C   UNL A   1      37.014  23.486  25.210  1.00  0.00    -0.051 A 
ATOM     32  C   UNL A   1      36.911  22.714  24.046  1.00  0.00     0.005 A 
ATOM     33  C   UNL A   1      35.888  24.180  25.669  1.00  0.00     0.005 A 
ATOM     34  C   UNL A   1      35.715  22.673  23.327  1.00  0.00     0.022 A 
ATOM     35  C   UNL A   1      34.681  24.127  24.964  1.00  0.00     0.022 A 
ENDBRANCH  26  29
ENDBRANCH  18  26
ENDBRANCH  15  17
ENDBRANCH  12  15
ENDBRANCH  10  11
ENDBRANCH   7  10
ENDBRANCH   5   6
ENDBRANCH   1   5
BRANCH   3  36
ATOM     36  C   UNL A   1      35.553  32.765  27.961  1.00  0.00     0.116 C 
BRANCH  36  37
ATOM     37  C   UNL A   1      36.828  33.538  28.294  1.00  0.00     0.023 C 
BRANCH  37  38
ATOM     38  C   UNL A   1      36.977  33.902  29.764  1.00  0.00     0.023 C 
BRANCH  38  39
ATOM     39  C   UNL A   1      37.791  32.913  30.587  1.00  0.00     0.116 C 
BRANCH  39  40
ATOM     40  N   UNL A   1      37.055  31.893  31.316  1.00  0.00    -0.352 N 
ATOM     41  C   UNL A   1      36.994  30.527  31.067  1.00  0.00     0.251 C 
ATOM     42  H   UNL A   1      36.531  32.212  32.086  1.00  0.00     0.163 HD
ATOM     43  O   UNL A   1      36.195  29.805  31.659  1.00  0.00    -0.269 OA
BRANCH  41  44
ATOM     44  C   UNL A   1      38.043  29.885  30.221  1.00  0.00     0.039 A 
ATOM     45  C   UNL A   1      38.117  28.485  30.272  1.00  0.00     0.014 A 
ATOM     46  C   UNL A   1      39.119  30.612  29.736  1.00  0.00     0.014 A 
ATOM     47  C   UNL A   1      39.357  27.867  30.183  1.00  0.00     0.010 A 
ATOM     48  C   UNL A   1      40.362  30.047  29.820  1.00  0.00     0.010 A 
ATOM     49  C   UNL A   1      40.474  28.689  30.108  1.00  0.00    -0.014 A 
BRANCH  49  50
ATOM     50  C   UNL A   1      41.837  28.239  30.263  1.00  0.00     0.031 A 
ATOM     51  C   UNL A   1      42.236  27.090  29.444  1.00  0.00     0.074 A 
ATOM     52  C   UNL A   1      42.668  28.996  31.011  1.00  0.00     0.049 A 
ATOM     53  N   UNL A   1      43.111  26.217  29.775  1.00  0.00    -0.248 NA
ATOM     54  C   UNL A   1      41.580  26.787  28.171  1.00  0.00     0.031 C 
ATOM     55  C   UNL A   1      44.115  28.919  31.145  1.00  0.00     0.029 A 
ATOM     56  N   UNL A   1      42.278  29.908  31.999  1.00  0.00    -0.354 N 
ATOM     57  C   UNL A   1      43.387  25.479  28.642  1.00  0.00     0.074 A 
ATOM     58  C   UNL A   1      42.306  25.756  27.735  1.00  0.00     0.031 C 
ATOM     59  C   UNL A   1      44.463  29.471  32.324  1.00  0.00     0.029 A 
ATOM     60  C   UNL A   1      43.232  29.797  33.031  1.00  0.00     0.049 A 
ATOM     61  H   UNL A   1      41.497  30.506  31.977  1.00  0.00     0.167 HD
ATOM     62  C   UNL A   1      44.609  24.889  28.536  1.00  0.00     0.034 A 
ATOM     63  C   UNL A   1      42.851  29.284  34.239  1.00  0.00     0.034 A 
ATOM     64  C   UNL A   1      45.388  25.169  29.741  1.00  0.00     0.049 A 
ATOM     65  C   UNL A   1      43.516  27.950  34.495  1.00  0.00     0.074 A 
ATOM     66  C   UNL A   1      46.319  26.155  30.026  1.00  0.00     0.029 A 
ATOM     67  N   UNL A   1      44.957  24.665  30.961  1.00  0.00    -0.354 N 
ATOM     68  N   UNL A   1      43.959  27.158  33.553  1.00  0.00    -0.248 NA
ATOM     69  C   UNL A   1      43.789  27.441  35.833  1.00  0.00     0.031 C 
ATOM     70  C   UNL A   1      46.362  26.310  31.437  1.00  0.00     0.029 A 
ATOM     71  C   UNL A   1      45.488  25.399  32.005  1.00  0.00     0.049 A 
ATOM     72  H   UNL A   1      44.357  23.893  31.067  1.00  0.00     0.167 HD
ATOM     73  C   UNL A   1      44.576  26.075  34.119  1.00  0.00     0.074 A 
ATOM     74  C   UNL A   1      44.454  26.308  35.550  1.00  0.00     0.031 C 
ATOM     75  C   UNL A   1      45.142  25.071  33.379  1.00  0.00     0.034 A 
BRANCH  62  76
ATOM     76  C   UNL A   1      45.238  24.362  27.266  1.00  0.00     0.023 A 
ATOM     77  C   UNL A   1      44.779  23.123  26.771  1.00  0.00     0.031 A 
ATOM     78  C   UNL A   1      46.268  24.961  26.514  1.00  0.00     0.131 A 
ATOM     79  C   UNL A   1      45.362  22.506  25.653  1.00  0.00     0.055 A 
ATOM     80  C   UNL A   1      46.875  24.332  25.415  1.00  0.00     0.041 A 
ATOM     81  F   UNL A   1      46.710  26.198  26.764  1.00  0.00    -0.206 F 
ATOM     82  C   UNL A   1      46.426  23.095  24.980  1.00  0.00     0.022 A 
BRANCH  79  83
ATOM     83  S   UNL A   1      44.689  20.922  25.087  1.00  0.00     0.124 S 
ATOM     84  O   UNL A   1      44.359  21.206  23.694  1.00  0.00    -0.237 OA
ATOM     85  O   UNL A   1      45.807  20.011  25.312  1.00  0.00    -0.237 OA
ATOM     86  O   UNL A   1      43.539  20.712  25.965  1.00  0.00    -0.744 OA
ENDBRANCH  79  83
ENDBRANCH  62  76
BRANCH  63  87
ATOM     87  C   UNL A   1      41.443  29.663  34.595  1.00  0.00     0.023 A 
ATOM     88  C   UNL A   1      41.250  30.935  35.188  1.00  0.00     0.031 A 
ATOM     89  C   UNL A   1      40.338  29.060  33.981  1.00  0.00     0.131 A 
ATOM     90  C   UNL A   1      40.059  31.647  34.974  1.00  0.00     0.055 A 
ATOM     91  C   UNL A   1      39.123  29.748  33.839  1.00  0.00     0.041 A 
ATOM     92  F   UNL A   1      40.449  27.862  33.389  1.00  0.00    -0.206 F 
ATOM     93  C   UNL A   1      38.998  31.066  34.280  1.00  0.00     0.022 A 
BRANCH  90  94
ATOM     94  S   UNL A   1      40.019  33.422  35.362  1.00  0.00     0.124 S 
ATOM     95  O   UNL A   1      41.018  33.962  34.449  1.00  0.00    -0.237 OA
ATOM     96  O   UNL A   1      38.634  33.794  35.062  1.00  0.00    -0.237 OA
ATOM     97  O   UNL A   1      40.350  33.488  36.784  1.00  0.00    -0.744 OA
ENDBRANCH  90  94
ENDBRANCH  63  87
BRANCH  75  98
ATOM     98  C   UNL A   1      45.504  23.709  33.924  1.00  0.00     0.023 A 
ATOM     99  C   UNL A   1      46.808  23.386  34.306  1.00  0.00     0.031 A 
ATOM    100  C   UNL A   1      44.533  22.704  34.159  1.00  0.00     0.131 A 
ATOM    101  C   UNL A   1      47.144  22.093  34.726  1.00  0.00     0.055 A 
ATOM    102  C   UNL A   1      44.848  21.459  34.708  1.00  0.00     0.041 A 
ATOM    103  F   UNL A   1      43.235  22.885  33.875  1.00  0.00    -0.206 F 
ATOM    104  C   UNL A   1      46.170  21.131  34.963  1.00  0.00     0.022 A 
BRANCH 101 105
ATOM    105  S   UNL A   1      48.902  21.681  34.804  1.00  0.00     0.124 S 
ATOM    106  O   UNL A   1      49.497  22.783  34.052  1.00  0.00    -0.237 OA
ATOM    107  O   UNL A   1      49.164  21.683  36.240  1.00  0.00    -0.237 OA
ATOM    108  O   UNL A   1      48.977  20.373  34.157  1.00  0.00    -0.744 OA
ENDBRANCH 101 105
ENDBRANCH  75  98
ENDBRANCH  49  50
ENDBRANCH  41  44
ENDBRANCH  39  40
ENDBRANCH  38  39
ENDBRANCH  37  38
ENDBRANCH  36  37
ENDBRANCH   3  36
TORSDOF 21
ENDMDL
MODEL 3
REMARK VINA RESULT:     -12.0      2.217      3.011
REMARK SMILES Cc1ccc(S(=O)(=O)n2cc(C(=O)C(=O)NCC(=O)NCC(=O)NCCCCNC(=O)c3ccc(-c4c5nc(c(-c6cc(S(=O)(=O)[O-])ccc6F)c6ccc([nH]6)c(-c6cc(S(=O)(=O)[O-])ccc6F)c6nc(c(-c7cc(S(=O)(=O)[O-])ccc7F)c7ccc4[nH]7)C=C6)C=C5)cc3)c3ccccc32)cc1
REMARK SMILES IDX 22 1 23 2 24 3 21 5 20 6 18 7 19 8 17 10 16 11 14 12 15 13
REMARK SMILES IDX 12 15 13 16 11 17 9 18 10 19 100 20 95 21 99 22 96 23 98 24
REMARK SMILES IDX 97 25 6 26 7 27 8 28 5 29 1 30 2 31 3 32 102 33 4 34 101 35
REMARK SMILES IDX 25 36 26 37 27 38 28 39 29 40 30 41 31 43 32 44 33 45 94 46
REMARK SMILES IDX 34 47 93 48 35 49 36 50 37 51 87 52 38 53 92 54 86 55 88 56
REMARK SMILES IDX 39 57 91 58 85 59 84 60 40 62 72 63 52 64 71 65 53 66 56 67
REMARK SMILES IDX 70 68 89 69 54 70 55 71 69 73 90 74 57 75 41 76 42 77 50 78
REMARK SMILES IDX 43 79 49 80 51 81 48 82 44 83 45 84 46 85 47 86 73 87 74 88
REMARK SMILES IDX 82 89 75 90 81 91 83 92 80 93 76 94 77 95 78 96 79 97 58 98
REMARK SMILES IDX 59 99 67 100 60 101 66 102 68 103 65 104 61 105 62 106
REMARK SMILES IDX 63 107 64 108
REMARK H PARENT 24 4 20 9 16 14 29 42 88 61 56 72
REMARK Flexibility Score: inf
ROOT
ATOM      1  C   UNL A   1      33.334  34.707  28.305  1.00  0.00     0.239 C 
ATOM      2  O   UNL A   1      32.586  35.571  28.773  1.00  0.00    -0.273 OA
ATOM      3  N   UNL A   1      34.655  35.015  28.153  1.00  0.00    -0.355 N 
ATOM      4  H   UNL A   1      34.896  35.955  28.323  1.00  0.00     0.163 HD
ENDROOT
BRANCH   1   5
ATOM      5  C   UNL A   1      32.816  33.279  28.062  1.00  0.00     0.216 C 
BRANCH   5   6
ATOM      6  N   UNL A   1      31.990  33.096  26.884  1.00  0.00    -0.346 N 
ATOM      7  C   UNL A   1      31.446  31.974  26.334  1.00  0.00     0.239 C 
ATOM      8  O   UNL A   1      30.556  32.170  25.497  1.00  0.00    -0.273 OA
ATOM      9  H   UNL A   1      31.785  33.927  26.398  1.00  0.00     0.164 HD
BRANCH   7  10
ATOM     10  C   UNL A   1      31.738  30.549  26.851  1.00  0.00     0.216 C 
BRANCH  10  11
ATOM     11  N   UNL A   1      33.128  30.200  27.128  1.00  0.00    -0.340 N 
ATOM     12  C   UNL A   1      34.020  29.328  26.554  1.00  0.00     0.292 C 
ATOM     13  O   UNL A   1      35.115  29.140  27.071  1.00  0.00    -0.265 OA
ATOM     14  H   UNL A   1      33.507  30.696  27.890  1.00  0.00     0.164 HD
BRANCH  12  15
ATOM     15  C   UNL A   1      33.639  28.554  25.274  1.00  0.00     0.252 C 
ATOM     16  O   UNL A   1      34.120  28.931  24.209  1.00  0.00    -0.283 OA
BRANCH  15  17
ATOM     17  C   UNL A   1      32.711  27.411  25.274  1.00  0.00     0.054 A 
ATOM     18  N   UNL A   1      31.748  25.415  25.571  1.00  0.00    -0.240 N 
ATOM     19  C   UNL A   1      32.887  26.145  25.808  1.00  0.00     0.117 A 
ATOM     20  C   UNL A   1      30.810  26.160  24.884  1.00  0.00     0.065 A 
ATOM     21  C   UNL A   1      31.397  27.414  24.680  1.00  0.00     0.012 A 
ATOM     22  C   UNL A   1      29.525  25.858  24.394  1.00  0.00     0.028 A 
ATOM     23  C   UNL A   1      30.662  28.392  23.970  1.00  0.00     0.011 A 
ATOM     24  C   UNL A   1      28.839  26.839  23.674  1.00  0.00     0.002 A 
ATOM     25  C   UNL A   1      29.396  28.094  23.466  1.00  0.00     0.001 A 
BRANCH  18  26
ATOM     26  S   UNL A   1      31.554  23.772  25.995  1.00  0.00     0.268 S 
ATOM     27  O   UNL A   1      30.583  23.263  25.047  1.00  0.00    -0.201 OA
ATOM     28  O   UNL A   1      31.316  23.766  27.428  1.00  0.00    -0.201 OA
BRANCH  26  29
ATOM     29  C   UNL A   1      33.096  22.949  25.687  1.00  0.00     0.088 A 
ATOM     30  C   UNL A   1      36.650  20.597  25.083  1.00  0.00     0.044 C 
ATOM     31  C   UNL A   1      35.420  21.431  25.290  1.00  0.00    -0.051 A 
ATOM     32  C   UNL A   1      34.839  21.516  26.560  1.00  0.00     0.005 A 
ATOM     33  C   UNL A   1      34.849  22.144  24.230  1.00  0.00     0.005 A 
ATOM     34  C   UNL A   1      33.678  22.266  26.759  1.00  0.00     0.022 A 
ATOM     35  C   UNL A   1      33.697  22.913  24.427  1.00  0.00     0.022 A 
ENDBRANCH  26  29
ENDBRANCH  18  26
ENDBRANCH  15  17
ENDBRANCH  12  15
ENDBRANCH  10  11
ENDBRANCH   7  10
ENDBRANCH   5   6
ENDBRANCH   1   5
BRANCH   3  36
ATOM     36  C   UNL A   1      35.751  34.141  27.773  1.00  0.00     0.116 C 
BRANCH  36  37
ATOM     37  C   UNL A   1      36.373  33.406  28.959  1.00  0.00     0.023 C 
BRANCH  37  38
ATOM     38  C   UNL A   1      36.163  31.899  28.945  1.00  0.00     0.023 C 
BRANCH  38  39
ATOM     39  C   UNL A   1      35.456  31.341  30.172  1.00  0.00     0.116 C 
BRANCH  39  40
ATOM     40  N   UNL A   1      34.612  32.255  30.924  1.00  0.00    -0.352 N 
ATOM     41  C   UNL A   1      34.823  32.781  32.194  1.00  0.00     0.251 C 
ATOM     42  H   UNL A   1      33.783  32.539  30.475  1.00  0.00     0.163 HD
ATOM     43  O   UNL A   1      33.943  33.407  32.779  1.00  0.00    -0.269 OA
BRANCH  41  44
ATOM     44  C   UNL A   1      36.196  32.764  32.779  1.00  0.00     0.039 A 
ATOM     45  C   UNL A   1      37.131  33.640  32.206  1.00  0.00     0.014 A 
ATOM     46  C   UNL A   1      36.636  31.698  33.550  1.00  0.00     0.014 A 
ATOM     47  C   UNL A   1      38.459  33.247  32.109  1.00  0.00     0.010 A 
ATOM     48  C   UNL A   1      37.894  31.215  33.311  1.00  0.00     0.010 A 
ATOM     49  C   UNL A   1      38.776  31.964  32.538  1.00  0.00    -0.014 A 
BRANCH  49  50
ATOM     50  C   UNL A   1      40.033  31.301  32.284  1.00  0.00     0.031 A 
ATOM     51  C   UNL A   1      39.987  30.158  31.366  1.00  0.00     0.074 A 
ATOM     52  C   UNL A   1      41.155  31.872  32.770  1.00  0.00     0.049 A 
ATOM     53  N   UNL A   1      40.763  29.141  31.415  1.00  0.00    -0.248 NA
ATOM     54  C   UNL A   1      38.956  30.040  30.334  1.00  0.00     0.031 C 
ATOM     55  C   UNL A   1      42.547  31.565  32.478  1.00  0.00     0.029 A 
ATOM     56  N   UNL A   1      41.218  32.769  33.843  1.00  0.00    -0.354 N 
ATOM     57  C   UNL A   1      40.580  28.443  30.239  1.00  0.00     0.074 A 
ATOM     58  C   UNL A   1      39.348  28.939  29.689  1.00  0.00     0.031 C 
ATOM     59  C   UNL A   1      43.302  31.982  33.514  1.00  0.00     0.029 A 
ATOM     60  C   UNL A   1      42.393  32.449  34.552  1.00  0.00     0.049 A 
ATOM     61  H   UNL A   1      40.573  33.481  34.058  1.00  0.00     0.167 HD
ATOM     62  C   UNL A   1      41.606  27.679  29.774  1.00  0.00     0.034 A 
ATOM     63  C   UNL A   1      42.291  31.925  35.811  1.00  0.00     0.034 A 
ATOM     64  C   UNL A   1      42.731  27.760  30.706  1.00  0.00     0.049 A 
ATOM     65  C   UNL A   1      42.771  30.491  35.842  1.00  0.00     0.074 A 
ATOM     66  C   UNL A   1      43.854  28.571  30.724  1.00  0.00     0.029 A 
ATOM     67  N   UNL A   1      42.587  27.253  31.990  1.00  0.00    -0.354 N 
ATOM     68  N   UNL A   1      42.791  29.702  34.799  1.00  0.00    -0.248 NA
ATOM     69  C   UNL A   1      43.325  29.863  37.035  1.00  0.00     0.031 C 
ATOM     70  C   UNL A   1      44.321  28.629  32.064  1.00  0.00     0.029 A 
ATOM     71  C   UNL A   1      43.505  27.829  32.847  1.00  0.00     0.049 A 
ATOM     72  H   UNL A   1      41.922  26.577  32.254  1.00  0.00     0.167 HD
ATOM     73  C   UNL A   1      43.356  28.503  35.145  1.00  0.00     0.074 A 
ATOM     74  C   UNL A   1      43.685  28.662  36.553  1.00  0.00     0.031 C 
ATOM     75  C   UNL A   1      43.514  27.473  34.257  1.00  0.00     0.034 A 
BRANCH  62  76
ATOM     76  C   UNL A   1      41.753  27.143  28.369  1.00  0.00     0.023 A 
ATOM     77  C   UNL A   1      41.888  25.748  28.209  1.00  0.00     0.031 A 
ATOM     78  C   UNL A   1      41.799  27.887  27.174  1.00  0.00     0.131 A 
ATOM     79  C   UNL A   1      42.122  25.160  26.955  1.00  0.00     0.055 A 
ATOM     80  C   UNL A   1      42.064  27.307  25.923  1.00  0.00     0.041 A 
ATOM     81  F   UNL A   1      41.541  29.199  27.137  1.00  0.00    -0.206 F 
ATOM     82  C   UNL A   1      42.232  25.936  25.808  1.00  0.00     0.022 A 
BRANCH  79  83
ATOM     83  S   UNL A   1      42.264  23.357  26.856  1.00  0.00     0.124 S 
ATOM     84  O   UNL A   1      40.966  22.916  27.357  1.00  0.00    -0.237 OA
ATOM     85  O   UNL A   1      42.513  23.143  25.434  1.00  0.00    -0.237 OA
ATOM     86  O   UNL A   1      43.397  23.060  27.730  1.00  0.00    -0.744 OA
ENDBRANCH  79  83
ENDBRANCH  62  76
BRANCH  63  87
ATOM     87  C   UNL A   1      41.125  32.493  36.566  1.00  0.00     0.023 A 
ATOM     88  C   UNL A   1      41.231  33.839  36.994  1.00  0.00     0.031 A 
ATOM     89  C   UNL A   1      39.840  31.945  36.462  1.00  0.00     0.131 A 
ATOM     90  C   UNL A   1      40.085  34.646  37.097  1.00  0.00     0.055 A 
ATOM     91  C   UNL A   1      38.697  32.738  36.644  1.00  0.00     0.041 A 
ATOM     92  F   UNL A   1      39.663  30.681  36.052  1.00  0.00    -0.206 F 
ATOM     93  C   UNL A   1      38.815  34.105  36.901  1.00  0.00     0.022 A 
BRANCH  90  94
ATOM     94  S   UNL A   1      40.291  36.448  37.208  1.00  0.00     0.124 S 
ATOM     95  O   UNL A   1      41.694  36.578  37.586  1.00  0.00    -0.237 OA
ATOM     96  O   UNL A   1      39.966  36.901  35.854  1.00  0.00    -0.237 OA
ATOM     97  O   UNL A   1      39.317  36.860  38.216  1.00  0.00    -0.744 OA
ENDBRANCH  90  94
ENDBRANCH  63  87
BRANCH  75  98
ATOM     98  C   UNL A   1      43.785  26.040  34.652  1.00  0.00     0.023 A 
ATOM     99  C   UNL A   1      45.083  25.542  34.792  1.00  0.00     0.031 A 
ATOM    100  C   UNL A   1      42.747  25.135  34.984  1.00  0.00     0.131 A 
ATOM    101  C   UNL A   1      45.318  24.190  35.073  1.00  0.00     0.055 A 
ATOM    102  C   UNL A   1      42.986  23.823  35.398  1.00  0.00     0.041 A 
ATOM    103  F   UNL A   1      41.453  25.483  34.930  1.00  0.00    -0.206 F 
ATOM    104  C   UNL A   1      44.281  23.329  35.410  1.00  0.00     0.022 A 
BRANCH 101 105
ATOM    105  S   UNL A   1      47.002  23.578  34.834  1.00  0.00     0.124 S 
ATOM    106  O   UNL A   1      46.759  22.182  34.476  1.00  0.00    -0.237 OA
ATOM    107  O   UNL A   1      47.498  24.428  33.757  1.00  0.00    -0.237 OA
ATOM    108  O   UNL A   1      47.630  23.786  36.136  1.00  0.00    -0.744 OA
ENDBRANCH 101 105
ENDBRANCH  75  98
ENDBRANCH  49  50
ENDBRANCH  41  44
ENDBRANCH  39  40
ENDBRANCH  38  39
ENDBRANCH  37  38
ENDBRANCH  36  37
ENDBRANCH   3  36
TORSDOF 21
ENDMDL
