MODEL 1
REMARK VINA RESULT:     -11.1      0.000      0.000
REMARK SMILES O=C(CSc1nc(-c2ccccc2)c(-c2ccccc2)n1-c1ccccc1)NCCCCNC(=O)c1ccc(-c2c3nc(c(-c4cc(S(=O)(=O)[O-])ccc4F)c4ccc([nH]4)c(-c4cc(S(=O)(=O)[O-])ccc4F)c4nc(c(-c5cc(S(=O)(=O)[O-])ccc5F)c5ccc2[nH]5)C=C4)C=C3)cc1
REMARK SMILES IDX 30 1 29 2 28 3 1 4 2 5 3 7 4 8 5 9 6 10 21 11 7 12 14 13
REMARK SMILES IDX 22 14 23 15 27 16 24 17 26 18 25 19 8 20 9 21 13 22 10 23
REMARK SMILES IDX 12 24 11 25 15 26 16 27 20 28 17 29 19 30 18 31 31 32 32 33
REMARK SMILES IDX 33 34 34 35 35 37 36 38 37 39 98 40 38 41 97 42 39 43 40 44
REMARK SMILES IDX 41 45 91 46 42 47 96 48 90 49 92 50 43 51 95 52 89 53 88 54
REMARK SMILES IDX 44 56 76 57 56 58 75 59 57 60 60 61 74 62 93 63 58 64 59 65
REMARK SMILES IDX 73 67 94 68 61 69 45 70 46 71 54 72 47 73 53 74 55 75 52 76
REMARK SMILES IDX 48 77 49 78 50 79 51 80 77 81 78 82 86 83 79 84 85 85 87 86
REMARK SMILES IDX 84 87 80 88 81 89 82 90 83 91 62 92 63 93 71 94 64 95 70 96
REMARK SMILES IDX 72 97 69 98 65 99 66 100 67 101 68 102
REMARK H PARENT 28 6 33 36 92 55 60 66
REMARK Flexibility Score: inf
ROOT
ATOM      1  C   UNL A   1      44.173  40.915  25.605  1.00  0.00     0.023 C 
ENDROOT
BRANCH   1   2
ATOM      2  C   UNL A   1      43.963  42.429  25.478  1.00  0.00     0.116 C 
BRANCH   2   3
ATOM      3  N   UNL A   1      43.487  42.843  24.172  1.00  0.00    -0.355 N 
ATOM      4  O   UNL A   1      41.513  41.665  24.245  1.00  0.00    -0.274 OA
ATOM      5  C   UNL A   1      42.250  42.476  23.684  1.00  0.00     0.230 C 
ATOM      6  H   UNL A   1      44.070  43.406  23.613  1.00  0.00     0.163 HD
BRANCH   5   7
ATOM      7  C   UNL A   1      41.913  43.012  22.308  1.00  0.00     0.178 C 
BRANCH   7   8
ATOM      8  S   UNL A   1      42.801  42.213  20.956  1.00  0.00    -0.078 SA
BRANCH   8   9
ATOM      9  C   UNL A   1      43.386  43.559  20.015  1.00  0.00     0.174 A 
ATOM     10  N   UNL A   1      42.595  44.279  19.251  1.00  0.00    -0.221 NA
ATOM     11  N   UNL A   1      44.629  44.152  20.198  1.00  0.00    -0.287 N 
ATOM     12  C   UNL A   1      43.337  45.385  18.915  1.00  0.00     0.098 A 
ATOM     13  C   UNL A   1      44.603  45.350  19.486  1.00  0.00     0.082 A 
BRANCH  11  14
ATOM     14  C   UNL A   1      45.758  43.644  20.890  1.00  0.00     0.048 A 
ATOM     15  C   UNL A   1      46.500  42.595  20.336  1.00  0.00     0.027 A 
ATOM     16  C   UNL A   1      46.030  44.090  22.188  1.00  0.00     0.027 A 
ATOM     17  C   UNL A   1      47.526  42.009  21.078  1.00  0.00     0.002 A 
ATOM     18  C   UNL A   1      47.052  43.493  22.926  1.00  0.00     0.002 A 
ATOM     19  C   UNL A   1      47.799  42.455  22.372  1.00  0.00     0.000 A 
ENDBRANCH  11  14
BRANCH  12  20
ATOM     20  C   UNL A   1      42.873  46.443  18.036  1.00  0.00     0.002 A 
ATOM     21  C   UNL A   1      43.329  47.754  18.202  1.00  0.00     0.010 A 
ATOM     22  C   UNL A   1      42.050  46.134  16.942  1.00  0.00     0.010 A 
ATOM     23  C   UNL A   1      42.991  48.734  17.262  1.00  0.00     0.001 A 
ATOM     24  C   UNL A   1      41.718  47.112  16.004  1.00  0.00     0.001 A 
ATOM     25  C   UNL A   1      42.195  48.411  16.162  1.00  0.00     0.000 A 
ENDBRANCH  12  20
BRANCH  13  26
ATOM     26  C   UNL A   1      45.738  46.263  19.288  1.00  0.00     0.001 A 
ATOM     27  C   UNL A   1      45.977  47.309  20.187  1.00  0.00     0.010 A 
ATOM     28  C   UNL A   1      46.538  46.157  18.141  1.00  0.00     0.010 A 
ATOM     29  C   UNL A   1      46.993  48.235  19.940  1.00  0.00     0.001 A 
ATOM     30  C   UNL A   1      47.557  47.079  17.898  1.00  0.00     0.001 A 
ATOM     31  C   UNL A   1      47.780  48.121  18.795  1.00  0.00     0.000 A 
ENDBRANCH  13  26
ENDBRANCH   8   9
ENDBRANCH   7   8
ENDBRANCH   5   7
ENDBRANCH   2   3
ENDBRANCH   1   2
BRANCH   1  32
ATOM     32  C   UNL A   1      43.621  40.252  26.874  1.00  0.00     0.023 C 
BRANCH  32  33
ATOM     33  C   UNL A   1      44.674  39.677  27.815  1.00  0.00     0.116 C 
BRANCH  33  34
ATOM     34  N   UNL A   1      45.665  38.850  27.138  1.00  0.00    -0.352 N 
ATOM     35  C   UNL A   1      45.931  37.506  27.350  1.00  0.00     0.251 C 
ATOM     36  H   UNL A   1      46.210  39.298  26.450  1.00  0.00     0.163 HD
ATOM     37  O   UNL A   1      47.019  37.042  27.047  1.00  0.00    -0.269 OA
BRANCH  35  38
ATOM     38  C   UNL A   1      44.884  36.648  27.953  1.00  0.00     0.039 A 
ATOM     39  C   UNL A   1      43.910  36.039  27.156  1.00  0.00     0.014 A 
ATOM     40  C   UNL A   1      44.879  36.458  29.334  1.00  0.00     0.014 A 
ATOM     41  C   UNL A   1      42.994  35.167  27.749  1.00  0.00     0.010 A 
ATOM     42  C   UNL A   1      44.043  35.520  29.904  1.00  0.00     0.010 A 
ATOM     43  C   UNL A   1      43.081  34.882  29.124  1.00  0.00    -0.014 A 
BRANCH  43  44
ATOM     44  C   UNL A   1      42.339  33.751  29.701  1.00  0.00     0.031 A 
ATOM     45  C   UNL A   1      40.987  34.143  30.199  1.00  0.00     0.074 A 
ATOM     46  C   UNL A   1      42.703  32.452  29.571  1.00  0.00     0.049 A 
ATOM     47  N   UNL A   1      40.550  34.121  31.415  1.00  0.00    -0.248 NA
ATOM     48  C   UNL A   1      40.067  34.814  29.260  1.00  0.00     0.031 C 
ATOM     49  C   UNL A   1      43.869  31.929  28.853  1.00  0.00     0.029 A 
ATOM     50  N   UNL A   1      42.057  31.306  29.946  1.00  0.00    -0.354 N 
ATOM     51  C   UNL A   1      39.214  34.509  31.344  1.00  0.00     0.074 A 
ATOM     52  C   UNL A   1      39.058  35.146  30.068  1.00  0.00     0.031 C 
ATOM     53  C   UNL A   1      43.721  30.602  28.641  1.00  0.00     0.029 A 
ATOM     54  C   UNL A   1      42.526  30.140  29.326  1.00  0.00     0.049 A 
ATOM     55  H   UNL A   1      41.321  31.302  30.600  1.00  0.00     0.167 HD
ATOM     56  C   UNL A   1      38.296  34.001  32.215  1.00  0.00     0.034 A 
ATOM     57  C   UNL A   1      41.972  28.892  29.343  1.00  0.00     0.034 A 
ATOM     58  C   UNL A   1      38.954  33.439  33.376  1.00  0.00     0.049 A 
ATOM     59  C   UNL A   1      41.068  28.842  30.516  1.00  0.00     0.074 A 
ATOM     60  C   UNL A   1      39.835  33.928  34.322  1.00  0.00     0.029 A 
ATOM     61  N   UNL A   1      39.045  32.067  33.467  1.00  0.00    -0.354 N 
ATOM     62  N   UNL A   1      41.490  28.899  31.747  1.00  0.00    -0.248 NA
ATOM     63  C   UNL A   1      39.678  29.218  30.318  1.00  0.00     0.031 C 
ATOM     64  C   UNL A   1      40.753  32.861  34.557  1.00  0.00     0.029 A 
ATOM     65  C   UNL A   1      40.328  31.748  33.831  1.00  0.00     0.049 A 
ATOM     66  H   UNL A   1      38.314  31.428  33.300  1.00  0.00     0.167 HD
ATOM     67  C   UNL A   1      40.597  29.743  32.386  1.00  0.00     0.074 A 
ATOM     68  C   UNL A   1      39.445  29.822  31.486  1.00  0.00     0.031 C 
ATOM     69  C   UNL A   1      40.997  30.522  33.435  1.00  0.00     0.034 A 
BRANCH  56  70
ATOM     70  C   UNL A   1      36.875  33.613  31.831  1.00  0.00     0.023 A 
ATOM     71  C   UNL A   1      36.726  32.827  30.671  1.00  0.00     0.031 A 
ATOM     72  C   UNL A   1      35.684  34.198  32.320  1.00  0.00     0.131 A 
ATOM     73  C   UNL A   1      35.505  32.781  29.976  1.00  0.00     0.055 A 
ATOM     74  C   UNL A   1      34.454  34.092  31.661  1.00  0.00     0.041 A 
ATOM     75  F   UNL A   1      35.639  34.971  33.410  1.00  0.00    -0.206 F 
ATOM     76  C   UNL A   1      34.367  33.414  30.460  1.00  0.00     0.022 A 
BRANCH  73  77
ATOM     77  S   UNL A   1      35.494  32.042  28.324  1.00  0.00     0.124 S 
ATOM     78  O   UNL A   1      34.190  31.388  28.315  1.00  0.00    -0.237 OA
ATOM     79  O   UNL A   1      35.632  33.218  27.471  1.00  0.00    -0.237 OA
ATOM     80  O   UNL A   1      36.648  31.147  28.346  1.00  0.00    -0.744 OA
ENDBRANCH  73  77
ENDBRANCH  56  70
BRANCH  57  81
ATOM     81  C   UNL A   1      41.960  27.835  28.281  1.00  0.00     0.023 A 
ATOM     82  C   UNL A   1      42.479  26.530  28.476  1.00  0.00     0.031 A 
ATOM     83  C   UNL A   1      41.175  28.025  27.122  1.00  0.00     0.131 A 
ATOM     84  C   UNL A   1      42.197  25.493  27.549  1.00  0.00     0.055 A 
ATOM     85  C   UNL A   1      40.896  26.999  26.215  1.00  0.00     0.041 A 
ATOM     86  F   UNL A   1      40.573  29.198  26.876  1.00  0.00    -0.206 F 
ATOM     87  C   UNL A   1      41.394  25.725  26.430  1.00  0.00     0.022 A 
BRANCH  84  88
ATOM     88  S   UNL A   1      42.783  23.783  27.826  1.00  0.00     0.124 S 
ATOM     89  O   UNL A   1      44.088  23.791  27.173  1.00  0.00    -0.237 OA
ATOM     90  O   UNL A   1      42.783  23.677  29.280  1.00  0.00    -0.237 OA
ATOM     91  O   UNL A   1      41.772  22.962  27.156  1.00  0.00    -0.744 OA
ENDBRANCH  84  88
ENDBRANCH  57  81
BRANCH  69  92
ATOM     92  C   UNL A   1      42.313  30.195  34.118  1.00  0.00     0.023 A 
ATOM     93  C   UNL A   1      43.589  30.654  33.716  1.00  0.00     0.031 A 
ATOM     94  C   UNL A   1      42.242  29.432  35.299  1.00  0.00     0.131 A 
ATOM     95  C   UNL A   1      44.730  30.325  34.477  1.00  0.00     0.055 A 
ATOM     96  C   UNL A   1      43.367  29.133  36.063  1.00  0.00     0.041 A 
ATOM     97  F   UNL A   1      41.059  28.980  35.748  1.00  0.00    -0.206 F 
ATOM     98  C   UNL A   1      44.618  29.572  35.650  1.00  0.00     0.022 A 
BRANCH  95  99
ATOM     99  S   UNL A   1      46.396  30.833  33.939  1.00  0.00     0.124 S 
ATOM    100  O   UNL A   1      46.771  31.865  34.898  1.00  0.00    -0.237 OA
ATOM    101  O   UNL A   1      47.149  29.584  34.018  1.00  0.00    -0.237 OA
ATOM    102  O   UNL A   1      46.178  31.322  32.575  1.00  0.00    -0.744 OA
ENDBRANCH  95  99
ENDBRANCH  69  92
ENDBRANCH  43  44
ENDBRANCH  35  38
ENDBRANCH  33  34
ENDBRANCH  32  33
ENDBRANCH   1  32
TORSDOF 19
ENDMDL
MODEL 2
REMARK VINA RESULT:     -10.9      9.556     14.111
REMARK SMILES O=C(CSc1nc(-c2ccccc2)c(-c2ccccc2)n1-c1ccccc1)NCCCCNC(=O)c1ccc(-c2c3nc(c(-c4cc(S(=O)(=O)[O-])ccc4F)c4ccc([nH]4)c(-c4cc(S(=O)(=O)[O-])ccc4F)c4nc(c(-c5cc(S(=O)(=O)[O-])ccc5F)c5ccc2[nH]5)C=C4)C=C3)cc1
REMARK SMILES IDX 30 1 29 2 28 3 1 4 2 5 3 7 4 8 5 9 6 10 21 11 7 12 14 13
REMARK SMILES IDX 22 14 23 15 27 16 24 17 26 18 25 19 8 20 9 21 13 22 10 23
REMARK SMILES IDX 12 24 11 25 15 26 16 27 20 28 17 29 19 30 18 31 31 32 32 33
REMARK SMILES IDX 33 34 34 35 35 37 36 38 37 39 98 40 38 41 97 42 39 43 40 44
REMARK SMILES IDX 41 45 91 46 42 47 96 48 90 49 92 50 43 51 95 52 89 53 88 54
REMARK SMILES IDX 44 56 76 57 56 58 75 59 57 60 60 61 74 62 93 63 58 64 59 65
REMARK SMILES IDX 73 67 94 68 61 69 45 70 46 71 54 72 47 73 53 74 55 75 52 76
REMARK SMILES IDX 48 77 49 78 50 79 51 80 77 81 78 82 86 83 79 84 85 85 87 86
REMARK SMILES IDX 84 87 80 88 81 89 82 90 83 91 62 92 63 93 71 94 64 95 70 96
REMARK SMILES IDX 72 97 69 98 65 99 66 100 67 101 68 102
REMARK H PARENT 28 6 33 36 92 55 60 66
REMARK Flexibility Score: inf
ROOT
ATOM      1  C   UNL A   1      35.388  34.300  32.863  1.00  0.00     0.023 C 
ENDROOT
BRANCH   1   2
ATOM      2  C   UNL A   1      36.907  34.358  33.057  1.00  0.00     0.116 C 
BRANCH   2   3
ATOM      3  N   UNL A   1      37.404  33.417  34.042  1.00  0.00    -0.355 N 
ATOM      4  O   UNL A   1      37.255  31.555  32.701  1.00  0.00    -0.274 OA
ATOM      5  C   UNL A   1      37.605  32.082  33.756  1.00  0.00     0.230 C 
ATOM      6  H   UNL A   1      37.604  33.743  34.949  1.00  0.00     0.163 HD
BRANCH   5   7
ATOM      7  C   UNL A   1      38.143  31.250  34.902  1.00  0.00     0.178 C 
BRANCH   7   8
ATOM      8  S   UNL A   1      39.697  31.847  35.596  1.00  0.00    -0.078 SA
BRANCH   8   9
ATOM      9  C   UNL A   1      39.206  32.580  37.100  1.00  0.00     0.174 A 
ATOM     10  N   UNL A   1      38.393  31.980  37.941  1.00  0.00    -0.221 NA
ATOM     11  N   UNL A   1      39.826  33.689  37.662  1.00  0.00    -0.287 N 
ATOM     12  C   UNL A   1      38.474  32.716  39.098  1.00  0.00     0.098 A 
ATOM     13  C   UNL A   1      39.357  33.781  38.972  1.00  0.00     0.082 A 
BRANCH  11  14
ATOM     14  C   UNL A   1      40.702  34.619  37.047  1.00  0.00     0.048 A 
ATOM     15  C   UNL A   1      40.203  35.528  36.108  1.00  0.00     0.027 A 
ATOM     16  C   UNL A   1      42.080  34.519  37.267  1.00  0.00     0.027 A 
ATOM     17  C   UNL A   1      41.086  36.350  35.407  1.00  0.00     0.002 A 
ATOM     18  C   UNL A   1      42.956  35.339  36.556  1.00  0.00     0.002 A 
ATOM     19  C   UNL A   1      42.460  36.253  35.628  1.00  0.00     0.000 A 
ENDBRANCH  11  14
BRANCH  12  20
ATOM     20  C   UNL A   1      37.701  32.441  40.296  1.00  0.00     0.002 A 
ATOM     21  C   UNL A   1      36.318  32.643  40.310  1.00  0.00     0.010 A 
ATOM     22  C   UNL A   1      38.323  31.861  41.413  1.00  0.00     0.010 A 
ATOM     23  C   UNL A   1      35.565  32.237  41.417  1.00  0.00     0.001 A 
ATOM     24  C   UNL A   1      37.570  31.453  42.514  1.00  0.00     0.001 A 
ATOM     25  C   UNL A   1      36.189  31.636  42.512  1.00  0.00     0.000 A 
ENDBRANCH  12  20
BRANCH  13  26
ATOM     26  C   UNL A   1      39.642  34.869  39.918  1.00  0.00     0.001 A 
ATOM     27  C   UNL A   1      38.880  36.043  39.904  1.00  0.00     0.010 A 
ATOM     28  C   UNL A   1      40.743  34.784  40.782  1.00  0.00     0.010 A 
ATOM     29  C   UNL A   1      39.218  37.114  40.734  1.00  0.00     0.001 A 
ATOM     30  C   UNL A   1      41.076  35.852  41.616  1.00  0.00     0.001 A 
ATOM     31  C   UNL A   1      40.316  37.020  41.587  1.00  0.00     0.000 A 
ENDBRANCH  13  26
ENDBRANCH   8   9
ENDBRANCH   7   8
ENDBRANCH   5   7
ENDBRANCH   2   3
ENDBRANCH   1   2
BRANCH   1  32
ATOM     32  C   UNL A   1      34.886  34.188  31.416  1.00  0.00     0.023 C 
BRANCH  32  33
ATOM     33  C   UNL A   1      34.689  32.764  30.908  1.00  0.00     0.116 C 
BRANCH  33  34
ATOM     34  N   UNL A   1      34.647  32.670  29.454  1.00  0.00    -0.352 N 
ATOM     35  C   UNL A   1      35.674  32.296  28.602  1.00  0.00     0.251 C 
ATOM     36  H   UNL A   1      33.789  32.899  29.027  1.00  0.00     0.163 HD
ATOM     37  O   UNL A   1      35.659  32.648  27.433  1.00  0.00    -0.269 OA
BRANCH  35  38
ATOM     38  C   UNL A   1      36.789  31.474  29.129  1.00  0.00     0.039 A 
ATOM     39  C   UNL A   1      36.632  30.100  29.332  1.00  0.00     0.014 A 
ATOM     40  C   UNL A   1      38.002  32.093  29.427  1.00  0.00     0.014 A 
ATOM     41  C   UNL A   1      37.730  29.344  29.746  1.00  0.00     0.010 A 
ATOM     42  C   UNL A   1      39.113  31.333  29.735  1.00  0.00     0.010 A 
ATOM     43  C   UNL A   1      38.984  29.959  29.918  1.00  0.00    -0.014 A 
BRANCH  43  44
ATOM     44  C   UNL A   1      40.203  29.146  30.049  1.00  0.00     0.031 A 
ATOM     45  C   UNL A   1      40.584  28.902  31.472  1.00  0.00     0.074 A 
ATOM     46  C   UNL A   1      40.782  28.466  29.029  1.00  0.00     0.049 A 
ATOM     47  N   UNL A   1      41.645  29.302  32.091  1.00  0.00    -0.248 NA
ATOM     48  C   UNL A   1      39.577  28.299  32.367  1.00  0.00     0.031 C 
ATOM     49  C   UNL A   1      40.325  28.403  27.637  1.00  0.00     0.029 A 
ATOM     50  N   UNL A   1      41.831  27.588  29.028  1.00  0.00    -0.354 N 
ATOM     51  C   UNL A   1      41.565  28.757  33.371  1.00  0.00     0.074 A 
ATOM     52  C   UNL A   1      40.192  28.378  33.549  1.00  0.00     0.031 C 
ATOM     53  C   UNL A   1      40.928  27.374  27.001  1.00  0.00     0.029 A 
ATOM     54  C   UNL A   1      41.922  26.785  27.883  1.00  0.00     0.049 A 
ATOM     55  H   UNL A   1      42.472  27.526  29.773  1.00  0.00     0.167 HD
ATOM     56  C   UNL A   1      42.694  28.395  34.044  1.00  0.00     0.034 A 
ATOM     57  C   UNL A   1      42.726  25.702  27.671  1.00  0.00     0.034 A 
ATOM     58  C   UNL A   1      43.856  29.041  33.470  1.00  0.00     0.049 A 
ATOM     59  C   UNL A   1      43.837  25.798  28.646  1.00  0.00     0.074 A 
ATOM     60  C   UNL A   1      44.215  30.353  33.227  1.00  0.00     0.029 A 
ATOM     61  N   UNL A   1      44.695  28.281  32.684  1.00  0.00    -0.354 N 
ATOM     62  N   UNL A   1      44.739  26.737  28.612  1.00  0.00    -0.248 NA
ATOM     63  C   UNL A   1      43.668  25.147  29.934  1.00  0.00     0.031 C 
ATOM     64  C   UNL A   1      44.875  30.327  31.963  1.00  0.00     0.029 A 
ATOM     65  C   UNL A   1      44.982  28.997  31.551  1.00  0.00     0.049 A 
ATOM     66  H   UNL A   1      45.030  27.380  32.900  1.00  0.00     0.167 HD
ATOM     67  C   UNL A   1      44.910  27.110  29.935  1.00  0.00     0.074 A 
ATOM     68  C   UNL A   1      44.306  26.027  30.711  1.00  0.00     0.031 C 
ATOM     69  C   UNL A   1      45.259  28.390  30.261  1.00  0.00     0.034 A 
BRANCH  56  70
ATOM     70  C   UNL A   1      42.812  27.147  34.908  1.00  0.00     0.023 A 
ATOM     71  C   UNL A   1      43.661  26.128  34.432  1.00  0.00     0.031 A 
ATOM     72  C   UNL A   1      41.947  26.768  35.960  1.00  0.00     0.131 A 
ATOM     73  C   UNL A   1      43.520  24.800  34.871  1.00  0.00     0.055 A 
ATOM     74  C   UNL A   1      41.859  25.458  36.443  1.00  0.00     0.041 A 
ATOM     75  F   UNL A   1      41.077  27.607  36.533  1.00  0.00    -0.206 F 
ATOM     76  C   UNL A   1      42.619  24.456  35.871  1.00  0.00     0.022 A 
BRANCH  73  77
ATOM     77  S   UNL A   1      44.399  23.504  33.963  1.00  0.00     0.124 S 
ATOM     78  O   UNL A   1      44.683  22.552  35.032  1.00  0.00    -0.237 OA
ATOM     79  O   UNL A   1      43.399  23.097  32.983  1.00  0.00    -0.237 OA
ATOM     80  O   UNL A   1      45.560  24.203  33.418  1.00  0.00    -0.744 OA
ENDBRANCH  73  77
ENDBRANCH  56  70
BRANCH  57  81
ATOM     81  C   UNL A   1      42.467  24.458  26.877  1.00  0.00     0.023 A 
ATOM     82  C   UNL A   1      43.452  23.829  26.073  1.00  0.00     0.031 A 
ATOM     83  C   UNL A   1      41.294  23.710  27.121  1.00  0.00     0.131 A 
ATOM     84  C   UNL A   1      43.246  22.519  25.569  1.00  0.00     0.055 A 
ATOM     85  C   UNL A   1      41.098  22.417  26.626  1.00  0.00     0.041 A 
ATOM     86  F   UNL A   1      40.328  24.176  27.928  1.00  0.00    -0.206 F 
ATOM     87  C   UNL A   1      42.078  21.810  25.859  1.00  0.00     0.022 A 
BRANCH  84  88
ATOM     88  S   UNL A   1      44.537  21.656  24.604  1.00  0.00     0.124 S 
ATOM     89  O   UNL A   1      44.143  20.258  24.733  1.00  0.00    -0.237 OA
ATOM     90  O   UNL A   1      44.398  22.253  23.280  1.00  0.00    -0.237 OA
ATOM     91  O   UNL A   1      45.776  22.007  25.301  1.00  0.00    -0.744 OA
ENDBRANCH  84  88
ENDBRANCH  57  81
BRANCH  69  92
ATOM     92  C   UNL A   1      45.803  29.293  29.169  1.00  0.00     0.023 A 
ATOM     93  C   UNL A   1      45.058  30.247  28.437  1.00  0.00     0.031 A 
ATOM     94  C   UNL A   1      47.187  29.225  28.922  1.00  0.00     0.131 A 
ATOM     95  C   UNL A   1      45.702  31.068  27.488  1.00  0.00     0.055 A 
ATOM     96  C   UNL A   1      47.823  30.057  28.004  1.00  0.00     0.041 A 
ATOM     97  F   UNL A   1      47.958  28.354  29.596  1.00  0.00    -0.206 F 
ATOM     98  C   UNL A   1      47.081  30.977  27.276  1.00  0.00     0.022 A 
BRANCH  95  99
ATOM     99  S   UNL A   1      44.753  32.249  26.472  1.00  0.00     0.124 S 
ATOM    100  O   UNL A   1      44.473  33.347  27.387  1.00  0.00    -0.237 OA
ATOM    101  O   UNL A   1      45.682  32.545  25.383  1.00  0.00    -0.237 OA
ATOM    102  O   UNL A   1      43.574  31.479  26.068  1.00  0.00    -0.744 OA
ENDBRANCH  95  99
ENDBRANCH  69  92
ENDBRANCH  43  44
ENDBRANCH  35  38
ENDBRANCH  33  34
ENDBRANCH  32  33
ENDBRANCH   1  32
TORSDOF 19
ENDMDL
MODEL 3
REMARK VINA RESULT:     -10.9      9.920     15.298
REMARK SMILES O=C(CSc1nc(-c2ccccc2)c(-c2ccccc2)n1-c1ccccc1)NCCCCNC(=O)c1ccc(-c2c3nc(c(-c4cc(S(=O)(=O)[O-])ccc4F)c4ccc([nH]4)c(-c4cc(S(=O)(=O)[O-])ccc4F)c4nc(c(-c5cc(S(=O)(=O)[O-])ccc5F)c5ccc2[nH]5)C=C4)C=C3)cc1
REMARK SMILES IDX 30 1 29 2 28 3 1 4 2 5 3 7 4 8 5 9 6 10 21 11 7 12 14 13
REMARK SMILES IDX 22 14 23 15 27 16 24 17 26 18 25 19 8 20 9 21 13 22 10 23
REMARK SMILES IDX 12 24 11 25 15 26 16 27 20 28 17 29 19 30 18 31 31 32 32 33
REMARK SMILES IDX 33 34 34 35 35 37 36 38 37 39 98 40 38 41 97 42 39 43 40 44
REMARK SMILES IDX 41 45 91 46 42 47 96 48 90 49 92 50 43 51 95 52 89 53 88 54
REMARK SMILES IDX 44 56 76 57 56 58 75 59 57 60 60 61 74 62 93 63 58 64 59 65
REMARK SMILES IDX 73 67 94 68 61 69 45 70 46 71 54 72 47 73 53 74 55 75 52 76
REMARK SMILES IDX 48 77 49 78 50 79 51 80 77 81 78 82 86 83 79 84 85 85 87 86
REMARK SMILES IDX 84 87 80 88 81 89 82 90 83 91 62 92 63 93 71 94 64 95 70 96
REMARK SMILES IDX 72 97 69 98 65 99 66 100 67 101 68 102
REMARK H PARENT 28 6 33 36 92 55 60 66
REMARK Flexibility Score: inf
ROOT
ATOM      1  C   UNL A   1      35.883  33.041  28.010  1.00  0.00     0.023 C 
ENDROOT
BRANCH   1   2
ATOM      2  C   UNL A   1      34.767  32.062  28.392  1.00  0.00     0.116 C 
BRANCH   2   3
ATOM      3  N   UNL A   1      34.407  31.147  27.326  1.00  0.00    -0.355 N 
ATOM      4  O   UNL A   1      35.753  29.417  28.021  1.00  0.00    -0.274 OA
ATOM      5  C   UNL A   1      34.885  29.854  27.266  1.00  0.00     0.230 C 
ATOM      6  H   UNL A   1      33.799  31.461  26.618  1.00  0.00     0.163 HD
BRANCH   5   7
ATOM      7  C   UNL A   1      34.392  29.036  26.090  1.00  0.00     0.178 C 
BRANCH   7   8
ATOM      8  S   UNL A   1      33.053  27.892  26.483  1.00  0.00    -0.078 SA
BRANCH   8   9
ATOM      9  C   UNL A   1      33.535  26.424  25.676  1.00  0.00     0.174 A 
ATOM     10  N   UNL A   1      34.752  25.938  25.768  1.00  0.00    -0.221 NA
ATOM     11  N   UNL A   1      32.642  25.515  25.121  1.00  0.00    -0.287 N 
ATOM     12  C   UNL A   1      34.666  24.666  25.256  1.00  0.00     0.098 A 
ATOM     13  C   UNL A   1      33.373  24.360  24.849  1.00  0.00     0.082 A 
BRANCH  11  14
ATOM     14  C   UNL A   1      31.274  25.704  24.799  1.00  0.00     0.048 A 
ATOM     15  C   UNL A   1      30.922  26.426  23.654  1.00  0.00     0.027 A 
ATOM     16  C   UNL A   1      30.289  25.298  25.707  1.00  0.00     0.027 A 
ATOM     17  C   UNL A   1      29.580  26.724  23.412  1.00  0.00     0.002 A 
ATOM     18  C   UNL A   1      28.952  25.608  25.462  1.00  0.00     0.002 A 
ATOM     19  C   UNL A   1      28.598  26.319  24.316  1.00  0.00     0.000 A 
ENDBRANCH  11  14
BRANCH  12  20
ATOM     20  C   UNL A   1      35.795  23.764  25.118  1.00  0.00     0.002 A 
ATOM     21  C   UNL A   1      36.562  23.411  26.232  1.00  0.00     0.010 A 
ATOM     22  C   UNL A   1      36.054  23.151  23.882  1.00  0.00     0.010 A 
ATOM     23  C   UNL A   1      37.552  22.430  26.115  1.00  0.00     0.001 A 
ATOM     24  C   UNL A   1      37.040  22.170  23.769  1.00  0.00     0.001 A 
ATOM     25  C   UNL A   1      37.784  21.806  24.889  1.00  0.00     0.000 A 
ENDBRANCH  12  20
BRANCH  13  26
ATOM     26  C   UNL A   1      32.878  23.168  24.147  1.00  0.00     0.001 A 
ATOM     27  C   UNL A   1      32.630  21.981  24.846  1.00  0.00     0.010 A 
ATOM     28  C   UNL A   1      32.741  23.176  22.752  1.00  0.00     0.010 A 
ATOM     29  C   UNL A   1      32.258  20.823  24.160  1.00  0.00     0.001 A 
ATOM     30  C   UNL A   1      32.363  22.019  22.068  1.00  0.00     0.001 A 
ATOM     31  C   UNL A   1      32.127  20.841  22.773  1.00  0.00     0.000 A 
ENDBRANCH  13  26
ENDBRANCH   8   9
ENDBRANCH   7   8
ENDBRANCH   5   7
ENDBRANCH   2   3
ENDBRANCH   1   2
BRANCH   1  32
ATOM     32  C   UNL A   1      37.083  33.116  28.965  1.00  0.00     0.023 C 
BRANCH  32  33
ATOM     33  C   UNL A   1      37.159  31.999  29.999  1.00  0.00     0.116 C 
BRANCH  33  34
ATOM     34  N   UNL A   1      36.726  32.411  31.329  1.00  0.00    -0.352 N 
ATOM     35  C   UNL A   1      36.940  31.751  32.529  1.00  0.00     0.251 C 
ATOM     36  H   UNL A   1      36.224  33.256  31.381  1.00  0.00     0.163 HD
ATOM     37  O   UNL A   1      36.201  31.955  33.479  1.00  0.00    -0.269 OA
BRANCH  35  38
ATOM     38  C   UNL A   1      38.067  30.796  32.639  1.00  0.00     0.039 A 
ATOM     39  C   UNL A   1      37.873  29.430  32.410  1.00  0.00     0.014 A 
ATOM     40  C   UNL A   1      39.330  31.276  32.981  1.00  0.00     0.014 A 
ATOM     41  C   UNL A   1      38.976  28.573  32.436  1.00  0.00     0.010 A 
ATOM     42  C   UNL A   1      40.433  30.450  32.906  1.00  0.00     0.010 A 
ATOM     43  C   UNL A   1      40.265  29.091  32.654  1.00  0.00    -0.014 A 
BRANCH  43  44
ATOM     44  C   UNL A   1      41.456  28.270  32.383  1.00  0.00     0.031 A 
ATOM     45  C   UNL A   1      41.999  27.619  33.612  1.00  0.00     0.074 A 
ATOM     46  C   UNL A   1      41.874  27.917  31.143  1.00  0.00     0.049 A 
ATOM     47  N   UNL A   1      43.145  27.815  34.175  1.00  0.00    -0.248 NA
ATOM     48  C   UNL A   1      41.087  26.783  34.418  1.00  0.00     0.031 C 
ATOM     49  C   UNL A   1      41.245  28.266  29.866  1.00  0.00     0.029 A 
ATOM     50  N   UNL A   1      42.877  27.073  30.751  1.00  0.00    -0.354 N 
ATOM     51  C   UNL A   1      43.201  26.919  35.241  1.00  0.00     0.074 A 
ATOM     52  C   UNL A   1      41.847  26.511  35.481  1.00  0.00     0.031 C 
ATOM     53  C   UNL A   1      41.720  27.466  28.885  1.00  0.00     0.029 A 
ATOM     54  C   UNL A   1      42.790  26.640  29.420  1.00  0.00     0.049 A 
ATOM     55  H   UNL A   1      43.602  26.793  31.355  1.00  0.00     0.167 HD
ATOM     56  C   UNL A   1      44.389  26.371  35.626  1.00  0.00     0.034 A 
ATOM     57  C   UNL A   1      43.515  25.663  28.800  1.00  0.00     0.034 A 
ATOM     58  C   UNL A   1      45.498  27.152  35.117  1.00  0.00     0.049 A 
ATOM     59  C   UNL A   1      44.741  25.465  29.606  1.00  0.00     0.074 A 
ATOM     60  C   UNL A   1      45.879  28.477  35.220  1.00  0.00     0.029 A 
ATOM     61  N   UNL A   1      46.199  26.652  34.042  1.00  0.00    -0.354 N 
ATOM     62  N   UNL A   1      45.672  26.369  29.727  1.00  0.00    -0.248 NA
ATOM     63  C   UNL A   1      44.706  24.465  30.661  1.00  0.00     0.031 C 
ATOM     64  C   UNL A   1      46.375  28.819  33.927  1.00  0.00     0.029 A 
ATOM     65  C   UNL A   1      46.373  27.668  33.137  1.00  0.00     0.049 A 
ATOM     66  H   UNL A   1      46.520  25.726  33.941  1.00  0.00     0.167 HD
ATOM     67  C   UNL A   1      46.021  26.338  31.067  1.00  0.00     0.074 A 
ATOM     68  C   UNL A   1      45.473  25.077  31.568  1.00  0.00     0.031 C 
ATOM     69  C   UNL A   1      46.462  27.464  31.702  1.00  0.00     0.034 A 
BRANCH  56  70
ATOM     70  C   UNL A   1      44.561  24.925  36.068  1.00  0.00     0.023 A 
ATOM     71  C   UNL A   1      45.292  24.709  37.254  1.00  0.00     0.031 A 
ATOM     72  C   UNL A   1      44.344  23.773  35.277  1.00  0.00     0.131 A 
ATOM     73  C   UNL A   1      45.891  23.467  37.523  1.00  0.00     0.055 A 
ATOM     74  C   UNL A   1      44.885  22.521  35.585  1.00  0.00     0.041 A 
ATOM     75  F   UNL A   1      43.670  23.793  34.122  1.00  0.00    -0.206 F 
ATOM     76  C   UNL A   1      45.698  22.370  36.692  1.00  0.00     0.022 A 
BRANCH  73  77
ATOM     77  S   UNL A   1      47.091  23.375  38.875  1.00  0.00     0.124 S 
ATOM     78  O   UNL A   1      48.050  22.416  38.338  1.00  0.00    -0.237 OA
ATOM     79  O   UNL A   1      47.543  24.760  38.966  1.00  0.00    -0.237 OA
ATOM     80  O   UNL A   1      46.292  22.904  40.003  1.00  0.00    -0.744 OA
ENDBRANCH  73  77
ENDBRANCH  56  70
BRANCH  57  81
ATOM     81  C   UNL A   1      43.107  24.707  27.721  1.00  0.00     0.023 A 
ATOM     82  C   UNL A   1      44.018  24.159  26.782  1.00  0.00     0.031 A 
ATOM     83  C   UNL A   1      41.830  24.105  27.773  1.00  0.00     0.131 A 
ATOM     84  C   UNL A   1      43.642  23.059  25.967  1.00  0.00     0.055 A 
ATOM     85  C   UNL A   1      41.467  23.019  26.971  1.00  0.00     0.041 A 
ATOM     86  F   UNL A   1      40.915  24.494  28.673  1.00  0.00    -0.206 F 
ATOM     87  C   UNL A   1      42.375  22.482  26.073  1.00  0.00     0.022 A 
BRANCH  84  88
ATOM     88  S   UNL A   1      44.828  22.282  24.813  1.00  0.00     0.124 S 
ATOM     89  O   UNL A   1      44.095  21.107  24.356  1.00  0.00    -0.237 OA
ATOM     90  O   UNL A   1      45.053  23.333  23.828  1.00  0.00    -0.237 OA
ATOM     91  O   UNL A   1      45.986  21.986  25.660  1.00  0.00    -0.744 OA
ENDBRANCH  84  88
ENDBRANCH  57  81
BRANCH  69  92
ATOM     92  C   UNL A   1      46.904  28.645  30.857  1.00  0.00     0.023 A 
ATOM     93  C   UNL A   1      46.059  29.656  30.341  1.00  0.00     0.031 A 
ATOM     94  C   UNL A   1      48.287  28.783  30.636  1.00  0.00     0.131 A 
ATOM     95  C   UNL A   1      46.609  30.735  29.619  1.00  0.00     0.055 A 
ATOM     96  C   UNL A   1      48.828  29.866  29.947  1.00  0.00     0.041 A 
ATOM     97  F   UNL A   1      49.149  27.869  31.114  1.00  0.00    -0.206 F 
ATOM     98  C   UNL A   1      47.989  30.843  29.428  1.00  0.00     0.022 A 
BRANCH  95  99
ATOM     99  S   UNL A   1      45.537  32.008  28.873  1.00  0.00     0.124 S 
ATOM    100  O   UNL A   1      44.407  31.249  28.354  1.00  0.00    -0.237 OA
ATOM    101  O   UNL A   1      45.252  32.885  30.007  1.00  0.00    -0.237 OA
ATOM    102  O   UNL A   1      46.389  32.609  27.844  1.00  0.00    -0.744 OA
ENDBRANCH  95  99
ENDBRANCH  69  92
ENDBRANCH  43  44
ENDBRANCH  35  38
ENDBRANCH  33  34
ENDBRANCH  32  33
ENDBRANCH   1  32
TORSDOF 19
ENDMDL
