MODEL 1
REMARK VINA RESULT:     -10.6      0.000      0.000
REMARK SMILES CC[C@](C)(Nc1cccc(Br)c1)C(=O)NCCCCNC(=O)c1ccc(-c2c3nc(c(-c4cc(S(=O)(=O)[O-])ccc4F)c4ccc([nH]4)c(-c4cc(S(=O)(=O)[O-])ccc4F)c4nc(c(-c5cc(S(=O)(=O)[O-])ccc5F)c5ccc2[nH]5)C=C4)C=C3)cc1
REMARK SMILES IDX 18 1 17 2 16 3 15 4 13 5 14 6 3 8 4 9 2 10 1 11 5 12 6 14
REMARK SMILES IDX 7 15 12 16 8 17 10 18 9 19 11 20 19 21 20 22 21 23 22 25
REMARK SMILES IDX 23 26 24 27 85 28 25 29 84 30 26 31 27 32 28 33 78 34 29 35
REMARK SMILES IDX 83 36 77 37 79 38 30 39 82 40 76 41 75 42 31 44 63 45 43 46
REMARK SMILES IDX 62 47 44 48 47 49 61 50 80 51 45 52 46 53 60 55 81 56 48 57
REMARK SMILES IDX 32 58 33 59 41 60 34 61 40 62 42 63 39 64 35 65 36 66 37 67
REMARK SMILES IDX 38 68 64 69 65 70 73 71 66 72 72 73 74 74 71 75 67 76 68 77
REMARK SMILES IDX 69 78 70 79 49 80 50 81 58 82 51 83 57 84 59 85 56 86 52 87
REMARK SMILES IDX 53 88 54 89 55 90
REMARK H PARENT 15 7 5 13 20 24 79 43 47 54
REMARK Flexibility Score: inf
ROOT
ATOM      1  C   UNL A   1      32.536  28.494  27.298  1.00  0.00     0.023 C 
ENDROOT
BRANCH   1   2
ATOM      2  C   UNL A   1      31.379  28.066  26.404  1.00  0.00     0.023 C 
BRANCH   2   3
ATOM      3  C   UNL A   1      31.493  26.664  25.807  1.00  0.00     0.116 C 
BRANCH   3   4
ATOM      4  N   UNL A   1      30.855  25.607  26.578  1.00  0.00    -0.354 N 
ATOM      5  C   UNL A   1      30.941  24.243  26.471  1.00  0.00     0.245 C 
ATOM      6  O   UNL A   1      30.316  23.580  27.307  1.00  0.00    -0.272 OA
ATOM      7  H   UNL A   1      30.261  25.925  27.296  1.00  0.00     0.163 HD
BRANCH   5   8
ATOM      8  C   UNL A   1      31.803  23.565  25.367  1.00  0.00     0.113 C 
ATOM      9  C   UNL A   1      31.040  23.516  24.025  1.00  0.00     0.045 C 
BRANCH   8  10
ATOM     10  C   UNL A   1      32.007  22.085  25.836  1.00  0.00     0.035 C 
ATOM     11  C   UNL A   1      31.996  21.004  24.764  1.00  0.00     0.007 C 
ENDBRANCH   8  10
BRANCH   8  12
ATOM     12  N   UNL A   1      33.090  24.263  25.094  1.00  0.00    -0.371 N 
ATOM     13  H   UNL A   1      33.082  25.235  25.242  1.00  0.00     0.161 HD
BRANCH  12  14
ATOM     14  C   UNL A   1      34.302  23.735  24.657  1.00  0.00     0.036 A 
ATOM     15  C   UNL A   1      34.547  23.203  23.384  1.00  0.00     0.026 A 
ATOM     16  C   UNL A   1      35.420  23.862  25.500  1.00  0.00     0.041 A 
ATOM     17  C   UNL A   1      35.846  22.929  22.926  1.00  0.00     0.003 A 
ATOM     18  C   UNL A   1      36.712  23.533  25.067  1.00  0.00     0.020 A 
ATOM     19  C   UNL A   1      36.935  23.104  23.766  1.00  0.00     0.016 A 
ATOM     20  Br  UNL A   1      38.173  23.694  26.257  1.00  0.00    -0.051 Br
ENDBRANCH  12  14
ENDBRANCH   8  12
ENDBRANCH   5   8
ENDBRANCH   3   4
ENDBRANCH   2   3
ENDBRANCH   1   2
BRANCH   1  21
ATOM     21  C   UNL A   1      33.559  29.381  26.606  1.00  0.00     0.116 C 
BRANCH  21  22
ATOM     22  N   UNL A   1      33.507  30.754  27.086  1.00  0.00    -0.352 N 
ATOM     23  C   UNL A   1      34.328  31.396  27.978  1.00  0.00     0.251 C 
ATOM     24  H   UNL A   1      32.776  31.302  26.719  1.00  0.00     0.163 HD
ATOM     25  O   UNL A   1      33.992  32.489  28.435  1.00  0.00    -0.269 OA
BRANCH  23  26
ATOM     26  C   UNL A   1      35.597  30.765  28.397  1.00  0.00     0.039 A 
ATOM     27  C   UNL A   1      36.796  31.201  27.831  1.00  0.00     0.014 A 
ATOM     28  C   UNL A   1      35.602  29.744  29.351  1.00  0.00     0.014 A 
ATOM     29  C   UNL A   1      38.004  30.653  28.266  1.00  0.00     0.010 A 
ATOM     30  C   UNL A   1      36.809  29.274  29.856  1.00  0.00     0.010 A 
ATOM     31  C   UNL A   1      38.023  29.712  29.308  1.00  0.00    -0.014 A 
BRANCH  31  32
ATOM     32  C   UNL A   1      39.298  29.146  29.817  1.00  0.00     0.031 A 
ATOM     33  C   UNL A   1      39.983  29.789  30.994  1.00  0.00     0.074 A 
ATOM     34  C   UNL A   1      39.863  28.096  29.188  1.00  0.00     0.049 A 
ATOM     35  N   UNL A   1      41.136  29.499  31.541  1.00  0.00    -0.248 NA
ATOM     36  C   UNL A   1      39.297  30.933  31.615  1.00  0.00     0.031 C 
ATOM     37  C   UNL A   1      39.311  27.419  28.012  1.00  0.00     0.029 A 
ATOM     38  N   UNL A   1      41.028  27.418  29.442  1.00  0.00    -0.354 N 
ATOM     39  C   UNL A   1      41.317  30.432  32.558  1.00  0.00     0.074 A 
ATOM     40  C   UNL A   1      40.193  31.340  32.500  1.00  0.00     0.031 C 
ATOM     41  C   UNL A   1      40.117  26.402  27.672  1.00  0.00     0.029 A 
ATOM     42  C   UNL A   1      41.270  26.386  28.565  1.00  0.00     0.049 A 
ATOM     43  H   UNL A   1      41.633  27.647  30.184  1.00  0.00     0.167 HD
ATOM     44  C   UNL A   1      42.315  30.506  33.474  1.00  0.00     0.034 A 
ATOM     45  C   UNL A   1      42.312  25.534  28.483  1.00  0.00     0.034 A 
ATOM     46  C   UNL A   1      43.420  29.581  33.521  1.00  0.00     0.049 A 
ATOM     47  C   UNL A   1      43.426  25.654  29.492  1.00  0.00     0.074 A 
ATOM     48  C   UNL A   1      44.460  29.527  34.433  1.00  0.00     0.029 A 
ATOM     49  N   UNL A   1      43.635  28.552  32.612  1.00  0.00    -0.354 N 
ATOM     50  N   UNL A   1      43.557  26.511  30.480  1.00  0.00    -0.248 NA
ATOM     51  C   UNL A   1      44.525  24.688  29.383  1.00  0.00     0.031 C 
ATOM     52  C   UNL A   1      45.342  28.519  34.031  1.00  0.00     0.029 A 
ATOM     53  C   UNL A   1      44.808  27.881  32.922  1.00  0.00     0.049 A 
ATOM     54  H   UNL A   1      43.041  28.330  31.859  1.00  0.00     0.167 HD
ATOM     55  C   UNL A   1      44.738  26.161  31.130  1.00  0.00     0.074 A 
ATOM     56  C   UNL A   1      45.268  25.009  30.431  1.00  0.00     0.031 C 
ATOM     57  C   UNL A   1      45.328  26.737  32.208  1.00  0.00     0.034 A 
BRANCH  44  58
ATOM     58  C   UNL A   1      42.261  31.638  34.473  1.00  0.00     0.023 A 
ATOM     59  C   UNL A   1      41.397  31.605  35.584  1.00  0.00     0.031 A 
ATOM     60  C   UNL A   1      43.062  32.781  34.301  1.00  0.00     0.131 A 
ATOM     61  C   UNL A   1      41.296  32.721  36.427  1.00  0.00     0.055 A 
ATOM     62  C   UNL A   1      43.023  33.851  35.197  1.00  0.00     0.041 A 
ATOM     63  F   UNL A   1      43.889  32.884  33.249  1.00  0.00    -0.206 F 
ATOM     64  C   UNL A   1      42.123  33.833  36.260  1.00  0.00     0.022 A 
BRANCH  61  65
ATOM     65  S   UNL A   1      39.958  32.761  37.652  1.00  0.00     0.124 S 
ATOM     66  O   UNL A   1      39.434  34.113  37.472  1.00  0.00    -0.237 OA
ATOM     67  O   UNL A   1      39.091  31.676  37.209  1.00  0.00    -0.237 OA
ATOM     68  O   UNL A   1      40.648  32.532  38.921  1.00  0.00    -0.744 OA
ENDBRANCH  61  65
ENDBRANCH  44  58
BRANCH  45  69
ATOM     69  C   UNL A   1      42.361  24.498  27.409  1.00  0.00     0.023 A 
ATOM     70  C   UNL A   1      41.723  23.258  27.568  1.00  0.00     0.031 A 
ATOM     71  C   UNL A   1      43.084  24.717  26.222  1.00  0.00     0.131 A 
ATOM     72  C   UNL A   1      41.864  22.265  26.586  1.00  0.00     0.055 A 
ATOM     73  C   UNL A   1      43.170  23.749  25.220  1.00  0.00     0.041 A 
ATOM     74  F   UNL A   1      43.712  25.886  26.014  1.00  0.00    -0.206 F 
ATOM     75  C   UNL A   1      42.570  22.508  25.405  1.00  0.00     0.022 A 
BRANCH  72  76
ATOM     76  S   UNL A   1      41.192  20.613  26.918  1.00  0.00     0.124 S 
ATOM     77  O   UNL A   1      42.329  19.760  26.591  1.00  0.00    -0.237 OA
ATOM     78  O   UNL A   1      40.845  20.706  28.332  1.00  0.00    -0.237 OA
ATOM     79  O   UNL A   1      40.056  20.518  26.004  1.00  0.00    -0.744 OA
ENDBRANCH  72  76
ENDBRANCH  45  69
BRANCH  57  80
ATOM     80  C   UNL A   1      46.592  26.093  32.726  1.00  0.00     0.023 A 
ATOM     81  C   UNL A   1      46.563  25.053  33.671  1.00  0.00     0.031 A 
ATOM     82  C   UNL A   1      47.847  26.535  32.269  1.00  0.00     0.131 A 
ATOM     83  C   UNL A   1      47.764  24.531  34.173  1.00  0.00     0.055 A 
ATOM     84  C   UNL A   1      49.038  25.964  32.720  1.00  0.00     0.041 A 
ATOM     85  F   UNL A   1      47.936  27.529  31.370  1.00  0.00    -0.206 F 
ATOM     86  C   UNL A   1      49.001  24.966  33.688  1.00  0.00     0.022 A 
BRANCH  83  87
ATOM     87  S   UNL A   1      47.693  23.348  35.546  1.00  0.00     0.124 S 
ATOM     88  O   UNL A   1      49.108  23.120  35.822  1.00  0.00    -0.237 OA
ATOM     89  O   UNL A   1      46.957  24.093  36.562  1.00  0.00    -0.237 OA
ATOM     90  O   UNL A   1      46.979  22.206  34.977  1.00  0.00    -0.744 OA
ENDBRANCH  83  87
ENDBRANCH  57  80
ENDBRANCH  31  32
ENDBRANCH  23  26
ENDBRANCH  21  22
ENDBRANCH   1  21
TORSDOF 17
ENDMDL
MODEL 2
REMARK VINA RESULT:     -10.5      5.050      9.843
REMARK SMILES CC[C@](C)(Nc1cccc(Br)c1)C(=O)NCCCCNC(=O)c1ccc(-c2c3nc(c(-c4cc(S(=O)(=O)[O-])ccc4F)c4ccc([nH]4)c(-c4cc(S(=O)(=O)[O-])ccc4F)c4nc(c(-c5cc(S(=O)(=O)[O-])ccc5F)c5ccc2[nH]5)C=C4)C=C3)cc1
REMARK SMILES IDX 18 1 17 2 16 3 15 4 13 5 14 6 3 8 4 9 2 10 1 11 5 12 6 14
REMARK SMILES IDX 7 15 12 16 8 17 10 18 9 19 11 20 19 21 20 22 21 23 22 25
REMARK SMILES IDX 23 26 24 27 85 28 25 29 84 30 26 31 27 32 28 33 78 34 29 35
REMARK SMILES IDX 83 36 77 37 79 38 30 39 82 40 76 41 75 42 31 44 63 45 43 46
REMARK SMILES IDX 62 47 44 48 47 49 61 50 80 51 45 52 46 53 60 55 81 56 48 57
REMARK SMILES IDX 32 58 33 59 41 60 34 61 40 62 42 63 39 64 35 65 36 66 37 67
REMARK SMILES IDX 38 68 64 69 65 70 73 71 66 72 72 73 74 74 71 75 67 76 68 77
REMARK SMILES IDX 69 78 70 79 49 80 50 81 58 82 51 83 57 84 59 85 56 86 52 87
REMARK SMILES IDX 53 88 54 89 55 90
REMARK H PARENT 15 7 5 13 20 24 79 43 47 54
REMARK Flexibility Score: inf
ROOT
ATOM      1  C   UNL A   1      35.053  21.314  25.730  1.00  0.00     0.023 C 
ENDROOT
BRANCH   1   2
ATOM      2  C   UNL A   1      34.314  21.416  27.059  1.00  0.00     0.023 C 
BRANCH   2   3
ATOM      3  C   UNL A   1      33.578  22.732  27.303  1.00  0.00     0.116 C 
BRANCH   3   4
ATOM      4  N   UNL A   1      32.166  22.604  27.631  1.00  0.00    -0.354 N 
ATOM      5  C   UNL A   1      31.064  23.237  27.115  1.00  0.00     0.245 C 
ATOM      6  O   UNL A   1      29.964  22.886  27.558  1.00  0.00    -0.272 OA
ATOM      7  H   UNL A   1      31.968  21.953  28.342  1.00  0.00     0.163 HD
BRANCH   5   8
ATOM      8  C   UNL A   1      31.193  24.324  26.010  1.00  0.00     0.113 C 
ATOM      9  C   UNL A   1      29.921  25.198  25.943  1.00  0.00     0.045 C 
BRANCH   8  10
ATOM     10  C   UNL A   1      31.289  23.544  24.655  1.00  0.00     0.035 C 
ATOM     11  C   UNL A   1      30.863  24.281  23.393  1.00  0.00     0.007 C 
ENDBRANCH   8  10
BRANCH   8  12
ATOM     12  N   UNL A   1      32.334  25.260  26.214  1.00  0.00    -0.371 N 
ATOM     13  H   UNL A   1      33.146  24.856  26.596  1.00  0.00     0.161 HD
BRANCH  12  14
ATOM     14  C   UNL A   1      32.414  26.623  25.944  1.00  0.00     0.036 A 
ATOM     15  C   UNL A   1      32.132  27.652  26.852  1.00  0.00     0.026 A 
ATOM     16  C   UNL A   1      32.952  27.021  24.707  1.00  0.00     0.041 A 
ATOM     17  C   UNL A   1      32.479  28.988  26.600  1.00  0.00     0.003 A 
ATOM     18  C   UNL A   1      33.246  28.362  24.427  1.00  0.00     0.020 A 
ATOM     19  C   UNL A   1      33.048  29.346  25.386  1.00  0.00     0.016 A 
ATOM     20  Br  UNL A   1      33.938  28.841  22.733  1.00  0.00    -0.051 Br
ENDBRANCH  12  14
ENDBRANCH   8  12
ENDBRANCH   5   8
ENDBRANCH   3   4
ENDBRANCH   2   3
ENDBRANCH   1   2
BRANCH   1  21
ATOM     21  C   UNL A   1      36.450  21.911  25.750  1.00  0.00     0.116 C 
BRANCH  21  22
ATOM     22  N   UNL A   1      37.482  20.890  25.845  1.00  0.00    -0.352 N 
ATOM     23  C   UNL A   1      38.830  21.031  26.051  1.00  0.00     0.251 C 
ATOM     24  H   UNL A   1      37.167  19.962  25.745  1.00  0.00     0.163 HD
ATOM     25  O   UNL A   1      39.576  20.068  25.873  1.00  0.00    -0.269 OA
BRANCH  23  26
ATOM     26  C   UNL A   1      39.379  22.339  26.466  1.00  0.00     0.039 A 
ATOM     27  C   UNL A   1      40.462  22.376  27.347  1.00  0.00     0.014 A 
ATOM     28  C   UNL A   1      38.826  23.528  25.985  1.00  0.00     0.014 A 
ATOM     29  C   UNL A   1      41.025  23.604  27.696  1.00  0.00     0.010 A 
ATOM     30  C   UNL A   1      39.451  24.740  26.250  1.00  0.00     0.010 A 
ATOM     31  C   UNL A   1      40.548  24.794  27.122  1.00  0.00    -0.014 A 
BRANCH  31  32
ATOM     32  C   UNL A   1      41.158  26.109  27.445  1.00  0.00     0.031 A 
ATOM     33  C   UNL A   1      42.545  26.430  26.954  1.00  0.00     0.074 A 
ATOM     34  C   UNL A   1      40.491  26.984  28.223  1.00  0.00     0.049 A 
ATOM     35  N   UNL A   1      43.285  27.483  27.190  1.00  0.00    -0.248 NA
ATOM     36  C   UNL A   1      43.201  25.413  26.115  1.00  0.00     0.031 C 
ATOM     37  C   UNL A   1      39.158  26.763  28.791  1.00  0.00     0.029 A 
ATOM     38  N   UNL A   1      40.840  28.230  28.677  1.00  0.00    -0.354 N 
ATOM     39  C   UNL A   1      44.494  27.248  26.542  1.00  0.00     0.074 A 
ATOM     40  C   UNL A   1      44.414  25.923  25.969  1.00  0.00     0.031 C 
ATOM     41  C   UNL A   1      38.790  27.851  29.485  1.00  0.00     0.029 A 
ATOM     42  C   UNL A   1      39.877  28.824  29.461  1.00  0.00     0.049 A 
ATOM     43  H   UNL A   1      41.699  28.660  28.461  1.00  0.00     0.167 HD
ATOM     44  C   UNL A   1      45.562  28.075  26.413  1.00  0.00     0.034 A 
ATOM     45  C   UNL A   1      39.878  30.011  30.099  1.00  0.00     0.034 A 
ATOM     46  C   UNL A   1      45.615  29.399  26.981  1.00  0.00     0.049 A 
ATOM     47  C   UNL A   1      41.089  30.901  29.967  1.00  0.00     0.074 A 
ATOM     48  C   UNL A   1      46.620  30.344  26.872  1.00  0.00     0.029 A 
ATOM     49  N   UNL A   1      44.623  29.965  27.774  1.00  0.00    -0.354 N 
ATOM     50  N   UNL A   1      42.205  30.686  29.308  1.00  0.00    -0.248 NA
ATOM     51  C   UNL A   1      41.036  32.196  30.655  1.00  0.00     0.031 C 
ATOM     52  C   UNL A   1      46.272  31.445  27.661  1.00  0.00     0.029 A 
ATOM     53  C   UNL A   1      45.009  31.229  28.189  1.00  0.00     0.049 A 
ATOM     54  H   UNL A   1      43.771  29.531  28.007  1.00  0.00     0.167 HD
ATOM     55  C   UNL A   1      42.972  31.837  29.476  1.00  0.00     0.074 A 
ATOM     56  C   UNL A   1      42.182  32.745  30.282  1.00  0.00     0.031 C 
ATOM     57  C   UNL A   1      44.212  32.120  29.002  1.00  0.00     0.034 A 
BRANCH  44  58
ATOM     58  C   UNL A   1      46.758  27.555  25.650  1.00  0.00     0.023 A 
ATOM     59  C   UNL A   1      47.042  27.980  24.338  1.00  0.00     0.031 A 
ATOM     60  C   UNL A   1      47.612  26.599  26.227  1.00  0.00     0.131 A 
ATOM     61  C   UNL A   1      48.096  27.393  23.623  1.00  0.00     0.055 A 
ATOM     62  C   UNL A   1      48.715  26.086  25.542  1.00  0.00     0.041 A 
ATOM     63  F   UNL A   1      47.381  26.135  27.465  1.00  0.00    -0.206 F 
ATOM     64  C   UNL A   1      48.953  26.470  24.225  1.00  0.00     0.022 A 
BRANCH  61  65
ATOM     65  S   UNL A   1      48.235  27.739  21.848  1.00  0.00     0.124 S 
ATOM     66  O   UNL A   1      48.483  26.404  21.307  1.00  0.00    -0.237 OA
ATOM     67  O   UNL A   1      46.936  28.322  21.537  1.00  0.00    -0.237 OA
ATOM     68  O   UNL A   1      49.370  28.656  21.765  1.00  0.00    -0.744 OA
ENDBRANCH  61  65
ENDBRANCH  44  58
BRANCH  45  69
ATOM     69  C   UNL A   1      38.707  30.429  30.924  1.00  0.00     0.023 A 
ATOM     70  C   UNL A   1      37.611  31.088  30.345  1.00  0.00     0.031 A 
ATOM     71  C   UNL A   1      38.686  30.216  32.315  1.00  0.00     0.131 A 
ATOM     72  C   UNL A   1      36.565  31.556  31.156  1.00  0.00     0.055 A 
ATOM     73  C   UNL A   1      37.615  30.630  33.109  1.00  0.00     0.041 A 
ATOM     74  F   UNL A   1      39.706  29.589  32.922  1.00  0.00    -0.206 F 
ATOM     75  C   UNL A   1      36.553  31.318  32.533  1.00  0.00     0.022 A 
BRANCH  72  76
ATOM     76  S   UNL A   1      35.267  32.572  30.399  1.00  0.00     0.124 S 
ATOM     77  O   UNL A   1      35.991  33.801  30.096  1.00  0.00    -0.237 OA
ATOM     78  O   UNL A   1      34.875  31.758  29.254  1.00  0.00    -0.237 OA
ATOM     79  O   UNL A   1      34.263  32.683  31.456  1.00  0.00    -0.744 OA
ENDBRANCH  72  76
ENDBRANCH  45  69
BRANCH  57  80
ATOM     80  C   UNL A   1      44.768  33.490  29.307  1.00  0.00     0.023 A 
ATOM     81  C   UNL A   1      44.599  34.574  28.428  1.00  0.00     0.031 A 
ATOM     82  C   UNL A   1      45.487  33.711  30.496  1.00  0.00     0.131 A 
ATOM     83  C   UNL A   1      45.191  35.811  28.721  1.00  0.00     0.055 A 
ATOM     84  C   UNL A   1      46.014  34.962  30.816  1.00  0.00     0.041 A 
ATOM     85  F   UNL A   1      45.684  32.711  31.371  1.00  0.00    -0.206 F 
ATOM     86  C   UNL A   1      45.880  36.018  29.919  1.00  0.00     0.022 A 
BRANCH  83  87
ATOM     87  S   UNL A   1      45.139  37.120  27.467  1.00  0.00     0.124 S 
ATOM     88  O   UNL A   1      45.587  38.283  28.226  1.00  0.00    -0.237 OA
ATOM     89  O   UNL A   1      46.067  36.621  26.457  1.00  0.00    -0.237 OA
ATOM     90  O   UNL A   1      43.735  37.148  27.059  1.00  0.00    -0.744 OA
ENDBRANCH  83  87
ENDBRANCH  57  80
ENDBRANCH  31  32
ENDBRANCH  23  26
ENDBRANCH  21  22
ENDBRANCH   1  21
TORSDOF 17
ENDMDL
MODEL 3
REMARK VINA RESULT:     -10.4      5.430     11.179
REMARK SMILES CC[C@](C)(Nc1cccc(Br)c1)C(=O)NCCCCNC(=O)c1ccc(-c2c3nc(c(-c4cc(S(=O)(=O)[O-])ccc4F)c4ccc([nH]4)c(-c4cc(S(=O)(=O)[O-])ccc4F)c4nc(c(-c5cc(S(=O)(=O)[O-])ccc5F)c5ccc2[nH]5)C=C4)C=C3)cc1
REMARK SMILES IDX 18 1 17 2 16 3 15 4 13 5 14 6 3 8 4 9 2 10 1 11 5 12 6 14
REMARK SMILES IDX 7 15 12 16 8 17 10 18 9 19 11 20 19 21 20 22 21 23 22 25
REMARK SMILES IDX 23 26 24 27 85 28 25 29 84 30 26 31 27 32 28 33 78 34 29 35
REMARK SMILES IDX 83 36 77 37 79 38 30 39 82 40 76 41 75 42 31 44 63 45 43 46
REMARK SMILES IDX 62 47 44 48 47 49 61 50 80 51 45 52 46 53 60 55 81 56 48 57
REMARK SMILES IDX 32 58 33 59 41 60 34 61 40 62 42 63 39 64 35 65 36 66 37 67
REMARK SMILES IDX 38 68 64 69 65 70 73 71 66 72 72 73 74 74 71 75 67 76 68 77
REMARK SMILES IDX 69 78 70 79 49 80 50 81 58 82 51 83 57 84 59 85 56 86 52 87
REMARK SMILES IDX 53 88 54 89 55 90
REMARK H PARENT 15 7 5 13 20 24 79 43 47 54
REMARK Flexibility Score: inf
ROOT
ATOM      1  C   UNL A   1      43.236  20.615  25.750  1.00  0.00     0.023 C 
ENDROOT
BRANCH   1   2
ATOM      2  C   UNL A   1      44.156  21.111  24.641  1.00  0.00     0.023 C 
BRANCH   2   3
ATOM      3  C   UNL A   1      45.627  21.263  25.024  1.00  0.00     0.116 C 
BRANCH   3   4
ATOM      4  N   UNL A   1      46.389  22.196  24.208  1.00  0.00    -0.354 N 
ATOM      5  C   UNL A   1      46.619  23.539  24.358  1.00  0.00     0.245 C 
ATOM      6  O   UNL A   1      47.358  24.073  23.523  1.00  0.00    -0.272 OA
ATOM      7  H   UNL A   1      46.809  21.795  23.413  1.00  0.00     0.163 HD
BRANCH   5   8
ATOM      8  C   UNL A   1      45.999  24.344  25.537  1.00  0.00     0.113 C 
ATOM      9  C   UNL A   1      44.497  24.612  25.292  1.00  0.00     0.045 C 
BRANCH   8  10
ATOM     10  C   UNL A   1      46.722  25.734  25.529  1.00  0.00     0.035 C 
ATOM     11  C   UNL A   1      48.084  25.816  26.204  1.00  0.00     0.007 C 
ENDBRANCH   8  10
BRANCH   8  12
ATOM     12  N   UNL A   1      46.093  23.656  26.853  1.00  0.00    -0.371 N 
ATOM     13  H   UNL A   1      46.718  22.897  26.888  1.00  0.00     0.161 HD
BRANCH  12  14
ATOM     14  C   UNL A   1      45.423  23.933  28.042  1.00  0.00     0.036 A 
ATOM     15  C   UNL A   1      44.248  23.308  28.479  1.00  0.00     0.026 A 
ATOM     16  C   UNL A   1      46.033  24.810  28.956  1.00  0.00     0.041 A 
ATOM     17  C   UNL A   1      43.772  23.445  29.793  1.00  0.00     0.003 A 
ATOM     18  C   UNL A   1      45.527  24.997  30.249  1.00  0.00     0.020 A 
ATOM     19  C   UNL A   1      44.418  24.286  30.686  1.00  0.00     0.016 A 
ATOM     20  Br  UNL A   1      46.372  26.216  31.423  1.00  0.00    -0.051 Br
ENDBRANCH  12  14
ENDBRANCH   8  12
ENDBRANCH   5   8
ENDBRANCH   3   4
ENDBRANCH   2   3
ENDBRANCH   1   2
BRANCH   1  21
ATOM     21  C   UNL A   1      42.377  21.702  26.376  1.00  0.00     0.116 C 
BRANCH  21  22
ATOM     22  N   UNL A   1      40.968  21.541  26.052  1.00  0.00    -0.352 N 
ATOM     23  C   UNL A   1      39.914  22.378  26.314  1.00  0.00     0.251 C 
ATOM     24  H   UNL A   1      40.737  20.710  25.577  1.00  0.00     0.163 HD
ATOM     25  O   UNL A   1      38.761  21.968  26.168  1.00  0.00    -0.269 OA
BRANCH  23  26
ATOM     26  C   UNL A   1      40.166  23.755  26.787  1.00  0.00     0.039 A 
ATOM     27  C   UNL A   1      40.329  23.989  28.154  1.00  0.00     0.014 A 
ATOM     28  C   UNL A   1      40.244  24.816  25.880  1.00  0.00     0.014 A 
ATOM     29  C   UNL A   1      40.628  25.276  28.602  1.00  0.00     0.010 A 
ATOM     30  C   UNL A   1      40.643  26.073  26.317  1.00  0.00     0.010 A 
ATOM     31  C   UNL A   1      40.824  26.321  27.685  1.00  0.00    -0.014 A 
BRANCH  31  32
ATOM     32  C   UNL A   1      41.184  27.690  28.136  1.00  0.00     0.031 A 
ATOM     33  C   UNL A   1      42.627  28.119  28.140  1.00  0.00     0.074 A 
ATOM     34  C   UNL A   1      40.224  28.519  28.592  1.00  0.00     0.049 A 
ATOM     35  N   UNL A   1      43.158  29.236  28.566  1.00  0.00    -0.248 NA
ATOM     36  C   UNL A   1      43.607  27.147  27.630  1.00  0.00     0.031 C 
ATOM     37  C   UNL A   1      38.797  28.195  28.674  1.00  0.00     0.029 A 
ATOM     38  N   UNL A   1      40.300  29.799  29.078  1.00  0.00    -0.354 N 
ATOM     39  C   UNL A   1      44.531  29.094  28.389  1.00  0.00     0.074 A 
ATOM     40  C   UNL A   1      44.754  27.756  27.888  1.00  0.00     0.031 C 
ATOM     41  C   UNL A   1      38.131  29.261  29.144  1.00  0.00     0.029 A 
ATOM     42  C   UNL A   1      39.083  30.323  29.451  1.00  0.00     0.049 A 
ATOM     43  H   UNL A   1      41.146  30.297  29.152  1.00  0.00     0.167 HD
ATOM     44  C   UNL A   1      45.512  30.007  28.597  1.00  0.00     0.034 A 
ATOM     45  C   UNL A   1      38.774  31.518  29.993  1.00  0.00     0.034 A 
ATOM     46  C   UNL A   1      45.266  31.342  29.084  1.00  0.00     0.049 A 
ATOM     47  C   UNL A   1      39.885  32.506  30.245  1.00  0.00     0.074 A 
ATOM     48  C   UNL A   1      46.173  32.367  29.285  1.00  0.00     0.029 A 
ATOM     49  N   UNL A   1      44.021  31.835  29.457  1.00  0.00    -0.354 N 
ATOM     50  N   UNL A   1      41.174  32.375  30.024  1.00  0.00    -0.248 NA
ATOM     51  C   UNL A   1      39.500  33.805  30.809  1.00  0.00     0.031 C 
ATOM     52  C   UNL A   1      45.492  33.450  29.851  1.00  0.00     0.029 A 
ATOM     53  C   UNL A   1      44.143  33.136  29.918  1.00  0.00     0.049 A 
ATOM     54  H   UNL A   1      43.175  31.334  29.401  1.00  0.00     0.167 HD
ATOM     55  C   UNL A   1      41.746  33.591  30.391  1.00  0.00     0.074 A 
ATOM     56  C   UNL A   1      40.660  34.443  30.830  1.00  0.00     0.031 C 
ATOM     57  C   UNL A   1      43.050  33.970  30.362  1.00  0.00     0.034 A 
BRANCH  44  58
ATOM     58  C   UNL A   1      46.934  29.578  28.321  1.00  0.00     0.023 A 
ATOM     59  C   UNL A   1      47.740  28.995  29.317  1.00  0.00     0.031 A 
ATOM     60  C   UNL A   1      47.506  29.779  27.052  1.00  0.00     0.131 A 
ATOM     61  C   UNL A   1      49.088  28.712  29.053  1.00  0.00     0.055 A 
ATOM     62  C   UNL A   1      48.824  29.410  26.770  1.00  0.00     0.041 A 
ATOM     63  F   UNL A   1      46.799  30.352  26.066  1.00  0.00    -0.206 F 
ATOM     64  C   UNL A   1      49.629  28.888  27.778  1.00  0.00     0.022 A 
BRANCH  61  65
ATOM     65  S   UNL A   1      50.164  28.257  30.442  1.00  0.00     0.124 S 
ATOM     66  O   UNL A   1      49.642  29.108  31.509  1.00  0.00    -0.237 OA
ATOM     67  O   UNL A   1      49.911  26.828  30.583  1.00  0.00    -0.237 OA
ATOM     68  O   UNL A   1      51.501  28.612  29.970  1.00  0.00    -0.744 OA
ENDBRANCH  61  65
ENDBRANCH  44  58
BRANCH  45  69
ATOM     69  C   UNL A   1      37.361  31.850  30.340  1.00  0.00     0.023 A 
ATOM     70  C   UNL A   1      36.457  32.289  29.360  1.00  0.00     0.031 A 
ATOM     71  C   UNL A   1      36.904  31.776  31.669  1.00  0.00     0.131 A 
ATOM     72  C   UNL A   1      35.162  32.686  29.727  1.00  0.00     0.055 A 
ATOM     73  C   UNL A   1      35.596  32.114  32.020  1.00  0.00     0.041 A 
ATOM     74  F   UNL A   1      37.724  31.361  32.648  1.00  0.00    -0.206 F 
ATOM     75  C   UNL A   1      34.720  32.587  31.049  1.00  0.00     0.022 A 
BRANCH  72  76
ATOM     76  S   UNL A   1      34.091  33.431  28.466  1.00  0.00     0.124 S 
ATOM     77  O   UNL A   1      33.520  32.251  27.828  1.00  0.00    -0.237 OA
ATOM     78  O   UNL A   1      33.178  34.228  29.278  1.00  0.00    -0.237 OA
ATOM     79  O   UNL A   1      35.022  34.198  27.641  1.00  0.00    -0.744 OA
ENDBRANCH  72  76
ENDBRANCH  45  69
BRANCH  57  80
ATOM     80  C   UNL A   1      43.362  35.389  30.774  1.00  0.00     0.023 A 
ATOM     81  C   UNL A   1      43.411  36.440  29.843  1.00  0.00     0.031 A 
ATOM     82  C   UNL A   1      43.621  35.691  32.124  1.00  0.00     0.131 A 
ATOM     83  C   UNL A   1      43.771  37.729  30.261  1.00  0.00     0.055 A 
ATOM     84  C   UNL A   1      43.910  36.988  32.546  1.00  0.00     0.041 A 
ATOM     85  F   UNL A   1      43.592  34.725  33.057  1.00  0.00    -0.206 F 
ATOM     86  C   UNL A   1      44.001  38.014  31.610  1.00  0.00     0.022 A 
BRANCH  83  87
ATOM     87  S   UNL A   1      44.039  39.010  29.005  1.00  0.00     0.124 S 
ATOM     88  O   UNL A   1      43.496  38.376  27.808  1.00  0.00    -0.237 OA
ATOM     89  O   UNL A   1      43.272  40.132  29.536  1.00  0.00    -0.237 OA
ATOM     90  O   UNL A   1      45.489  39.194  29.007  1.00  0.00    -0.744 OA
ENDBRANCH  83  87
ENDBRANCH  57  80
ENDBRANCH  31  32
ENDBRANCH  23  26
ENDBRANCH  21  22
ENDBRANCH   1  21
TORSDOF 17
ENDMDL
