MODEL 1
REMARK VINA RESULT:     -12.1      0.000      0.000
REMARK SMILES Cc1c(Br)cc(C(=O)NCCCCNC(=O)c2ccc(-c3c4nc(c(-c5cc(S(=O)(=O)[O-])ccc5F)c5ccc([nH]5)c(-c5cc(S(=O)(=O)[O-])ccc5F)c5nc(c(-c6cc(S(=O)(=O)[O-])ccc6F)c6ccc3[nH]6)C=C5)C=C4)cc2)c(C)c1C
REMARK SMILES IDX 13 1 12 2 11 3 10 4 9 5 7 6 8 7 6 9 1 10 2 11 3 12 82 13
REMARK SMILES IDX 4 14 5 15 80 16 83 17 81 18 14 19 15 20 16 22 17 23 18 24
REMARK SMILES IDX 79 25 19 26 78 27 20 28 21 29 22 30 72 31 23 32 77 33 71 34
REMARK SMILES IDX 73 35 24 36 76 37 70 38 69 39 25 41 57 42 37 43 56 44 38 45
REMARK SMILES IDX 41 46 55 47 74 48 39 49 40 50 54 52 75 53 42 54 26 55 27 56
REMARK SMILES IDX 35 57 28 58 34 59 36 60 33 61 29 62 30 63 31 64 32 65 58 66
REMARK SMILES IDX 59 67 67 68 60 69 66 70 68 71 65 72 61 73 62 74 63 75 64 76
REMARK SMILES IDX 43 77 44 78 52 79 45 80 51 81 53 82 50 83 46 84 47 85 48 86
REMARK SMILES IDX 49 87
REMARK H PARENT 9 8 14 21 73 40 41 51
REMARK Flexibility Score: inf
ROOT
ATOM      1  C   UNL A   1      36.531  22.216  25.718  1.00  0.00     0.116 C 
ENDROOT
BRANCH   1   2
ATOM      2  C   UNL A   1      35.287  22.065  24.846  1.00  0.00     0.023 C 
BRANCH   2   3
ATOM      3  C   UNL A   1      34.149  21.266  25.484  1.00  0.00     0.023 C 
BRANCH   3   4
ATOM      4  C   UNL A   1      33.925  21.555  26.970  1.00  0.00     0.116 C 
BRANCH   4   5
ATOM      5  N   UNL A   1      32.741  22.354  27.210  1.00  0.00    -0.352 N 
ATOM      6  C   UNL A   1      32.074  23.445  26.738  1.00  0.00     0.251 C 
ATOM      7  O   UNL A   1      30.999  23.600  27.342  1.00  0.00    -0.269 OA
ATOM      8  H   UNL A   1      32.249  21.981  27.976  1.00  0.00     0.163 HD
BRANCH   6   9
ATOM      9  C   UNL A   1      32.413  24.469  25.670  1.00  0.00     0.044 A 
ATOM     10  C   UNL A   1      33.773  27.907  23.277  1.00  0.00     0.046 C 
ATOM     11  C   UNL A   1      33.303  26.739  24.107  1.00  0.00    -0.034 A 
ATOM     12  C   UNL A   1      33.328  26.772  25.501  1.00  0.00     0.021 A 
ATOM     13  C   UNL A   1      32.835  25.554  23.479  1.00  0.00    -0.043 A 
ATOM     14  Br  UNL A   1      33.947  28.270  26.503  1.00  0.00    -0.051 Br
ATOM     15  C   UNL A   1      32.901  25.669  26.244  1.00  0.00     0.030 A 
ATOM     16  C   UNL A   1      32.359  24.434  24.257  1.00  0.00    -0.035 A 
ATOM     17  C   UNL A   1      32.835  25.462  21.962  1.00  0.00     0.045 C 
ATOM     18  C   UNL A   1      31.793  23.264  23.515  1.00  0.00     0.045 C 
ENDBRANCH   6   9
ENDBRANCH   4   5
ENDBRANCH   3   4
ENDBRANCH   2   3
ENDBRANCH   1   2
BRANCH   1  19
ATOM     19  N   UNL A   1      37.489  21.127  25.577  1.00  0.00    -0.352 N 
ATOM     20  C   UNL A   1      38.823  21.157  25.919  1.00  0.00     0.251 C 
ATOM     21  H   UNL A   1      37.148  20.285  25.199  1.00  0.00     0.163 HD
ATOM     22  O   UNL A   1      39.557  20.201  25.713  1.00  0.00    -0.269 OA
BRANCH  20  23
ATOM     23  C   UNL A   1      39.346  22.406  26.502  1.00  0.00     0.039 A 
ATOM     24  C   UNL A   1      40.384  22.331  27.435  1.00  0.00     0.014 A 
ATOM     25  C   UNL A   1      38.900  23.637  26.015  1.00  0.00     0.014 A 
ATOM     26  C   UNL A   1      41.029  23.502  27.831  1.00  0.00     0.010 A 
ATOM     27  C   UNL A   1      39.575  24.797  26.377  1.00  0.00     0.010 A 
ATOM     28  C   UNL A   1      40.651  24.735  27.277  1.00  0.00    -0.014 A 
BRANCH  28  29
ATOM     29  C   UNL A   1      41.366  25.986  27.620  1.00  0.00     0.031 A 
ATOM     30  C   UNL A   1      40.662  27.042  28.418  1.00  0.00     0.074 A 
ATOM     31  C   UNL A   1      42.607  26.201  27.144  1.00  0.00     0.049 A 
ATOM     32  N   UNL A   1      41.065  28.244  28.730  1.00  0.00    -0.248 NA
ATOM     33  C   UNL A   1      39.316  26.706  28.913  1.00  0.00     0.031 C 
ATOM     34  C   UNL A   1      43.375  25.251  26.337  1.00  0.00     0.029 A 
ATOM     35  N   UNL A   1      43.434  27.290  27.254  1.00  0.00    -0.354 N 
ATOM     36  C   UNL A   1      40.024  28.812  29.453  1.00  0.00     0.074 A 
ATOM     37  C   UNL A   1      38.952  27.841  29.489  1.00  0.00     0.031 C 
ATOM     38  C   UNL A   1      44.565  25.796  26.034  1.00  0.00     0.029 A 
ATOM     39  C   UNL A   1      44.630  27.145  26.592  1.00  0.00     0.049 A 
ATOM     40  H   UNL A   1      43.192  28.100  27.759  1.00  0.00     0.167 HD
ATOM     41  C   UNL A   1      39.977  30.024  30.050  1.00  0.00     0.034 A 
ATOM     42  C   UNL A   1      45.658  28.006  26.443  1.00  0.00     0.034 A 
ATOM     43  C   UNL A   1      41.055  30.975  30.016  1.00  0.00     0.049 A 
ATOM     44  C   UNL A   1      45.573  29.364  27.091  1.00  0.00     0.074 A 
ATOM     45  C   UNL A   1      41.120  32.217  30.622  1.00  0.00     0.029 A 
ATOM     46  N   UNL A   1      42.255  30.790  29.346  1.00  0.00    -0.354 N 
ATOM     47  N   UNL A   1      44.606  29.866  27.823  1.00  0.00    -0.248 NA
ATOM     48  C   UNL A   1      46.709  30.275  26.896  1.00  0.00     0.031 C 
ATOM     49  C   UNL A   1      42.348  32.795  30.293  1.00  0.00     0.029 A 
ATOM     50  C   UNL A   1      43.063  31.900  29.512  1.00  0.00     0.049 A 
ATOM     51  H   UNL A   1      42.496  29.988  28.828  1.00  0.00     0.167 HD
ATOM     52  C   UNL A   1      45.027  31.139  28.196  1.00  0.00     0.074 A 
ATOM     53  C   UNL A   1      46.341  31.328  27.616  1.00  0.00     0.031 C 
ATOM     54  C   UNL A   1      44.380  32.065  28.946  1.00  0.00     0.034 A 
BRANCH  41  55
ATOM     55  C   UNL A   1      38.734  30.380  30.816  1.00  0.00     0.023 A 
ATOM     56  C   UNL A   1      37.708  31.120  30.203  1.00  0.00     0.031 A 
ATOM     57  C   UNL A   1      38.599  30.041  32.173  1.00  0.00     0.131 A 
ATOM     58  C   UNL A   1      36.590  31.502  30.954  1.00  0.00     0.055 A 
ATOM     59  C   UNL A   1      37.472  30.401  32.909  1.00  0.00     0.041 A 
ATOM     60  F   UNL A   1      39.553  29.327  32.795  1.00  0.00    -0.206 F 
ATOM     61  C   UNL A   1      36.463  31.141  32.301  1.00  0.00     0.022 A 
BRANCH  58  62
ATOM     62  S   UNL A   1      35.261  32.492  30.220  1.00  0.00     0.124 S 
ATOM     63  O   UNL A   1      34.806  31.626  29.133  1.00  0.00    -0.237 OA
ATOM     64  O   UNL A   1      34.332  32.631  31.338  1.00  0.00    -0.237 OA
ATOM     65  O   UNL A   1      35.929  33.717  29.795  1.00  0.00    -0.744 OA
ENDBRANCH  58  62
ENDBRANCH  41  55
BRANCH  42  66
ATOM     66  C   UNL A   1      46.871  27.569  25.698  1.00  0.00     0.023 A 
ATOM     67  C   UNL A   1      47.073  27.925  24.354  1.00  0.00     0.031 A 
ATOM     68  C   UNL A   1      47.798  26.701  26.302  1.00  0.00     0.131 A 
ATOM     69  C   UNL A   1      48.147  27.372  23.642  1.00  0.00     0.055 A 
ATOM     70  C   UNL A   1      48.896  26.196  25.605  1.00  0.00     0.041 A 
ATOM     71  F   UNL A   1      47.636  26.327  27.580  1.00  0.00    -0.206 F 
ATOM     72  C   UNL A   1      49.067  26.522  24.263  1.00  0.00     0.022 A 
BRANCH  69  73
ATOM     73  S   UNL A   1      48.337  27.671  21.862  1.00  0.00     0.124 S 
ATOM     74  O   UNL A   1      48.560  26.324  21.344  1.00  0.00    -0.237 OA
ATOM     75  O   UNL A   1      47.048  28.271  21.527  1.00  0.00    -0.237 OA
ATOM     76  O   UNL A   1      49.482  28.572  21.786  1.00  0.00    -0.744 OA
ENDBRANCH  69  73
ENDBRANCH  42  66
BRANCH  54  77
ATOM     77  C   UNL A   1      45.063  33.380  29.213  1.00  0.00     0.023 A 
ATOM     78  C   UNL A   1      45.038  34.393  28.236  1.00  0.00     0.031 A 
ATOM     79  C   UNL A   1      45.878  33.556  30.344  1.00  0.00     0.131 A 
ATOM     80  C   UNL A   1      45.854  35.520  28.387  1.00  0.00     0.055 A 
ATOM     81  C   UNL A   1      46.660  34.699  30.507  1.00  0.00     0.041 A 
ATOM     82  F   UNL A   1      45.937  32.610  31.294  1.00  0.00    -0.206 F 
ATOM     83  C   UNL A   1      46.661  35.682  29.519  1.00  0.00     0.022 A 
BRANCH  80  84
ATOM     84  S   UNL A   1      45.944  36.786  27.091  1.00  0.00     0.124 S 
ATOM     85  O   UNL A   1      46.358  36.004  25.927  1.00  0.00    -0.237 OA
ATOM     86  O   UNL A   1      44.571  37.281  27.055  1.00  0.00    -0.237 OA
ATOM     87  O   UNL A   1      46.942  37.727  27.588  1.00  0.00    -0.744 OA
ENDBRANCH  80  84
ENDBRANCH  54  77
ENDBRANCH  28  29
ENDBRANCH  20  23
ENDBRANCH   1  19
TORSDOF 14
ENDMDL
MODEL 2
REMARK VINA RESULT:     -11.9      5.294     10.303
REMARK SMILES Cc1c(Br)cc(C(=O)NCCCCNC(=O)c2ccc(-c3c4nc(c(-c5cc(S(=O)(=O)[O-])ccc5F)c5ccc([nH]5)c(-c5cc(S(=O)(=O)[O-])ccc5F)c5nc(c(-c6cc(S(=O)(=O)[O-])ccc6F)c6ccc3[nH]6)C=C5)C=C4)cc2)c(C)c1C
REMARK SMILES IDX 13 1 12 2 11 3 10 4 9 5 7 6 8 7 6 9 1 10 2 11 3 12 82 13
REMARK SMILES IDX 4 14 5 15 80 16 83 17 81 18 14 19 15 20 16 22 17 23 18 24
REMARK SMILES IDX 79 25 19 26 78 27 20 28 21 29 22 30 72 31 23 32 77 33 71 34
REMARK SMILES IDX 73 35 24 36 76 37 70 38 69 39 25 41 57 42 37 43 56 44 38 45
REMARK SMILES IDX 41 46 55 47 74 48 39 49 40 50 54 52 75 53 42 54 26 55 27 56
REMARK SMILES IDX 35 57 28 58 34 59 36 60 33 61 29 62 30 63 31 64 32 65 58 66
REMARK SMILES IDX 59 67 67 68 60 69 66 70 68 71 65 72 61 73 62 74 63 75 64 76
REMARK SMILES IDX 43 77 44 78 52 79 45 80 51 81 53 82 50 83 46 84 47 85 48 86
REMARK SMILES IDX 49 87
REMARK H PARENT 9 8 14 21 73 40 41 51
REMARK Flexibility Score: inf
ROOT
ATOM      1  C   UNL A   1      33.163  29.380  25.724  1.00  0.00     0.116 C 
ENDROOT
BRANCH   1   2
ATOM      2  C   UNL A   1      32.111  28.441  25.139  1.00  0.00     0.023 C 
BRANCH   2   3
ATOM      3  C   UNL A   1      31.850  28.621  23.642  1.00  0.00     0.023 C 
BRANCH   3   4
ATOM      4  C   UNL A   1      33.109  28.616  22.773  1.00  0.00     0.116 C 
BRANCH   4   5
ATOM      5  N   UNL A   1      33.285  27.370  22.054  1.00  0.00    -0.352 N 
ATOM      6  C   UNL A   1      33.260  26.020  22.234  1.00  0.00     0.251 C 
ATOM      7  O   UNL A   1      33.413  25.428  21.153  1.00  0.00    -0.269 OA
ATOM      8  H   UNL A   1      33.496  27.567  21.113  1.00  0.00     0.163 HD
BRANCH   6   9
ATOM      9  C   UNL A   1      33.108  25.155  23.473  1.00  0.00     0.044 A 
ATOM     10  C   UNL A   1      33.577  22.793  27.160  1.00  0.00     0.046 C 
ATOM     11  C   UNL A   1      33.429  23.596  25.892  1.00  0.00    -0.034 A 
ATOM     12  C   UNL A   1      34.537  24.057  25.182  1.00  0.00     0.021 A 
ATOM     13  C   UNL A   1      32.140  23.923  25.396  1.00  0.00    -0.043 A 
ATOM     14  Br  UNL A   1      36.336  23.732  25.719  1.00  0.00    -0.051 Br
ATOM     15  C   UNL A   1      34.370  24.813  24.019  1.00  0.00     0.030 A 
ATOM     16  C   UNL A   1      31.977  24.672  24.172  1.00  0.00    -0.035 A 
ATOM     17  C   UNL A   1      30.907  23.477  26.166  1.00  0.00     0.045 C 
ATOM     18  C   UNL A   1      30.584  24.888  23.669  1.00  0.00     0.045 C 
ENDBRANCH   6   9
ENDBRANCH   4   5
ENDBRANCH   3   4
ENDBRANCH   2   3
ENDBRANCH   1   2
BRANCH   1  19
ATOM     19  N   UNL A   1      32.618  30.630  26.240  1.00  0.00    -0.352 N 
ATOM     20  C   UNL A   1      33.219  31.476  27.145  1.00  0.00     0.251 C 
ATOM     21  H   UNL A   1      31.730  30.895  25.909  1.00  0.00     0.163 HD
ATOM     22  O   UNL A   1      32.654  32.480  27.555  1.00  0.00    -0.269 OA
BRANCH  20  23
ATOM     23  C   UNL A   1      34.557  31.102  27.639  1.00  0.00     0.039 A 
ATOM     24  C   UNL A   1      35.540  32.090  27.741  1.00  0.00     0.014 A 
ATOM     25  C   UNL A   1      34.779  29.811  28.126  1.00  0.00     0.014 A 
ATOM     26  C   UNL A   1      36.732  31.800  28.402  1.00  0.00     0.010 A 
ATOM     27  C   UNL A   1      35.949  29.538  28.824  1.00  0.00     0.010 A 
ATOM     28  C   UNL A   1      36.928  30.534  28.976  1.00  0.00    -0.014 A 
BRANCH  28  29
ATOM     29  C   UNL A   1      38.151  30.218  29.750  1.00  0.00     0.031 A 
ATOM     30  C   UNL A   1      39.176  29.295  29.163  1.00  0.00     0.074 A 
ATOM     31  C   UNL A   1      38.293  30.694  31.001  1.00  0.00     0.049 A 
ATOM     32  N   UNL A   1      40.255  28.808  29.712  1.00  0.00    -0.248 NA
ATOM     33  C   UNL A   1      38.942  28.845  27.780  1.00  0.00     0.031 C 
ATOM     34  C   UNL A   1      37.346  31.581  31.679  1.00  0.00     0.029 A 
ATOM     35  N   UNL A   1      39.279  30.486  31.933  1.00  0.00    -0.354 N 
ATOM     36  C   UNL A   1      40.828  27.989  28.748  1.00  0.00     0.074 A 
ATOM     37  C   UNL A   1      39.951  28.008  27.598  1.00  0.00     0.031 C 
ATOM     38  C   UNL A   1      37.802  31.848  32.913  1.00  0.00     0.029 A 
ATOM     39  C   UNL A   1      39.053  31.125  33.129  1.00  0.00     0.049 A 
ATOM     40  H   UNL A   1      40.074  29.931  31.760  1.00  0.00     0.167 HD
ATOM     41  C   UNL A   1      41.993  27.305  28.809  1.00  0.00     0.034 A 
ATOM     42  C   UNL A   1      39.768  31.119  34.273  1.00  0.00     0.034 A 
ATOM     43  C   UNL A   1      42.862  27.305  29.955  1.00  0.00     0.049 A 
ATOM     44  C   UNL A   1      41.047  30.324  34.332  1.00  0.00     0.074 A 
ATOM     45  C   UNL A   1      44.083  26.672  30.102  1.00  0.00     0.029 A 
ATOM     46  N   UNL A   1      42.606  27.971  31.144  1.00  0.00    -0.354 N 
ATOM     47  N   UNL A   1      41.609  29.603  33.390  1.00  0.00    -0.248 NA
ATOM     48  C   UNL A   1      41.790  30.337  35.599  1.00  0.00     0.031 C 
ATOM     49  C   UNL A   1      44.552  26.932  31.392  1.00  0.00     0.029 A 
ATOM     50  C   UNL A   1      43.640  27.755  32.036  1.00  0.00     0.049 A 
ATOM     51  H   UNL A   1      41.807  28.517  31.326  1.00  0.00     0.167 HD
ATOM     52  C   UNL A   1      42.782  29.096  33.943  1.00  0.00     0.074 A 
ATOM     53  C   UNL A   1      42.854  29.601  35.298  1.00  0.00     0.031 C 
ATOM     54  C   UNL A   1      43.709  28.285  33.377  1.00  0.00     0.034 A 
BRANCH  41  55
ATOM     55  C   UNL A   1      42.410  26.523  27.596  1.00  0.00     0.023 A 
ATOM     56  C   UNL A   1      42.087  25.159  27.482  1.00  0.00     0.031 A 
ATOM     57  C   UNL A   1      43.186  27.116  26.585  1.00  0.00     0.131 A 
ATOM     58  C   UNL A   1      42.547  24.432  26.378  1.00  0.00     0.055 A 
ATOM     59  C   UNL A   1      43.618  26.393  25.474  1.00  0.00     0.041 A 
ATOM     60  F   UNL A   1      43.509  28.418  26.651  1.00  0.00    -0.206 F 
ATOM     61  C   UNL A   1      43.303  25.042  25.370  1.00  0.00     0.022 A 
BRANCH  58  62
ATOM     62  S   UNL A   1      42.191  22.662  26.207  1.00  0.00     0.124 S 
ATOM     63  O   UNL A   1      42.732  22.373  24.880  1.00  0.00    -0.237 OA
ATOM     64  O   UNL A   1      42.940  22.092  27.324  1.00  0.00    -0.237 OA
ATOM     65  O   UNL A   1      40.739  22.584  26.313  1.00  0.00    -0.744 OA
ENDBRANCH  58  62
ENDBRANCH  41  55
BRANCH  42  66
ATOM     66  C   UNL A   1      39.308  31.946  35.423  1.00  0.00     0.023 A 
ATOM     67  C   UNL A   1      38.632  31.373  36.514  1.00  0.00     0.031 A 
ATOM     68  C   UNL A   1      39.454  33.344  35.393  1.00  0.00     0.131 A 
ATOM     69  C   UNL A   1      38.081  32.200  37.503  1.00  0.00     0.055 A 
ATOM     70  C   UNL A   1      38.951  34.160  36.407  1.00  0.00     0.041 A 
ATOM     71  F   UNL A   1      40.082  33.933  34.364  1.00  0.00    -0.206 F 
ATOM     72  C   UNL A   1      38.249  33.588  37.464  1.00  0.00     0.022 A 
BRANCH  69  73
ATOM     73  S   UNL A   1      37.055  31.508  38.830  1.00  0.00     0.124 S 
ATOM     74  O   UNL A   1      35.882  32.376  38.798  1.00  0.00    -0.237 OA
ATOM     75  O   UNL A   1      36.843  30.143  38.354  1.00  0.00    -0.237 OA
ATOM     76  O   UNL A   1      37.897  31.632  40.015  1.00  0.00    -0.744 OA
ENDBRANCH  69  73
ENDBRANCH  42  66
BRANCH  54  77
ATOM     77  C   UNL A   1      44.906  27.879  34.196  1.00  0.00     0.023 A 
ATOM     78  C   UNL A   1      44.812  26.788  35.081  1.00  0.00     0.031 A 
ATOM     79  C   UNL A   1      46.063  28.674  34.229  1.00  0.00     0.131 A 
ATOM     80  C   UNL A   1      45.841  26.552  35.999  1.00  0.00     0.055 A 
ATOM     81  C   UNL A   1      47.103  28.411  35.121  1.00  0.00     0.041 A 
ATOM     82  F   UNL A   1      46.188  29.729  33.409  1.00  0.00    -0.206 F 
ATOM     83  C   UNL A   1      46.989  27.353  36.021  1.00  0.00     0.022 A 
BRANCH  80  84
ATOM     84  S   UNL A   1      45.700  25.234  37.238  1.00  0.00     0.124 S 
ATOM     85  O   UNL A   1      46.532  24.179  36.660  1.00  0.00    -0.237 OA
ATOM     86  O   UNL A   1      46.246  25.877  38.429  1.00  0.00    -0.237 OA
ATOM     87  O   UNL A   1      44.272  24.940  37.276  1.00  0.00    -0.744 OA
ENDBRANCH  80  84
ENDBRANCH  54  77
ENDBRANCH  28  29
ENDBRANCH  20  23
ENDBRANCH   1  19
TORSDOF 14
ENDMDL
MODEL 3
REMARK VINA RESULT:     -11.8      2.703      3.754
REMARK SMILES Cc1c(Br)cc(C(=O)NCCCCNC(=O)c2ccc(-c3c4nc(c(-c5cc(S(=O)(=O)[O-])ccc5F)c5ccc([nH]5)c(-c5cc(S(=O)(=O)[O-])ccc5F)c5nc(c(-c6cc(S(=O)(=O)[O-])ccc6F)c6ccc3[nH]6)C=C5)C=C4)cc2)c(C)c1C
REMARK SMILES IDX 13 1 12 2 11 3 10 4 9 5 7 6 8 7 6 9 1 10 2 11 3 12 82 13
REMARK SMILES IDX 4 14 5 15 80 16 83 17 81 18 14 19 15 20 16 22 17 23 18 24
REMARK SMILES IDX 79 25 19 26 78 27 20 28 21 29 22 30 72 31 23 32 77 33 71 34
REMARK SMILES IDX 73 35 24 36 76 37 70 38 69 39 25 41 57 42 37 43 56 44 38 45
REMARK SMILES IDX 41 46 55 47 74 48 39 49 40 50 54 52 75 53 42 54 26 55 27 56
REMARK SMILES IDX 35 57 28 58 34 59 36 60 33 61 29 62 30 63 31 64 32 65 58 66
REMARK SMILES IDX 59 67 67 68 60 69 66 70 68 71 65 72 61 73 62 74 63 75 64 76
REMARK SMILES IDX 43 77 44 78 52 79 45 80 51 81 53 82 50 83 46 84 47 85 48 86
REMARK SMILES IDX 49 87
REMARK H PARENT 9 8 14 21 73 40 41 51
REMARK Flexibility Score: inf
ROOT
ATOM      1  C   UNL A   1      39.286  21.039  25.802  1.00  0.00     0.116 C 
ENDROOT
BRANCH   1   2
ATOM      2  C   UNL A   1      37.858  20.904  25.278  1.00  0.00     0.023 C 
BRANCH   2   3
ATOM      3  C   UNL A   1      37.253  22.194  24.721  1.00  0.00     0.023 C 
BRANCH   3   4
ATOM      4  C   UNL A   1      36.668  23.130  25.781  1.00  0.00     0.116 C 
BRANCH   4   5
ATOM      5  N   UNL A   1      35.633  22.497  26.573  1.00  0.00    -0.352 N 
ATOM      6  C   UNL A   1      34.593  21.623  26.470  1.00  0.00     0.251 C 
ATOM      7  O   UNL A   1      34.100  21.391  27.587  1.00  0.00    -0.269 OA
ATOM      8  H   UNL A   1      35.707  22.803  27.505  1.00  0.00     0.163 HD
BRANCH   6   9
ATOM      9  C   UNL A   1      33.948  20.934  25.280  1.00  0.00     0.044 A 
ATOM     10  C   UNL A   1      32.229  18.166  22.318  1.00  0.00     0.046 C 
ATOM     11  C   UNL A   1      32.829  19.105  23.334  1.00  0.00    -0.034 A 
ATOM     12  C   UNL A   1      33.548  18.634  24.432  1.00  0.00     0.021 A 
ATOM     13  C   UNL A   1      32.656  20.508  23.206  1.00  0.00    -0.043 A 
ATOM     14  Br  UNL A   1      33.855  16.785  24.771  1.00  0.00    -0.051 Br
ATOM     15  C   UNL A   1      34.079  19.526  25.367  1.00  0.00     0.030 A 
ATOM     16  C   UNL A   1      33.241  21.424  24.157  1.00  0.00    -0.035 A 
ATOM     17  C   UNL A   1      31.839  21.057  22.048  1.00  0.00     0.045 C 
ATOM     18  C   UNL A   1      33.092  22.889  23.893  1.00  0.00     0.045 C 
ENDBRANCH   6   9
ENDBRANCH   4   5
ENDBRANCH   3   4
ENDBRANCH   2   3
ENDBRANCH   1   2
BRANCH   1  19
ATOM     19  N   UNL A   1      40.026  19.784  25.833  1.00  0.00    -0.352 N 
ATOM     20  C   UNL A   1      41.371  19.630  26.083  1.00  0.00     0.251 C 
ATOM     21  H   UNL A   1      39.512  18.964  25.657  1.00  0.00     0.163 HD
ATOM     22  O   UNL A   1      41.909  18.533  26.036  1.00  0.00    -0.269 OA
BRANCH  20  23
ATOM     23  C   UNL A   1      42.153  20.849  26.364  1.00  0.00     0.039 A 
ATOM     24  C   UNL A   1      42.502  21.686  25.301  1.00  0.00     0.014 A 
ATOM     25  C   UNL A   1      42.409  21.217  27.687  1.00  0.00     0.014 A 
ATOM     26  C   UNL A   1      43.050  22.939  25.573  1.00  0.00     0.010 A 
ATOM     27  C   UNL A   1      42.913  22.484  27.956  1.00  0.00     0.010 A 
ATOM     28  C   UNL A   1      43.225  23.357  26.901  1.00  0.00    -0.014 A 
BRANCH  28  29
ATOM     29  C   UNL A   1      43.733  24.710  27.224  1.00  0.00     0.031 A 
ATOM     30  C   UNL A   1      42.776  25.763  27.697  1.00  0.00     0.074 A 
ATOM     31  C   UNL A   1      45.029  25.007  27.014  1.00  0.00     0.049 A 
ATOM     32  N   UNL A   1      42.993  27.029  27.927  1.00  0.00    -0.248 NA
ATOM     33  C   UNL A   1      41.384  25.336  27.918  1.00  0.00     0.031 C 
ATOM     34  C   UNL A   1      46.042  24.065  26.534  1.00  0.00     0.029 A 
ATOM     35  N   UNL A   1      45.714  26.188  27.159  1.00  0.00    -0.354 N 
ATOM     36  C   UNL A   1      41.768  27.554  28.316  1.00  0.00     0.074 A 
ATOM     37  C   UNL A   1      40.802  26.480  28.241  1.00  0.00     0.031 C 
ATOM     38  C   UNL A   1      47.220  24.702  26.435  1.00  0.00     0.029 A 
ATOM     39  C   UNL A   1      47.040  26.104  26.807  1.00  0.00     0.049 A 
ATOM     40  H   UNL A   1      45.294  27.016  27.485  1.00  0.00     0.167 HD
ATOM     41  C   UNL A   1      41.482  28.813  28.720  1.00  0.00     0.034 A 
ATOM     42  C   UNL A   1      48.000  27.052  26.778  1.00  0.00     0.034 A 
ATOM     43  C   UNL A   1      42.455  29.868  28.801  1.00  0.00     0.049 A 
ATOM     44  C   UNL A   1      47.652  28.456  27.203  1.00  0.00     0.074 A 
ATOM     45  C   UNL A   1      42.272  31.169  29.234  1.00  0.00     0.029 A 
ATOM     46  N   UNL A   1      43.790  29.745  28.447  1.00  0.00    -0.354 N 
ATOM     47  N   UNL A   1      46.502  28.925  27.627  1.00  0.00    -0.248 NA
ATOM     48  C   UNL A   1      48.723  29.460  27.148  1.00  0.00     0.031 C 
ATOM     49  C   UNL A   1      43.491  31.840  29.115  1.00  0.00     0.029 A 
ATOM     50  C   UNL A   1      44.441  30.949  28.640  1.00  0.00     0.049 A 
ATOM     51  H   UNL A   1      44.212  28.922  28.109  1.00  0.00     0.167 HD
ATOM     52  C   UNL A   1      46.716  30.270  27.910  1.00  0.00     0.074 A 
ATOM     53  C   UNL A   1      48.110  30.539  27.620  1.00  0.00     0.031 C 
ATOM     54  C   UNL A   1      45.837  31.196  28.366  1.00  0.00     0.034 A 
BRANCH  41  55
ATOM     55  C   UNL A   1      40.068  29.111  29.134  1.00  0.00     0.023 A 
ATOM     56  C   UNL A   1      39.701  29.079  30.491  1.00  0.00     0.031 A 
ATOM     57  C   UNL A   1      39.072  29.361  28.175  1.00  0.00     0.131 A 
ATOM     58  C   UNL A   1      38.365  29.289  30.849  1.00  0.00     0.055 A 
ATOM     59  C   UNL A   1      37.747  29.596  28.539  1.00  0.00     0.041 A 
ATOM     60  F   UNL A   1      39.382  29.409  26.868  1.00  0.00    -0.206 F 
ATOM     61  C   UNL A   1      37.388  29.555  29.882  1.00  0.00     0.022 A 
BRANCH  58  62
ATOM     62  S   UNL A   1      37.835  29.216  32.581  1.00  0.00     0.124 S 
ATOM     63  O   UNL A   1      38.915  29.935  33.256  1.00  0.00    -0.237 OA
ATOM     64  O   UNL A   1      36.553  29.913  32.537  1.00  0.00    -0.237 OA
ATOM     65  O   UNL A   1      37.770  27.788  32.869  1.00  0.00    -0.744 OA
ENDBRANCH  58  62
ENDBRANCH  41  55
BRANCH  42  66
ATOM     66  C   UNL A   1      49.386  26.673  26.389  1.00  0.00     0.023 A 
ATOM     67  C   UNL A   1      49.959  27.123  25.187  1.00  0.00     0.031 A 
ATOM     68  C   UNL A   1      50.120  25.769  27.176  1.00  0.00     0.131 A 
ATOM     69  C   UNL A   1      51.205  26.625  24.781  1.00  0.00     0.055 A 
ATOM     70  C   UNL A   1      51.384  25.317  26.795  1.00  0.00     0.041 A 
ATOM     71  F   UNL A   1      49.606  25.305  28.326  1.00  0.00    -0.206 F 
ATOM     72  C   UNL A   1      51.927  25.737  25.584  1.00  0.00     0.022 A 
BRANCH  69  73
ATOM     73  S   UNL A   1      51.892  27.049  23.156  1.00  0.00     0.124 S 
ATOM     74  O   UNL A   1      50.746  26.850  22.274  1.00  0.00    -0.237 OA
ATOM     75  O   UNL A   1      52.297  28.437  23.363  1.00  0.00    -0.237 OA
ATOM     76  O   UNL A   1      52.987  26.098  22.989  1.00  0.00    -0.744 OA
ENDBRANCH  69  73
ENDBRANCH  42  66
BRANCH  54  77
ATOM     77  C   UNL A   1      46.326  32.600  28.601  1.00  0.00     0.023 A 
ATOM     78  C   UNL A   1      46.475  33.481  27.513  1.00  0.00     0.031 A 
ATOM     79  C   UNL A   1      46.808  32.998  29.859  1.00  0.00     0.131 A 
ATOM     80  C   UNL A   1      47.137  34.700  27.696  1.00  0.00     0.055 A 
ATOM     81  C   UNL A   1      47.434  34.231  30.043  1.00  0.00     0.041 A 
ATOM     82  F   UNL A   1      46.694  32.184  30.920  1.00  0.00    -0.206 F 
ATOM     83  C   UNL A   1      47.612  35.083  28.955  1.00  0.00     0.022 A 
BRANCH  80  84
ATOM     84  S   UNL A   1      47.459  35.805  26.293  1.00  0.00     0.124 S 
ATOM     85  O   UNL A   1      47.586  34.862  25.183  1.00  0.00    -0.237 OA
ATOM     86  O   UNL A   1      46.256  36.632  26.276  1.00  0.00    -0.237 OA
ATOM     87  O   UNL A   1      48.692  36.491  26.663  1.00  0.00    -0.744 OA
ENDBRANCH  80  84
ENDBRANCH  54  77
ENDBRANCH  28  29
ENDBRANCH  20  23
ENDBRANCH   1  19
TORSDOF 14
ENDMDL
