MODEL 1
REMARK VINA RESULT:     -12.0      0.000      0.000
REMARK SMILES O=C(NCCCCNC(=O)c1cc(-n2cccc2)ccc1O)c1ccc(-c2c3nc(c(-c4cc(S(=O)(=O)[O-])ccc4F)c4ccc([nH]4)c(-c4cc(S(=O)(=O)[O-])ccc4F)c4nc(c(-c5cc(S(=O)(=O)[O-])ccc5F)c5ccc2[nH]5)C=C4)C=C3)cc1
REMARK SMILES IDX 4 1 3 2 1 3 2 4 23 6 24 7 85 8 25 9 84 10 26 11 27 12 28 13
REMARK SMILES IDX 78 14 29 15 83 16 77 17 79 18 30 19 82 20 76 21 75 22 31 24
REMARK SMILES IDX 63 25 43 26 62 27 44 28 47 29 61 30 80 31 45 32 46 33 60 35
REMARK SMILES IDX 81 36 48 37 32 38 33 39 41 40 34 41 40 42 42 43 39 44 35 45
REMARK SMILES IDX 36 46 37 47 38 48 64 49 65 50 73 51 66 52 72 53 74 54 71 55
REMARK SMILES IDX 67 56 68 57 69 58 70 59 49 60 50 61 58 62 51 63 57 64 59 65
REMARK SMILES IDX 56 66 52 67 53 68 54 69 55 70 5 71 6 72 7 73 8 74 9 75 10 77
REMARK SMILES IDX 11 78 12 79 21 80 13 81 20 82 19 83 22 84 14 86 15 87 18 88
REMARK SMILES IDX 16 89 17 90
REMARK H PARENT 3 5 79 23 47 34 8 76 22 85
REMARK Flexibility Score: inf
ROOT
ATOM      1  C   UNL A   1      37.128  24.042  26.140  1.00  0.00     0.116 C 
ENDROOT
BRANCH   1   2
ATOM      2  N   UNL A   1      38.452  23.461  26.284  1.00  0.00    -0.352 N 
ATOM      3  O   UNL A   1      40.554  23.108  26.939  1.00  0.00    -0.269 OA
ATOM      4  C   UNL A   1      39.603  23.890  26.897  1.00  0.00     0.251 C 
ATOM      5  H   UNL A   1      38.542  22.580  25.855  1.00  0.00     0.163 HD
BRANCH   4   6
ATOM      6  C   UNL A   1      39.767  25.263  27.440  1.00  0.00     0.039 A 
ATOM      7  C   UNL A   1      39.600  25.577  28.789  1.00  0.00     0.014 A 
ATOM      8  C   UNL A   1      40.117  26.284  26.541  1.00  0.00     0.014 A 
ATOM      9  C   UNL A   1      39.642  26.898  29.214  1.00  0.00     0.010 A 
ATOM     10  C   UNL A   1      40.223  27.609  26.973  1.00  0.00     0.010 A 
ATOM     11  C   UNL A   1      39.968  27.916  28.313  1.00  0.00    -0.014 A 
BRANCH  11  12
ATOM     12  C   UNL A   1      40.264  29.243  28.906  1.00  0.00     0.031 A 
ATOM     13  C   UNL A   1      38.970  29.955  29.346  1.00  0.00     0.074 A 
ATOM     14  C   UNL A   1      41.557  29.683  28.878  1.00  0.00     0.049 A 
ATOM     15  N   UNL A   1      38.645  31.214  29.318  1.00  0.00    -0.248 NA
ATOM     16  C   UNL A   1      37.809  29.113  29.751  1.00  0.00     0.031 C 
ATOM     17  C   UNL A   1      42.713  28.892  28.402  1.00  0.00     0.029 A 
ATOM     18  N   UNL A   1      42.164  30.873  29.226  1.00  0.00    -0.354 N 
ATOM     19  C   UNL A   1      37.372  31.331  29.928  1.00  0.00     0.074 A 
ATOM     20  C   UNL A   1      36.846  30.002  29.995  1.00  0.00     0.031 C 
ATOM     21  C   UNL A   1      43.848  29.629  28.430  1.00  0.00     0.029 A 
ATOM     22  C   UNL A   1      43.555  30.956  28.938  1.00  0.00     0.049 A 
ATOM     23  H   UNL A   1      41.669  31.614  29.645  1.00  0.00     0.167 HD
ATOM     24  C   UNL A   1      36.907  32.481  30.503  1.00  0.00     0.034 A 
ATOM     25  C   UNL A   1      44.405  32.022  29.070  1.00  0.00     0.034 A 
ATOM     26  C   UNL A   1      37.858  33.529  30.335  1.00  0.00     0.049 A 
ATOM     27  C   UNL A   1      43.605  33.080  29.707  1.00  0.00     0.074 A 
ATOM     28  C   UNL A   1      38.270  34.293  29.278  1.00  0.00     0.029 A 
ATOM     29  N   UNL A   1      38.700  33.767  31.398  1.00  0.00    -0.354 N 
ATOM     30  N   UNL A   1      43.257  33.091  30.956  1.00  0.00    -0.248 NA
ATOM     31  C   UNL A   1      43.133  34.204  28.888  1.00  0.00     0.031 C 
ATOM     32  C   UNL A   1      39.597  34.651  29.607  1.00  0.00     0.029 A 
ATOM     33  C   UNL A   1      39.908  34.148  30.877  1.00  0.00     0.049 A 
ATOM     34  H   UNL A   1      38.475  33.680  32.353  1.00  0.00     0.167 HD
ATOM     35  C   UNL A   1      42.281  34.053  30.993  1.00  0.00     0.074 A 
ATOM     36  C   UNL A   1      42.482  34.886  29.827  1.00  0.00     0.031 C 
ATOM     37  C   UNL A   1      41.105  33.785  31.613  1.00  0.00     0.034 A 
BRANCH  24  38
ATOM     38  C   UNL A   1      35.770  32.760  31.472  1.00  0.00     0.023 A 
ATOM     39  C   UNL A   1      34.746  33.628  31.001  1.00  0.00     0.031 A 
ATOM     40  C   UNL A   1      35.755  32.499  32.849  1.00  0.00     0.131 A 
ATOM     41  C   UNL A   1      33.883  34.302  31.874  1.00  0.00     0.055 A 
ATOM     42  C   UNL A   1      34.836  33.115  33.715  1.00  0.00     0.041 A 
ATOM     43  F   UNL A   1      36.664  31.710  33.433  1.00  0.00    -0.206 F 
ATOM     44  C   UNL A   1      33.922  34.052  33.238  1.00  0.00     0.022 A 
BRANCH  41  45
ATOM     45  S   UNL A   1      32.862  35.648  31.205  1.00  0.00     0.124 S 
ATOM     46  O   UNL A   1      32.582  35.183  29.852  1.00  0.00    -0.237 OA
ATOM     47  O   UNL A   1      31.728  35.655  32.126  1.00  0.00    -0.237 OA
ATOM     48  O   UNL A   1      33.740  36.814  31.293  1.00  0.00    -0.744 OA
ENDBRANCH  41  45
ENDBRANCH  24  38
BRANCH  25  49
ATOM     49  C   UNL A   1      45.836  32.411  28.727  1.00  0.00     0.023 A 
ATOM     50  C   UNL A   1      46.257  33.119  27.589  1.00  0.00     0.031 A 
ATOM     51  C   UNL A   1      46.888  32.091  29.647  1.00  0.00     0.131 A 
ATOM     52  C   UNL A   1      47.617  33.516  27.452  1.00  0.00     0.055 A 
ATOM     53  C   UNL A   1      48.202  32.547  29.544  1.00  0.00     0.041 A 
ATOM     54  F   UNL A   1      46.691  31.311  30.718  1.00  0.00    -0.206 F 
ATOM     55  C   UNL A   1      48.573  33.278  28.443  1.00  0.00     0.022 A 
BRANCH  52  56
ATOM     56  S   UNL A   1      48.212  34.387  25.971  1.00  0.00     0.124 S 
ATOM     57  O   UNL A   1      48.735  35.625  26.538  1.00  0.00    -0.237 OA
ATOM     58  O   UNL A   1      49.201  33.468  25.418  1.00  0.00    -0.237 OA
ATOM     59  O   UNL A   1      46.996  34.536  25.171  1.00  0.00    -0.744 OA
ENDBRANCH  52  56
ENDBRANCH  25  49
BRANCH  37  60
ATOM     60  C   UNL A   1      41.210  32.716  32.704  1.00  0.00     0.023 A 
ATOM     61  C   UNL A   1      40.954  31.360  32.417  1.00  0.00     0.031 A 
ATOM     62  C   UNL A   1      41.431  33.022  34.059  1.00  0.00     0.131 A 
ATOM     63  C   UNL A   1      40.904  30.400  33.451  1.00  0.00     0.055 A 
ATOM     64  C   UNL A   1      41.398  32.072  35.086  1.00  0.00     0.041 A 
ATOM     65  F   UNL A   1      41.673  34.271  34.444  1.00  0.00    -0.206 F 
ATOM     66  C   UNL A   1      41.126  30.749  34.784  1.00  0.00     0.022 A 
BRANCH  63  67
ATOM     67  S   UNL A   1      40.558  28.666  33.046  1.00  0.00     0.124 S 
ATOM     68  O   UNL A   1      40.930  27.969  34.272  1.00  0.00    -0.237 OA
ATOM     69  O   UNL A   1      39.132  28.690  32.733  1.00  0.00    -0.237 OA
ATOM     70  O   UNL A   1      41.429  28.401  31.900  1.00  0.00    -0.744 OA
ENDBRANCH  63  67
ENDBRANCH  37  60
ENDBRANCH  11  12
ENDBRANCH   4   6
ENDBRANCH   1   2
BRANCH   1  71
ATOM     71  C   UNL A   1      36.327  23.589  24.919  1.00  0.00     0.023 C 
BRANCH  71  72
ATOM     72  C   UNL A   1      35.007  22.886  25.229  1.00  0.00     0.023 C 
BRANCH  72  73
ATOM     73  C   UNL A   1      33.763  23.740  25.020  1.00  0.00     0.116 C 
BRANCH  73  74
ATOM     74  N   UNL A   1      32.729  23.454  25.995  1.00  0.00    -0.352 N 
ATOM     75  C   UNL A   1      31.682  24.253  26.387  1.00  0.00     0.255 C 
ATOM     76  H   UNL A   1      32.782  22.573  26.431  1.00  0.00     0.163 HD
ATOM     77  O   UNL A   1      30.904  23.889  27.249  1.00  0.00    -0.269 OA
BRANCH  75  78
ATOM     78  C   UNL A   1      31.545  25.599  25.798  1.00  0.00     0.083 A 
ATOM     79  C   UNL A   1      32.320  26.620  26.360  1.00  0.00     0.044 A 
ATOM     80  C   UNL A   1      30.651  25.872  24.758  1.00  0.00     0.128 A 
ATOM     81  C   UNL A   1      32.183  27.929  25.888  1.00  0.00     0.046 A 
ATOM     82  C   UNL A   1      30.529  27.172  24.274  1.00  0.00     0.049 A 
ATOM     83  C   UNL A   1      31.281  28.203  24.848  1.00  0.00     0.030 A 
BRANCH  80  84
ATOM     84  O   UNL A   1      29.899  24.872  24.208  1.00  0.00    -0.507 OA
ATOM     85  H   UNL A   1      30.258  24.338  23.526  1.00  0.00     0.293 HD
ENDBRANCH  80  84
BRANCH  81  86
ATOM     86  N   UNL A   1      32.945  28.978  26.468  1.00  0.00    -0.324 N 
ATOM     87  C   UNL A   1      34.154  28.840  27.121  1.00  0.00     0.091 A 
ATOM     88  C   UNL A   1      32.619  30.319  26.477  1.00  0.00     0.091 A 
ATOM     89  C   UNL A   1      34.590  30.083  27.525  1.00  0.00     0.020 A 
ATOM     90  C   UNL A   1      33.605  31.016  27.140  1.00  0.00     0.020 A 
ENDBRANCH  81  86
ENDBRANCH  75  78
ENDBRANCH  73  74
ENDBRANCH  72  73
ENDBRANCH  71  72
ENDBRANCH   1  71
TORSDOF 16
ENDMDL
MODEL 2
REMARK VINA RESULT:     -12.0      4.307      9.966
REMARK SMILES O=C(NCCCCNC(=O)c1cc(-n2cccc2)ccc1O)c1ccc(-c2c3nc(c(-c4cc(S(=O)(=O)[O-])ccc4F)c4ccc([nH]4)c(-c4cc(S(=O)(=O)[O-])ccc4F)c4nc(c(-c5cc(S(=O)(=O)[O-])ccc5F)c5ccc2[nH]5)C=C4)C=C3)cc1
REMARK SMILES IDX 4 1 3 2 1 3 2 4 23 6 24 7 85 8 25 9 84 10 26 11 27 12 28 13
REMARK SMILES IDX 78 14 29 15 83 16 77 17 79 18 30 19 82 20 76 21 75 22 31 24
REMARK SMILES IDX 63 25 43 26 62 27 44 28 47 29 61 30 80 31 45 32 46 33 60 35
REMARK SMILES IDX 81 36 48 37 32 38 33 39 41 40 34 41 40 42 42 43 39 44 35 45
REMARK SMILES IDX 36 46 37 47 38 48 64 49 65 50 73 51 66 52 72 53 74 54 71 55
REMARK SMILES IDX 67 56 68 57 69 58 70 59 49 60 50 61 58 62 51 63 57 64 59 65
REMARK SMILES IDX 56 66 52 67 53 68 54 69 55 70 5 71 6 72 7 73 8 74 9 75 10 77
REMARK SMILES IDX 11 78 12 79 21 80 13 81 20 82 19 83 22 84 14 86 15 87 18 88
REMARK SMILES IDX 16 89 17 90
REMARK H PARENT 3 5 79 23 47 34 8 76 22 85
REMARK Flexibility Score: inf
ROOT
ATOM      1  C   UNL A   1      34.657  28.624  26.640  1.00  0.00     0.116 C 
ENDROOT
BRANCH   1   2
ATOM      2  N   UNL A   1      34.942  29.960  27.134  1.00  0.00    -0.352 N 
ATOM      3  O   UNL A   1      36.025  31.754  27.896  1.00  0.00    -0.269 OA
ATOM      4  C   UNL A   1      36.066  30.546  27.661  1.00  0.00     0.251 C 
ATOM      5  H   UNL A   1      34.172  30.570  27.079  1.00  0.00     0.163 HD
BRANCH   4   6
ATOM      6  C   UNL A   1      37.286  29.777  28.020  1.00  0.00     0.039 A 
ATOM      7  C   UNL A   1      38.462  29.814  27.271  1.00  0.00     0.014 A 
ATOM      8  C   UNL A   1      37.242  28.985  29.180  1.00  0.00     0.014 A 
ATOM      9  C   UNL A   1      39.524  28.978  27.586  1.00  0.00     0.010 A 
ATOM     10  C   UNL A   1      38.331  28.186  29.540  1.00  0.00     0.010 A 
ATOM     11  C   UNL A   1      39.469  28.173  28.727  1.00  0.00    -0.014 A 
BRANCH  11  12
ATOM     12  C   UNL A   1      40.743  27.534  29.137  1.00  0.00     0.031 A 
ATOM     13  C   UNL A   1      41.099  26.358  28.206  1.00  0.00     0.074 A 
ATOM     14  C   UNL A   1      41.338  27.969  30.287  1.00  0.00     0.049 A 
ATOM     15  N   UNL A   1      41.665  25.216  28.463  1.00  0.00    -0.248 NA
ATOM     16  C   UNL A   1      40.620  26.411  26.795  1.00  0.00     0.031 C 
ATOM     17  C   UNL A   1      40.872  29.111  31.105  1.00  0.00     0.029 A 
ATOM     18  N   UNL A   1      42.436  27.546  31.010  1.00  0.00    -0.354 N 
ATOM     19  C   UNL A   1      41.837  24.547  27.226  1.00  0.00     0.074 A 
ATOM     20  C   UNL A   1      41.013  25.244  26.286  1.00  0.00     0.031 C 
ATOM     21  C   UNL A   1      41.626  29.247  32.220  1.00  0.00     0.029 A 
ATOM     22  C   UNL A   1      42.660  28.230  32.236  1.00  0.00     0.049 A 
ATOM     23  H   UNL A   1      43.024  26.820  30.697  1.00  0.00     0.167 HD
ATOM     24  C   UNL A   1      42.778  23.579  27.008  1.00  0.00     0.034 A 
ATOM     25  C   UNL A   1      43.592  27.981  33.209  1.00  0.00     0.034 A 
ATOM     26  C   UNL A   1      43.493  23.316  28.213  1.00  0.00     0.049 A 
ATOM     27  C   UNL A   1      44.435  26.901  32.673  1.00  0.00     0.074 A 
ATOM     28  C   UNL A   1      43.196  22.682  29.389  1.00  0.00     0.029 A 
ATOM     29  N   UNL A   1      44.705  23.953  28.357  1.00  0.00    -0.354 N 
ATOM     30  N   UNL A   1      45.322  27.051  31.739  1.00  0.00    -0.248 NA
ATOM     31  C   UNL A   1      44.262  25.540  33.197  1.00  0.00     0.031 C 
ATOM     32  C   UNL A   1      44.037  23.304  30.338  1.00  0.00     0.029 A 
ATOM     33  C   UNL A   1      44.855  24.237  29.688  1.00  0.00     0.049 A 
ATOM     34  H   UNL A   1      45.343  24.163  27.637  1.00  0.00     0.167 HD
ATOM     35  C   UNL A   1      45.588  25.760  31.361  1.00  0.00     0.074 A 
ATOM     36  C   UNL A   1      45.181  24.917  32.463  1.00  0.00     0.031 C 
ATOM     37  C   UNL A   1      45.587  25.440  30.042  1.00  0.00     0.034 A 
BRANCH  24  38
ATOM     38  C   UNL A   1      43.360  22.976  25.741  1.00  0.00     0.023 A 
ATOM     39  C   UNL A   1      43.469  21.558  25.716  1.00  0.00     0.031 A 
ATOM     40  C   UNL A   1      44.054  23.653  24.729  1.00  0.00     0.131 A 
ATOM     41  C   UNL A   1      44.337  20.894  24.842  1.00  0.00     0.055 A 
ATOM     42  C   UNL A   1      44.864  22.978  23.800  1.00  0.00     0.041 A 
ATOM     43  F   UNL A   1      44.051  24.988  24.635  1.00  0.00    -0.206 F 
ATOM     44  C   UNL A   1      45.043  21.599  23.878  1.00  0.00     0.022 A 
BRANCH  41  45
ATOM     45  S   UNL A   1      44.669  19.131  25.132  1.00  0.00     0.124 S 
ATOM     46  O   UNL A   1      43.584  18.754  26.031  1.00  0.00    -0.237 OA
ATOM     47  O   UNL A   1      44.599  18.582  23.781  1.00  0.00    -0.237 OA
ATOM     48  O   UNL A   1      46.002  19.133  25.734  1.00  0.00    -0.744 OA
ENDBRANCH  41  45
ENDBRANCH  24  38
BRANCH  25  49
ATOM     49  C   UNL A   1      43.952  28.446  34.613  1.00  0.00     0.023 A 
ATOM     50  C   UNL A   1      44.139  27.626  35.739  1.00  0.00     0.031 A 
ATOM     51  C   UNL A   1      44.183  29.840  34.852  1.00  0.00     0.131 A 
ATOM     52  C   UNL A   1      44.587  28.186  36.969  1.00  0.00     0.055 A 
ATOM     53  C   UNL A   1      44.694  30.371  36.036  1.00  0.00     0.041 A 
ATOM     54  F   UNL A   1      43.929  30.777  33.929  1.00  0.00    -0.206 F 
ATOM     55  C   UNL A   1      44.912  29.538  37.105  1.00  0.00     0.022 A 
BRANCH  52  56
ATOM     56  S   UNL A   1      44.789  27.169  38.462  1.00  0.00     0.124 S 
ATOM     57  O   UNL A   1      45.939  26.342  38.110  1.00  0.00    -0.237 OA
ATOM     58  O   UNL A   1      45.010  28.157  39.513  1.00  0.00    -0.237 OA
ATOM     59  O   UNL A   1      43.515  26.455  38.545  1.00  0.00    -0.744 OA
ENDBRANCH  52  56
ENDBRANCH  25  49
BRANCH  37  60
ATOM     60  C   UNL A   1      45.896  26.620  29.118  1.00  0.00     0.023 A 
ATOM     61  C   UNL A   1      44.859  27.393  28.558  1.00  0.00     0.031 A 
ATOM     62  C   UNL A   1      47.194  26.923  28.668  1.00  0.00     0.131 A 
ATOM     63  C   UNL A   1      45.137  28.382  27.591  1.00  0.00     0.055 A 
ATOM     64  C   UNL A   1      47.476  27.913  27.721  1.00  0.00     0.041 A 
ATOM     65  F   UNL A   1      48.246  26.251  29.122  1.00  0.00    -0.206 F 
ATOM     66  C   UNL A   1      46.440  28.647  27.171  1.00  0.00     0.022 A 
BRANCH  63  67
ATOM     67  S   UNL A   1      43.774  29.349  26.882  1.00  0.00     0.124 S 
ATOM     68  O   UNL A   1      42.948  29.642  28.047  1.00  0.00    -0.237 OA
ATOM     69  O   UNL A   1      44.468  30.488  26.287  1.00  0.00    -0.237 OA
ATOM     70  O   UNL A   1      43.171  28.431  25.914  1.00  0.00    -0.744 OA
ENDBRANCH  63  67
ENDBRANCH  37  60
ENDBRANCH  11  12
ENDBRANCH   4   6
ENDBRANCH   1   2
BRANCH   1  71
ATOM     71  C   UNL A   1      33.940  28.547  25.291  1.00  0.00     0.023 C 
BRANCH  71  72
ATOM     72  C   UNL A   1      32.467  28.952  25.313  1.00  0.00     0.023 C 
BRANCH  72  73
ATOM     73  C   UNL A   1      31.526  27.910  25.904  1.00  0.00     0.116 C 
BRANCH  73  74
ATOM     74  N   UNL A   1      30.675  27.304  24.900  1.00  0.00    -0.352 N 
ATOM     75  C   UNL A   1      30.551  25.974  24.576  1.00  0.00     0.255 C 
ATOM     76  H   UNL A   1      30.112  27.924  24.383  1.00  0.00     0.163 HD
ATOM     77  O   UNL A   1      29.813  25.613  23.679  1.00  0.00    -0.269 OA
BRANCH  75  78
ATOM     78  C   UNL A   1      31.378  24.981  25.288  1.00  0.00     0.083 A 
ATOM     79  C   UNL A   1      32.684  24.791  24.822  1.00  0.00     0.044 A 
ATOM     80  C   UNL A   1      30.882  24.220  26.351  1.00  0.00     0.128 A 
ATOM     81  C   UNL A   1      33.492  23.816  25.414  1.00  0.00     0.046 A 
ATOM     82  C   UNL A   1      31.694  23.262  26.954  1.00  0.00     0.049 A 
ATOM     83  C   UNL A   1      32.991  23.048  26.477  1.00  0.00     0.030 A 
BRANCH  80  84
ATOM     84  O   UNL A   1      29.608  24.411  26.808  1.00  0.00    -0.507 OA
ATOM     85  H   UNL A   1      28.878  24.173  26.271  1.00  0.00     0.293 HD
ENDBRANCH  80  84
BRANCH  81  86
ATOM     86  N   UNL A   1      34.810  23.596  24.933  1.00  0.00    -0.324 N 
ATOM     87  C   UNL A   1      35.149  22.984  23.742  1.00  0.00     0.091 A 
ATOM     88  C   UNL A   1      35.983  23.959  25.562  1.00  0.00     0.091 A 
ATOM     89  C   UNL A   1      36.522  22.975  23.617  1.00  0.00     0.020 A 
ATOM     90  C   UNL A   1      37.050  23.568  24.783  1.00  0.00     0.020 A 
ENDBRANCH  81  86
ENDBRANCH  75  78
ENDBRANCH  73  74
ENDBRANCH  72  73
ENDBRANCH  71  72
ENDBRANCH   1  71
TORSDOF 16
ENDMDL
MODEL 3
REMARK VINA RESULT:     -12.0      4.506      9.970
REMARK SMILES O=C(NCCCCNC(=O)c1cc(-n2cccc2)ccc1O)c1ccc(-c2c3nc(c(-c4cc(S(=O)(=O)[O-])ccc4F)c4ccc([nH]4)c(-c4cc(S(=O)(=O)[O-])ccc4F)c4nc(c(-c5cc(S(=O)(=O)[O-])ccc5F)c5ccc2[nH]5)C=C4)C=C3)cc1
REMARK SMILES IDX 4 1 3 2 1 3 2 4 23 6 24 7 85 8 25 9 84 10 26 11 27 12 28 13
REMARK SMILES IDX 78 14 29 15 83 16 77 17 79 18 30 19 82 20 76 21 75 22 31 24
REMARK SMILES IDX 63 25 43 26 62 27 44 28 47 29 61 30 80 31 45 32 46 33 60 35
REMARK SMILES IDX 81 36 48 37 32 38 33 39 41 40 34 41 40 42 42 43 39 44 35 45
REMARK SMILES IDX 36 46 37 47 38 48 64 49 65 50 73 51 66 52 72 53 74 54 71 55
REMARK SMILES IDX 67 56 68 57 69 58 70 59 49 60 50 61 58 62 51 63 57 64 59 65
REMARK SMILES IDX 56 66 52 67 53 68 54 69 55 70 5 71 6 72 7 73 8 74 9 75 10 77
REMARK SMILES IDX 11 78 12 79 21 80 13 81 20 82 19 83 22 84 14 86 15 87 18 88
REMARK SMILES IDX 16 89 17 90
REMARK H PARENT 3 5 79 23 47 34 8 76 22 85
REMARK Flexibility Score: inf
ROOT
ATOM      1  C   UNL A   1      34.533  28.785  27.207  1.00  0.00     0.116 C 
ENDROOT
BRANCH   1   2
ATOM      2  N   UNL A   1      34.963  30.149  27.464  1.00  0.00    -0.352 N 
ATOM      3  O   UNL A   1      36.245  31.936  27.836  1.00  0.00    -0.269 OA
ATOM      4  C   UNL A   1      36.176  30.707  27.784  1.00  0.00     0.251 C 
ATOM      5  H   UNL A   1      34.235  30.808  27.393  1.00  0.00     0.163 HD
BRANCH   4   6
ATOM      6  C   UNL A   1      37.371  29.897  28.133  1.00  0.00     0.039 A 
ATOM      7  C   UNL A   1      38.552  29.915  27.391  1.00  0.00     0.014 A 
ATOM      8  C   UNL A   1      37.298  29.082  29.276  1.00  0.00     0.014 A 
ATOM      9  C   UNL A   1      39.588  29.043  27.694  1.00  0.00     0.010 A 
ATOM     10  C   UNL A   1      38.362  28.246  29.625  1.00  0.00     0.010 A 
ATOM     11  C   UNL A   1      39.504  28.216  28.818  1.00  0.00    -0.014 A 
BRANCH  11  12
ATOM     12  C   UNL A   1      40.756  27.533  29.221  1.00  0.00     0.031 A 
ATOM     13  C   UNL A   1      41.075  26.356  28.278  1.00  0.00     0.074 A 
ATOM     14  C   UNL A   1      41.365  27.937  30.376  1.00  0.00     0.049 A 
ATOM     15  N   UNL A   1      41.605  25.194  28.523  1.00  0.00    -0.248 NA
ATOM     16  C   UNL A   1      40.599  26.440  26.868  1.00  0.00     0.031 C 
ATOM     17  C   UNL A   1      40.935  29.084  31.206  1.00  0.00     0.029 A 
ATOM     18  N   UNL A   1      42.448  27.471  31.094  1.00  0.00    -0.354 N 
ATOM     19  C   UNL A   1      41.756  24.533  27.278  1.00  0.00     0.074 A 
ATOM     20  C   UNL A   1      40.955  25.266  26.346  1.00  0.00     0.031 C 
ATOM     21  C   UNL A   1      41.692  29.185  32.322  1.00  0.00     0.029 A 
ATOM     22  C   UNL A   1      42.694  28.135  32.328  1.00  0.00     0.049 A 
ATOM     23  H   UNL A   1      43.013  26.730  30.774  1.00  0.00     0.167 HD
ATOM     24  C   UNL A   1      42.666  23.538  27.051  1.00  0.00     0.034 A 
ATOM     25  C   UNL A   1      43.617  27.846  33.299  1.00  0.00     0.034 A 
ATOM     26  C   UNL A   1      43.372  23.239  28.253  1.00  0.00     0.049 A 
ATOM     27  C   UNL A   1      44.425  26.745  32.750  1.00  0.00     0.074 A 
ATOM     28  C   UNL A   1      43.055  22.603  29.422  1.00  0.00     0.029 A 
ATOM     29  N   UNL A   1      44.603  23.836  28.403  1.00  0.00    -0.354 N 
ATOM     30  N   UNL A   1      45.317  26.877  31.819  1.00  0.00    -0.248 NA
ATOM     31  C   UNL A   1      44.209  25.385  33.260  1.00  0.00     0.031 C 
ATOM     32  C   UNL A   1      43.915  23.188  30.378  1.00  0.00     0.029 A 
ATOM     33  C   UNL A   1      44.762  24.102  29.738  1.00  0.00     0.049 A 
ATOM     34  H   UNL A   1      45.248  24.034  27.686  1.00  0.00     0.167 HD
ATOM     35  C   UNL A   1      45.542  25.583  31.426  1.00  0.00     0.074 A 
ATOM     36  C   UNL A   1      45.108  24.741  32.520  1.00  0.00     0.031 C 
ATOM     37  C   UNL A   1      45.531  25.277  30.105  1.00  0.00     0.034 A 
BRANCH  24  38
ATOM     38  C   UNL A   1      43.229  22.930  25.778  1.00  0.00     0.023 A 
ATOM     39  C   UNL A   1      43.387  21.517  25.776  1.00  0.00     0.031 A 
ATOM     40  C   UNL A   1      43.867  23.611  24.732  1.00  0.00     0.131 A 
ATOM     41  C   UNL A   1      44.250  20.866  24.887  1.00  0.00     0.055 A 
ATOM     42  C   UNL A   1      44.671  22.946  23.790  1.00  0.00     0.041 A 
ATOM     43  F   UNL A   1      43.815  24.942  24.612  1.00  0.00    -0.206 F 
ATOM     44  C   UNL A   1      44.900  21.575  23.888  1.00  0.00     0.022 A 
BRANCH  41  45
ATOM     45  S   UNL A   1      44.653  19.121  25.200  1.00  0.00     0.124 S 
ATOM     46  O   UNL A   1      44.534  18.532  23.872  1.00  0.00    -0.237 OA
ATOM     47  O   UNL A   1      46.007  19.215  25.738  1.00  0.00    -0.237 OA
ATOM     48  O   UNL A   1      43.631  18.705  26.158  1.00  0.00    -0.744 OA
ENDBRANCH  41  45
ENDBRANCH  24  38
BRANCH  25  49
ATOM     49  C   UNL A   1      43.990  28.284  34.707  1.00  0.00     0.023 A 
ATOM     50  C   UNL A   1      44.106  27.454  35.834  1.00  0.00     0.031 A 
ATOM     51  C   UNL A   1      44.315  29.659  34.950  1.00  0.00     0.131 A 
ATOM     52  C   UNL A   1      44.577  27.980  37.071  1.00  0.00     0.055 A 
ATOM     53  C   UNL A   1      44.847  30.153  36.142  1.00  0.00     0.041 A 
ATOM     54  F   UNL A   1      44.138  30.612  34.025  1.00  0.00    -0.206 F 
ATOM     55  C   UNL A   1      44.993  29.306  37.212  1.00  0.00     0.022 A 
BRANCH  52  56
ATOM     56  S   UNL A   1      44.689  26.951  38.565  1.00  0.00     0.124 S 
ATOM     57  O   UNL A   1      45.794  26.058  38.233  1.00  0.00    -0.237 OA
ATOM     58  O   UNL A   1      44.947  27.923  39.622  1.00  0.00    -0.237 OA
ATOM     59  O   UNL A   1      43.373  26.314  38.621  1.00  0.00    -0.744 OA
ENDBRANCH  52  56
ENDBRANCH  25  49
BRANCH  37  60
ATOM     60  C   UNL A   1      45.878  26.456  29.193  1.00  0.00     0.023 A 
ATOM     61  C   UNL A   1      44.865  27.228  28.590  1.00  0.00     0.031 A 
ATOM     62  C   UNL A   1      47.193  26.760  28.797  1.00  0.00     0.131 A 
ATOM     63  C   UNL A   1      45.182  28.217  27.634  1.00  0.00     0.055 A 
ATOM     64  C   UNL A   1      47.514  27.749  27.862  1.00  0.00     0.041 A 
ATOM     65  F   UNL A   1      48.226  26.088  29.296  1.00  0.00    -0.206 F 
ATOM     66  C   UNL A   1      46.502  28.482  27.268  1.00  0.00     0.022 A 
BRANCH  63  67
ATOM     67  S   UNL A   1      43.850  29.182  26.867  1.00  0.00     0.124 S 
ATOM     68  O   UNL A   1      44.579  30.231  26.163  1.00  0.00    -0.237 OA
ATOM     69  O   UNL A   1      43.183  28.192  26.027  1.00  0.00    -0.237 OA
ATOM     70  O   UNL A   1      43.060  29.643  28.010  1.00  0.00    -0.744 OA
ENDBRANCH  63  67
ENDBRANCH  37  60
ENDBRANCH  11  12
ENDBRANCH   4   6
ENDBRANCH   1   2
BRANCH   1  71
ATOM     71  C   UNL A   1      33.418  28.618  26.175  1.00  0.00     0.023 C 
BRANCH  71  72
ATOM     72  C   UNL A   1      32.205  27.821  26.650  1.00  0.00     0.023 C 
BRANCH  72  73
ATOM     73  C   UNL A   1      32.086  26.422  26.060  1.00  0.00     0.116 C 
BRANCH  73  74
ATOM     74  N   UNL A   1      32.668  26.332  24.735  1.00  0.00    -0.352 N 
ATOM     75  C   UNL A   1      32.072  26.585  23.522  1.00  0.00     0.255 C 
ATOM     76  H   UNL A   1      33.612  26.056  24.699  1.00  0.00     0.163 HD
ATOM     77  O   UNL A   1      32.682  26.433  22.481  1.00  0.00    -0.269 OA
BRANCH  75  78
ATOM     78  C   UNL A   1      30.652  26.981  23.488  1.00  0.00     0.083 A 
ATOM     79  C   UNL A   1      30.368  28.292  23.088  1.00  0.00     0.044 A 
ATOM     80  C   UNL A   1      29.625  26.116  23.878  1.00  0.00     0.128 A 
ATOM     81  C   UNL A   1      29.045  28.744  23.100  1.00  0.00     0.046 A 
ATOM     82  C   UNL A   1      28.305  26.561  23.871  1.00  0.00     0.049 A 
ATOM     83  C   UNL A   1      28.016  27.877  23.499  1.00  0.00     0.030 A 
BRANCH  80  84
ATOM     84  O   UNL A   1      29.905  24.834  24.263  1.00  0.00    -0.507 OA
ATOM     85  H   UNL A   1      29.603  24.114  23.745  1.00  0.00     0.293 HD
ENDBRANCH  80  84
BRANCH  81  86
ATOM     86  N   UNL A   1      28.747  30.081  22.722  1.00  0.00    -0.324 N 
ATOM     87  C   UNL A   1      28.794  31.189  23.545  1.00  0.00     0.091 A 
ATOM     88  C   UNL A   1      28.365  30.511  21.467  1.00  0.00     0.091 A 
ATOM     89  C   UNL A   1      28.458  32.307  22.813  1.00  0.00     0.020 A 
ATOM     90  C   UNL A   1      28.162  31.874  21.503  1.00  0.00     0.020 A 
ENDBRANCH  81  86
ENDBRANCH  75  78
ENDBRANCH  73  74
ENDBRANCH  72  73
ENDBRANCH  71  72
ENDBRANCH   1  71
TORSDOF 16
ENDMDL
