MODEL 1
REMARK VINA RESULT:     -11.0      0.000      0.000
REMARK SMILES CCC(CC)(NC(=O)NCCc1nccs1)C(=O)NCCCCNC(=O)c1ccc(-c2c3nc(c(-c4cc(S(=O)(=O)[O-])ccc4F)c4ccc([nH]4)c(-c4cc(S(=O)(=O)[O-])ccc4F)c4nc(c(-c5cc(S(=O)(=O)[O-])ccc5F)c5ccc2[nH]5)C=C4)C=C3)cc1
REMARK SMILES IDX 21 1 20 2 19 3 17 4 18 5 3 7 2 8 1 9 4 10 5 11 6 12 7 13
REMARK SMILES IDX 8 15 9 16 10 18 11 19 12 20 13 21 16 22 14 23 15 24 22 25
REMARK SMILES IDX 23 26 24 27 25 28 26 30 27 31 28 32 89 33 29 34 88 35 30 36
REMARK SMILES IDX 31 37 32 38 82 39 33 40 87 41 81 42 83 43 34 44 86 45 80 46
REMARK SMILES IDX 79 47 35 49 67 50 47 51 66 52 48 53 51 54 65 55 84 56 49 57
REMARK SMILES IDX 50 58 64 60 85 61 52 62 36 63 37 64 45 65 38 66 44 67 46 68
REMARK SMILES IDX 43 69 39 70 40 71 41 72 42 73 68 74 69 75 77 76 70 77 76 78
REMARK SMILES IDX 78 79 75 80 71 81 72 82 73 83 74 84 53 85 54 86 62 87 55 88
REMARK SMILES IDX 61 89 63 90 60 91 56 92 57 93 58 94 59 95
REMARK H PARENT 19 6 6 14 9 17 24 29 83 48 51 59
REMARK Flexibility Score: inf
ROOT
ATOM      1  C   UNL A   1      31.672  30.575  26.750  1.00  0.00     0.023 C 
ENDROOT
BRANCH   1   2
ATOM      2  C   UNL A   1      31.535  29.874  25.398  1.00  0.00     0.116 C 
BRANCH   2   3
ATOM      3  N   UNL A   1      32.740  29.680  24.594  1.00  0.00    -0.354 N 
ATOM      4  C   UNL A   1      33.193  28.653  23.799  1.00  0.00     0.245 C 
ATOM      5  O   UNL A   1      34.130  28.916  23.038  1.00  0.00    -0.272 OA
ATOM      6  H   UNL A   1      33.357  30.446  24.629  1.00  0.00     0.163 HD
BRANCH   4   7
ATOM      7  C   UNL A   1      32.487  27.270  23.750  1.00  0.00     0.120 C 
BRANCH   7   8
ATOM      8  C   UNL A   1      30.934  27.252  23.862  1.00  0.00     0.035 C 
ATOM      9  C   UNL A   1      30.125  27.861  22.724  1.00  0.00     0.007 C 
ENDBRANCH   7   8
BRANCH   7  10
ATOM     10  C   UNL A   1      33.090  26.494  24.977  1.00  0.00     0.035 C 
ATOM     11  C   UNL A   1      34.352  25.678  24.739  1.00  0.00     0.007 C 
ENDBRANCH   7  10
BRANCH   7  12
ATOM     12  N   UNL A   1      32.841  26.651  22.457  1.00  0.00    -0.324 N 
ATOM     13  C   UNL A   1      32.693  25.441  21.904  1.00  0.00     0.315 C 
ATOM     14  H   UNL A   1      33.296  27.283  21.856  1.00  0.00     0.166 HD
ATOM     15  O   UNL A   1      33.281  25.265  20.830  1.00  0.00    -0.249 OA
ATOM     16  N   UNL A   1      31.920  24.441  22.338  1.00  0.00    -0.338 N 
ATOM     17  H   UNL A   1      31.693  23.827  21.602  1.00  0.00     0.165 HD
BRANCH  16  18
ATOM     18  C   UNL A   1      31.312  23.995  23.592  1.00  0.00     0.125 C 
BRANCH  18  19
ATOM     19  C   UNL A   1      31.679  22.605  24.123  1.00  0.00     0.089 C 
BRANCH  19  20
ATOM     20  C   UNL A   1      32.494  22.484  25.374  1.00  0.00     0.094 A 
ATOM     21  N   UNL A   1      33.575  21.728  25.425  1.00  0.00    -0.250 NA
ATOM     22  S   UNL A   1      32.021  23.176  26.872  1.00  0.00    -0.127 S 
ATOM     23  C   UNL A   1      34.052  21.662  26.720  1.00  0.00     0.123 A 
ATOM     24  C   UNL A   1      33.338  22.392  27.644  1.00  0.00     0.087 A 
ENDBRANCH  19  20
ENDBRANCH  18  19
ENDBRANCH  16  18
ENDBRANCH   7  12
ENDBRANCH   4   7
ENDBRANCH   2   3
ENDBRANCH   1   2
BRANCH   1  25
ATOM     25  C   UNL A   1      31.565  32.092  26.780  1.00  0.00     0.023 C 
BRANCH  25  26
ATOM     26  C   UNL A   1      32.858  32.844  27.043  1.00  0.00     0.116 C 
BRANCH  26  27
ATOM     27  N   UNL A   1      32.626  34.159  27.614  1.00  0.00    -0.352 N 
ATOM     28  C   UNL A   1      33.190  34.736  28.725  1.00  0.00     0.251 C 
ATOM     29  H   UNL A   1      31.969  34.716  27.137  1.00  0.00     0.163 HD
ATOM     30  O   UNL A   1      32.728  35.792  29.149  1.00  0.00    -0.269 OA
BRANCH  28  31
ATOM     31  C   UNL A   1      34.324  34.085  29.422  1.00  0.00     0.039 A 
ATOM     32  C   UNL A   1      35.625  34.414  29.029  1.00  0.00     0.014 A 
ATOM     33  C   UNL A   1      34.121  33.131  30.424  1.00  0.00     0.014 A 
ATOM     34  C   UNL A   1      36.718  33.819  29.665  1.00  0.00     0.010 A 
ATOM     35  C   UNL A   1      35.212  32.582  31.099  1.00  0.00     0.010 A 
ATOM     36  C   UNL A   1      36.522  32.913  30.720  1.00  0.00    -0.014 A 
BRANCH  36  37
ATOM     37  C   UNL A   1      37.675  32.285  31.416  1.00  0.00     0.031 A 
ATOM     38  C   UNL A   1      38.431  31.160  30.761  1.00  0.00     0.074 A 
ATOM     39  C   UNL A   1      38.015  32.698  32.652  1.00  0.00     0.049 A 
ATOM     40  N   UNL A   1      39.430  30.453  31.224  1.00  0.00    -0.248 NA
ATOM     41  C   UNL A   1      37.987  30.763  29.417  1.00  0.00     0.031 C 
ATOM     42  C   UNL A   1      37.344  33.763  33.402  1.00  0.00     0.029 A 
ATOM     43  N   UNL A   1      39.006  32.270  33.500  1.00  0.00    -0.354 N 
ATOM     44  C   UNL A   1      39.726  29.519  30.236  1.00  0.00     0.074 A 
ATOM     45  C   UNL A   1      38.763  29.719  29.173  1.00  0.00     0.031 C 
ATOM     46  C   UNL A   1      37.956  33.917  34.587  1.00  0.00     0.029 A 
ATOM     47  C   UNL A   1      39.035  32.940  34.701  1.00  0.00     0.049 A 
ATOM     48  H   UNL A   1      39.638  31.550  33.270  1.00  0.00     0.167 HD
ATOM     49  C   UNL A   1      40.719  28.595  30.208  1.00  0.00     0.034 A 
ATOM     50  C   UNL A   1      39.833  32.779  35.776  1.00  0.00     0.034 A 
ATOM     51  C   UNL A   1      41.680  28.417  31.271  1.00  0.00     0.049 A 
ATOM     52  C   UNL A   1      40.913  31.727  35.733  1.00  0.00     0.074 A 
ATOM     53  C   UNL A   1      42.762  27.554  31.319  1.00  0.00     0.029 A 
ATOM     54  N   UNL A   1      41.671  29.106  32.477  1.00  0.00    -0.354 N 
ATOM     55  N   UNL A   1      41.212  30.887  34.769  1.00  0.00    -0.248 NA
ATOM     56  C   UNL A   1      41.769  31.611  36.921  1.00  0.00     0.031 C 
ATOM     57  C   UNL A   1      43.364  27.673  32.578  1.00  0.00     0.029 A 
ATOM     58  C   UNL A   1      42.705  28.663  33.288  1.00  0.00     0.049 A 
ATOM     59  H   UNL A   1      41.023  29.806  32.721  1.00  0.00     0.167 HD
ATOM     60  C   UNL A   1      42.313  30.165  35.224  1.00  0.00     0.074 A 
ATOM     61  C   UNL A   1      42.630  30.677  36.541  1.00  0.00     0.031 C 
ATOM     62  C   UNL A   1      43.003  29.173  34.606  1.00  0.00     0.034 A 
BRANCH  49  63
ATOM     63  C   UNL A   1      40.792  27.687  29.003  1.00  0.00     0.023 A 
ATOM     64  C   UNL A   1      41.753  27.872  27.994  1.00  0.00     0.031 A 
ATOM     65  C   UNL A   1      39.870  26.636  28.848  1.00  0.00     0.131 A 
ATOM     66  C   UNL A   1      41.724  27.070  26.843  1.00  0.00     0.055 A 
ATOM     67  C   UNL A   1      39.898  25.790  27.738  1.00  0.00     0.041 A 
ATOM     68  F   UNL A   1      38.917  26.422  29.769  1.00  0.00    -0.206 F 
ATOM     69  C   UNL A   1      40.819  26.014  26.719  1.00  0.00     0.022 A 
BRANCH  66  70
ATOM     70  S   UNL A   1      42.794  27.517  25.447  1.00  0.00     0.124 S 
ATOM     71  O   UNL A   1      43.977  28.027  26.136  1.00  0.00    -0.237 OA
ATOM     72  O   UNL A   1      42.956  26.245  24.754  1.00  0.00    -0.237 OA
ATOM     73  O   UNL A   1      42.018  28.526  24.729  1.00  0.00    -0.744 OA
ENDBRANCH  66  70
ENDBRANCH  49  63
BRANCH  50  74
ATOM     74  C   UNL A   1      39.644  33.624  36.989  1.00  0.00     0.023 A 
ATOM     75  C   UNL A   1      39.135  33.077  38.178  1.00  0.00     0.031 A 
ATOM     76  C   UNL A   1      39.929  35.000  36.964  1.00  0.00     0.131 A 
ATOM     77  C   UNL A   1      38.882  33.910  39.278  1.00  0.00     0.055 A 
ATOM     78  C   UNL A   1      39.722  35.816  38.077  1.00  0.00     0.041 A 
ATOM     79  F   UNL A   1      40.426  35.572  35.855  1.00  0.00    -0.206 F 
ATOM     80  C   UNL A   1      39.183  35.273  39.240  1.00  0.00     0.022 A 
BRANCH  77  81
ATOM     81  S   UNL A   1      38.075  33.198  40.739  1.00  0.00     0.124 S 
ATOM     82  O   UNL A   1      38.607  34.035  41.808  1.00  0.00    -0.237 OA
ATOM     83  O   UNL A   1      36.663  33.382  40.423  1.00  0.00    -0.237 OA
ATOM     84  O   UNL A   1      38.537  31.812  40.740  1.00  0.00    -0.744 OA
ENDBRANCH  77  81
ENDBRANCH  50  74
BRANCH  62  85
ATOM     85  C   UNL A   1      44.198  28.612  35.338  1.00  0.00     0.023 A 
ATOM     86  C   UNL A   1      44.059  27.667  36.370  1.00  0.00     0.031 A 
ATOM     87  C   UNL A   1      45.495  29.041  35.004  1.00  0.00     0.131 A 
ATOM     88  C   UNL A   1      45.192  27.223  37.068  1.00  0.00     0.055 A 
ATOM     89  C   UNL A   1      46.623  28.553  35.664  1.00  0.00     0.041 A 
ATOM     90  F   UNL A   1      45.687  29.944  34.028  1.00  0.00    -0.206 F 
ATOM     91  C   UNL A   1      46.475  27.648  36.712  1.00  0.00     0.022 A 
BRANCH  88  92
ATOM     92  S   UNL A   1      44.961  26.149  38.512  1.00  0.00     0.124 S 
ATOM     93  O   UNL A   1      43.588  26.452  38.900  1.00  0.00    -0.237 OA
ATOM     94  O   UNL A   1      45.186  24.820  37.952  1.00  0.00    -0.237 OA
ATOM     95  O   UNL A   1      45.986  26.607  39.448  1.00  0.00    -0.744 OA
ENDBRANCH  88  92
ENDBRANCH  62  85
ENDBRANCH  36  37
ENDBRANCH  28  31
ENDBRANCH  26  27
ENDBRANCH  25  26
ENDBRANCH   1  25
TORSDOF 20
ENDMDL
MODEL 2
REMARK VINA RESULT:     -10.9      5.595      8.784
REMARK SMILES CCC(CC)(NC(=O)NCCc1nccs1)C(=O)NCCCCNC(=O)c1ccc(-c2c3nc(c(-c4cc(S(=O)(=O)[O-])ccc4F)c4ccc([nH]4)c(-c4cc(S(=O)(=O)[O-])ccc4F)c4nc(c(-c5cc(S(=O)(=O)[O-])ccc5F)c5ccc2[nH]5)C=C4)C=C3)cc1
REMARK SMILES IDX 21 1 20 2 19 3 17 4 18 5 3 7 2 8 1 9 4 10 5 11 6 12 7 13
REMARK SMILES IDX 8 15 9 16 10 18 11 19 12 20 13 21 16 22 14 23 15 24 22 25
REMARK SMILES IDX 23 26 24 27 25 28 26 30 27 31 28 32 89 33 29 34 88 35 30 36
REMARK SMILES IDX 31 37 32 38 82 39 33 40 87 41 81 42 83 43 34 44 86 45 80 46
REMARK SMILES IDX 79 47 35 49 67 50 47 51 66 52 48 53 51 54 65 55 84 56 49 57
REMARK SMILES IDX 50 58 64 60 85 61 52 62 36 63 37 64 45 65 38 66 44 67 46 68
REMARK SMILES IDX 43 69 39 70 40 71 41 72 42 73 68 74 69 75 77 76 70 77 76 78
REMARK SMILES IDX 78 79 75 80 71 81 72 82 73 83 74 84 53 85 54 86 62 87 55 88
REMARK SMILES IDX 61 89 63 90 60 91 56 92 57 93 58 94 59 95
REMARK H PARENT 19 6 6 14 9 17 24 29 83 48 51 59
REMARK Flexibility Score: inf
ROOT
ATOM      1  C   UNL A   1      36.408  23.089  23.170  1.00  0.00     0.023 C 
ENDROOT
BRANCH   1   2
ATOM      2  C   UNL A   1      35.079  23.642  23.686  1.00  0.00     0.116 C 
BRANCH   2   3
ATOM      3  N   UNL A   1      33.843  23.006  23.234  1.00  0.00    -0.354 N 
ATOM      4  C   UNL A   1      32.831  22.336  23.883  1.00  0.00     0.245 C 
ATOM      5  O   UNL A   1      31.789  22.157  23.243  1.00  0.00    -0.272 OA
ATOM      6  H   UNL A   1      33.706  23.070  22.262  1.00  0.00     0.163 HD
BRANCH   4   7
ATOM      7  C   UNL A   1      32.927  21.942  25.382  1.00  0.00     0.120 C 
BRANCH   7   8
ATOM      8  C   UNL A   1      33.651  22.932  26.341  1.00  0.00     0.035 C 
ATOM      9  C   UNL A   1      33.774  22.549  27.810  1.00  0.00     0.007 C 
ENDBRANCH   7   8
BRANCH   7  10
ATOM     10  C   UNL A   1      33.721  20.585  25.366  1.00  0.00     0.035 C 
ATOM     11  C   UNL A   1      33.300  19.538  24.345  1.00  0.00     0.007 C 
ENDBRANCH   7  10
BRANCH   7  12
ATOM     12  N   UNL A   1      31.545  21.784  25.876  1.00  0.00    -0.324 N 
ATOM     13  C   UNL A   1      30.500  22.599  26.070  1.00  0.00     0.315 C 
ATOM     14  H   UNL A   1      31.342  20.853  26.121  1.00  0.00     0.166 HD
ATOM     15  O   UNL A   1      29.535  22.104  26.665  1.00  0.00    -0.249 OA
ATOM     16  N   UNL A   1      30.354  23.850  25.622  1.00  0.00    -0.338 N 
ATOM     17  H   UNL A   1      29.402  24.094  25.567  1.00  0.00     0.165 HD
BRANCH  16  18
ATOM     18  C   UNL A   1      31.201  24.961  25.188  1.00  0.00     0.125 C 
BRANCH  18  19
ATOM     19  C   UNL A   1      30.834  25.691  23.892  1.00  0.00     0.089 C 
BRANCH  19  20
ATOM     20  C   UNL A   1      30.767  27.187  23.882  1.00  0.00     0.094 A 
ATOM     21  N   UNL A   1      31.570  27.921  24.630  1.00  0.00    -0.250 NA
ATOM     22  S   UNL A   1      29.560  28.068  23.036  1.00  0.00    -0.127 S 
ATOM     23  C   UNL A   1      31.207  29.251  24.562  1.00  0.00     0.123 A 
ATOM     24  C   UNL A   1      30.138  29.523  23.737  1.00  0.00     0.087 A 
ENDBRANCH  19  20
ENDBRANCH  18  19
ENDBRANCH  16  18
ENDBRANCH   7  12
ENDBRANCH   4   7
ENDBRANCH   2   3
ENDBRANCH   1   2
BRANCH   1  25
ATOM     25  C   UNL A   1      37.015  21.899  23.900  1.00  0.00     0.023 C 
BRANCH  25  26
ATOM     26  C   UNL A   1      37.265  22.090  25.386  1.00  0.00     0.116 C 
BRANCH  26  27
ATOM     27  N   UNL A   1      38.177  21.095  25.924  1.00  0.00    -0.352 N 
ATOM     28  C   UNL A   1      39.402  21.268  26.517  1.00  0.00     0.251 C 
ATOM     29  H   UNL A   1      37.871  20.161  25.853  1.00  0.00     0.163 HD
ATOM     30  O   UNL A   1      40.100  20.284  26.745  1.00  0.00    -0.269 OA
BRANCH  28  31
ATOM     31  C   UNL A   1      39.893  22.625  26.856  1.00  0.00     0.039 A 
ATOM     32  C   UNL A   1      40.853  22.754  27.865  1.00  0.00     0.014 A 
ATOM     33  C   UNL A   1      39.391  23.767  26.224  1.00  0.00     0.014 A 
ATOM     34  C   UNL A   1      41.338  24.019  28.210  1.00  0.00     0.010 A 
ATOM     35  C   UNL A   1      39.919  25.023  26.527  1.00  0.00     0.010 A 
ATOM     36  C   UNL A   1      40.889  25.163  27.531  1.00  0.00    -0.014 A 
BRANCH  36  37
ATOM     37  C   UNL A   1      41.408  26.512  27.876  1.00  0.00     0.031 A 
ATOM     38  C   UNL A   1      42.812  26.901  27.497  1.00  0.00     0.074 A 
ATOM     39  C   UNL A   1      40.633  27.369  28.568  1.00  0.00     0.049 A 
ATOM     40  N   UNL A   1      43.462  28.008  27.750  1.00  0.00    -0.248 NA
ATOM     41  C   UNL A   1      43.594  25.902  26.754  1.00  0.00     0.031 C 
ATOM     42  C   UNL A   1      39.264  27.099  29.015  1.00  0.00     0.029 A 
ATOM     43  N   UNL A   1      40.885  28.640  29.022  1.00  0.00    -0.354 N 
ATOM     44  C   UNL A   1      44.734  27.834  27.211  1.00  0.00     0.074 A 
ATOM     45  C   UNL A   1      44.775  26.494  26.665  1.00  0.00     0.031 C 
ATOM     46  C   UNL A   1      38.792  28.179  29.659  1.00  0.00     0.029 A 
ATOM     47  C   UNL A   1      39.833  29.202  29.708  1.00  0.00     0.049 A 
ATOM     48  H   UNL A   1      41.739  29.107  28.871  1.00  0.00     0.167 HD
ATOM     49  C   UNL A   1      45.763  28.717  27.159  1.00  0.00     0.034 A 
ATOM     50  C   UNL A   1      39.723  30.400  30.316  1.00  0.00     0.034 A 
ATOM     51  C   UNL A   1      45.702  30.055  27.697  1.00  0.00     0.049 A 
ATOM     52  C   UNL A   1      40.890  31.354  30.268  1.00  0.00     0.074 A 
ATOM     53  C   UNL A   1      46.663  31.050  27.644  1.00  0.00     0.029 A 
ATOM     54  N   UNL A   1      44.624  30.585  28.394  1.00  0.00    -0.354 N 
ATOM     55  N   UNL A   1      42.067  31.194  29.709  1.00  0.00    -0.248 NA
ATOM     56  C   UNL A   1      40.707  32.655  30.925  1.00  0.00     0.031 C 
ATOM     57  C   UNL A   1      46.195  32.154  28.366  1.00  0.00     0.029 A 
ATOM     58  C   UNL A   1      44.911  31.878  28.807  1.00  0.00     0.049 A 
ATOM     59  H   UNL A   1      43.780  30.110  28.571  1.00  0.00     0.167 HD
ATOM     60  C   UNL A   1      42.753  32.388  29.920  1.00  0.00     0.074 A 
ATOM     61  C   UNL A   1      41.853  33.260  30.646  1.00  0.00     0.031 C 
ATOM     62  C   UNL A   1      44.009  32.733  29.542  1.00  0.00     0.034 A 
BRANCH  49  63
ATOM     63  C   UNL A   1      47.051  28.246  26.526  1.00  0.00     0.023 A 
ATOM     64  C   UNL A   1      47.243  28.267  25.133  1.00  0.00     0.031 A 
ATOM     65  C   UNL A   1      48.095  27.745  27.325  1.00  0.00     0.131 A 
ATOM     66  C   UNL A   1      48.413  27.728  24.578  1.00  0.00     0.055 A 
ATOM     67  C   UNL A   1      49.291  27.285  26.772  1.00  0.00     0.041 A 
ATOM     68  F   UNL A   1      47.964  27.682  28.660  1.00  0.00    -0.206 F 
ATOM     69  C   UNL A   1      49.450  27.260  25.389  1.00  0.00     0.022 A 
BRANCH  66  70
ATOM     70  S   UNL A   1      48.503  27.516  22.779  1.00  0.00     0.124 S 
ATOM     71  O   UNL A   1      48.508  26.060  22.653  1.00  0.00    -0.237 OA
ATOM     72  O   UNL A   1      47.296  28.193  22.321  1.00  0.00    -0.237 OA
ATOM     73  O   UNL A   1      49.760  28.169  22.418  1.00  0.00    -0.744 OA
ENDBRANCH  66  70
ENDBRANCH  49  63
BRANCH  50  74
ATOM     74  C   UNL A   1      38.468  30.771  31.029  1.00  0.00     0.023 A 
ATOM     75  C   UNL A   1      37.427  31.435  30.360  1.00  0.00     0.031 A 
ATOM     76  C   UNL A   1      38.309  30.506  32.400  1.00  0.00     0.131 A 
ATOM     77  C   UNL A   1      36.293  31.854  31.073  1.00  0.00     0.055 A 
ATOM     78  C   UNL A   1      37.158  30.880  33.095  1.00  0.00     0.041 A 
ATOM     79  F   UNL A   1      39.270  29.865  33.085  1.00  0.00    -0.206 F 
ATOM     80  C   UNL A   1      36.146  31.570  32.433  1.00  0.00     0.022 A 
BRANCH  77  81
ATOM     81  S   UNL A   1      35.044  32.848  30.213  1.00  0.00     0.124 S 
ATOM     82  O   UNL A   1      34.060  33.066  31.267  1.00  0.00    -0.237 OA
ATOM     83  O   UNL A   1      35.818  34.017  29.805  1.00  0.00    -0.237 OA
ATOM     84  O   UNL A   1      34.611  31.979  29.122  1.00  0.00    -0.744 OA
ENDBRANCH  77  81
ENDBRANCH  50  74
BRANCH  62  85
ATOM     85  C   UNL A   1      44.462  34.135  29.872  1.00  0.00     0.023 A 
ATOM     86  C   UNL A   1      44.215  35.216  29.008  1.00  0.00     0.031 A 
ATOM     87  C   UNL A   1      45.166  34.387  31.064  1.00  0.00     0.131 A 
ATOM     88  C   UNL A   1      44.714  36.490  29.322  1.00  0.00     0.055 A 
ATOM     89  C   UNL A   1      45.609  35.667  31.398  1.00  0.00     0.041 A 
ATOM     90  F   UNL A   1      45.431  33.391  31.925  1.00  0.00    -0.206 F 
ATOM     91  C   UNL A   1      45.396  36.725  30.519  1.00  0.00     0.022 A 
BRANCH  88  92
ATOM     92  S   UNL A   1      44.539  37.821  28.102  1.00  0.00     0.124 S 
ATOM     93  O   UNL A   1      45.161  38.948  28.789  1.00  0.00    -0.237 OA
ATOM     94  O   UNL A   1      45.270  37.291  26.955  1.00  0.00    -0.237 OA
ATOM     95  O   UNL A   1      43.093  37.928  27.917  1.00  0.00    -0.744 OA
ENDBRANCH  88  92
ENDBRANCH  62  85
ENDBRANCH  36  37
ENDBRANCH  28  31
ENDBRANCH  26  27
ENDBRANCH  25  26
ENDBRANCH   1  25
TORSDOF 20
ENDMDL
MODEL 3
REMARK VINA RESULT:     -10.8      2.618      3.910
REMARK SMILES CCC(CC)(NC(=O)NCCc1nccs1)C(=O)NCCCCNC(=O)c1ccc(-c2c3nc(c(-c4cc(S(=O)(=O)[O-])ccc4F)c4ccc([nH]4)c(-c4cc(S(=O)(=O)[O-])ccc4F)c4nc(c(-c5cc(S(=O)(=O)[O-])ccc5F)c5ccc2[nH]5)C=C4)C=C3)cc1
REMARK SMILES IDX 21 1 20 2 19 3 17 4 18 5 3 7 2 8 1 9 4 10 5 11 6 12 7 13
REMARK SMILES IDX 8 15 9 16 10 18 11 19 12 20 13 21 16 22 14 23 15 24 22 25
REMARK SMILES IDX 23 26 24 27 25 28 26 30 27 31 28 32 89 33 29 34 88 35 30 36
REMARK SMILES IDX 31 37 32 38 82 39 33 40 87 41 81 42 83 43 34 44 86 45 80 46
REMARK SMILES IDX 79 47 35 49 67 50 47 51 66 52 48 53 51 54 65 55 84 56 49 57
REMARK SMILES IDX 50 58 64 60 85 61 52 62 36 63 37 64 45 65 38 66 44 67 46 68
REMARK SMILES IDX 43 69 39 70 40 71 41 72 42 73 68 74 69 75 77 76 70 77 76 78
REMARK SMILES IDX 78 79 75 80 71 81 72 82 73 83 74 84 53 85 54 86 62 87 55 88
REMARK SMILES IDX 61 89 63 90 60 91 56 92 57 93 58 94 59 95
REMARK H PARENT 19 6 6 14 9 17 24 29 83 48 51 59
REMARK Flexibility Score: inf
ROOT
ATOM      1  C   UNL A   1      31.129  27.214  25.846  1.00  0.00     0.023 C 
ENDROOT
BRANCH   1   2
ATOM      2  C   UNL A   1      31.626  25.917  26.485  1.00  0.00     0.116 C 
BRANCH   2   3
ATOM      3  N   UNL A   1      30.716  24.774  26.529  1.00  0.00    -0.354 N 
ATOM      4  C   UNL A   1      30.888  23.419  26.360  1.00  0.00     0.245 C 
ATOM      5  O   UNL A   1      29.958  22.694  26.731  1.00  0.00    -0.272 OA
ATOM      6  H   UNL A   1      29.784  25.027  26.718  1.00  0.00     0.163 HD
BRANCH   4   7
ATOM      7  C   UNL A   1      32.227  22.810  25.859  1.00  0.00     0.120 C 
BRANCH   7   8
ATOM      8  C   UNL A   1      33.498  23.063  26.722  1.00  0.00     0.035 C 
ATOM      9  C   UNL A   1      33.693  22.222  27.977  1.00  0.00     0.007 C 
ENDBRANCH   7   8
BRANCH   7  10
ATOM     10  C   UNL A   1      32.437  23.468  24.447  1.00  0.00     0.035 C 
ATOM     11  C   UNL A   1      31.296  23.359  23.446  1.00  0.00     0.007 C 
ENDBRANCH   7  10
BRANCH   7  12
ATOM     12  N   UNL A   1      32.033  21.349  25.782  1.00  0.00    -0.324 N 
ATOM     13  C   UNL A   1      32.749  20.312  25.330  1.00  0.00     0.315 C 
ATOM     14  H   UNL A   1      31.166  21.069  26.154  1.00  0.00     0.166 HD
ATOM     15  O   UNL A   1      32.160  19.225  25.297  1.00  0.00    -0.249 OA
ATOM     16  N   UNL A   1      34.043  20.306  24.994  1.00  0.00    -0.338 N 
ATOM     17  H   UNL A   1      34.417  19.397  25.055  1.00  0.00     0.165 HD
BRANCH  16  18
ATOM     18  C   UNL A   1      35.064  21.261  24.564  1.00  0.00     0.125 C 
BRANCH  18  19
ATOM     19  C   UNL A   1      36.525  20.975  24.929  1.00  0.00     0.089 C 
BRANCH  19  20
ATOM     20  C   UNL A   1      37.347  22.049  25.573  1.00  0.00     0.094 A 
ATOM     21  N   UNL A   1      36.897  23.283  25.699  1.00  0.00    -0.250 NA
ATOM     22  S   UNL A   1      38.980  21.821  26.052  1.00  0.00    -0.127 S 
ATOM     23  C   UNL A   1      37.894  24.111  26.176  1.00  0.00     0.123 A 
ATOM     24  C   UNL A   1      39.097  23.490  26.432  1.00  0.00     0.087 A 
ENDBRANCH  19  20
ENDBRANCH  18  19
ENDBRANCH  16  18
ENDBRANCH   7  12
ENDBRANCH   4   7
ENDBRANCH   2   3
ENDBRANCH   1   2
BRANCH   1  25
ATOM     25  C   UNL A   1      32.007  27.871  24.792  1.00  0.00     0.023 C 
BRANCH  25  26
ATOM     26  C   UNL A   1      33.040  28.858  25.309  1.00  0.00     0.116 C 
BRANCH  26  27
ATOM     27  N   UNL A   1      32.451  30.141  25.655  1.00  0.00    -0.352 N 
ATOM     28  C   UNL A   1      32.803  31.019  26.649  1.00  0.00     0.251 C 
ATOM     29  H   UNL A   1      31.690  30.420  25.096  1.00  0.00     0.163 HD
ATOM     30  O   UNL A   1      32.067  31.970  26.894  1.00  0.00    -0.269 OA
BRANCH  28  31
ATOM     31  C   UNL A   1      34.041  30.812  27.437  1.00  0.00     0.039 A 
ATOM     32  C   UNL A   1      34.246  29.569  28.043  1.00  0.00     0.014 A 
ATOM     33  C   UNL A   1      34.977  31.835  27.618  1.00  0.00     0.014 A 
ATOM     34  C   UNL A   1      35.402  29.339  28.794  1.00  0.00     0.010 A 
ATOM     35  C   UNL A   1      36.159  31.587  28.316  1.00  0.00     0.010 A 
ATOM     36  C   UNL A   1      36.379  30.340  28.921  1.00  0.00    -0.014 A 
BRANCH  36  37
ATOM     37  C   UNL A   1      37.621  30.104  29.702  1.00  0.00     0.031 A 
ATOM     38  C   UNL A   1      38.736  29.279  29.116  1.00  0.00     0.074 A 
ATOM     39  C   UNL A   1      37.727  30.594  30.952  1.00  0.00     0.049 A 
ATOM     40  N   UNL A   1      39.873  28.921  29.656  1.00  0.00    -0.248 NA
ATOM     41  C   UNL A   1      38.533  28.773  27.751  1.00  0.00     0.031 C 
ATOM     42  C   UNL A   1      36.705  31.387  31.639  1.00  0.00     0.029 A 
ATOM     43  N   UNL A   1      38.743  30.495  31.871  1.00  0.00    -0.354 N 
ATOM     44  C   UNL A   1      40.516  28.136  28.704  1.00  0.00     0.074 A 
ATOM     45  C   UNL A   1      39.614  28.029  27.576  1.00  0.00     0.031 C 
ATOM     46  C   UNL A   1      37.155  31.719  32.860  1.00  0.00     0.029 A 
ATOM     47  C   UNL A   1      38.476  31.131  33.061  1.00  0.00     0.049 A 
ATOM     48  H   UNL A   1      39.583  30.013  31.695  1.00  0.00     0.167 HD
ATOM     49  C   UNL A   1      41.749  27.573  28.757  1.00  0.00     0.034 A 
ATOM     50  C   UNL A   1      39.208  31.222  34.189  1.00  0.00     0.034 A 
ATOM     51  C   UNL A   1      42.642  27.699  29.885  1.00  0.00     0.049 A 
ATOM     52  C   UNL A   1      40.566  30.566  34.235  1.00  0.00     0.074 A 
ATOM     53  C   UNL A   1      43.935  27.222  30.019  1.00  0.00     0.029 A 
ATOM     54  N   UNL A   1      42.333  28.342  31.077  1.00  0.00    -0.354 N 
ATOM     55  N   UNL A   1      41.180  29.870  33.307  1.00  0.00    -0.248 NA
ATOM     56  C   UNL A   1      41.331  30.717  35.480  1.00  0.00     0.031 C 
ATOM     57  C   UNL A   1      44.381  27.516  31.313  1.00  0.00     0.029 A 
ATOM     58  C   UNL A   1      43.396  28.242  31.962  1.00  0.00     0.049 A 
ATOM     59  H   UNL A   1      41.482  28.800  31.266  1.00  0.00     0.167 HD
ATOM     60  C   UNL A   1      42.418  29.529  33.845  1.00  0.00     0.074 A 
ATOM     61  C   UNL A   1      42.466  30.106  35.173  1.00  0.00     0.031 C 
ATOM     62  C   UNL A   1      43.426  28.811  33.290  1.00  0.00     0.034 A 
BRANCH  49  63
ATOM     63  C   UNL A   1      42.187  26.743  27.573  1.00  0.00     0.023 A 
ATOM     64  C   UNL A   1      42.201  25.338  27.619  1.00  0.00     0.031 A 
ATOM     65  C   UNL A   1      42.620  27.366  26.389  1.00  0.00     0.131 A 
ATOM     66  C   UNL A   1      42.709  24.606  26.535  1.00  0.00     0.055 A 
ATOM     67  C   UNL A   1      43.047  26.629  25.282  1.00  0.00     0.041 A 
ATOM     68  F   UNL A   1      42.646  28.704  26.291  1.00  0.00    -0.206 F 
ATOM     69  C   UNL A   1      43.109  25.241  25.357  1.00  0.00     0.022 A 
BRANCH  66  70
ATOM     70  S   UNL A   1      42.972  22.823  26.740  1.00  0.00     0.124 S 
ATOM     71  O   UNL A   1      42.554  22.313  25.435  1.00  0.00    -0.237 OA
ATOM     72  O   UNL A   1      44.398  22.745  27.030  1.00  0.00    -0.237 OA
ATOM     73  O   UNL A   1      42.088  22.470  27.849  1.00  0.00    -0.744 OA
ENDBRANCH  66  70
ENDBRANCH  49  63
BRANCH  50  74
ATOM     74  C   UNL A   1      38.680  31.956  35.374  1.00  0.00     0.023 A 
ATOM     75  C   UNL A   1      38.208  31.263  36.501  1.00  0.00     0.031 A 
ATOM     76  C   UNL A   1      38.598  33.359  35.380  1.00  0.00     0.131 A 
ATOM     77  C   UNL A   1      37.633  31.971  37.567  1.00  0.00     0.055 A 
ATOM     78  C   UNL A   1      38.070  34.062  36.464  1.00  0.00     0.041 A 
ATOM     79  F   UNL A   1      39.042  34.070  34.331  1.00  0.00    -0.206 F 
ATOM     80  C   UNL A   1      37.572  33.367  37.561  1.00  0.00     0.022 A 
BRANCH  77  81
ATOM     81  S   UNL A   1      36.891  31.035  38.932  1.00  0.00     0.124 S 
ATOM     82  O   UNL A   1      35.635  31.748  39.132  1.00  0.00    -0.237 OA
ATOM     83  O   UNL A   1      36.785  29.697  38.358  1.00  0.00    -0.237 OA
ATOM     84  O   UNL A   1      37.868  31.173  40.009  1.00  0.00    -0.744 OA
ENDBRANCH  77  81
ENDBRANCH  50  74
BRANCH  62  85
ATOM     85  C   UNL A   1      44.685  28.650  34.108  1.00  0.00     0.023 A 
ATOM     86  C   UNL A   1      44.901  27.524  34.922  1.00  0.00     0.031 A 
ATOM     87  C   UNL A   1      45.675  29.648  34.083  1.00  0.00     0.131 A 
ATOM     88  C   UNL A   1      46.054  27.448  35.718  1.00  0.00     0.055 A 
ATOM     89  C   UNL A   1      46.846  29.540  34.833  1.00  0.00     0.041 A 
ATOM     90  F   UNL A   1      45.520  30.747  33.326  1.00  0.00    -0.206 F 
ATOM     91  C   UNL A   1      47.036  28.442  35.667  1.00  0.00     0.022 A 
BRANCH  88  92
ATOM     92  S   UNL A   1      46.214  26.074  36.892  1.00  0.00     0.124 S 
ATOM     93  O   UNL A   1      47.614  26.176  37.291  1.00  0.00    -0.237 OA
ATOM     94  O   UNL A   1      45.234  26.421  37.915  1.00  0.00    -0.237 OA
ATOM     95  O   UNL A   1      45.882  24.898  36.090  1.00  0.00    -0.744 OA
ENDBRANCH  88  92
ENDBRANCH  62  85
ENDBRANCH  36  37
ENDBRANCH  28  31
ENDBRANCH  26  27
ENDBRANCH  25  26
ENDBRANCH   1  25
TORSDOF 20
ENDMDL
