MODEL 1
REMARK VINA RESULT:     -12.5      0.000      0.000
REMARK SMILES CC(=O)Nc1nc(C[N@@H+]2CCO[C@@H](CC(=O)NCCCCNC(=O)c3ccc(-c4c5nc(c(-c6cc(S(=O)(=O)[O-])ccc6F)c6ccc([nH]6)c(-c6cc(S(=O)(=O)[O-])ccc6F)c6nc(c(-c7cc(S(=O)(=O)[O-])ccc7F)c7ccc4[nH]7)C=C6)C=C5)cc3)C2)cs1
REMARK SMILES IDX 19 1 18 2 17 3 15 4 16 5 14 7 13 8 9 9 10 10 88 11 11 13
REMARK SMILES IDX 12 14 8 15 7 16 5 17 6 18 90 19 89 20 4 21 1 22 2 23 3 24
REMARK SMILES IDX 20 26 21 27 22 28 23 29 24 31 25 32 26 33 87 34 27 35 86 36
REMARK SMILES IDX 28 37 29 38 30 39 80 40 31 41 85 42 79 43 81 44 32 45 84 46
REMARK SMILES IDX 78 47 77 48 33 50 65 51 45 52 64 53 46 54 49 55 63 56 82 57
REMARK SMILES IDX 47 58 48 59 62 61 83 62 50 63 34 64 35 65 43 66 36 67 42 68
REMARK SMILES IDX 44 69 41 70 37 71 38 72 39 73 40 74 66 75 67 76 75 77 68 78
REMARK SMILES IDX 74 79 76 80 73 81 69 82 70 83 71 84 72 85 51 86 52 87 60 88
REMARK SMILES IDX 53 89 59 90 61 91 58 92 54 93 55 94 56 95 57 96
REMARK H PARENT 17 6 9 12 4 25 22 30 81 49 49 60
REMARK Flexibility Score: inf
ROOT
ATOM      1  C   UNL A   1      35.536  22.000  26.327  1.00  0.00     0.023 C 
ENDROOT
BRANCH   1   2
ATOM      2  C   UNL A   1      34.395  21.259  27.033  1.00  0.00     0.116 C 
BRANCH   2   3
ATOM      3  N   UNL A   1      33.668  20.362  26.149  1.00  0.00    -0.356 N 
ATOM      4  C   UNL A   1      32.544  20.593  25.407  1.00  0.00     0.222 C 
ATOM      5  O   UNL A   1      32.099  19.685  24.703  1.00  0.00    -0.275 OA
ATOM      6  H   UNL A   1      34.041  19.455  26.074  1.00  0.00     0.163 HD
BRANCH   4   7
ATOM      7  C   UNL A   1      31.829  21.925  25.492  1.00  0.00     0.138 C 
BRANCH   7   8
ATOM      8  C   UNL A   1      32.051  22.766  24.232  1.00  0.00     0.182 C 
ATOM      9  N   UNL A   1      32.382  25.178  23.443  1.00  0.00    -0.326 N 
ATOM     10  C   UNL A   1      33.530  24.681  22.693  1.00  0.00     0.291 C 
ATOM     11  C   UNL A   1      32.031  24.276  24.540  1.00  0.00     0.295 C 
ATOM     12  H   UNL A   1      32.726  26.049  23.848  1.00  0.00     0.348 HD
ATOM     13  C   UNL A   1      33.558  23.161  22.458  1.00  0.00     0.222 C 
ATOM     14  O   UNL A   1      33.328  22.414  23.663  1.00  0.00    -0.366 OA
BRANCH   9  15
ATOM     15  C   UNL A   1      31.245  25.736  22.705  1.00  0.00     0.320 C 
BRANCH  15  16
ATOM     16  C   UNL A   1      30.926  27.157  23.069  1.00  0.00     0.108 A 
ATOM     17  C   UNL A   1      30.390  29.237  22.545  1.00  0.00     0.189 A 
ATOM     18  N   UNL A   1      30.432  28.014  22.084  1.00  0.00    -0.219 NA
ATOM     19  S   UNL A   1      30.834  29.440  24.182  1.00  0.00    -0.105 S 
ATOM     20  C   UNL A   1      31.104  27.752  24.304  1.00  0.00     0.098 A 
BRANCH  17  21
ATOM     21  N   UNL A   1      30.070  30.399  21.912  1.00  0.00    -0.302 N 
ATOM     22  C   UNL A   1      27.654  30.360  22.502  1.00  0.00     0.114 C 
ATOM     23  C   UNL A   1      28.831  30.938  21.764  1.00  0.00     0.223 C 
ATOM     24  O   UNL A   1      28.708  31.956  21.074  1.00  0.00    -0.275 OA
ATOM     25  H   UNL A   1      30.818  30.905  21.518  1.00  0.00     0.172 HD
ENDBRANCH  17  21
ENDBRANCH  15  16
ENDBRANCH   9  15
ENDBRANCH   7   8
ENDBRANCH   4   7
ENDBRANCH   2   3
ENDBRANCH   1   2
BRANCH   1  26
ATOM     26  C   UNL A   1      36.194  21.267  25.172  1.00  0.00     0.023 C 
BRANCH  26  27
ATOM     27  C   UNL A   1      37.658  21.595  24.965  1.00  0.00     0.116 C 
BRANCH  27  28
ATOM     28  N   UNL A   1      38.568  20.563  25.449  1.00  0.00    -0.352 N 
ATOM     29  C   UNL A   1      39.659  20.715  26.272  1.00  0.00     0.251 C 
ATOM     30  H   UNL A   1      38.378  19.645  25.150  1.00  0.00     0.163 HD
ATOM     31  O   UNL A   1      40.382  19.760  26.536  1.00  0.00    -0.269 OA
BRANCH  29  32
ATOM     32  C   UNL A   1      39.959  22.065  26.778  1.00  0.00     0.039 A 
ATOM     33  C   UNL A   1      41.006  22.230  27.684  1.00  0.00     0.014 A 
ATOM     34  C   UNL A   1      39.290  23.169  26.243  1.00  0.00     0.014 A 
ATOM     35  C   UNL A   1      41.444  23.518  27.990  1.00  0.00     0.010 A 
ATOM     36  C   UNL A   1      39.790  24.441  26.473  1.00  0.00     0.010 A 
ATOM     37  C   UNL A   1      40.871  24.628  27.349  1.00  0.00    -0.014 A 
BRANCH  37  38
ATOM     38  C   UNL A   1      41.361  26.006  27.587  1.00  0.00     0.031 A 
ATOM     39  C   UNL A   1      42.711  26.402  27.056  1.00  0.00     0.074 A 
ATOM     40  C   UNL A   1      40.645  26.851  28.357  1.00  0.00     0.049 A 
ATOM     41  N   UNL A   1      43.399  27.491  27.273  1.00  0.00    -0.248 NA
ATOM     42  C   UNL A   1      43.398  25.416  26.205  1.00  0.00     0.031 C 
ATOM     43  C   UNL A   1      39.347  26.551  28.968  1.00  0.00     0.029 A 
ATOM     44  N   UNL A   1      40.915  28.129  28.773  1.00  0.00    -0.354 N 
ATOM     45  C   UNL A   1      44.612  27.305  26.619  1.00  0.00     0.074 A 
ATOM     46  C   UNL A   1      44.585  25.979  26.041  1.00  0.00     0.031 C 
ATOM     47  C   UNL A   1      38.928  27.622  29.662  1.00  0.00     0.029 A 
ATOM     48  C   UNL A   1      39.943  28.667  29.587  1.00  0.00     0.049 A 
ATOM     49  H   UNL A   1      41.729  28.618  28.513  1.00  0.00     0.167 HD
ATOM     50  C   UNL A   1      45.646  28.172  26.496  1.00  0.00     0.034 A 
ATOM     51  C   UNL A   1      39.891  29.861  30.210  1.00  0.00     0.034 A 
ATOM     52  C   UNL A   1      45.629  29.508  27.033  1.00  0.00     0.049 A 
ATOM     53  C   UNL A   1      41.042  30.818  30.027  1.00  0.00     0.074 A 
ATOM     54  C   UNL A   1      46.577  30.505  26.891  1.00  0.00     0.029 A 
ATOM     55  N   UNL A   1      44.608  30.034  27.813  1.00  0.00    -0.354 N 
ATOM     56  N   UNL A   1      42.156  30.652  29.351  1.00  0.00    -0.248 NA
ATOM     57  C   UNL A   1      40.926  32.128  30.683  1.00  0.00     0.031 C 
ATOM     58  C   UNL A   1      46.153  31.617  27.628  1.00  0.00     0.029 A 
ATOM     59  C   UNL A   1      44.913  31.334  28.179  1.00  0.00     0.049 A 
ATOM     60  H   UNL A   1      43.787  29.554  28.069  1.00  0.00     0.167 HD
ATOM     61  C   UNL A   1      42.857  31.848  29.475  1.00  0.00     0.074 A 
ATOM     62  C   UNL A   1      42.033  32.730  30.274  1.00  0.00     0.031 C 
ATOM     63  C   UNL A   1      44.070  32.192  28.974  1.00  0.00     0.034 A 
BRANCH  50  64
ATOM     64  C   UNL A   1      46.876  27.693  25.769  1.00  0.00     0.023 A 
ATOM     65  C   UNL A   1      47.103  28.001  24.416  1.00  0.00     0.031 A 
ATOM     66  C   UNL A   1      47.827  26.901  26.435  1.00  0.00     0.131 A 
ATOM     67  C   UNL A   1      48.220  27.467  23.756  1.00  0.00     0.055 A 
ATOM     68  C   UNL A   1      48.975  26.434  25.792  1.00  0.00     0.041 A 
ATOM     69  F   UNL A   1      47.649  26.557  27.721  1.00  0.00    -0.206 F 
ATOM     70  C   UNL A   1      49.171  26.707  24.441  1.00  0.00     0.022 A 
BRANCH  67  71
ATOM     71  S   UNL A   1      48.355  27.690  21.962  1.00  0.00     0.124 S 
ATOM     72  O   UNL A   1      49.480  28.618  21.866  1.00  0.00    -0.237 OA
ATOM     73  O   UNL A   1      48.604  26.333  21.490  1.00  0.00    -0.237 OA
ATOM     74  O   UNL A   1      47.059  28.252  21.589  1.00  0.00    -0.744 OA
ENDBRANCH  67  71
ENDBRANCH  50  64
BRANCH  51  75
ATOM     75  C   UNL A   1      38.728  30.229  31.069  1.00  0.00     0.023 A 
ATOM     76  C   UNL A   1      37.637  30.936  30.539  1.00  0.00     0.031 A 
ATOM     77  C   UNL A   1      38.721  29.943  32.446  1.00  0.00     0.131 A 
ATOM     78  C   UNL A   1      36.616  31.390  31.389  1.00  0.00     0.055 A 
ATOM     79  C   UNL A   1      37.676  30.350  33.277  1.00  0.00     0.041 A 
ATOM     80  F   UNL A   1      39.736  29.264  33.005  1.00  0.00    -0.206 F 
ATOM     81  C   UNL A   1      36.623  31.093  32.753  1.00  0.00     0.022 A 
BRANCH  78  82
ATOM     82  S   UNL A   1      35.333  32.472  30.700  1.00  0.00     0.124 S 
ATOM     83  O   UNL A   1      36.033  33.748  30.613  1.00  0.00    -0.237 OA
ATOM     84  O   UNL A   1      35.035  31.816  29.432  1.00  0.00    -0.237 OA
ATOM     85  O   UNL A   1      34.266  32.412  31.697  1.00  0.00    -0.744 OA
ENDBRANCH  78  82
ENDBRANCH  51  75
BRANCH  63  86
ATOM     86  C   UNL A   1      44.541  33.597  29.240  1.00  0.00     0.023 A 
ATOM     87  C   UNL A   1      44.245  34.652  28.361  1.00  0.00     0.031 A 
ATOM     88  C   UNL A   1      45.306  33.879  30.386  1.00  0.00     0.131 A 
ATOM     89  C   UNL A   1      44.758  35.933  28.613  1.00  0.00     0.055 A 
ATOM     90  C   UNL A   1      45.767  35.166  30.661  1.00  0.00     0.041 A 
ATOM     91  F   UNL A   1      45.615  32.904  31.256  1.00  0.00    -0.206 F 
ATOM     92  C   UNL A   1      45.503  36.199  29.765  1.00  0.00     0.022 A 
BRANCH  89  93
ATOM     93  S   UNL A   1      44.507  37.228  27.372  1.00  0.00     0.124 S 
ATOM     94  O   UNL A   1      44.407  38.427  28.198  1.00  0.00    -0.237 OA
ATOM     95  O   UNL A   1      45.711  37.116  26.554  1.00  0.00    -0.237 OA
ATOM     96  O   UNL A   1      43.267  36.830  26.706  1.00  0.00    -0.744 OA
ENDBRANCH  89  93
ENDBRANCH  63  86
ENDBRANCH  37  38
ENDBRANCH  29  32
ENDBRANCH  27  28
ENDBRANCH  26  27
ENDBRANCH   1  26
TORSDOF 18
ENDMDL
MODEL 2
REMARK VINA RESULT:     -12.1      5.077     10.451
REMARK SMILES CC(=O)Nc1nc(C[N@@H+]2CCO[C@@H](CC(=O)NCCCCNC(=O)c3ccc(-c4c5nc(c(-c6cc(S(=O)(=O)[O-])ccc6F)c6ccc([nH]6)c(-c6cc(S(=O)(=O)[O-])ccc6F)c6nc(c(-c7cc(S(=O)(=O)[O-])ccc7F)c7ccc4[nH]7)C=C6)C=C5)cc3)C2)cs1
REMARK SMILES IDX 19 1 18 2 17 3 15 4 16 5 14 7 13 8 9 9 10 10 88 11 11 13
REMARK SMILES IDX 12 14 8 15 7 16 5 17 6 18 90 19 89 20 4 21 1 22 2 23 3 24
REMARK SMILES IDX 20 26 21 27 22 28 23 29 24 31 25 32 26 33 87 34 27 35 86 36
REMARK SMILES IDX 28 37 29 38 30 39 80 40 31 41 85 42 79 43 81 44 32 45 84 46
REMARK SMILES IDX 78 47 77 48 33 50 65 51 45 52 64 53 46 54 49 55 63 56 82 57
REMARK SMILES IDX 47 58 48 59 62 61 83 62 50 63 34 64 35 65 43 66 36 67 42 68
REMARK SMILES IDX 44 69 41 70 37 71 38 72 39 73 40 74 66 75 67 76 75 77 68 78
REMARK SMILES IDX 74 79 76 80 73 81 69 82 70 83 71 84 72 85 51 86 52 87 60 88
REMARK SMILES IDX 53 89 59 90 61 91 58 92 54 93 55 94 56 95 57 96
REMARK H PARENT 17 6 9 12 4 25 22 30 81 49 49 60
REMARK Flexibility Score: inf
ROOT
ATOM      1  C   UNL A   1      33.065  29.158  24.550  1.00  0.00     0.023 C 
ENDROOT
BRANCH   1   2
ATOM      2  C   UNL A   1      32.145  28.384  23.600  1.00  0.00     0.116 C 
BRANCH   2   3
ATOM      3  N   UNL A   1      32.874  27.642  22.584  1.00  0.00    -0.356 N 
ATOM      4  C   UNL A   1      32.744  26.338  22.196  1.00  0.00     0.222 C 
ATOM      5  O   UNL A   1      33.461  25.913  21.289  1.00  0.00    -0.275 OA
ATOM      6  H   UNL A   1      33.562  28.156  22.104  1.00  0.00     0.163 HD
BRANCH   4   7
ATOM      7  C   UNL A   1      31.771  25.419  22.906  1.00  0.00     0.138 C 
BRANCH   7   8
ATOM      8  C   UNL A   1      32.481  24.524  23.924  1.00  0.00     0.182 C 
ATOM      9  N   UNL A   1      33.504  22.194  24.203  1.00  0.00    -0.326 N 
ATOM     10  C   UNL A   1      34.675  22.872  24.752  1.00  0.00     0.291 C 
ATOM     11  C   UNL A   1      32.703  23.100  23.380  1.00  0.00     0.295 C 
ATOM     12  H   UNL A   1      33.910  21.487  23.591  1.00  0.00     0.348 HD
ATOM     13  C   UNL A   1      34.439  24.316  25.226  1.00  0.00     0.222 C 
ATOM     14  O   UNL A   1      33.756  25.113  24.246  1.00  0.00    -0.366 OA
BRANCH   9  15
ATOM     15  C   UNL A   1      32.739  21.295  25.071  1.00  0.00     0.320 C 
BRANCH  15  16
ATOM     16  C   UNL A   1      32.513  19.934  24.482  1.00  0.00     0.108 A 
ATOM     17  C   UNL A   1      32.388  17.732  24.636  1.00  0.00     0.189 A 
ATOM     18  N   UNL A   1      32.397  18.836  25.336  1.00  0.00    -0.219 NA
ATOM     19  S   UNL A   1      32.415  17.916  22.938  1.00  0.00    -0.105 S 
ATOM     20  C   UNL A   1      32.436  19.619  23.138  1.00  0.00     0.098 A 
BRANCH  17  21
ATOM     21  N   UNL A   1      32.387  16.434  25.050  1.00  0.00    -0.302 N 
ATOM     22  C   UNL A   1      34.860  16.163  25.062  1.00  0.00     0.114 C 
ATOM     23  C   UNL A   1      33.463  15.615  25.182  1.00  0.00     0.223 C 
ATOM     24  O   UNL A   1      33.271  14.431  25.478  1.00  0.00    -0.275 OA
ATOM     25  H   UNL A   1      31.510  16.047  25.278  1.00  0.00     0.172 HD
ENDBRANCH  17  21
ENDBRANCH  15  16
ENDBRANCH   9  15
ENDBRANCH   7   8
ENDBRANCH   4   7
ENDBRANCH   2   3
ENDBRANCH   1   2
BRANCH   1  26
ATOM     26  C   UNL A   1      33.978  28.320  25.426  1.00  0.00     0.023 C 
BRANCH  26  27
ATOM     27  C   UNL A   1      34.226  28.889  26.808  1.00  0.00     0.116 C 
BRANCH  27  28
ATOM     28  N   UNL A   1      33.904  30.306  26.929  1.00  0.00    -0.352 N 
ATOM     29  C   UNL A   1      34.566  31.265  27.659  1.00  0.00     0.251 C 
ATOM     30  H   UNL A   1      33.116  30.615  26.426  1.00  0.00     0.163 HD
ATOM     31  O   UNL A   1      34.133  32.410  27.727  1.00  0.00    -0.269 OA
BRANCH  29  32
ATOM     32  C   UNL A   1      35.775  30.859  28.395  1.00  0.00     0.039 A 
ATOM     33  C   UNL A   1      35.661  29.911  29.413  1.00  0.00     0.014 A 
ATOM     34  C   UNL A   1      37.027  31.317  27.977  1.00  0.00     0.014 A 
ATOM     35  C   UNL A   1      36.817  29.354  29.956  1.00  0.00     0.010 A 
ATOM     36  C   UNL A   1      38.170  30.691  28.449  1.00  0.00     0.010 A 
ATOM     37  C   UNL A   1      38.076  29.705  29.443  1.00  0.00    -0.014 A 
BRANCH  37  38
ATOM     38  C   UNL A   1      39.324  29.077  29.940  1.00  0.00     0.031 A 
ATOM     39  C   UNL A   1      40.033  29.693  31.113  1.00  0.00     0.074 A 
ATOM     40  C   UNL A   1      39.860  28.031  29.278  1.00  0.00     0.049 A 
ATOM     41  N   UNL A   1      41.205  29.408  31.616  1.00  0.00    -0.248 NA
ATOM     42  C   UNL A   1      39.349  30.812  31.782  1.00  0.00     0.031 C 
ATOM     43  C   UNL A   1      39.284  27.389  28.093  1.00  0.00     0.029 A 
ATOM     44  N   UNL A   1      41.022  27.335  29.495  1.00  0.00    -0.354 N 
ATOM     45  C   UNL A   1      41.414  30.336  32.630  1.00  0.00     0.074 A 
ATOM     46  C   UNL A   1      40.271  31.222  32.637  1.00  0.00     0.031 C 
ATOM     47  C   UNL A   1      40.084  26.383  27.703  1.00  0.00     0.029 A 
ATOM     48  C   UNL A   1      41.252  26.335  28.577  1.00  0.00     0.049 A 
ATOM     49  H   UNL A   1      41.635  27.532  30.239  1.00  0.00     0.167 HD
ATOM     50  C   UNL A   1      42.458  30.425  33.490  1.00  0.00     0.034 A 
ATOM     51  C   UNL A   1      42.294  25.491  28.451  1.00  0.00     0.034 A 
ATOM     52  C   UNL A   1      43.559  29.498  33.499  1.00  0.00     0.049 A 
ATOM     53  C   UNL A   1      43.426  25.592  29.443  1.00  0.00     0.074 A 
ATOM     54  C   UNL A   1      44.622  29.433  34.381  1.00  0.00     0.029 A 
ATOM     55  N   UNL A   1      43.735  28.469  32.584  1.00  0.00    -0.354 N 
ATOM     56  N   UNL A   1      43.579  26.436  30.438  1.00  0.00    -0.248 NA
ATOM     57  C   UNL A   1      44.521  24.624  29.301  1.00  0.00     0.031 C 
ATOM     58  C   UNL A   1      45.468  28.397  33.968  1.00  0.00     0.029 A 
ATOM     59  C   UNL A   1      44.901  27.778  32.866  1.00  0.00     0.049 A 
ATOM     60  H   UNL A   1      43.121  28.261  31.842  1.00  0.00     0.167 HD
ATOM     61  C   UNL A   1      44.771  26.077  31.060  1.00  0.00     0.074 A 
ATOM     62  C   UNL A   1      45.286  24.931  30.338  1.00  0.00     0.031 C 
ATOM     63  C   UNL A   1      45.388  26.637  32.131  1.00  0.00     0.034 A 
BRANCH  50  64
ATOM     64  C   UNL A   1      42.458  31.569  34.470  1.00  0.00     0.023 A 
ATOM     65  C   UNL A   1      41.637  31.566  35.612  1.00  0.00     0.031 A 
ATOM     66  C   UNL A   1      43.281  32.688  34.251  1.00  0.00     0.131 A 
ATOM     67  C   UNL A   1      41.608  32.687  36.455  1.00  0.00     0.055 A 
ATOM     68  C   UNL A   1      43.302  33.768  35.135  1.00  0.00     0.041 A 
ATOM     69  F   UNL A   1      44.068  32.754  33.166  1.00  0.00    -0.206 F 
ATOM     70  C   UNL A   1      42.454  33.777  36.238  1.00  0.00     0.022 A 
BRANCH  67  71
ATOM     71  S   UNL A   1      40.370  32.745  37.778  1.00  0.00     0.124 S 
ATOM     72  O   UNL A   1      39.385  31.777  37.300  1.00  0.00    -0.237 OA
ATOM     73  O   UNL A   1      41.139  32.348  38.951  1.00  0.00    -0.237 OA
ATOM     74  O   UNL A   1      39.923  34.137  37.767  1.00  0.00    -0.744 OA
ENDBRANCH  67  71
ENDBRANCH  50  64
BRANCH  51  75
ATOM     75  C   UNL A   1      42.339  24.483  27.352  1.00  0.00     0.023 A 
ATOM     76  C   UNL A   1      41.567  23.312  27.418  1.00  0.00     0.031 A 
ATOM     77  C   UNL A   1      43.204  24.639  26.254  1.00  0.00     0.131 A 
ATOM     78  C   UNL A   1      41.721  22.314  26.443  1.00  0.00     0.055 A 
ATOM     79  C   UNL A   1      43.313  23.668  25.257  1.00  0.00     0.041 A 
ATOM     80  F   UNL A   1      43.960  25.743  26.137  1.00  0.00    -0.206 F 
ATOM     81  C   UNL A   1      42.581  22.488  25.358  1.00  0.00     0.022 A 
BRANCH  78  82
ATOM     82  S   UNL A   1      40.860  20.734  26.675  1.00  0.00     0.124 S 
ATOM     83  O   UNL A   1      39.552  21.019  26.096  1.00  0.00    -0.237 OA
ATOM     84  O   UNL A   1      41.708  19.815  25.924  1.00  0.00    -0.237 OA
ATOM     85  O   UNL A   1      40.874  20.549  28.124  1.00  0.00    -0.744 OA
ENDBRANCH  78  82
ENDBRANCH  51  75
BRANCH  63  86
ATOM     86  C   UNL A   1      46.657  25.979  32.604  1.00  0.00     0.023 A 
ATOM     87  C   UNL A   1      46.639  24.942  33.552  1.00  0.00     0.031 A 
ATOM     88  C   UNL A   1      47.900  26.405  32.106  1.00  0.00     0.131 A 
ATOM     89  C   UNL A   1      47.847  24.401  34.015  1.00  0.00     0.055 A 
ATOM     90  C   UNL A   1      49.097  25.825  32.528  1.00  0.00     0.041 A 
ATOM     91  F   UNL A   1      47.970  27.393  31.199  1.00  0.00    -0.206 F 
ATOM     92  C   UNL A   1      49.074  24.825  33.497  1.00  0.00     0.022 A 
BRANCH  89  93
ATOM     93  S   UNL A   1      47.797  23.192  35.363  1.00  0.00     0.124 S 
ATOM     94  O   UNL A   1      46.622  23.621  36.114  1.00  0.00    -0.237 OA
ATOM     95  O   UNL A   1      47.667  21.927  34.645  1.00  0.00    -0.237 OA
ATOM     96  O   UNL A   1      49.075  23.386  36.046  1.00  0.00    -0.744 OA
ENDBRANCH  89  93
ENDBRANCH  63  86
ENDBRANCH  37  38
ENDBRANCH  29  32
ENDBRANCH  27  28
ENDBRANCH  26  27
ENDBRANCH   1  26
TORSDOF 18
ENDMDL
MODEL 3
REMARK VINA RESULT:     -12.0      5.454      9.108
REMARK SMILES CC(=O)Nc1nc(C[N@@H+]2CCO[C@@H](CC(=O)NCCCCNC(=O)c3ccc(-c4c5nc(c(-c6cc(S(=O)(=O)[O-])ccc6F)c6ccc([nH]6)c(-c6cc(S(=O)(=O)[O-])ccc6F)c6nc(c(-c7cc(S(=O)(=O)[O-])ccc7F)c7ccc4[nH]7)C=C6)C=C5)cc3)C2)cs1
REMARK SMILES IDX 19 1 18 2 17 3 15 4 16 5 14 7 13 8 9 9 10 10 88 11 11 13
REMARK SMILES IDX 12 14 8 15 7 16 5 17 6 18 90 19 89 20 4 21 1 22 2 23 3 24
REMARK SMILES IDX 20 26 21 27 22 28 23 29 24 31 25 32 26 33 87 34 27 35 86 36
REMARK SMILES IDX 28 37 29 38 30 39 80 40 31 41 85 42 79 43 81 44 32 45 84 46
REMARK SMILES IDX 78 47 77 48 33 50 65 51 45 52 64 53 46 54 49 55 63 56 82 57
REMARK SMILES IDX 47 58 48 59 62 61 83 62 50 63 34 64 35 65 43 66 36 67 42 68
REMARK SMILES IDX 44 69 41 70 37 71 38 72 39 73 40 74 66 75 67 76 75 77 68 78
REMARK SMILES IDX 74 79 76 80 73 81 69 82 70 83 71 84 72 85 51 86 52 87 60 88
REMARK SMILES IDX 53 89 59 90 61 91 58 92 54 93 55 94 56 95 57 96
REMARK H PARENT 17 6 9 12 4 25 22 30 81 49 49 60
REMARK Flexibility Score: inf
ROOT
ATOM      1  C   UNL A   1      32.615  29.981  25.701  1.00  0.00     0.023 C 
ENDROOT
BRANCH   1   2
ATOM      2  C   UNL A   1      31.437  29.192  25.119  1.00  0.00     0.116 C 
BRANCH   2   3
ATOM      3  N   UNL A   1      31.026  29.672  23.809  1.00  0.00    -0.356 N 
ATOM      4  C   UNL A   1      30.420  28.999  22.786  1.00  0.00     0.222 C 
ATOM      5  O   UNL A   1      30.138  29.612  21.755  1.00  0.00    -0.275 OA
ATOM      6  H   UNL A   1      31.211  30.623  23.635  1.00  0.00     0.163 HD
BRANCH   4   7
ATOM      7  C   UNL A   1      30.147  27.513  22.899  1.00  0.00     0.138 C 
BRANCH   7   8
ATOM      8  C   UNL A   1      31.431  26.692  22.755  1.00  0.00     0.182 C 
ATOM      9  N   UNL A   1      32.534  24.512  23.519  1.00  0.00    -0.326 N 
ATOM     10  C   UNL A   1      32.833  24.274  22.111  1.00  0.00     0.291 C 
ATOM     11  C   UNL A   1      31.428  25.457  23.676  1.00  0.00     0.295 C 
ATOM     12  H   UNL A   1      32.219  23.600  23.849  1.00  0.00     0.348 HD
ATOM     13  C   UNL A   1      32.763  25.514  21.202  1.00  0.00     0.222 C 
ATOM     14  O   UNL A   1      31.551  26.262  21.385  1.00  0.00    -0.366 OA
BRANCH   9  15
ATOM     15  C   UNL A   1      33.647  24.692  24.456  1.00  0.00     0.320 C 
BRANCH  15  16
ATOM     16  C   UNL A   1      34.008  23.447  25.211  1.00  0.00     0.108 A 
ATOM     17  C   UNL A   1      34.575  21.312  25.306  1.00  0.00     0.189 A 
ATOM     18  N   UNL A   1      34.492  22.343  24.507  1.00  0.00    -0.219 NA
ATOM     19  S   UNL A   1      34.184  21.595  26.945  1.00  0.00    -0.105 S 
ATOM     20  C   UNL A   1      33.880  23.241  26.572  1.00  0.00     0.098 A 
BRANCH  17  21
ATOM     21  N   UNL A   1      34.902  20.018  25.034  1.00  0.00    -0.302 N 
ATOM     22  C   UNL A   1      32.630  19.326  24.293  1.00  0.00     0.114 C 
ATOM     23  C   UNL A   1      34.058  19.021  24.656  1.00  0.00     0.223 C 
ATOM     24  O   UNL A   1      34.510  17.877  24.542  1.00  0.00    -0.275 OA
ATOM     25  H   UNL A   1      35.853  19.778  25.120  1.00  0.00     0.172 HD
ENDBRANCH  17  21
ENDBRANCH  15  16
ENDBRANCH   9  15
ENDBRANCH   7   8
ENDBRANCH   4   7
ENDBRANCH   2   3
ENDBRANCH   1   2
BRANCH   1  26
ATOM     26  C   UNL A   1      32.340  30.740  26.987  1.00  0.00     0.023 C 
BRANCH  26  27
ATOM     27  C   UNL A   1      33.391  31.766  27.354  1.00  0.00     0.116 C 
BRANCH  27  28
ATOM     28  N   UNL A   1      32.864  33.116  27.519  1.00  0.00    -0.352 N 
ATOM     29  C   UNL A   1      33.270  34.079  28.413  1.00  0.00     0.251 C 
ATOM     30  H   UNL A   1      32.129  33.369  26.917  1.00  0.00     0.163 HD
ATOM     31  O   UNL A   1      32.680  35.152  28.488  1.00  0.00    -0.269 OA
BRANCH  29  32
ATOM     32  C   UNL A   1      34.396  33.760  29.307  1.00  0.00     0.039 A 
ATOM     33  C   UNL A   1      34.186  32.880  30.370  1.00  0.00     0.014 A 
ATOM     34  C   UNL A   1      35.676  34.227  29.002  1.00  0.00     0.014 A 
ATOM     35  C   UNL A   1      35.285  32.396  31.078  1.00  0.00     0.010 A 
ATOM     36  C   UNL A   1      36.771  33.670  29.643  1.00  0.00     0.010 A 
ATOM     37  C   UNL A   1      36.587  32.750  30.686  1.00  0.00    -0.014 A 
BRANCH  37  38
ATOM     38  C   UNL A   1      37.783  32.195  31.363  1.00  0.00     0.031 A 
ATOM     39  C   UNL A   1      38.554  31.092  30.692  1.00  0.00     0.074 A 
ATOM     40  C   UNL A   1      38.106  32.608  32.605  1.00  0.00     0.049 A 
ATOM     41  N   UNL A   1      39.529  30.360  31.160  1.00  0.00    -0.248 NA
ATOM     42  C   UNL A   1      38.137  30.735  29.326  1.00  0.00     0.031 C 
ATOM     43  C   UNL A   1      37.394  33.635  33.372  1.00  0.00     0.029 A 
ATOM     44  N   UNL A   1      39.106  32.203  33.452  1.00  0.00    -0.354 N 
ATOM     45  C   UNL A   1      39.815  29.433  30.164  1.00  0.00     0.074 A 
ATOM     46  C   UNL A   1      38.876  29.663  29.088  1.00  0.00     0.031 C 
ATOM     47  C   UNL A   1      37.992  33.790  34.564  1.00  0.00     0.029 A 
ATOM     48  C   UNL A   1      39.100  32.847  34.670  1.00  0.00     0.049 A 
ATOM     49  H   UNL A   1      39.768  31.516  33.211  1.00  0.00     0.167 HD
ATOM     50  C   UNL A   1      40.787  28.489  30.143  1.00  0.00     0.034 A 
ATOM     51  C   UNL A   1      39.890  32.679  35.748  1.00  0.00     0.034 A 
ATOM     52  C   UNL A   1      41.746  28.314  31.203  1.00  0.00     0.049 A 
ATOM     53  C   UNL A   1      40.984  31.643  35.683  1.00  0.00     0.074 A 
ATOM     54  C   UNL A   1      42.829  27.456  31.251  1.00  0.00     0.029 A 
ATOM     55  N   UNL A   1      41.737  29.015  32.401  1.00  0.00    -0.354 N 
ATOM     56  N   UNL A   1      41.283  30.817  34.706  1.00  0.00    -0.248 NA
ATOM     57  C   UNL A   1      41.855  31.523  36.860  1.00  0.00     0.031 C 
ATOM     58  C   UNL A   1      43.446  27.602  32.499  1.00  0.00     0.029 A 
ATOM     59  C   UNL A   1      42.783  28.594  33.205  1.00  0.00     0.049 A 
ATOM     60  H   UNL A   1      41.083  29.711  32.645  1.00  0.00     0.167 HD
ATOM     61  C   UNL A   1      42.395  30.102  35.141  1.00  0.00     0.074 A 
ATOM     62  C   UNL A   1      42.724  30.607  36.458  1.00  0.00     0.031 C 
ATOM     63  C   UNL A   1      43.088  29.118  34.513  1.00  0.00     0.034 A 
BRANCH  50  64
ATOM     64  C   UNL A   1      40.845  27.573  28.949  1.00  0.00     0.023 A 
ATOM     65  C   UNL A   1      41.805  27.738  27.935  1.00  0.00     0.031 A 
ATOM     66  C   UNL A   1      39.913  26.529  28.813  1.00  0.00     0.131 A 
ATOM     67  C   UNL A   1      41.772  26.913  26.800  1.00  0.00     0.055 A 
ATOM     68  C   UNL A   1      39.932  25.665  27.717  1.00  0.00     0.041 A 
ATOM     69  F   UNL A   1      38.960  26.340  29.739  1.00  0.00    -0.206 F 
ATOM     70  C   UNL A   1      40.858  25.862  26.696  1.00  0.00     0.022 A 
BRANCH  67  71
ATOM     71  S   UNL A   1      42.870  27.304  25.413  1.00  0.00     0.124 S 
ATOM     72  O   UNL A   1      44.090  27.709  26.109  1.00  0.00    -0.237 OA
ATOM     73  O   UNL A   1      42.936  26.039  24.692  1.00  0.00    -0.237 OA
ATOM     74  O   UNL A   1      42.171  28.383  24.716  1.00  0.00    -0.744 OA
ENDBRANCH  67  71
ENDBRANCH  50  64
BRANCH  51  75
ATOM     75  C   UNL A   1      39.686  33.489  36.984  1.00  0.00     0.023 A 
ATOM     76  C   UNL A   1      39.005  32.955  38.089  1.00  0.00     0.031 A 
ATOM     77  C   UNL A   1      40.106  34.829  37.054  1.00  0.00     0.131 A 
ATOM     78  C   UNL A   1      38.705  33.773  39.191  1.00  0.00     0.055 A 
ATOM     79  C   UNL A   1      39.854  35.622  38.176  1.00  0.00     0.041 A 
ATOM     80  F   UNL A   1      40.769  35.388  36.029  1.00  0.00    -0.206 F 
ATOM     81  C   UNL A   1      39.134  35.099  39.245  1.00  0.00     0.022 A 
BRANCH  78  82
ATOM     82  S   UNL A   1      37.648  33.104  40.505  1.00  0.00     0.124 S 
ATOM     83  O   UNL A   1      36.425  32.792  39.774  1.00  0.00    -0.237 OA
ATOM     84  O   UNL A   1      38.429  31.960  40.966  1.00  0.00    -0.237 OA
ATOM     85  O   UNL A   1      37.545  34.209  41.454  1.00  0.00    -0.744 OA
ENDBRANCH  78  82
ENDBRANCH  51  75
BRANCH  63  86
ATOM     86  C   UNL A   1      44.294  28.572  35.231  1.00  0.00     0.023 A 
ATOM     87  C   UNL A   1      44.183  27.536  36.172  1.00  0.00     0.031 A 
ATOM     88  C   UNL A   1      45.568  29.107  34.974  1.00  0.00     0.131 A 
ATOM     89  C   UNL A   1      45.322  27.101  36.866  1.00  0.00     0.055 A 
ATOM     90  C   UNL A   1      46.707  28.633  35.627  1.00  0.00     0.041 A 
ATOM     91  F   UNL A   1      45.726  30.099  34.083  1.00  0.00    -0.206 F 
ATOM     92  C   UNL A   1      46.584  27.632  36.587  1.00  0.00     0.022 A 
BRANCH  89  93
ATOM     93  S   UNL A   1      45.118  25.889  38.197  1.00  0.00     0.124 S 
ATOM     94  O   UNL A   1      44.660  24.710  37.469  1.00  0.00    -0.237 OA
ATOM     95  O   UNL A   1      46.463  25.810  38.757  1.00  0.00    -0.237 OA
ATOM     96  O   UNL A   1      44.119  26.504  39.071  1.00  0.00    -0.744 OA
ENDBRANCH  89  93
ENDBRANCH  63  86
ENDBRANCH  37  38
ENDBRANCH  29  32
ENDBRANCH  27  28
ENDBRANCH  26  27
ENDBRANCH   1  26
TORSDOF 18
ENDMDL
