MODEL 1
REMARK VINA RESULT:     -15.1      0.000      0.000
REMARK SMILES Cc1ccc(C2=NN(C(=O)CCC(=O)NCCCCNC(=O)c3ccc(-c4c5nc(c(-c6cc(S(=O)(=O)[O-])ccc6F)c6ccc([nH]6)c(-c6cc(S(=O)(=O)[O-])ccc6F)c6nc(c(-c7cc(S(=O)(=O)[O-])ccc7F)c7ccc4[nH]7)C=C6)C=C5)cc3)[C@H](C[C@@H]3C=c4cccc(C)c4=NC3=O)C2)cc1
REMARK SMILES IDX 16 1 15 2 13 3 14 4 12 6 11 7 9 8 10 9 8 10 6 11 7 12 100 13
REMARK SMILES IDX 86 14 5 15 1 16 2 17 3 18 102 19 4 20 101 21 87 22 88 23
REMARK SMILES IDX 89 24 98 25 90 26 97 27 99 28 91 29 96 30 92 31 94 32 93 33
REMARK SMILES IDX 95 34 17 35 18 36 19 37 20 38 21 39 22 41 23 42 24 43 85 44
REMARK SMILES IDX 25 45 84 46 26 47 27 48 28 49 78 50 29 51 83 52 77 53 79 54
REMARK SMILES IDX 30 55 82 56 76 57 75 58 31 60 63 61 43 62 62 63 44 64 47 65
REMARK SMILES IDX 61 66 80 67 45 68 46 69 60 71 81 72 48 73 32 74 33 75 41 76
REMARK SMILES IDX 34 77 40 78 42 79 39 80 35 81 36 82 37 83 38 84 64 85 65 86
REMARK SMILES IDX 73 87 66 88 72 89 74 90 71 91 67 92 68 93 69 94 70 95 49 96
REMARK SMILES IDX 50 97 58 98 51 99 57 100 59 101 56 102 52 103 53 104 54 105
REMARK SMILES IDX 55 106
REMARK H PARENT 15 5 20 40 79 59 47 70
REMARK Flexibility Score: inf
ROOT
ATOM      1  C   UNL A   1      31.574  27.010  25.875  1.00  0.00     0.116 C 
ENDROOT
BRANCH   1   2
ATOM      2  N   UNL A   1      31.114  27.157  24.329  1.00  0.00    -0.356 N 
ATOM      3  C   UNL A   1      31.741  27.153  23.125  1.00  0.00     0.220 C 
ATOM      4  O   UNL A   1      31.067  27.491  22.145  1.00  0.00    -0.275 OA
ATOM      5  H   UNL A   1      30.141  27.280  24.241  1.00  0.00     0.163 HD
BRANCH   3   6
ATOM      6  C   UNL A   1      33.199  26.808  22.966  1.00  0.00     0.110 C 
BRANCH   6   7
ATOM      7  C   UNL A   1      33.545  25.395  22.537  1.00  0.00     0.112 C 
BRANCH   7   8
ATOM      8  C   UNL A   1      32.745  24.324  23.259  1.00  0.00     0.243 C 
ATOM      9  O   UNL A   1      31.520  24.305  23.189  1.00  0.00    -0.273 OA
BRANCH   8  10
ATOM     10  N   UNL A   1      33.535  23.426  24.028  1.00  0.00    -0.230 N 
ATOM     11  C   UNL A   1      33.085  20.866  25.165  1.00  0.00     0.070 C 
ATOM     12  N   UNL A   1      33.075  21.670  23.843  1.00  0.00    -0.174 NA
ATOM     13  C   UNL A   1      33.580  22.168  26.787  1.00  0.00     0.086 C 
ATOM     14  C   UNL A   1      34.151  23.850  25.731  1.00  0.00     0.118 C 
BRANCH  11  15
ATOM     15  C   UNL A   1      33.325  19.177  24.788  1.00  0.00    -0.002 A 
ATOM     16  C   UNL A   1      33.880  14.866  25.298  1.00  0.00     0.044 C 
ATOM     17  C   UNL A   1      33.606  16.283  24.895  1.00  0.00    -0.051 A 
ATOM     18  C   UNL A   1      32.357  16.914  24.955  1.00  0.00     0.004 A 
ATOM     19  C   UNL A   1      34.683  17.064  24.563  1.00  0.00     0.004 A 
ATOM     20  C   UNL A   1      32.217  18.336  24.880  1.00  0.00     0.010 A 
ATOM     21  C   UNL A   1      34.520  18.450  24.477  1.00  0.00     0.010 A 
ENDBRANCH  11  15
BRANCH  14  22
ATOM     22  C   UNL A   1      35.772  24.420  25.396  1.00  0.00     0.045 C 
BRANCH  22  23
ATOM     23  C   UNL A   1      36.985  23.530  25.899  1.00  0.00     0.106 C 
ATOM     24  C   UNL A   1      38.339  24.185  26.075  1.00  0.00    -0.003 C 
ATOM     25  C   UNL A   1      37.331  22.235  25.137  1.00  0.00     0.253 C 
ATOM     26  C   UNL A   1      39.278  23.497  26.727  1.00  0.00    -0.003 A 
ATOM     27  N   UNL A   1      38.385  21.463  25.645  1.00  0.00    -0.212 NA
ATOM     28  O   UNL A   1      36.670  21.872  24.167  1.00  0.00    -0.272 OA
ATOM     29  C   UNL A   1      40.206  24.055  27.678  1.00  0.00     0.010 A 
ATOM     30  C   UNL A   1      39.280  22.045  26.393  1.00  0.00     0.077 A 
ATOM     31  C   UNL A   1      41.063  23.258  28.325  1.00  0.00     0.001 A 
ATOM     32  C   UNL A   1      40.514  21.337  26.909  1.00  0.00    -0.025 A 
ATOM     33  C   UNL A   1      41.280  21.912  27.858  1.00  0.00     0.005 A 
ATOM     34  C   UNL A   1      40.962  20.117  26.178  1.00  0.00     0.047 C 
ENDBRANCH  22  23
ENDBRANCH  14  22
ENDBRANCH   8  10
ENDBRANCH   7   8
ENDBRANCH   6   7
ENDBRANCH   3   6
ENDBRANCH   1   2
BRANCH   1  35
ATOM     35  C   UNL A   1      32.665  28.493  27.117  1.00  0.00     0.023 C 
BRANCH  35  36
ATOM     36  C   UNL A   1      34.468  28.886  26.575  1.00  0.00     0.023 C 
BRANCH  36  37
ATOM     37  C   UNL A   1      35.627  29.767  27.636  1.00  0.00     0.116 C 
BRANCH  37  38
ATOM     38  N   UNL A   1      35.547  29.624  29.142  1.00  0.00    -0.352 N 
ATOM     39  C   UNL A   1      36.041  30.284  30.270  1.00  0.00     0.251 C 
ATOM     40  H   UNL A   1      34.991  28.852  29.396  1.00  0.00     0.163 HD
ATOM     41  O   UNL A   1      36.293  29.598  31.264  1.00  0.00    -0.269 OA
BRANCH  39  42
ATOM     42  C   UNL A   1      35.958  31.802  30.428  1.00  0.00     0.039 A 
ATOM     43  C   UNL A   1      36.537  32.385  29.275  1.00  0.00     0.014 A 
ATOM     44  C   UNL A   1      36.596  32.088  31.614  1.00  0.00     0.014 A 
ATOM     45  C   UNL A   1      37.923  32.329  29.171  1.00  0.00     0.010 A 
ATOM     46  C   UNL A   1      37.939  31.820  31.550  1.00  0.00     0.010 A 
ATOM     47  C   UNL A   1      38.588  31.869  30.298  1.00  0.00    -0.014 A 
BRANCH  47  48
ATOM     48  C   UNL A   1      39.976  31.486  30.345  1.00  0.00     0.031 A 
ATOM     49  C   UNL A   1      40.227  30.095  29.937  1.00  0.00     0.074 A 
ATOM     50  C   UNL A   1      40.948  32.392  30.590  1.00  0.00     0.049 A 
ATOM     51  N   UNL A   1      41.243  29.398  30.288  1.00  0.00    -0.248 NA
ATOM     52  C   UNL A   1      39.233  29.312  29.189  1.00  0.00     0.031 C 
ATOM     53  C   UNL A   1      42.373  32.241  30.304  1.00  0.00     0.029 A 
ATOM     54  N   UNL A   1      40.881  33.589  31.306  1.00  0.00    -0.354 N 
ATOM     55  C   UNL A   1      41.226  28.283  29.481  1.00  0.00     0.074 A 
ATOM     56  C   UNL A   1      39.874  28.159  29.034  1.00  0.00     0.031 C 
ATOM     57  C   UNL A   1      43.060  33.108  31.067  1.00  0.00     0.029 A 
ATOM     58  C   UNL A   1      42.109  33.713  31.984  1.00  0.00     0.049 A 
ATOM     59  H   UNL A   1      40.127  34.220  31.332  1.00  0.00     0.167 HD
ATOM     60  C   UNL A   1      42.414  27.757  29.084  1.00  0.00     0.034 A 
ATOM     61  C   UNL A   1      42.222  33.676  33.345  1.00  0.00     0.034 A 
ATOM     62  C   UNL A   1      43.503  28.353  29.871  1.00  0.00     0.049 A 
ATOM     63  C   UNL A   1      42.998  32.470  33.846  1.00  0.00     0.074 A 
ATOM     64  C   UNL A   1      44.490  29.280  29.587  1.00  0.00     0.029 A 
ATOM     65  N   UNL A   1      43.439  28.271  31.259  1.00  0.00    -0.354 N 
ATOM     66  N   UNL A   1      43.377  31.475  33.090  1.00  0.00    -0.248 NA
ATOM     67  C   UNL A   1      43.373  32.272  35.242  1.00  0.00     0.031 C 
ATOM     68  C   UNL A   1      44.947  29.822  30.827  1.00  0.00     0.029 A 
ATOM     69  C   UNL A   1      44.275  29.191  31.861  1.00  0.00     0.049 A 
ATOM     70  H   UNL A   1      42.867  27.638  31.751  1.00  0.00     0.167 HD
ATOM     71  C   UNL A   1      43.955  30.493  33.854  1.00  0.00     0.074 A 
ATOM     72  C   UNL A   1      43.979  31.072  35.188  1.00  0.00     0.031 C 
ATOM     73  C   UNL A   1      44.310  29.280  33.321  1.00  0.00     0.034 A 
BRANCH  60  74
ATOM     74  C   UNL A   1      42.616  26.948  27.815  1.00  0.00     0.023 A 
ATOM     75  C   UNL A   1      43.426  25.799  27.898  1.00  0.00     0.031 A 
ATOM     76  C   UNL A   1      42.162  27.251  26.507  1.00  0.00     0.131 A 
ATOM     77  C   UNL A   1      43.772  25.052  26.755  1.00  0.00     0.055 A 
ATOM     78  C   UNL A   1      42.494  26.501  25.373  1.00  0.00     0.041 A 
ATOM     79  F   UNL A   1      41.384  28.294  26.218  1.00  0.00    -0.206 F 
ATOM     80  C   UNL A   1      43.310  25.396  25.489  1.00  0.00     0.022 A 
BRANCH  77  81
ATOM     81  S   UNL A   1      44.850  23.612  26.942  1.00  0.00     0.124 S 
ATOM     82  O   UNL A   1      46.126  24.125  26.454  1.00  0.00    -0.237 OA
ATOM     83  O   UNL A   1      44.761  23.345  28.373  1.00  0.00    -0.237 OA
ATOM     84  O   UNL A   1      44.219  22.608  26.088  1.00  0.00    -0.744 OA
ENDBRANCH  77  81
ENDBRANCH  60  74
BRANCH  61  85
ATOM     85  C   UNL A   1      41.096  34.335  34.059  1.00  0.00     0.023 A 
ATOM     86  C   UNL A   1      40.072  33.488  34.520  1.00  0.00     0.031 A 
ATOM     87  C   UNL A   1      41.243  35.592  34.663  1.00  0.00     0.131 A 
ATOM     88  C   UNL A   1      39.359  33.819  35.678  1.00  0.00     0.055 A 
ATOM     89  C   UNL A   1      40.500  35.938  35.797  1.00  0.00     0.041 A 
ATOM     90  F   UNL A   1      42.216  36.428  34.270  1.00  0.00    -0.206 F 
ATOM     91  C   UNL A   1      39.592  35.027  36.340  1.00  0.00     0.022 A 
BRANCH  88  92
ATOM     92  S   UNL A   1      38.335  32.536  36.463  1.00  0.00     0.124 S 
ATOM     93  O   UNL A   1      39.321  31.488  36.715  1.00  0.00    -0.237 OA
ATOM     94  O   UNL A   1      37.813  33.220  37.643  1.00  0.00    -0.237 OA
ATOM     95  O   UNL A   1      37.356  32.227  35.428  1.00  0.00    -0.744 OA
ENDBRANCH  88  92
ENDBRANCH  61  85
BRANCH  73  96
ATOM     96  C   UNL A   1      44.728  28.044  34.109  1.00  0.00     0.023 A 
ATOM     97  C   UNL A   1      43.877  27.344  34.972  1.00  0.00     0.031 A 
ATOM     98  C   UNL A   1      46.024  27.479  33.960  1.00  0.00     0.131 A 
ATOM     99  C   UNL A   1      44.326  26.225  35.699  1.00  0.00     0.055 A 
ATOM    100  C   UNL A   1      46.430  26.302  34.595  1.00  0.00     0.041 A 
ATOM    101  F   UNL A   1      46.965  28.042  33.188  1.00  0.00    -0.206 F 
ATOM    102  C   UNL A   1      45.586  25.677  35.493  1.00  0.00     0.022 A 
BRANCH  99 103
ATOM    103  S   UNL A   1      43.252  25.579  37.006  1.00  0.00     0.124 S 
ATOM    104  O   UNL A   1      44.208  24.877  37.859  1.00  0.00    -0.237 OA
ATOM    105  O   UNL A   1      42.676  26.796  37.569  1.00  0.00    -0.237 OA
ATOM    106  O   UNL A   1      42.314  24.719  36.289  1.00  0.00    -0.744 OA
ENDBRANCH  99 103
ENDBRANCH  73  96
ENDBRANCH  47  48
ENDBRANCH  39  42
ENDBRANCH  37  38
ENDBRANCH  36  37
ENDBRANCH  35  36
ENDBRANCH   1  35
TORSDOF 20
ENDMDL
MODEL 2
REMARK VINA RESULT:     -15.1      1.938      2.260
REMARK SMILES Cc1ccc(C2=NN(C(=O)CCC(=O)NCCCCNC(=O)c3ccc(-c4c5nc(c(-c6cc(S(=O)(=O)[O-])ccc6F)c6ccc([nH]6)c(-c6cc(S(=O)(=O)[O-])ccc6F)c6nc(c(-c7cc(S(=O)(=O)[O-])ccc7F)c7ccc4[nH]7)C=C6)C=C5)cc3)[C@H](C[C@@H]3C=c4cccc(C)c4=NC3=O)C2)cc1
REMARK SMILES IDX 16 1 15 2 13 3 14 4 12 6 11 7 9 8 10 9 8 10 6 11 7 12 100 13
REMARK SMILES IDX 86 14 5 15 1 16 2 17 3 18 102 19 4 20 101 21 87 22 88 23
REMARK SMILES IDX 89 24 98 25 90 26 97 27 99 28 91 29 96 30 92 31 94 32 93 33
REMARK SMILES IDX 95 34 17 35 18 36 19 37 20 38 21 39 22 41 23 42 24 43 85 44
REMARK SMILES IDX 25 45 84 46 26 47 27 48 28 49 78 50 29 51 83 52 77 53 79 54
REMARK SMILES IDX 30 55 82 56 76 57 75 58 31 60 63 61 43 62 62 63 44 64 47 65
REMARK SMILES IDX 61 66 80 67 45 68 46 69 60 71 81 72 48 73 32 74 33 75 41 76
REMARK SMILES IDX 34 77 40 78 42 79 39 80 35 81 36 82 37 83 38 84 64 85 65 86
REMARK SMILES IDX 73 87 66 88 72 89 74 90 71 91 67 92 68 93 69 94 70 95 49 96
REMARK SMILES IDX 50 97 58 98 51 99 57 100 59 101 56 102 52 103 53 104 54 105
REMARK SMILES IDX 55 106
REMARK H PARENT 15 5 20 40 79 59 47 70
REMARK Flexibility Score: inf
ROOT
ATOM      1  C   UNL A   1      31.493  27.494  25.658  1.00  0.00     0.116 C 
ENDROOT
BRANCH   1   2
ATOM      2  N   UNL A   1      30.880  27.864  24.205  1.00  0.00    -0.356 N 
ATOM      3  C   UNL A   1      30.768  27.232  23.009  1.00  0.00     0.220 C 
ATOM      4  O   UNL A   1      30.400  27.919  22.049  1.00  0.00    -0.275 OA
ATOM      5  H   UNL A   1      30.495  28.770  24.184  1.00  0.00     0.163 HD
BRANCH   3   6
ATOM      6  C   UNL A   1      31.116  25.778  22.819  1.00  0.00     0.110 C 
BRANCH   6   7
ATOM      7  C   UNL A   1      32.073  25.148  23.813  1.00  0.00     0.112 C 
BRANCH   7   8
ATOM      8  C   UNL A   1      33.329  24.580  23.177  1.00  0.00     0.243 C 
ATOM      9  O   UNL A   1      33.660  24.909  22.043  1.00  0.00    -0.273 OA
BRANCH   8  10
ATOM     10  N   UNL A   1      34.012  23.630  23.985  1.00  0.00    -0.230 N 
ATOM     11  C   UNL A   1      33.325  21.109  25.090  1.00  0.00     0.070 C 
ATOM     12  N   UNL A   1      33.441  21.910  23.771  1.00  0.00    -0.174 NA
ATOM     13  C   UNL A   1      33.824  22.375  26.740  1.00  0.00     0.086 C 
ATOM     14  C   UNL A   1      34.566  24.011  25.719  1.00  0.00     0.118 C 
BRANCH  11  15
ATOM     15  C   UNL A   1      33.467  19.407  24.723  1.00  0.00    -0.002 A 
ATOM     16  C   UNL A   1      33.654  15.066  25.246  1.00  0.00     0.044 C 
ATOM     17  C   UNL A   1      33.520  16.499  24.832  1.00  0.00    -0.051 A 
ATOM     18  C   UNL A   1      32.321  17.224  24.799  1.00  0.00     0.004 A 
ATOM     19  C   UNL A   1      34.675  17.198  24.590  1.00  0.00     0.004 A 
ATOM     20  C   UNL A   1      32.294  18.652  24.722  1.00  0.00     0.010 A 
ATOM     21  C   UNL A   1      34.624  18.592  24.500  1.00  0.00     0.010 A 
ENDBRANCH  11  15
BRANCH  14  22
ATOM     22  C   UNL A   1      36.238  24.466  25.471  1.00  0.00     0.045 C 
BRANCH  22  23
ATOM     23  C   UNL A   1      37.358  23.443  25.938  1.00  0.00     0.106 C 
ATOM     24  C   UNL A   1      38.763  23.960  26.161  1.00  0.00    -0.003 C 
ATOM     25  C   UNL A   1      37.594  22.163  25.110  1.00  0.00     0.253 C 
ATOM     26  C   UNL A   1      39.626  23.155  26.784  1.00  0.00    -0.003 A 
ATOM     27  N   UNL A   1      38.565  21.271  25.587  1.00  0.00    -0.212 NA
ATOM     28  O   UNL A   1      36.916  21.914  24.117  1.00  0.00    -0.272 OA
ATOM     29  C   UNL A   1      40.587  23.574  27.773  1.00  0.00     0.010 A 
ATOM     30  C   UNL A   1      39.499  21.729  26.373  1.00  0.00     0.077 A 
ATOM     31  C   UNL A   1      41.358  22.669  28.384  1.00  0.00     0.001 A 
ATOM     32  C   UNL A   1      40.655  20.883  26.861  1.00  0.00    -0.025 A 
ATOM     33  C   UNL A   1      41.457  21.334  27.847  1.00  0.00     0.005 A 
ATOM     34  C   UNL A   1      41.000  19.667  26.071  1.00  0.00     0.047 C 
ENDBRANCH  22  23
ENDBRANCH  14  22
ENDBRANCH   8  10
ENDBRANCH   7   8
ENDBRANCH   6   7
ENDBRANCH   3   6
ENDBRANCH   1   2
BRANCH   1  35
ATOM     35  C   UNL A   1      33.575  27.794  26.373  1.00  0.00     0.023 C 
BRANCH  35  36
ATOM     36  C   UNL A   1      34.106  29.615  26.685  1.00  0.00     0.023 C 
BRANCH  36  37
ATOM     37  C   UNL A   1      35.543  30.047  27.683  1.00  0.00     0.116 C 
BRANCH  37  38
ATOM     38  N   UNL A   1      35.638  29.592  29.125  1.00  0.00    -0.352 N 
ATOM     39  C   UNL A   1      36.298  29.987  30.291  1.00  0.00     0.251 C 
ATOM     40  H   UNL A   1      35.077  28.799  29.285  1.00  0.00     0.163 HD
ATOM     41  O   UNL A   1      36.632  29.101  31.082  1.00  0.00    -0.269 OA
BRANCH  39  42
ATOM     42  C   UNL A   1      36.314  31.440  30.767  1.00  0.00     0.039 A 
ATOM     43  C   UNL A   1      37.106  32.180  29.856  1.00  0.00     0.014 A 
ATOM     44  C   UNL A   1      36.786  31.402  32.060  1.00  0.00     0.014 A 
ATOM     45  C   UNL A   1      38.482  31.993  29.923  1.00  0.00     0.010 A 
ATOM     46  C   UNL A   1      38.098  31.006  32.114  1.00  0.00     0.010 A 
ATOM     47  C   UNL A   1      38.930  31.240  30.999  1.00  0.00    -0.014 A 
BRANCH  47  48
ATOM     48  C   UNL A   1      40.260  30.704  31.141  1.00  0.00     0.031 A 
ATOM     49  C   UNL A   1      40.479  29.447  30.410  1.00  0.00     0.074 A 
ATOM     50  C   UNL A   1      41.237  31.401  31.762  1.00  0.00     0.049 A 
ATOM     51  N   UNL A   1      41.370  28.573  30.702  1.00  0.00    -0.248 NA
ATOM     52  C   UNL A   1      39.576  29.000  29.340  1.00  0.00     0.031 C 
ATOM     53  C   UNL A   1      42.675  31.169  31.657  1.00  0.00     0.029 A 
ATOM     54  N   UNL A   1      41.132  32.372  32.760  1.00  0.00    -0.354 N 
ATOM     55  C   UNL A   1      41.413  27.713  29.627  1.00  0.00     0.074 A 
ATOM     56  C   UNL A   1      40.152  27.862  28.971  1.00  0.00     0.031 C 
ATOM     57  C   UNL A   1      43.281  31.727  32.719  1.00  0.00     0.029 A 
ATOM     58  C   UNL A   1      42.232  32.178  33.618  1.00  0.00     0.049 A 
ATOM     59  H   UNL A   1      40.430  33.055  32.847  1.00  0.00     0.167 HD
ATOM     60  C   UNL A   1      42.612  27.177  29.279  1.00  0.00     0.034 A 
ATOM     61  C   UNL A   1      42.108  31.778  34.919  1.00  0.00     0.034 A 
ATOM     62  C   UNL A   1      43.590  27.423  30.348  1.00  0.00     0.049 A 
ATOM     63  C   UNL A   1      42.702  30.404  35.179  1.00  0.00     0.074 A 
ATOM     64  C   UNL A   1      44.673  28.274  30.476  1.00  0.00     0.029 A 
ATOM     65  N   UNL A   1      43.284  26.993  31.637  1.00  0.00    -0.354 N 
ATOM     66  N   UNL A   1      43.135  29.602  34.243  1.00  0.00    -0.248 NA
ATOM     67  C   UNL A   1      42.819  29.812  36.507  1.00  0.00     0.031 C 
ATOM     68  C   UNL A   1      44.949  28.423  31.870  1.00  0.00     0.029 A 
ATOM     69  C   UNL A   1      44.068  27.627  32.582  1.00  0.00     0.049 A 
ATOM     70  H   UNL A   1      42.595  26.323  31.848  1.00  0.00     0.167 HD
ATOM     71  C   UNL A   1      43.504  28.398  34.786  1.00  0.00     0.074 A 
ATOM     72  C   UNL A   1      43.340  28.606  36.216  1.00  0.00     0.031 C 
ATOM     73  C   UNL A   1      43.860  27.331  34.000  1.00  0.00     0.034 A 
BRANCH  60  74
ATOM     74  C   UNL A   1      42.971  26.705  27.881  1.00  0.00     0.023 A 
ATOM     75  C   UNL A   1      43.552  25.429  27.754  1.00  0.00     0.031 A 
ATOM     76  C   UNL A   1      42.881  27.432  26.667  1.00  0.00     0.131 A 
ATOM     77  C   UNL A   1      44.029  24.952  26.517  1.00  0.00     0.055 A 
ATOM     78  C   UNL A   1      43.342  26.952  25.436  1.00  0.00     0.041 A 
ATOM     79  F   UNL A   1      42.361  28.656  26.574  1.00  0.00    -0.206 F 
ATOM     80  C   UNL A   1      43.928  25.707  25.354  1.00  0.00     0.022 A 
BRANCH  77  81
ATOM     81  S   UNL A   1      44.799  23.317  26.448  1.00  0.00     0.124 S 
ATOM     82  O   UNL A   1      46.106  23.622  25.877  1.00  0.00    -0.237 OA
ATOM     83  O   UNL A   1      44.779  22.907  27.847  1.00  0.00    -0.237 OA
ATOM     84  O   UNL A   1      43.903  22.562  25.572  1.00  0.00    -0.744 OA
ENDBRANCH  77  81
ENDBRANCH  60  74
BRANCH  61  85
ATOM     85  C   UNL A   1      40.926  32.353  35.613  1.00  0.00     0.023 A 
ATOM     86  C   UNL A   1      41.088  33.643  36.151  1.00  0.00     0.031 A 
ATOM     87  C   UNL A   1      39.625  31.901  35.349  1.00  0.00     0.131 A 
ATOM     88  C   UNL A   1      39.994  34.512  36.227  1.00  0.00     0.055 A 
ATOM     89  C   UNL A   1      38.526  32.760  35.465  1.00  0.00     0.041 A 
ATOM     90  F   UNL A   1      39.420  30.686  34.820  1.00  0.00    -0.206 F 
ATOM     91  C   UNL A   1      38.716  34.087  35.854  1.00  0.00     0.022 A 
BRANCH  88  92
ATOM     92  S   UNL A   1      40.307  36.275  36.547  1.00  0.00     0.124 S 
ATOM     93  O   UNL A   1      39.472  36.514  37.720  1.00  0.00    -0.237 OA
ATOM     94  O   UNL A   1      41.750  36.309  36.772  1.00  0.00    -0.237 OA
ATOM     95  O   UNL A   1      39.847  36.913  35.319  1.00  0.00    -0.744 OA
ENDBRANCH  88  92
ENDBRANCH  61  85
BRANCH  73  96
ATOM     96  C   UNL A   1      44.051  25.894  34.473  1.00  0.00     0.023 A 
ATOM     97  C   UNL A   1      45.300  25.282  34.624  1.00  0.00     0.031 A 
ATOM     98  C   UNL A   1      42.942  25.092  34.857  1.00  0.00     0.131 A 
ATOM     99  C   UNL A   1      45.417  23.941  35.034  1.00  0.00     0.055 A 
ATOM    100  C   UNL A   1      43.067  23.800  35.374  1.00  0.00     0.041 A 
ATOM    101  F   UNL A   1      41.677  25.523  34.750  1.00  0.00    -0.206 F 
ATOM    102  C   UNL A   1      44.312  23.204  35.444  1.00  0.00     0.022 A 
BRANCH  99 103
ATOM    103  S   UNL A   1      47.044  23.155  34.908  1.00  0.00     0.124 S 
ATOM    104  O   UNL A   1      46.691  21.810  34.458  1.00  0.00    -0.237 OA
ATOM    105  O   UNL A   1      47.721  23.994  33.924  1.00  0.00    -0.237 OA
ATOM    106  O   UNL A   1      47.573  23.235  36.267  1.00  0.00    -0.744 OA
ENDBRANCH  99 103
ENDBRANCH  73  96
ENDBRANCH  47  48
ENDBRANCH  39  42
ENDBRANCH  37  38
ENDBRANCH  36  37
ENDBRANCH  35  36
ENDBRANCH   1  35
TORSDOF 20
ENDMDL
MODEL 3
REMARK VINA RESULT:     -14.1      3.469      8.479
REMARK SMILES Cc1ccc(C2=NN(C(=O)CCC(=O)NCCCCNC(=O)c3ccc(-c4c5nc(c(-c6cc(S(=O)(=O)[O-])ccc6F)c6ccc([nH]6)c(-c6cc(S(=O)(=O)[O-])ccc6F)c6nc(c(-c7cc(S(=O)(=O)[O-])ccc7F)c7ccc4[nH]7)C=C6)C=C5)cc3)[C@H](C[C@@H]3C=c4cccc(C)c4=NC3=O)C2)cc1
REMARK SMILES IDX 16 1 15 2 13 3 14 4 12 6 11 7 9 8 10 9 8 10 6 11 7 12 100 13
REMARK SMILES IDX 86 14 5 15 1 16 2 17 3 18 102 19 4 20 101 21 87 22 88 23
REMARK SMILES IDX 89 24 98 25 90 26 97 27 99 28 91 29 96 30 92 31 94 32 93 33
REMARK SMILES IDX 95 34 17 35 18 36 19 37 20 38 21 39 22 41 23 42 24 43 85 44
REMARK SMILES IDX 25 45 84 46 26 47 27 48 28 49 78 50 29 51 83 52 77 53 79 54
REMARK SMILES IDX 30 55 82 56 76 57 75 58 31 60 63 61 43 62 62 63 44 64 47 65
REMARK SMILES IDX 61 66 80 67 45 68 46 69 60 71 81 72 48 73 32 74 33 75 41 76
REMARK SMILES IDX 34 77 40 78 42 79 39 80 35 81 36 82 37 83 38 84 64 85 65 86
REMARK SMILES IDX 73 87 66 88 72 89 74 90 71 91 67 92 68 93 69 94 70 95 49 96
REMARK SMILES IDX 50 97 58 98 51 99 57 100 59 101 56 102 52 103 53 104 54 105
REMARK SMILES IDX 55 106
REMARK H PARENT 15 5 20 40 79 59 47 70
REMARK Flexibility Score: inf
ROOT
ATOM      1  C   UNL A   1      33.341  29.265  24.188  1.00  0.00     0.116 C 
ENDROOT
BRANCH   1   2
ATOM      2  N   UNL A   1      32.185  28.684  23.213  1.00  0.00    -0.356 N 
ATOM      3  C   UNL A   1      31.526  27.504  23.086  1.00  0.00     0.220 C 
ATOM      4  O   UNL A   1      30.824  27.364  22.077  1.00  0.00    -0.275 OA
ATOM      5  H   UNL A   1      31.889  29.349  22.550  1.00  0.00     0.163 HD
BRANCH   3   6
ATOM      6  C   UNL A   1      31.662  26.382  24.082  1.00  0.00     0.110 C 
BRANCH   6   7
ATOM      7  C   UNL A   1      32.984  25.640  24.130  1.00  0.00     0.112 C 
BRANCH   7   8
ATOM      8  C   UNL A   1      32.924  24.243  23.536  1.00  0.00     0.243 C 
ATOM      9  O   UNL A   1      32.161  23.989  22.610  1.00  0.00    -0.273 OA
BRANCH   8  10
ATOM     10  N   UNL A   1      33.770  23.299  24.181  1.00  0.00    -0.230 N 
ATOM     11  C   UNL A   1      33.366  20.742  25.339  1.00  0.00     0.070 C 
ATOM     12  N   UNL A   1      33.213  21.568  24.039  1.00  0.00    -0.174 NA
ATOM     13  C   UNL A   1      34.134  21.993  26.893  1.00  0.00     0.086 C 
ATOM     14  C   UNL A   1      34.630  23.667  25.788  1.00  0.00     0.118 C 
BRANCH  11  15
ATOM     15  C   UNL A   1      33.479  19.051  24.913  1.00  0.00    -0.002 A 
ATOM     16  C   UNL A   1      33.790  14.703  25.299  1.00  0.00     0.044 C 
ATOM     17  C   UNL A   1      33.584  16.143  24.942  1.00  0.00    -0.051 A 
ATOM     18  C   UNL A   1      32.382  16.848  25.088  1.00  0.00     0.004 A 
ATOM     19  C   UNL A   1      34.687  16.865  24.565  1.00  0.00     0.004 A 
ATOM     20  C   UNL A   1      32.327  18.278  25.050  1.00  0.00     0.010 A 
ATOM     21  C   UNL A   1      34.607  18.260  24.518  1.00  0.00     0.010 A 
ENDBRANCH  11  15
BRANCH  14  22
ATOM     22  C   UNL A   1      36.214  24.175  25.242  1.00  0.00     0.045 C 
BRANCH  22  23
ATOM     23  C   UNL A   1      37.478  23.588  26.000  1.00  0.00     0.106 C 
ATOM     24  C   UNL A   1      38.750  24.409  26.029  1.00  0.00    -0.003 C 
ATOM     25  C   UNL A   1      37.989  22.182  25.627  1.00  0.00     0.253 C 
ATOM     26  C   UNL A   1      39.714  24.025  26.869  1.00  0.00    -0.003 A 
ATOM     27  N   UNL A   1      39.083  21.692  26.354  1.00  0.00    -0.212 NA
ATOM     28  O   UNL A   1      37.421  21.504  24.775  1.00  0.00    -0.272 OA
ATOM     29  C   UNL A   1      40.529  24.914  27.658  1.00  0.00     0.010 A 
ATOM     30  C   UNL A   1      39.875  22.546  26.940  1.00  0.00     0.077 A 
ATOM     31  C   UNL A   1      41.422  24.416  28.520  1.00  0.00     0.001 A 
ATOM     32  C   UNL A   1      41.141  22.138  27.662  1.00  0.00    -0.025 A 
ATOM     33  C   UNL A   1      41.794  23.025  28.441  1.00  0.00     0.005 A 
ATOM     34  C   UNL A   1      41.745  20.824  27.302  1.00  0.00     0.047 C 
ENDBRANCH  22  23
ENDBRANCH  14  22
ENDBRANCH   8  10
ENDBRANCH   7   8
ENDBRANCH   6   7
ENDBRANCH   3   6
ENDBRANCH   1   2
BRANCH   1  35
ATOM     35  C   UNL A   1      33.929  28.520  26.197  1.00  0.00     0.023 C 
BRANCH  35  36
ATOM     36  C   UNL A   1      34.636  29.833  27.411  1.00  0.00     0.023 C 
BRANCH  36  37
ATOM     37  C   UNL A   1      36.404  30.079  27.649  1.00  0.00     0.116 C 
BRANCH  37  38
ATOM     38  N   UNL A   1      37.025  29.891  29.018  1.00  0.00    -0.352 N 
ATOM     39  C   UNL A   1      37.376  28.830  29.856  1.00  0.00     0.251 C 
ATOM     40  H   UNL A   1      37.242  30.758  29.432  1.00  0.00     0.163 HD
ATOM     41  O   UNL A   1      37.286  29.013  31.073  1.00  0.00    -0.269 OA
BRANCH  39  42
ATOM     42  C   UNL A   1      38.164  27.620  29.354  1.00  0.00     0.039 A 
ATOM     43  C   UNL A   1      38.937  27.135  30.436  1.00  0.00     0.014 A 
ATOM     44  C   UNL A   1      38.884  28.068  28.270  1.00  0.00     0.014 A 
ATOM     45  C   UNL A   1      40.049  27.886  30.800  1.00  0.00     0.010 A 
ATOM     46  C   UNL A   1      39.843  28.977  28.635  1.00  0.00     0.010 A 
ATOM     47  C   UNL A   1      40.373  28.927  29.942  1.00  0.00    -0.014 A 
BRANCH  47  48
ATOM     48  C   UNL A   1      41.308  29.984  30.233  1.00  0.00     0.031 A 
ATOM     49  C   UNL A   1      40.706  31.147  30.903  1.00  0.00     0.074 A 
ATOM     50  C   UNL A   1      42.635  29.822  30.043  1.00  0.00     0.049 A 
ATOM     51  N   UNL A   1      41.181  32.337  30.878  1.00  0.00    -0.248 NA
ATOM     52  C   UNL A   1      39.391  31.076  31.557  1.00  0.00     0.031 C 
ATOM     53  C   UNL A   1      43.705  30.628  30.625  1.00  0.00     0.029 A 
ATOM     54  N   UNL A   1      43.304  28.989  29.143  1.00  0.00    -0.354 N 
ATOM     55  C   UNL A   1      40.482  33.037  31.836  1.00  0.00     0.074 A 
ATOM     56  C   UNL A   1      39.264  32.313  32.020  1.00  0.00     0.031 C 
ATOM     57  C   UNL A   1      44.815  30.473  29.883  1.00  0.00     0.029 A 
ATOM     58  C   UNL A   1      44.438  29.703  28.710  1.00  0.00     0.049 A 
ATOM     59  H   UNL A   1      43.036  28.083  28.866  1.00  0.00     0.167 HD
ATOM     60  C   UNL A   1      41.138  33.995  32.540  1.00  0.00     0.034 A 
ATOM     61  C   UNL A   1      44.612  30.126  27.422  1.00  0.00     0.034 A 
ATOM     62  C   UNL A   1      42.429  34.279  31.898  1.00  0.00     0.049 A 
ATOM     63  C   UNL A   1      44.615  31.639  27.288  1.00  0.00     0.074 A 
ATOM     64  C   UNL A   1      43.742  33.979  32.217  1.00  0.00     0.029 A 
ATOM     65  N   UNL A   1      42.435  34.652  30.556  1.00  0.00    -0.354 N 
ATOM     66  N   UNL A   1      44.315  32.463  28.255  1.00  0.00    -0.248 NA
ATOM     67  C   UNL A   1      44.919  32.339  26.045  1.00  0.00     0.031 C 
ATOM     68  C   UNL A   1      44.516  34.083  31.021  1.00  0.00     0.029 A 
ATOM     69  C   UNL A   1      43.685  34.493  29.991  1.00  0.00     0.049 A 
ATOM     70  H   UNL A   1      41.646  34.984  30.071  1.00  0.00     0.167 HD
ATOM     71  C   UNL A   1      44.300  33.753  27.790  1.00  0.00     0.074 A 
ATOM     72  C   UNL A   1      44.744  33.622  26.411  1.00  0.00     0.031 C 
ATOM     73  C   UNL A   1      43.874  34.797  28.572  1.00  0.00     0.034 A 
BRANCH  60  74
ATOM     74  C   UNL A   1      40.757  34.449  33.938  1.00  0.00     0.023 A 
ATOM     75  C   UNL A   1      39.907  33.611  34.685  1.00  0.00     0.031 A 
ATOM     76  C   UNL A   1      41.075  35.676  34.572  1.00  0.00     0.131 A 
ATOM     77  C   UNL A   1      39.401  33.999  35.941  1.00  0.00     0.055 A 
ATOM     78  C   UNL A   1      40.583  36.056  35.826  1.00  0.00     0.041 A 
ATOM     79  F   UNL A   1      41.865  36.605  34.032  1.00  0.00    -0.206 F 
ATOM     80  C   UNL A   1      39.734  35.220  36.518  1.00  0.00     0.022 A 
BRANCH  77  81
ATOM     81  S   UNL A   1      38.284  32.881  36.819  1.00  0.00     0.124 S 
ATOM     82  O   UNL A   1      39.219  31.999  37.509  1.00  0.00    -0.237 OA
ATOM     83  O   UNL A   1      37.519  33.801  37.653  1.00  0.00    -0.237 OA
ATOM     84  O   UNL A   1      37.523  32.253  35.739  1.00  0.00    -0.744 OA
ENDBRANCH  77  81
ENDBRANCH  60  74
BRANCH  61  85
ATOM     85  C   UNL A   1      44.105  29.169  26.403  1.00  0.00     0.023 A 
ATOM     86  C   UNL A   1      44.983  28.134  26.032  1.00  0.00     0.031 A 
ATOM     87  C   UNL A   1      42.733  28.989  26.180  1.00  0.00     0.131 A 
ATOM     88  C   UNL A   1      44.473  26.891  25.641  1.00  0.00     0.055 A 
ATOM     89  C   UNL A   1      42.227  27.757  25.749  1.00  0.00     0.041 A 
ATOM     90  F   UNL A   1      41.855  29.940  26.533  1.00  0.00    -0.206 F 
ATOM     91  C   UNL A   1      43.095  26.686  25.529  1.00  0.00     0.022 A 
BRANCH  88  92
ATOM     92  S   UNL A   1      45.612  25.474  25.555  1.00  0.00     0.124 S 
ATOM     93  O   UNL A   1      46.511  25.886  24.481  1.00  0.00    -0.237 OA
ATOM     94  O   UNL A   1      46.190  25.446  26.897  1.00  0.00    -0.237 OA
ATOM     95  O   UNL A   1      44.723  24.366  25.229  1.00  0.00    -0.744 OA
ENDBRANCH  88  92
ENDBRANCH  61  85
BRANCH  73  96
ATOM     96  C   UNL A   1      43.586  36.215  28.094  1.00  0.00     0.023 A 
ATOM     97  C   UNL A   1      44.534  37.245  28.093  1.00  0.00     0.031 A 
ATOM     98  C   UNL A   1      42.322  36.567  27.548  1.00  0.00     0.131 A 
ATOM     99  C   UNL A   1      44.205  38.546  27.669  1.00  0.00     0.055 A 
ATOM    100  C   UNL A   1      42.033  37.828  27.021  1.00  0.00     0.041 A 
ATOM    101  F   UNL A   1      41.300  35.700  27.498  1.00  0.00    -0.206 F 
ATOM    102  C   UNL A   1      42.971  38.839  27.101  1.00  0.00     0.022 A 
BRANCH  99 103
ATOM    103  S   UNL A   1      45.400  39.870  27.989  1.00  0.00     0.124 S 
ATOM    104  O   UNL A   1      44.679  40.696  28.955  1.00  0.00    -0.237 OA
ATOM    105  O   UNL A   1      46.546  39.136  28.516  1.00  0.00    -0.237 OA
ATOM    106  O   UNL A   1      45.598  40.480  26.677  1.00  0.00    -0.744 OA
ENDBRANCH  99 103
ENDBRANCH  73  96
ENDBRANCH  47  48
ENDBRANCH  39  42
ENDBRANCH  37  38
ENDBRANCH  36  37
ENDBRANCH  35  36
ENDBRANCH   1  35
TORSDOF 20
ENDMDL
