MODEL 1
REMARK VINA RESULT:     -11.3      0.000      0.000
REMARK SMILES CCc1ccc(C(=O)N2CC[C@H](C(=O)NCCCCNC(=O)c3ccc(-c4c5nc(c(-c6cc(S(=O)(=O)[O-])ccc6F)c6ccc([nH]6)c(-c6cc(S(=O)(=O)[O-])ccc6F)c6nc(c(-c7cc(S(=O)(=O)[O-])ccc7F)c7ccc4[nH]7)C=C6)C=C5)cc3)[C@@H]2C)s1
REMARK SMILES IDX 17 1 16 2 15 3 13 4 14 5 12 7 9 8 10 9 86 10 11 11 87 12
REMARK SMILES IDX 7 13 8 14 6 15 3 16 4 17 88 18 5 19 2 20 1 21 18 22 19 23
REMARK SMILES IDX 20 24 21 25 22 27 23 28 24 29 85 30 25 31 84 32 26 33 27 34
REMARK SMILES IDX 28 35 78 36 29 37 83 38 77 39 79 40 30 41 82 42 76 43 75 44
REMARK SMILES IDX 31 46 63 47 43 48 62 49 44 50 47 51 61 52 80 53 45 54 46 55
REMARK SMILES IDX 60 57 81 58 48 59 32 60 33 61 41 62 34 63 40 64 42 65 39 66
REMARK SMILES IDX 35 67 36 68 37 69 38 70 64 71 65 72 73 73 66 74 72 75 74 76
REMARK SMILES IDX 71 77 67 78 68 79 69 80 70 81 49 82 50 83 58 84 51 85 57 86
REMARK SMILES IDX 59 87 56 88 52 89 53 90 54 91 55 92
REMARK H PARENT 15 6 20 26 79 45 47 56
REMARK Flexibility Score: inf
ROOT
ATOM      1  C   UNL A   1      31.779  30.525  26.863  1.00  0.00     0.023 C 
ENDROOT
BRANCH   1   2
ATOM      2  C   UNL A   1      32.134  30.007  25.470  1.00  0.00     0.116 C 
BRANCH   2   3
ATOM      3  N   UNL A   1      31.009  30.125  24.582  1.00  0.00    -0.356 N 
ATOM      4  C   UNL A   1      30.343  29.292  23.771  1.00  0.00     0.225 C 
ATOM      5  O   UNL A   1      29.467  29.883  23.114  1.00  0.00    -0.275 OA
ATOM      6  H   UNL A   1      30.639  31.038  24.566  1.00  0.00     0.163 HD
BRANCH   4   7
ATOM      7  C   UNL A   1      30.402  27.753  23.678  1.00  0.00     0.102 C 
ATOM      8  N   UNL A   1      32.352  26.379  24.074  1.00  0.00    -0.334 N 
ATOM      9  C   UNL A   1      32.617  27.217  22.927  1.00  0.00     0.121 C 
ATOM     10  C   UNL A   1      31.001  26.647  24.592  1.00  0.00     0.094 C 
ATOM     11  C   UNL A   1      31.217  27.454  22.382  1.00  0.00     0.037 C 
ATOM     12  C   UNL A   1      30.967  26.745  26.101  1.00  0.00     0.032 C 
BRANCH   8  13
ATOM     13  C   UNL A   1      33.244  25.352  24.381  1.00  0.00     0.264 C 
ATOM     14  O   UNL A   1      34.332  25.626  24.892  1.00  0.00    -0.268 OA
BRANCH  13  15
ATOM     15  C   UNL A   1      32.895  23.989  23.994  1.00  0.00     0.092 A 
ATOM     16  C   UNL A   1      32.760  21.508  23.886  1.00  0.00     0.005 A 
ATOM     17  C   UNL A   1      32.185  22.115  22.789  1.00  0.00     0.016 A 
ATOM     18  S   UNL A   1      33.357  22.676  24.996  1.00  0.00    -0.135 S 
ATOM     19  C   UNL A   1      32.308  23.531  22.829  1.00  0.00     0.026 A 
BRANCH  16  20
ATOM     20  C   UNL A   1      32.928  20.046  24.197  1.00  0.00     0.043 C 
ATOM     21  C   UNL A   1      34.324  19.683  24.685  1.00  0.00     0.010 C 
ENDBRANCH  16  20
ENDBRANCH  13  15
ENDBRANCH   8  13
ENDBRANCH   4   7
ENDBRANCH   2   3
ENDBRANCH   1   2
BRANCH   1  22
ATOM     22  C   UNL A   1      31.467  32.022  26.917  1.00  0.00     0.023 C 
BRANCH  22  23
ATOM     23  C   UNL A   1      32.700  32.916  26.873  1.00  0.00     0.116 C 
BRANCH  23  24
ATOM     24  N   UNL A   1      32.561  34.144  27.644  1.00  0.00    -0.352 N 
ATOM     25  C   UNL A   1      33.344  34.568  28.694  1.00  0.00     0.251 C 
ATOM     26  H   UNL A   1      31.822  34.739  27.385  1.00  0.00     0.163 HD
ATOM     27  O   UNL A   1      33.059  35.588  29.310  1.00  0.00    -0.269 OA
BRANCH  25  28
ATOM     28  C   UNL A   1      34.490  33.730  29.094  1.00  0.00     0.039 A 
ATOM     29  C   UNL A   1      35.781  34.175  28.810  1.00  0.00     0.014 A 
ATOM     30  C   UNL A   1      34.283  32.562  29.831  1.00  0.00     0.014 A 
ATOM     31  C   UNL A   1      36.874  33.479  29.326  1.00  0.00     0.010 A 
ATOM     32  C   UNL A   1      35.368  31.919  30.413  1.00  0.00     0.010 A 
ATOM     33  C   UNL A   1      36.675  32.367  30.162  1.00  0.00    -0.014 A 
BRANCH  33  34
ATOM     34  C   UNL A   1      37.822  31.638  30.759  1.00  0.00     0.031 A 
ATOM     35  C   UNL A   1      38.266  31.975  32.156  1.00  0.00     0.074 A 
ATOM     36  C   UNL A   1      38.497  30.731  30.027  1.00  0.00     0.049 A 
ATOM     37  N   UNL A   1      39.287  31.519  32.835  1.00  0.00    -0.248 NA
ATOM     38  C   UNL A   1      37.476  32.992  32.868  1.00  0.00     0.031 C 
ATOM     39  C   UNL A   1      38.191  30.362  28.642  1.00  0.00     0.029 A 
ATOM     40  N   UNL A   1      39.585  29.957  30.341  1.00  0.00    -0.354 N 
ATOM     41  C   UNL A   1      39.273  32.207  34.043  1.00  0.00     0.074 A 
ATOM     42  C   UNL A   1      38.188  33.162  33.971  1.00  0.00     0.031 C 
ATOM     43  C   UNL A   1      39.052  29.414  28.238  1.00  0.00     0.029 A 
ATOM     44  C   UNL A   1      39.995  29.135  29.317  1.00  0.00     0.049 A 
ATOM     45  H   UNL A   1      40.032  29.987  31.218  1.00  0.00     0.167 HD
ATOM     46  C   UNL A   1      40.072  32.037  35.126  1.00  0.00     0.034 A 
ATOM     47  C   UNL A   1      41.017  28.259  29.256  1.00  0.00     0.034 A 
ATOM     48  C   UNL A   1      41.132  31.061  35.185  1.00  0.00     0.049 A 
ATOM     49  C   UNL A   1      41.890  28.080  30.473  1.00  0.00     0.074 A 
ATOM     50  C   UNL A   1      41.968  30.759  36.246  1.00  0.00     0.029 A 
ATOM     51  N   UNL A   1      41.502  30.227  34.137  1.00  0.00    -0.354 N 
ATOM     52  N   UNL A   1      41.831  28.699  31.631  1.00  0.00    -0.248 NA
ATOM     53  C   UNL A   1      42.956  27.075  30.381  1.00  0.00     0.031 C 
ATOM     54  C   UNL A   1      42.879  29.786  35.822  1.00  0.00     0.029 A 
ATOM     55  C   UNL A   1      42.569  29.428  34.519  1.00  0.00     0.049 A 
ATOM     56  H   UNL A   1      41.071  30.206  33.253  1.00  0.00     0.167 HD
ATOM     57  C   UNL A   1      42.832  28.132  32.415  1.00  0.00     0.074 A 
ATOM     58  C   UNL A   1      43.468  27.114  31.603  1.00  0.00     0.031 C 
ATOM     59  C   UNL A   1      43.191  28.421  33.692  1.00  0.00     0.034 A 
BRANCH  46  60
ATOM     60  C   UNL A   1      39.831  32.940  36.312  1.00  0.00     0.023 A 
ATOM     61  C   UNL A   1      39.120  32.498  37.442  1.00  0.00     0.031 A 
ATOM     62  C   UNL A   1      40.273  34.274  36.296  1.00  0.00     0.131 A 
ATOM     63  C   UNL A   1      38.792  33.402  38.463  1.00  0.00     0.055 A 
ATOM     64  C   UNL A   1      40.022  35.146  37.357  1.00  0.00     0.041 A 
ATOM     65  F   UNL A   1      40.940  34.761  35.237  1.00  0.00    -0.206 F 
ATOM     66  C   UNL A   1      39.262  34.717  38.441  1.00  0.00     0.022 A 
BRANCH  63  67
ATOM     67  S   UNL A   1      37.610  32.879  39.735  1.00  0.00     0.124 S 
ATOM     68  O   UNL A   1      36.360  32.847  38.978  1.00  0.00    -0.237 OA
ATOM     69  O   UNL A   1      38.141  31.585  40.146  1.00  0.00    -0.237 OA
ATOM     70  O   UNL A   1      37.695  33.937  40.739  1.00  0.00    -0.744 OA
ENDBRANCH  63  67
ENDBRANCH  46  60
BRANCH  47  71
ATOM     71  C   UNL A   1      41.276  27.478  28.013  1.00  0.00     0.023 A 
ATOM     72  C   UNL A   1      40.979  26.108  27.943  1.00  0.00     0.031 A 
ATOM     73  C   UNL A   1      41.865  28.082  26.886  1.00  0.00     0.131 A 
ATOM     74  C   UNL A   1      41.315  25.374  26.795  1.00  0.00     0.055 A 
ATOM     75  C   UNL A   1      42.151  27.359  25.727  1.00  0.00     0.041 A 
ATOM     76  F   UNL A   1      42.162  29.392  26.896  1.00  0.00    -0.206 F 
ATOM     77  C   UNL A   1      41.889  25.993  25.682  1.00  0.00     0.022 A 
BRANCH  74  78
ATOM     78  S   UNL A   1      41.069  23.577  26.810  1.00  0.00     0.124 S 
ATOM     79  O   UNL A   1      41.478  23.232  28.166  1.00  0.00    -0.237 OA
ATOM     80  O   UNL A   1      39.643  23.465  26.521  1.00  0.00    -0.237 OA
ATOM     81  O   UNL A   1      41.956  23.104  25.749  1.00  0.00    -0.744 OA
ENDBRANCH  74  78
ENDBRANCH  47  71
BRANCH  59  82
ATOM     82  C   UNL A   1      44.291  27.585  34.299  1.00  0.00     0.023 A 
ATOM     83  C   UNL A   1      44.021  26.377  34.963  1.00  0.00     0.031 A 
ATOM     84  C   UNL A   1      45.628  28.012  34.213  1.00  0.00     0.131 A 
ATOM     85  C   UNL A   1      45.069  25.663  35.565  1.00  0.00     0.055 A 
ATOM     86  C   UNL A   1      46.673  27.268  34.762  1.00  0.00     0.041 A 
ATOM     87  F   UNL A   1      45.941  29.159  33.589  1.00  0.00    -0.206 F 
ATOM     88  C   UNL A   1      46.394  26.093  35.454  1.00  0.00     0.022 A 
BRANCH  85  89
ATOM     89  S   UNL A   1      44.666  24.209  36.571  1.00  0.00     0.124 S 
ATOM     90  O   UNL A   1      44.056  24.815  37.750  1.00  0.00    -0.237 OA
ATOM     91  O   UNL A   1      43.766  23.465  35.698  1.00  0.00    -0.237 OA
ATOM     92  O   UNL A   1      45.967  23.580  36.799  1.00  0.00    -0.744 OA
ENDBRANCH  85  89
ENDBRANCH  59  82
ENDBRANCH  33  34
ENDBRANCH  25  28
ENDBRANCH  23  24
ENDBRANCH  22  23
ENDBRANCH   1  22
TORSDOF 17
ENDMDL
MODEL 2
REMARK VINA RESULT:     -11.2      5.155     10.445
REMARK SMILES CCc1ccc(C(=O)N2CC[C@H](C(=O)NCCCCNC(=O)c3ccc(-c4c5nc(c(-c6cc(S(=O)(=O)[O-])ccc6F)c6ccc([nH]6)c(-c6cc(S(=O)(=O)[O-])ccc6F)c6nc(c(-c7cc(S(=O)(=O)[O-])ccc7F)c7ccc4[nH]7)C=C6)C=C5)cc3)[C@@H]2C)s1
REMARK SMILES IDX 17 1 16 2 15 3 13 4 14 5 12 7 9 8 10 9 86 10 11 11 87 12
REMARK SMILES IDX 7 13 8 14 6 15 3 16 4 17 88 18 5 19 2 20 1 21 18 22 19 23
REMARK SMILES IDX 20 24 21 25 22 27 23 28 24 29 85 30 25 31 84 32 26 33 27 34
REMARK SMILES IDX 28 35 78 36 29 37 83 38 77 39 79 40 30 41 82 42 76 43 75 44
REMARK SMILES IDX 31 46 63 47 43 48 62 49 44 50 47 51 61 52 80 53 45 54 46 55
REMARK SMILES IDX 60 57 81 58 48 59 32 60 33 61 41 62 34 63 40 64 42 65 39 66
REMARK SMILES IDX 35 67 36 68 37 69 38 70 64 71 65 72 73 73 66 74 72 75 74 76
REMARK SMILES IDX 71 77 67 78 68 79 69 80 70 81 49 82 50 83 58 84 51 85 57 86
REMARK SMILES IDX 59 87 56 88 52 89 53 90 54 91 55 92
REMARK H PARENT 15 6 20 26 79 45 47 56
REMARK Flexibility Score: inf
ROOT
ATOM      1  C   UNL A   1      35.311  20.376  25.024  1.00  0.00     0.023 C 
ENDROOT
BRANCH   1   2
ATOM      2  C   UNL A   1      33.828  20.238  25.365  1.00  0.00     0.116 C 
BRANCH   2   3
ATOM      3  N   UNL A   1      33.525  20.916  26.596  1.00  0.00    -0.356 N 
ATOM      4  C   UNL A   1      32.952  22.083  26.925  1.00  0.00     0.225 C 
ATOM      5  O   UNL A   1      32.988  22.289  28.151  1.00  0.00    -0.275 OA
ATOM      6  H   UNL A   1      33.806  20.401  27.387  1.00  0.00     0.163 HD
BRANCH   4   7
ATOM      7  C   UNL A   1      32.147  23.065  26.049  1.00  0.00     0.102 C 
ATOM      8  N   UNL A   1      33.043  24.467  24.294  1.00  0.00    -0.334 N 
ATOM      9  C   UNL A   1      33.635  24.879  25.546  1.00  0.00     0.121 C 
ATOM     10  C   UNL A   1      32.108  23.353  24.522  1.00  0.00     0.094 C 
ATOM     11  C   UNL A   1      32.558  24.486  26.546  1.00  0.00     0.037 C 
ATOM     12  C   UNL A   1      32.253  22.255  23.492  1.00  0.00     0.032 C 
BRANCH   8  13
ATOM     13  C   UNL A   1      33.244  25.254  23.160  1.00  0.00     0.264 C 
ATOM     14  O   UNL A   1      34.064  24.897  22.312  1.00  0.00    -0.268 OA
BRANCH  13  15
ATOM     15  C   UNL A   1      32.542  26.529  23.066  1.00  0.00     0.092 A 
ATOM     16  C   UNL A   1      30.778  28.257  22.761  1.00  0.00     0.005 A 
ATOM     17  C   UNL A   1      32.046  28.799  22.799  1.00  0.00     0.016 A 
ATOM     18  S   UNL A   1      30.829  26.552  22.973  1.00  0.00    -0.135 S 
ATOM     19  C   UNL A   1      33.055  27.805  22.923  1.00  0.00     0.026 A 
BRANCH  16  20
ATOM     20  C   UNL A   1      29.450  28.933  22.556  1.00  0.00     0.043 C 
ATOM     21  C   UNL A   1      29.555  30.277  21.848  1.00  0.00     0.010 C 
ENDBRANCH  16  20
ENDBRANCH  13  15
ENDBRANCH   8  13
ENDBRANCH   4   7
ENDBRANCH   2   3
ENDBRANCH   1   2
BRANCH   1  22
ATOM     22  C   UNL A   1      35.767  21.814  24.770  1.00  0.00     0.023 C 
BRANCH  22  23
ATOM     23  C   UNL A   1      36.959  22.247  25.615  1.00  0.00     0.116 C 
BRANCH  23  24
ATOM     24  N   UNL A   1      38.012  21.244  25.700  1.00  0.00    -0.352 N 
ATOM     25  C   UNL A   1      39.291  21.410  26.178  1.00  0.00     0.251 C 
ATOM     26  H   UNL A   1      37.782  20.343  25.377  1.00  0.00     0.163 HD
ATOM     27  O   UNL A   1      40.105  20.496  26.112  1.00  0.00    -0.269 OA
BRANCH  25  28
ATOM     28  C   UNL A   1      39.673  22.732  26.712  1.00  0.00     0.039 A 
ATOM     29  C   UNL A   1      40.624  22.799  27.729  1.00  0.00     0.014 A 
ATOM     30  C   UNL A   1      39.159  23.896  26.135  1.00  0.00     0.014 A 
ATOM     31  C   UNL A   1      41.113  24.043  28.127  1.00  0.00     0.010 A 
ATOM     32  C   UNL A   1      39.709  25.127  26.473  1.00  0.00     0.010 A 
ATOM     33  C   UNL A   1      40.687  25.213  27.476  1.00  0.00    -0.014 A 
BRANCH  33  34
ATOM     34  C   UNL A   1      41.229  26.544  27.852  1.00  0.00     0.031 A 
ATOM     35  C   UNL A   1      42.654  26.884  27.514  1.00  0.00     0.074 A 
ATOM     36  C   UNL A   1      40.466  27.408  28.549  1.00  0.00     0.049 A 
ATOM     37  N   UNL A   1      43.347  27.951  27.818  1.00  0.00    -0.248 NA
ATOM     38  C   UNL A   1      43.412  25.868  26.767  1.00  0.00     0.031 C 
ATOM     39  C   UNL A   1      39.087  27.164  28.980  1.00  0.00     0.029 A 
ATOM     40  N   UNL A   1      40.742  28.665  29.024  1.00  0.00    -0.354 N 
ATOM     41  C   UNL A   1      44.625  27.725  27.318  1.00  0.00     0.074 A 
ATOM     42  C   UNL A   1      44.628  26.391  26.759  1.00  0.00     0.031 C 
ATOM     43  C   UNL A   1      38.630  28.247  29.630  1.00  0.00     0.029 A 
ATOM     44  C   UNL A   1      39.693  29.247  29.697  1.00  0.00     0.049 A 
ATOM     45  H   UNL A   1      41.610  29.110  28.895  1.00  0.00     0.167 HD
ATOM     46  C   UNL A   1      45.688  28.566  27.298  1.00  0.00     0.034 A 
ATOM     47  C   UNL A   1      39.600  30.448  30.301  1.00  0.00     0.034 A 
ATOM     48  C   UNL A   1      45.655  29.903  27.838  1.00  0.00     0.049 A 
ATOM     49  C   UNL A   1      40.794  31.369  30.263  1.00  0.00     0.074 A 
ATOM     50  C   UNL A   1      46.652  30.863  27.826  1.00  0.00     0.029 A 
ATOM     51  N   UNL A   1      44.566  30.468  28.491  1.00  0.00    -0.354 N 
ATOM     52  N   UNL A   1      41.981  31.165  29.737  1.00  0.00    -0.248 NA
ATOM     53  C   UNL A   1      40.630  32.690  30.885  1.00  0.00     0.031 C 
ATOM     54  C   UNL A   1      46.186  31.986  28.520  1.00  0.00     0.029 A 
ATOM     55  C   UNL A   1      44.874  31.755  28.904  1.00  0.00     0.049 A 
ATOM     56  H   UNL A   1      43.702  30.020  28.638  1.00  0.00     0.167 HD
ATOM     57  C   UNL A   1      42.693  32.344  29.937  1.00  0.00     0.074 A 
ATOM     58  C   UNL A   1      41.798  33.258  30.618  1.00  0.00     0.031 C 
ATOM     59  C   UNL A   1      43.968  32.648  29.586  1.00  0.00     0.034 A 
BRANCH  46  60
ATOM     60  C   UNL A   1      46.969  28.046  26.690  1.00  0.00     0.023 A 
ATOM     61  C   UNL A   1      47.232  28.165  25.313  1.00  0.00     0.031 A 
ATOM     62  C   UNL A   1      47.918  27.380  27.483  1.00  0.00     0.131 A 
ATOM     63  C   UNL A   1      48.363  27.548  24.758  1.00  0.00     0.055 A 
ATOM     64  C   UNL A   1      49.089  26.846  26.939  1.00  0.00     0.041 A 
ATOM     65  F   UNL A   1      47.715  27.216  28.800  1.00  0.00    -0.206 F 
ATOM     66  C   UNL A   1      49.307  26.912  25.566  1.00  0.00     0.022 A 
BRANCH  63  67
ATOM     67  S   UNL A   1      48.496  27.450  22.952  1.00  0.00     0.124 S 
ATOM     68  O   UNL A   1      49.806  28.054  22.721  1.00  0.00    -0.237 OA
ATOM     69  O   UNL A   1      48.402  26.015  22.707  1.00  0.00    -0.237 OA
ATOM     70  O   UNL A   1      47.361  28.241  22.481  1.00  0.00    -0.744 OA
ENDBRANCH  63  67
ENDBRANCH  46  60
BRANCH  47  71
ATOM     71  C   UNL A   1      38.343  30.858  30.989  1.00  0.00     0.023 A 
ATOM     72  C   UNL A   1      37.319  31.517  30.291  1.00  0.00     0.031 A 
ATOM     73  C   UNL A   1      38.164  30.635  32.366  1.00  0.00     0.131 A 
ATOM     74  C   UNL A   1      36.184  31.974  30.978  1.00  0.00     0.055 A 
ATOM     75  C   UNL A   1      37.010  31.048  33.036  1.00  0.00     0.041 A 
ATOM     76  F   UNL A   1      39.108  30.002  33.080  1.00  0.00    -0.206 F 
ATOM     77  C   UNL A   1      36.018  31.735  32.343  1.00  0.00     0.022 A 
BRANCH  74  78
ATOM     78  S   UNL A   1      34.962  32.967  30.074  1.00  0.00     0.124 S 
ATOM     79  O   UNL A   1      34.421  31.989  29.137  1.00  0.00    -0.237 OA
ATOM     80  O   UNL A   1      34.069  33.394  31.145  1.00  0.00    -0.237 OA
ATOM     81  O   UNL A   1      35.766  34.030  29.473  1.00  0.00    -0.744 OA
ENDBRANCH  74  78
ENDBRANCH  47  71
BRANCH  59  82
ATOM     82  C   UNL A   1      44.446  34.046  29.890  1.00  0.00     0.023 A 
ATOM     83  C   UNL A   1      45.087  34.363  31.100  1.00  0.00     0.031 A 
ATOM     84  C   UNL A   1      44.250  35.077  28.954  1.00  0.00     0.131 A 
ATOM     85  C   UNL A   1      45.460  35.689  31.366  1.00  0.00     0.055 A 
ATOM     86  C   UNL A   1      44.676  36.383  29.198  1.00  0.00     0.041 A 
ATOM     87  F   UNL A   1      43.642  34.829  27.782  1.00  0.00    -0.206 F 
ATOM     88  C   UNL A   1      45.274  36.697  30.416  1.00  0.00     0.022 A 
BRANCH  85  89
ATOM     89  S   UNL A   1      46.115  36.097  33.007  1.00  0.00     0.124 S 
ATOM     90  O   UNL A   1      46.433  34.778  33.544  1.00  0.00    -0.237 OA
ATOM     91  O   UNL A   1      47.256  36.947  32.685  1.00  0.00    -0.237 OA
ATOM     92  O   UNL A   1      45.000  36.781  33.660  1.00  0.00    -0.744 OA
ENDBRANCH  85  89
ENDBRANCH  59  82
ENDBRANCH  33  34
ENDBRANCH  25  28
ENDBRANCH  23  24
ENDBRANCH  22  23
ENDBRANCH   1  22
TORSDOF 17
ENDMDL
MODEL 3
REMARK VINA RESULT:     -11.2      4.982     10.060
REMARK SMILES CCc1ccc(C(=O)N2CC[C@H](C(=O)NCCCCNC(=O)c3ccc(-c4c5nc(c(-c6cc(S(=O)(=O)[O-])ccc6F)c6ccc([nH]6)c(-c6cc(S(=O)(=O)[O-])ccc6F)c6nc(c(-c7cc(S(=O)(=O)[O-])ccc7F)c7ccc4[nH]7)C=C6)C=C5)cc3)[C@@H]2C)s1
REMARK SMILES IDX 17 1 16 2 15 3 13 4 14 5 12 7 9 8 10 9 86 10 11 11 87 12
REMARK SMILES IDX 7 13 8 14 6 15 3 16 4 17 88 18 5 19 2 20 1 21 18 22 19 23
REMARK SMILES IDX 20 24 21 25 22 27 23 28 24 29 85 30 25 31 84 32 26 33 27 34
REMARK SMILES IDX 28 35 78 36 29 37 83 38 77 39 79 40 30 41 82 42 76 43 75 44
REMARK SMILES IDX 31 46 63 47 43 48 62 49 44 50 47 51 61 52 80 53 45 54 46 55
REMARK SMILES IDX 60 57 81 58 48 59 32 60 33 61 41 62 34 63 40 64 42 65 39 66
REMARK SMILES IDX 35 67 36 68 37 69 38 70 64 71 65 72 73 73 66 74 72 75 74 76
REMARK SMILES IDX 71 77 67 78 68 79 69 80 70 81 49 82 50 83 58 84 51 85 57 86
REMARK SMILES IDX 59 87 56 88 52 89 53 90 54 91 55 92
REMARK H PARENT 15 6 20 26 79 45 47 56
REMARK Flexibility Score: inf
ROOT
ATOM      1  C   UNL A   1      34.727  23.454  24.179  1.00  0.00     0.023 C 
ENDROOT
BRANCH   1   2
ATOM      2  C   UNL A   1      34.330  24.452  25.266  1.00  0.00     0.116 C 
BRANCH   2   3
ATOM      3  N   UNL A   1      33.501  23.821  26.257  1.00  0.00    -0.356 N 
ATOM      4  C   UNL A   1      32.228  23.947  26.657  1.00  0.00     0.225 C 
ATOM      5  O   UNL A   1      31.974  23.227  27.638  1.00  0.00    -0.275 OA
ATOM      6  H   UNL A   1      33.986  23.130  26.765  1.00  0.00     0.163 HD
BRANCH   4   7
ATOM      7  C   UNL A   1      31.058  24.699  25.988  1.00  0.00     0.102 C 
ATOM      8  N   UNL A   1      31.243  26.327  24.210  1.00  0.00    -0.334 N 
ATOM      9  C   UNL A   1      31.914  26.854  25.376  1.00  0.00     0.121 C 
ATOM     10  C   UNL A   1      30.683  24.999  24.510  1.00  0.00     0.094 C 
ATOM     11  C   UNL A   1      31.165  26.166  26.507  1.00  0.00     0.037 C 
ATOM     12  C   UNL A   1      30.928  24.002  23.399  1.00  0.00     0.032 C 
BRANCH   8  13
ATOM     13  C   UNL A   1      31.035  27.163  23.114  1.00  0.00     0.264 C 
ATOM     14  O   UNL A   1      31.901  27.246  22.241  1.00  0.00    -0.268 OA
BRANCH  13  15
ATOM     15  C   UNL A   1      29.832  27.989  23.089  1.00  0.00     0.092 A 
ATOM     16  C   UNL A   1      28.275  29.927  23.181  1.00  0.00     0.005 A 
ATOM     17  C   UNL A   1      27.612  28.717  23.189  1.00  0.00     0.016 A 
ATOM     18  S   UNL A   1      29.975  29.698  23.075  1.00  0.00    -0.135 S 
ATOM     19  C   UNL A   1      28.506  27.611  23.186  1.00  0.00     0.026 A 
BRANCH  16  20
ATOM     20  C   UNL A   1      27.725  31.324  23.265  1.00  0.00     0.043 C 
ATOM     21  C   UNL A   1      28.281  32.261  22.201  1.00  0.00     0.010 C 
ENDBRANCH  16  20
ENDBRANCH  13  15
ENDBRANCH   8  13
ENDBRANCH   4   7
ENDBRANCH   2   3
ENDBRANCH   1   2
BRANCH   1  22
ATOM     22  C   UNL A   1      36.166  22.947  24.286  1.00  0.00     0.023 C 
BRANCH  22  23
ATOM     23  C   UNL A   1      36.825  23.224  25.632  1.00  0.00     0.116 C 
BRANCH  23  24
ATOM     24  N   UNL A   1      37.930  22.326  25.939  1.00  0.00    -0.352 N 
ATOM     25  C   UNL A   1      39.139  22.650  26.511  1.00  0.00     0.251 C 
ATOM     26  H   UNL A   1      37.797  21.378  25.711  1.00  0.00     0.163 HD
ATOM     27  O   UNL A   1      40.016  21.803  26.635  1.00  0.00    -0.269 OA
BRANCH  25  28
ATOM     28  C   UNL A   1      39.371  24.051  26.910  1.00  0.00     0.039 A 
ATOM     29  C   UNL A   1      39.164  24.417  28.239  1.00  0.00     0.014 A 
ATOM     30  C   UNL A   1      39.885  24.967  25.988  1.00  0.00     0.014 A 
ATOM     31  C   UNL A   1      39.536  25.692  28.664  1.00  0.00     0.010 A 
ATOM     32  C   UNL A   1      40.333  26.206  26.432  1.00  0.00     0.010 A 
ATOM     33  C   UNL A   1      40.157  26.582  27.773  1.00  0.00    -0.014 A 
BRANCH  33  34
ATOM     34  C   UNL A   1      40.603  27.928  28.215  1.00  0.00     0.031 A 
ATOM     35  C   UNL A   1      42.067  28.268  28.185  1.00  0.00     0.074 A 
ATOM     36  C   UNL A   1      39.706  28.808  28.700  1.00  0.00     0.049 A 
ATOM     37  N   UNL A   1      42.677  29.349  28.599  1.00  0.00    -0.248 NA
ATOM     38  C   UNL A   1      42.971  27.234  27.656  1.00  0.00     0.031 C 
ATOM     39  C   UNL A   1      38.266  28.567  28.827  1.00  0.00     0.029 A 
ATOM     40  N   UNL A   1      39.871  30.081  29.183  1.00  0.00    -0.354 N 
ATOM     41  C   UNL A   1      44.033  29.117  28.398  1.00  0.00     0.074 A 
ATOM     42  C   UNL A   1      44.159  27.766  27.896  1.00  0.00     0.031 C 
ATOM     43  C   UNL A   1      37.678  29.667  29.326  1.00  0.00     0.029 A 
ATOM     44  C   UNL A   1      38.700  30.676  29.591  1.00  0.00     0.049 A 
ATOM     45  H   UNL A   1      40.747  30.528  29.233  1.00  0.00     0.167 HD
ATOM     46  C   UNL A   1      45.075  29.965  28.584  1.00  0.00     0.034 A 
ATOM     47  C   UNL A   1      38.477  31.894  30.122  1.00  0.00     0.034 A 
ATOM     48  C   UNL A   1      44.924  31.317  29.061  1.00  0.00     0.049 A 
ATOM     49  C   UNL A   1      39.650  32.823  30.316  1.00  0.00     0.074 A 
ATOM     50  C   UNL A   1      45.899  32.285  29.235  1.00  0.00     0.029 A 
ATOM     51  N   UNL A   1      43.719  31.895  29.441  1.00  0.00    -0.354 N 
ATOM     52  N   UNL A   1      40.923  32.611  30.069  1.00  0.00    -0.248 NA
ATOM     53  C   UNL A   1      39.353  34.161  30.844  1.00  0.00     0.031 C 
ATOM     54  C   UNL A   1      45.292  33.425  29.774  1.00  0.00     0.029 A 
ATOM     55  C   UNL A   1      43.928  33.196  29.870  1.00  0.00     0.049 A 
ATOM     56  H   UNL A   1      42.844  31.446  29.410  1.00  0.00     0.167 HD
ATOM     57  C   UNL A   1      41.573  33.801  30.382  1.00  0.00     0.074 A 
ATOM     58  C   UNL A   1      40.551  34.730  30.820  1.00  0.00     0.031 C 
ATOM     59  C   UNL A   1      42.895  34.104  30.308  1.00  0.00     0.034 A 
BRANCH  46  60
ATOM     60  C   UNL A   1      46.458  29.436  28.287  1.00  0.00     0.023 A 
ATOM     61  C   UNL A   1      47.228  28.793  29.274  1.00  0.00     0.031 A 
ATOM     62  C   UNL A   1      47.036  29.617  27.020  1.00  0.00     0.131 A 
ATOM     63  C   UNL A   1      48.559  28.440  29.007  1.00  0.00     0.055 A 
ATOM     64  C   UNL A   1      48.332  29.182  26.731  1.00  0.00     0.041 A 
ATOM     65  F   UNL A   1      46.360  30.242  26.042  1.00  0.00    -0.206 F 
ATOM     66  C   UNL A   1      49.108  28.606  27.733  1.00  0.00     0.022 A 
BRANCH  63  67
ATOM     67  S   UNL A   1      49.608  27.914  30.389  1.00  0.00     0.124 S 
ATOM     68  O   UNL A   1      50.917  28.412  29.970  1.00  0.00    -0.237 OA
ATOM     69  O   UNL A   1      48.999  28.596  31.525  1.00  0.00    -0.237 OA
ATOM     70  O   UNL A   1      49.473  26.459  30.387  1.00  0.00    -0.744 OA
ENDBRANCH  63  67
ENDBRANCH  46  60
BRANCH  47  71
ATOM     71  C   UNL A   1      37.100  32.317  30.505  1.00  0.00     0.023 A 
ATOM     72  C   UNL A   1      36.220  32.862  29.556  1.00  0.00     0.031 A 
ATOM     73  C   UNL A   1      36.655  32.221  31.836  1.00  0.00     0.131 A 
ATOM     74  C   UNL A   1      34.962  33.336  29.957  1.00  0.00     0.055 A 
ATOM     75  C   UNL A   1      35.383  32.648  32.221  1.00  0.00     0.041 A 
ATOM     76  F   UNL A   1      37.453  31.700  32.782  1.00  0.00    -0.206 F 
ATOM     77  C   UNL A   1      34.533  33.223  31.281  1.00  0.00     0.022 A 
BRANCH  74  78
ATOM     78  S   UNL A   1      33.924  34.185  28.734  1.00  0.00     0.124 S 
ATOM     79  O   UNL A   1      33.674  33.122  27.768  1.00  0.00    -0.237 OA
ATOM     80  O   UNL A   1      32.782  34.599  29.543  1.00  0.00    -0.237 OA
ATOM     81  O   UNL A   1      34.777  35.273  28.261  1.00  0.00    -0.744 OA
ENDBRANCH  74  78
ENDBRANCH  47  71
BRANCH  59  82
ATOM     82  C   UNL A   1      43.294  35.514  30.664  1.00  0.00     0.023 A 
ATOM     83  C   UNL A   1      43.370  36.529  29.696  1.00  0.00     0.031 A 
ATOM     84  C   UNL A   1      43.607  35.842  31.995  1.00  0.00     0.131 A 
ATOM     85  C   UNL A   1      43.804  37.813  30.062  1.00  0.00     0.055 A 
ATOM     86  C   UNL A   1      43.982  37.135  32.365  1.00  0.00     0.041 A 
ATOM     87  F   UNL A   1      43.551  34.910  32.960  1.00  0.00    -0.206 F 
ATOM     88  C   UNL A   1      44.095  38.125  31.393  1.00  0.00     0.022 A 
BRANCH  85  89
ATOM     89  S   UNL A   1      44.069  39.047  28.761  1.00  0.00     0.124 S 
ATOM     90  O   UNL A   1      43.336  40.197  29.279  1.00  0.00    -0.237 OA
ATOM     91  O   UNL A   1      45.523  39.173  28.742  1.00  0.00    -0.237 OA
ATOM     92  O   UNL A   1      43.487  38.423  27.573  1.00  0.00    -0.744 OA
ENDBRANCH  85  89
ENDBRANCH  59  82
ENDBRANCH  33  34
ENDBRANCH  25  28
ENDBRANCH  23  24
ENDBRANCH  22  23
ENDBRANCH   1  22
TORSDOF 17
ENDMDL
