MODEL 1
REMARK VINA RESULT:     -11.1      0.000      0.000
REMARK SMILES CC[C@](C)(NC(=O)N1CCC[C@@H]1C)C(=O)NCCCCNC(=O)c1ccc(-c2c3nc(c(-c4cc(S(=O)(=O)[O-])ccc4F)c4ccc([nH]4)c(-c4cc(S(=O)(=O)[O-])ccc4F)c4nc(c(-c5cc(S(=O)(=O)[O-])ccc5F)c5ccc2[nH]5)C=C4)C=C3)cc1
REMARK SMILES IDX 19 1 18 2 17 3 16 4 14 5 15 6 3 8 4 9 2 10 1 11 5 12 6 13
REMARK SMILES IDX 7 15 8 16 9 17 12 18 10 19 11 20 13 21 20 22 21 23 22 24
REMARK SMILES IDX 23 26 24 27 25 28 86 29 26 30 85 31 27 32 28 33 29 34 79 35
REMARK SMILES IDX 30 36 84 37 78 38 80 39 31 40 83 41 77 42 76 43 32 45 64 46
REMARK SMILES IDX 44 47 63 48 45 49 48 50 62 51 81 52 46 53 47 54 61 56 82 57
REMARK SMILES IDX 49 58 33 59 34 60 42 61 35 62 41 63 43 64 40 65 36 66 37 67
REMARK SMILES IDX 38 68 39 69 65 70 66 71 74 72 67 73 73 74 75 75 72 76 68 77
REMARK SMILES IDX 69 78 70 79 71 80 50 81 51 82 59 83 52 84 58 85 60 86 57 87
REMARK SMILES IDX 53 88 54 89 55 90 56 91
REMARK H PARENT 16 7 5 14 21 25 80 44 48 55
REMARK Flexibility Score: inf
ROOT
ATOM      1  C   UNL A   1      38.146  19.360  24.800  1.00  0.00     0.023 C 
ENDROOT
BRANCH   1   2
ATOM      2  C   UNL A   1      36.656  19.634  25.019  1.00  0.00     0.023 C 
BRANCH   2   3
ATOM      3  C   UNL A   1      36.079  21.054  25.209  1.00  0.00     0.116 C 
BRANCH   3   4
ATOM      4  N   UNL A   1      35.334  21.455  26.408  1.00  0.00    -0.354 N 
ATOM      5  C   UNL A   1      34.011  21.672  26.721  1.00  0.00     0.245 C 
ATOM      6  O   UNL A   1      33.739  21.906  27.905  1.00  0.00    -0.272 OA
ATOM      7  H   UNL A   1      35.927  21.606  27.179  1.00  0.00     0.163 HD
BRANCH   5   8
ATOM      8  C   UNL A   1      32.896  21.476  25.687  1.00  0.00     0.117 C 
ATOM      9  C   UNL A   1      32.618  20.045  25.195  1.00  0.00     0.045 C 
BRANCH   8  10
ATOM     10  C   UNL A   1      33.334  22.314  24.431  1.00  0.00     0.035 C 
ATOM     11  C   UNL A   1      32.639  21.913  23.117  1.00  0.00     0.007 C 
ENDBRANCH   8  10
BRANCH   8  12
ATOM     12  N   UNL A   1      31.658  21.978  26.292  1.00  0.00    -0.324 N 
ATOM     13  C   UNL A   1      31.130  23.184  26.564  1.00  0.00     0.318 C 
ATOM     14  H   UNL A   1      31.062  21.245  26.570  1.00  0.00     0.166 HD
ATOM     15  O   UNL A   1      30.275  23.115  27.461  1.00  0.00    -0.249 OA
BRANCH  13  16
ATOM     16  N   UNL A   1      31.419  24.379  25.969  1.00  0.00    -0.322 N 
ATOM     17  C   UNL A   1      30.566  24.697  24.826  1.00  0.00     0.122 C 
ATOM     18  C   UNL A   1      32.316  25.555  26.209  1.00  0.00     0.083 C 
ATOM     19  C   UNL A   1      30.431  26.205  24.841  1.00  0.00     0.024 C 
ATOM     20  C   UNL A   1      31.819  26.643  25.222  1.00  0.00     0.027 C 
ATOM     21  C   UNL A   1      33.806  25.434  25.870  1.00  0.00     0.031 C 
ENDBRANCH  13  16
ENDBRANCH   8  12
ENDBRANCH   5   8
ENDBRANCH   3   4
ENDBRANCH   2   3
ENDBRANCH   1   2
BRANCH   1  22
ATOM     22  C   UNL A   1      39.127  20.037  25.746  1.00  0.00     0.116 C 
BRANCH  22  23
ATOM     23  N   UNL A   1      40.263  19.193  26.053  1.00  0.00    -0.352 N 
ATOM     24  C   UNL A   1      41.553  19.553  26.377  1.00  0.00     0.251 C 
ATOM     25  H   UNL A   1      40.091  18.224  26.026  1.00  0.00     0.163 HD
ATOM     26  O   UNL A   1      42.411  18.686  26.459  1.00  0.00    -0.269 OA
BRANCH  24  27
ATOM     27  C   UNL A   1      41.911  20.981  26.587  1.00  0.00     0.039 A 
ATOM     28  C   UNL A   1      42.198  21.407  27.888  1.00  0.00     0.014 A 
ATOM     29  C   UNL A   1      41.929  21.906  25.538  1.00  0.00     0.014 A 
ATOM     30  C   UNL A   1      42.541  22.741  28.131  1.00  0.00     0.010 A 
ATOM     31  C   UNL A   1      42.327  23.227  25.774  1.00  0.00     0.010 A 
ATOM     32  C   UNL A   1      42.631  23.662  27.074  1.00  0.00    -0.014 A 
BRANCH  32  33
ATOM     33  C   UNL A   1      43.029  25.075  27.332  1.00  0.00     0.031 A 
ATOM     34  C   UNL A   1      42.071  26.032  27.992  1.00  0.00     0.074 A 
ATOM     35  C   UNL A   1      44.253  25.506  26.961  1.00  0.00     0.049 A 
ATOM     36  N   UNL A   1      42.238  27.294  28.299  1.00  0.00    -0.248 NA
ATOM     37  C   UNL A   1      40.742  25.504  28.334  1.00  0.00     0.031 C 
ATOM     38  C   UNL A   1      45.266  24.686  26.295  1.00  0.00     0.029 A 
ATOM     39  N   UNL A   1      44.857  26.733  27.096  1.00  0.00    -0.354 N 
ATOM     40  C   UNL A   1      41.039  27.713  28.866  1.00  0.00     0.074 A 
ATOM     41  C   UNL A   1      40.134  26.583  28.803  1.00  0.00     0.031 C 
ATOM     42  C   UNL A   1      46.375  25.422  26.110  1.00  0.00     0.029 A 
ATOM     43  C   UNL A   1      46.139  26.778  26.599  1.00  0.00     0.049 A 
ATOM     44  H   UNL A   1      44.413  27.508  27.508  1.00  0.00     0.167 HD
ATOM     45  C   UNL A   1      40.727  28.918  29.407  1.00  0.00     0.034 A 
ATOM     46  C   UNL A   1      47.024  27.793  26.535  1.00  0.00     0.034 A 
ATOM     47  C   UNL A   1      41.640  30.036  29.465  1.00  0.00     0.049 A 
ATOM     48  C   UNL A   1      46.636  29.139  27.097  1.00  0.00     0.074 A 
ATOM     49  C   UNL A   1      41.440  31.281  30.037  1.00  0.00     0.029 A 
ATOM     50  N   UNL A   1      42.918  30.054  28.919  1.00  0.00    -0.354 N 
ATOM     51  N   UNL A   1      45.516  29.501  27.679  1.00  0.00    -0.248 NA
ATOM     52  C   UNL A   1      47.637  30.210  27.002  1.00  0.00     0.031 C 
ATOM     53  C   UNL A   1      42.559  32.076  29.764  1.00  0.00     0.029 A 
ATOM     54  C   UNL A   1      43.498  31.301  29.103  1.00  0.00     0.049 A 
ATOM     55  H   UNL A   1      43.348  29.293  28.468  1.00  0.00     0.167 HD
ATOM     56  C   UNL A   1      45.694  30.831  28.051  1.00  0.00     0.074 A 
ATOM     57  C   UNL A   1      47.032  31.201  27.640  1.00  0.00     0.031 C 
ATOM     58  C   UNL A   1      44.830  31.669  28.680  1.00  0.00     0.034 A 
BRANCH  45  59
ATOM     59  C   UNL A   1      39.326  29.101  29.946  1.00  0.00     0.023 A 
ATOM     60  C   UNL A   1      38.298  29.663  29.169  1.00  0.00     0.031 A 
ATOM     61  C   UNL A   1      39.016  28.722  31.265  1.00  0.00     0.131 A 
ATOM     62  C   UNL A   1      37.038  29.900  29.737  1.00  0.00     0.055 A 
ATOM     63  C   UNL A   1      37.736  28.881  31.798  1.00  0.00     0.041 A 
ATOM     64  F   UNL A   1      39.959  28.200  32.066  1.00  0.00    -0.206 F 
ATOM     65  C   UNL A   1      36.740  29.489  31.038  1.00  0.00     0.022 A 
BRANCH  62  66
ATOM     66  S   UNL A   1      35.839  30.894  28.805  1.00  0.00     0.124 S 
ATOM     67  O   UNL A   1      35.198  31.659  29.871  1.00  0.00    -0.237 OA
ATOM     68  O   UNL A   1      36.694  31.651  27.899  1.00  0.00    -0.237 OA
ATOM     69  O   UNL A   1      34.985  29.892  28.169  1.00  0.00    -0.744 OA
ENDBRANCH  62  66
ENDBRANCH  45  59
BRANCH  46  70
ATOM     70  C   UNL A   1      48.365  27.594  25.906  1.00  0.00     0.023 A 
ATOM     71  C   UNL A   1      48.536  27.684  24.516  1.00  0.00     0.031 A 
ATOM     72  C   UNL A   1      49.487  27.257  26.686  1.00  0.00     0.131 A 
ATOM     73  C   UNL A   1      49.783  27.390  23.942  1.00  0.00     0.055 A 
ATOM     74  C   UNL A   1      50.740  27.025  26.116  1.00  0.00     0.041 A 
ATOM     75  F   UNL A   1      49.381  27.155  28.020  1.00  0.00    -0.206 F 
ATOM     76  C   UNL A   1      50.890  27.077  24.735  1.00  0.00     0.022 A 
BRANCH  73  77
ATOM     77  S   UNL A   1      49.915  27.326  22.134  1.00  0.00     0.124 S 
ATOM     78  O   UNL A   1      49.651  28.712  21.768  1.00  0.00    -0.237 OA
ATOM     79  O   UNL A   1      51.286  26.861  21.947  1.00  0.00    -0.237 OA
ATOM     80  O   UNL A   1      48.877  26.370  21.752  1.00  0.00    -0.744 OA
ENDBRANCH  73  77
ENDBRANCH  46  70
BRANCH  58  81
ATOM     81  C   UNL A   1      45.328  33.058  29.008  1.00  0.00     0.023 A 
ATOM     82  C   UNL A   1      45.053  34.162  28.181  1.00  0.00     0.031 A 
ATOM     83  C   UNL A   1      46.101  33.277  30.163  1.00  0.00     0.131 A 
ATOM     84  C   UNL A   1      45.594  35.420  28.490  1.00  0.00     0.055 A 
ATOM     85  C   UNL A   1      46.579  34.544  30.501  1.00  0.00     0.041 A 
ATOM     86  F   UNL A   1      46.401  32.261  30.988  1.00  0.00    -0.206 F 
ATOM     87  C   UNL A   1      46.339  35.622  29.656  1.00  0.00     0.022 A 
BRANCH  84  88
ATOM     88  S   UNL A   1      45.399  36.771  27.295  1.00  0.00     0.124 S 
ATOM     89  O   UNL A   1      46.523  36.543  26.393  1.00  0.00    -0.237 OA
ATOM     90  O   UNL A   1      44.074  36.509  26.742  1.00  0.00    -0.237 OA
ATOM     91  O   UNL A   1      45.499  37.975  28.118  1.00  0.00    -0.744 OA
ENDBRANCH  84  88
ENDBRANCH  58  81
ENDBRANCH  32  33
ENDBRANCH  24  27
ENDBRANCH  22  23
ENDBRANCH   1  22
TORSDOF 17
ENDMDL
MODEL 2
REMARK VINA RESULT:     -11.0      6.236      9.937
REMARK SMILES CC[C@](C)(NC(=O)N1CCC[C@@H]1C)C(=O)NCCCCNC(=O)c1ccc(-c2c3nc(c(-c4cc(S(=O)(=O)[O-])ccc4F)c4ccc([nH]4)c(-c4cc(S(=O)(=O)[O-])ccc4F)c4nc(c(-c5cc(S(=O)(=O)[O-])ccc5F)c5ccc2[nH]5)C=C4)C=C3)cc1
REMARK SMILES IDX 19 1 18 2 17 3 16 4 14 5 15 6 3 8 4 9 2 10 1 11 5 12 6 13
REMARK SMILES IDX 7 15 8 16 9 17 12 18 10 19 11 20 13 21 20 22 21 23 22 24
REMARK SMILES IDX 23 26 24 27 25 28 86 29 26 30 85 31 27 32 28 33 29 34 79 35
REMARK SMILES IDX 30 36 84 37 78 38 80 39 31 40 83 41 77 42 76 43 32 45 64 46
REMARK SMILES IDX 44 47 63 48 45 49 48 50 62 51 81 52 46 53 47 54 61 56 82 57
REMARK SMILES IDX 49 58 33 59 34 60 42 61 35 62 41 63 43 64 40 65 36 66 37 67
REMARK SMILES IDX 38 68 39 69 65 70 66 71 74 72 67 73 73 74 75 75 72 76 68 77
REMARK SMILES IDX 69 78 70 79 71 80 50 81 51 82 59 83 52 84 58 85 60 86 57 87
REMARK SMILES IDX 53 88 54 89 55 90 56 91
REMARK H PARENT 16 7 5 14 21 25 80 44 48 55
REMARK Flexibility Score: inf
ROOT
ATOM      1  C   UNL A   1      31.656  32.192  26.951  1.00  0.00     0.023 C 
ENDROOT
BRANCH   1   2
ATOM      2  C   UNL A   1      31.808  30.699  26.647  1.00  0.00     0.023 C 
BRANCH   2   3
ATOM      3  C   UNL A   1      31.526  30.089  25.256  1.00  0.00     0.116 C 
BRANCH   3   4
ATOM      4  N   UNL A   1      32.588  29.569  24.388  1.00  0.00    -0.354 N 
ATOM      5  C   UNL A   1      32.672  28.622  23.392  1.00  0.00     0.245 C 
ATOM      6  O   UNL A   1      33.748  28.525  22.790  1.00  0.00    -0.272 OA
ATOM      7  H   UNL A   1      33.454  30.004  24.560  1.00  0.00     0.163 HD
BRANCH   5   8
ATOM      8  C   UNL A   1      31.444  27.827  22.930  1.00  0.00     0.117 C 
ATOM      9  C   UNL A   1      30.228  28.619  22.420  1.00  0.00     0.045 C 
BRANCH   8  10
ATOM     10  C   UNL A   1      30.966  27.019  24.191  1.00  0.00     0.035 C 
ATOM     11  C   UNL A   1      29.564  26.397  24.063  1.00  0.00     0.007 C 
ENDBRANCH   8  10
BRANCH   8  12
ATOM     12  N   UNL A   1      31.886  26.952  21.839  1.00  0.00    -0.324 N 
ATOM     13  C   UNL A   1      32.680  25.875  21.719  1.00  0.00     0.318 C 
ATOM     14  H   UNL A   1      31.503  27.224  20.973  1.00  0.00     0.166 HD
ATOM     15  O   UNL A   1      33.099  25.743  20.559  1.00  0.00    -0.249 OA
BRANCH  13  16
ATOM     16  N   UNL A   1      33.021  24.974  22.687  1.00  0.00    -0.322 N 
ATOM     17  C   UNL A   1      32.122  23.825  22.776  1.00  0.00     0.122 C 
ATOM     18  C   UNL A   1      34.142  24.749  23.656  1.00  0.00     0.083 C 
ATOM     19  C   UNL A   1      33.000  22.667  23.200  1.00  0.00     0.024 C 
ATOM     20  C   UNL A   1      33.916  23.315  24.202  1.00  0.00     0.027 C 
ATOM     21  C   UNL A   1      34.206  25.599  24.929  1.00  0.00     0.031 C 
ENDBRANCH  13  16
ENDBRANCH   8  12
ENDBRANCH   5   8
ENDBRANCH   3   4
ENDBRANCH   2   3
ENDBRANCH   1   2
BRANCH   1  22
ATOM     22  C   UNL A   1      32.920  32.967  27.294  1.00  0.00     0.116 C 
BRANCH  22  23
ATOM     23  N   UNL A   1      32.632  34.209  27.980  1.00  0.00    -0.352 N 
ATOM     24  C   UNL A   1      33.239  34.751  29.092  1.00  0.00     0.251 C 
ATOM     25  H   UNL A   1      31.898  34.743  27.598  1.00  0.00     0.163 HD
ATOM     26  O   UNL A   1      32.753  35.745  29.611  1.00  0.00    -0.269 OA
BRANCH  24  27
ATOM     27  C   UNL A   1      34.447  34.115  29.681  1.00  0.00     0.039 A 
ATOM     28  C   UNL A   1      34.274  33.232  30.752  1.00  0.00     0.014 A 
ATOM     29  C   UNL A   1      35.737  34.403  29.226  1.00  0.00     0.014 A 
ATOM     30  C   UNL A   1      35.383  32.611  31.336  1.00  0.00     0.010 A 
ATOM     31  C   UNL A   1      36.840  33.738  29.774  1.00  0.00     0.010 A 
ATOM     32  C   UNL A   1      36.677  32.839  30.839  1.00  0.00    -0.014 A 
BRANCH  32  33
ATOM     33  C   UNL A   1      37.853  32.149  31.442  1.00  0.00     0.031 A 
ATOM     34  C   UNL A   1      38.360  32.550  32.803  1.00  0.00     0.074 A 
ATOM     35  C   UNL A   1      38.476  31.166  30.761  1.00  0.00     0.049 A 
ATOM     36  N   UNL A   1      39.365  32.066  33.490  1.00  0.00    -0.248 NA
ATOM     37  C   UNL A   1      37.656  33.654  33.471  1.00  0.00     0.031 C 
ATOM     38  C   UNL A   1      38.097  30.698  29.426  1.00  0.00     0.029 A 
ATOM     39  N   UNL A   1      39.553  30.379  31.093  1.00  0.00    -0.354 N 
ATOM     40  C   UNL A   1      39.418  32.806  34.667  1.00  0.00     0.074 A 
ATOM     41  C   UNL A   1      38.379  33.810  34.571  1.00  0.00     0.031 C 
ATOM     42  C   UNL A   1      38.905  29.686  29.070  1.00  0.00     0.029 A 
ATOM     43  C   UNL A   1      39.890  29.461  30.125  1.00  0.00     0.049 A 
ATOM     44  H   UNL A   1      40.038  30.465  31.946  1.00  0.00     0.167 HD
ATOM     45  C   UNL A   1      40.240  32.649  35.735  1.00  0.00     0.034 A 
ATOM     46  C   UNL A   1      40.881  28.548  30.084  1.00  0.00     0.034 A 
ATOM     47  C   UNL A   1      41.271  31.642  35.819  1.00  0.00     0.049 A 
ATOM     48  C   UNL A   1      41.815  28.427  31.263  1.00  0.00     0.074 A 
ATOM     49  C   UNL A   1      42.121  31.366  36.876  1.00  0.00     0.029 A 
ATOM     50  N   UNL A   1      41.605  30.754  34.803  1.00  0.00    -0.354 N 
ATOM     51  N   UNL A   1      41.814  29.100  32.392  1.00  0.00    -0.248 NA
ATOM     52  C   UNL A   1      42.877  27.417  31.168  1.00  0.00     0.031 C 
ATOM     53  C   UNL A   1      43.021  30.375  36.471  1.00  0.00     0.029 A 
ATOM     54  C   UNL A   1      42.675  29.962  35.194  1.00  0.00     0.049 A 
ATOM     55  H   UNL A   1      41.148  30.695  33.934  1.00  0.00     0.167 HD
ATOM     56  C   UNL A   1      42.853  28.567  33.152  1.00  0.00     0.074 A 
ATOM     57  C   UNL A   1      43.446  27.510  32.361  1.00  0.00     0.031 C 
ATOM     58  C   UNL A   1      43.272  28.917  34.395  1.00  0.00     0.034 A 
BRANCH  45  59
ATOM     59  C   UNL A   1      40.080  33.617  36.887  1.00  0.00     0.023 A 
ATOM     60  C   UNL A   1      39.447  33.246  38.086  1.00  0.00     0.031 A 
ATOM     61  C   UNL A   1      40.555  34.937  36.778  1.00  0.00     0.131 A 
ATOM     62  C   UNL A   1      39.238  34.199  39.094  1.00  0.00     0.055 A 
ATOM     63  C   UNL A   1      40.421  35.858  37.819  1.00  0.00     0.041 A 
ATOM     64  F   UNL A   1      41.148  35.360  35.651  1.00  0.00    -0.206 F 
ATOM     65  C   UNL A   1      39.744  35.496  38.981  1.00  0.00     0.022 A 
BRANCH  62  66
ATOM     66  S   UNL A   1      38.161  33.765  40.488  1.00  0.00     0.124 S 
ATOM     67  O   UNL A   1      37.000  33.207  39.800  1.00  0.00    -0.237 OA
ATOM     68  O   UNL A   1      38.979  32.817  41.235  1.00  0.00    -0.237 OA
ATOM     69  O   UNL A   1      37.925  35.047  41.151  1.00  0.00    -0.744 OA
ENDBRANCH  62  66
ENDBRANCH  45  59
BRANCH  46  70
ATOM     70  C   UNL A   1      41.062  27.676  28.885  1.00  0.00     0.023 A 
ATOM     71  C   UNL A   1      42.081  27.925  27.952  1.00  0.00     0.031 A 
ATOM     72  C   UNL A   1      40.180  26.610  28.626  1.00  0.00     0.131 A 
ATOM     73  C   UNL A   1      42.164  27.155  26.781  1.00  0.00     0.055 A 
ATOM     74  C   UNL A   1      40.303  25.809  27.489  1.00  0.00     0.041 A 
ATOM     75  F   UNL A   1      39.185  26.328  29.482  1.00  0.00    -0.206 F 
ATOM     76  C   UNL A   1      41.291  26.088  26.552  1.00  0.00     0.022 A 
BRANCH  73  77
ATOM     77  S   UNL A   1      43.368  27.630  25.511  1.00  0.00     0.124 S 
ATOM     78  O   UNL A   1      43.979  28.812  26.109  1.00  0.00    -0.237 OA
ATOM     79  O   UNL A   1      44.211  26.441  25.432  1.00  0.00    -0.237 OA
ATOM     80  O   UNL A   1      42.539  27.883  24.335  1.00  0.00    -0.744 OA
ENDBRANCH  73  77
ENDBRANCH  46  70
BRANCH  58  81
ATOM     81  C   UNL A   1      44.402  28.112  34.996  1.00  0.00     0.023 A 
ATOM     82  C   UNL A   1      44.188  26.852  35.584  1.00  0.00     0.031 A 
ATOM     83  C   UNL A   1      45.714  28.620  34.989  1.00  0.00     0.131 A 
ATOM     84  C   UNL A   1      45.256  26.172  36.191  1.00  0.00     0.055 A 
ATOM     85  C   UNL A   1      46.784  27.908  35.533  1.00  0.00     0.041 A 
ATOM     86  F   UNL A   1      45.979  29.820  34.447  1.00  0.00    -0.206 F 
ATOM     87  C   UNL A   1      46.556  26.683  36.151  1.00  0.00     0.022 A 
BRANCH  84  88
ATOM     88  S   UNL A   1      44.908  24.655  37.124  1.00  0.00     0.124 S 
ATOM     89  O   UNL A   1      46.246  24.116  37.337  1.00  0.00    -0.237 OA
ATOM     90  O   UNL A   1      44.230  25.167  38.310  1.00  0.00    -0.237 OA
ATOM     91  O   UNL A   1      44.064  23.880  36.216  1.00  0.00    -0.744 OA
ENDBRANCH  84  88
ENDBRANCH  58  81
ENDBRANCH  32  33
ENDBRANCH  24  27
ENDBRANCH  22  23
ENDBRANCH   1  22
TORSDOF 17
ENDMDL
MODEL 3
REMARK VINA RESULT:     -11.0      6.362     11.402
REMARK SMILES CC[C@](C)(NC(=O)N1CCC[C@@H]1C)C(=O)NCCCCNC(=O)c1ccc(-c2c3nc(c(-c4cc(S(=O)(=O)[O-])ccc4F)c4ccc([nH]4)c(-c4cc(S(=O)(=O)[O-])ccc4F)c4nc(c(-c5cc(S(=O)(=O)[O-])ccc5F)c5ccc2[nH]5)C=C4)C=C3)cc1
REMARK SMILES IDX 19 1 18 2 17 3 16 4 14 5 15 6 3 8 4 9 2 10 1 11 5 12 6 13
REMARK SMILES IDX 7 15 8 16 9 17 12 18 10 19 11 20 13 21 20 22 21 23 22 24
REMARK SMILES IDX 23 26 24 27 25 28 86 29 26 30 85 31 27 32 28 33 29 34 79 35
REMARK SMILES IDX 30 36 84 37 78 38 80 39 31 40 83 41 77 42 76 43 32 45 64 46
REMARK SMILES IDX 44 47 63 48 45 49 48 50 62 51 81 52 46 53 47 54 61 56 82 57
REMARK SMILES IDX 49 58 33 59 34 60 42 61 35 62 41 63 43 64 40 65 36 66 37 67
REMARK SMILES IDX 38 68 39 69 65 70 66 71 74 72 67 73 73 74 75 75 72 76 68 77
REMARK SMILES IDX 69 78 70 79 71 80 50 81 51 82 59 83 52 84 58 85 60 86 57 87
REMARK SMILES IDX 53 88 54 89 55 90 56 91
REMARK H PARENT 16 7 5 14 21 25 80 44 48 55
REMARK Flexibility Score: inf
ROOT
ATOM      1  C   UNL A   1      31.406  32.258  26.935  1.00  0.00     0.023 C 
ENDROOT
BRANCH   1   2
ATOM      2  C   UNL A   1      31.284  31.280  25.763  1.00  0.00     0.023 C 
BRANCH   2   3
ATOM      3  C   UNL A   1      32.035  29.932  25.709  1.00  0.00     0.116 C 
BRANCH   3   4
ATOM      4  N   UNL A   1      33.009  29.607  24.661  1.00  0.00    -0.354 N 
ATOM      5  C   UNL A   1      33.001  28.859  23.505  1.00  0.00     0.245 C 
ATOM      6  O   UNL A   1      34.012  28.902  22.794  1.00  0.00    -0.272 OA
ATOM      7  H   UNL A   1      33.883  30.027  24.825  1.00  0.00     0.163 HD
BRANCH   5   8
ATOM      8  C   UNL A   1      31.740  28.128  23.026  1.00  0.00     0.117 C 
ATOM      9  C   UNL A   1      30.576  28.981  22.494  1.00  0.00     0.045 C 
BRANCH   8  10
ATOM     10  C   UNL A   1      31.201  27.352  24.283  1.00  0.00     0.035 C 
ATOM     11  C   UNL A   1      29.800  26.740  24.108  1.00  0.00     0.007 C 
ENDBRANCH   8  10
BRANCH   8  12
ATOM     12  N   UNL A   1      32.153  27.227  21.945  1.00  0.00    -0.324 N 
ATOM     13  C   UNL A   1      32.860  26.089  21.847  1.00  0.00     0.318 C 
ATOM     14  H   UNL A   1      31.828  27.534  21.067  1.00  0.00     0.166 HD
ATOM     15  O   UNL A   1      33.313  25.930  20.702  1.00  0.00    -0.249 OA
BRANCH  13  16
ATOM     16  N   UNL A   1      33.087  25.156  22.819  1.00  0.00    -0.322 N 
ATOM     17  C   UNL A   1      32.114  24.066  22.839  1.00  0.00     0.122 C 
ATOM     18  C   UNL A   1      34.134  24.850  23.846  1.00  0.00     0.083 C 
ATOM     19  C   UNL A   1      32.892  22.850  23.295  1.00  0.00     0.024 C 
ATOM     20  C   UNL A   1      33.787  23.427  24.357  1.00  0.00     0.027 C 
ATOM     21  C   UNL A   1      34.177  25.680  25.134  1.00  0.00     0.031 C 
ENDBRANCH  13  16
ENDBRANCH   8  12
ENDBRANCH   5   8
ENDBRANCH   3   4
ENDBRANCH   2   3
ENDBRANCH   1   2
BRANCH   1  22
ATOM     22  C   UNL A   1      32.801  32.745  27.297  1.00  0.00     0.116 C 
BRANCH  22  23
ATOM     23  N   UNL A   1      32.812  34.140  27.685  1.00  0.00    -0.352 N 
ATOM     24  C   UNL A   1      33.571  34.771  28.646  1.00  0.00     0.251 C 
ATOM     25  H   UNL A   1      32.188  34.721  27.192  1.00  0.00     0.163 HD
ATOM     26  O   UNL A   1      33.328  35.935  28.927  1.00  0.00    -0.269 OA
BRANCH  24  27
ATOM     27  C   UNL A   1      34.646  34.037  29.364  1.00  0.00     0.039 A 
ATOM     28  C   UNL A   1      35.974  34.292  29.008  1.00  0.00     0.014 A 
ATOM     29  C   UNL A   1      34.367  33.081  30.347  1.00  0.00     0.014 A 
ATOM     30  C   UNL A   1      37.017  33.625  29.658  1.00  0.00     0.010 A 
ATOM     31  C   UNL A   1      35.414  32.457  31.035  1.00  0.00     0.010 A 
ATOM     32  C   UNL A   1      36.751  32.716  30.695  1.00  0.00    -0.014 A 
BRANCH  32  33
ATOM     33  C   UNL A   1      37.867  32.032  31.408  1.00  0.00     0.031 A 
ATOM     34  C   UNL A   1      38.623  30.910  30.748  1.00  0.00     0.074 A 
ATOM     35  C   UNL A   1      38.195  32.412  32.661  1.00  0.00     0.049 A 
ATOM     36  N   UNL A   1      39.623  30.198  31.209  1.00  0.00    -0.248 NA
ATOM     37  C   UNL A   1      38.187  30.524  29.398  1.00  0.00     0.031 C 
ATOM     38  C   UNL A   1      37.527  33.471  33.420  1.00  0.00     0.029 A 
ATOM     39  N   UNL A   1      39.173  31.961  33.514  1.00  0.00    -0.354 N 
ATOM     40  C   UNL A   1      39.932  29.279  30.211  1.00  0.00     0.074 A 
ATOM     41  C   UNL A   1      38.973  29.488  29.145  1.00  0.00     0.031 C 
ATOM     42  C   UNL A   1      38.135  33.609  34.610  1.00  0.00     0.029 A 
ATOM     43  C   UNL A   1      39.205  32.620  34.721  1.00  0.00     0.049 A 
ATOM     44  H   UNL A   1      39.793  31.232  33.283  1.00  0.00     0.167 HD
ATOM     45  C   UNL A   1      40.933  28.364  30.176  1.00  0.00     0.034 A 
ATOM     46  C   UNL A   1      39.996  32.447  35.800  1.00  0.00     0.034 A 
ATOM     47  C   UNL A   1      41.884  28.168  31.246  1.00  0.00     0.049 A 
ATOM     48  C   UNL A   1      41.069  31.387  35.757  1.00  0.00     0.074 A 
ATOM     49  C   UNL A   1      42.965  27.305  31.288  1.00  0.00     0.029 A 
ATOM     50  N   UNL A   1      41.861  28.831  32.467  1.00  0.00    -0.354 N 
ATOM     51  N   UNL A   1      41.382  30.564  34.782  1.00  0.00    -0.248 NA
ATOM     52  C   UNL A   1      41.903  31.240  36.957  1.00  0.00     0.031 C 
ATOM     53  C   UNL A   1      43.542  27.384  32.560  1.00  0.00     0.029 A 
ATOM     54  C   UNL A   1      42.881  28.364  33.283  1.00  0.00     0.049 A 
ATOM     55  H   UNL A   1      41.215  29.530  32.716  1.00  0.00     0.167 HD
ATOM     56  C   UNL A   1      42.472  29.829  35.241  1.00  0.00     0.074 A 
ATOM     57  C   UNL A   1      42.770  30.315  36.572  1.00  0.00     0.031 C 
ATOM     58  C   UNL A   1      43.167  28.844  34.615  1.00  0.00     0.034 A 
BRANCH  45  59
ATOM     59  C   UNL A   1      41.027  27.477  28.955  1.00  0.00     0.023 A 
ATOM     60  C   UNL A   1      42.027  27.655  27.983  1.00  0.00     0.031 A 
ATOM     61  C   UNL A   1      40.092  26.446  28.750  1.00  0.00     0.131 A 
ATOM     62  C   UNL A   1      42.023  26.871  26.820  1.00  0.00     0.055 A 
ATOM     63  C   UNL A   1      40.145  25.611  27.633  1.00  0.00     0.041 A 
ATOM     64  F   UNL A   1      39.099  26.239  29.630  1.00  0.00    -0.206 F 
ATOM     65  C   UNL A   1      41.106  25.831  26.650  1.00  0.00     0.022 A 
BRANCH  62  66
ATOM     66  S   UNL A   1      43.138  27.327  25.463  1.00  0.00     0.124 S 
ATOM     67  O   UNL A   1      43.515  26.017  24.938  1.00  0.00    -0.237 OA
ATOM     68  O   UNL A   1      42.278  28.135  24.606  1.00  0.00    -0.237 OA
ATOM     69  O   UNL A   1      44.214  28.054  26.133  1.00  0.00    -0.744 OA
ENDBRANCH  62  66
ENDBRANCH  45  59
BRANCH  46  70
ATOM     70  C   UNL A   1      39.806  33.283  37.023  1.00  0.00     0.023 A 
ATOM     71  C   UNL A   1      40.671  34.349  37.315  1.00  0.00     0.031 A 
ATOM     72  C   UNL A   1      38.786  32.991  37.948  1.00  0.00     0.131 A 
ATOM     73  C   UNL A   1      40.533  35.052  38.523  1.00  0.00     0.055 A 
ATOM     74  C   UNL A   1      38.616  33.732  39.119  1.00  0.00     0.041 A 
ATOM     75  F   UNL A   1      37.932  31.981  37.720  1.00  0.00    -0.206 F 
ATOM     76  C   UNL A   1      39.502  34.761  39.419  1.00  0.00     0.022 A 
BRANCH  73  77
ATOM     77  S   UNL A   1      41.786  36.291  38.955  1.00  0.00     0.124 S 
ATOM     78  O   UNL A   1      41.195  36.913  40.134  1.00  0.00    -0.237 OA
ATOM     79  O   UNL A   1      42.964  35.462  39.188  1.00  0.00    -0.237 OA
ATOM     80  O   UNL A   1      41.848  37.139  37.766  1.00  0.00    -0.744 OA
ENDBRANCH  73  77
ENDBRANCH  46  70
BRANCH  58  81
ATOM     81  C   UNL A   1      44.353  28.261  35.349  1.00  0.00     0.023 A 
ATOM     82  C   UNL A   1      44.200  27.314  36.377  1.00  0.00     0.031 A 
ATOM     83  C   UNL A   1      45.658  28.669  35.019  1.00  0.00     0.131 A 
ATOM     84  C   UNL A   1      45.327  26.851  37.077  1.00  0.00     0.055 A 
ATOM     85  C   UNL A   1      46.779  28.154  35.672  1.00  0.00     0.041 A 
ATOM     86  F   UNL A   1      45.867  29.575  34.050  1.00  0.00    -0.206 F 
ATOM     87  C   UNL A   1      46.617  27.250  36.717  1.00  0.00     0.022 A 
BRANCH  84  88
ATOM     88  S   UNL A   1      45.078  25.797  38.532  1.00  0.00     0.124 S 
ATOM     89  O   UNL A   1      46.343  25.956  39.241  1.00  0.00    -0.237 OA
ATOM     90  O   UNL A   1      43.913  26.408  39.165  1.00  0.00    -0.237 OA
ATOM     91  O   UNL A   1      44.849  24.471  37.962  1.00  0.00    -0.744 OA
ENDBRANCH  84  88
ENDBRANCH  58  81
ENDBRANCH  32  33
ENDBRANCH  24  27
ENDBRANCH  22  23
ENDBRANCH   1  22
TORSDOF 17
ENDMDL
