MODEL 1
REMARK VINA RESULT:     -13.3      0.000      0.000
REMARK SMILES COC(=O)c1c(NC(=O)[C@@H]2C[C@@H]2C(=O)NCCCCNC(=O)c2ccc(-c3c4nc(c(-c5cc(S(=O)(=O)[O-])ccc5F)c5ccc([nH]5)c(-c5cc(S(=O)(=O)[O-])ccc5F)c5nc(c(-c6cc(S(=O)(=O)[O-])ccc6F)c6ccc3[nH]6)C=C5)C=C4)cc2)sc2c1CC[N@@H+](Cc1ccccc1)C2
REMARK SMILES IDX 17 1 16 2 15 3 13 4 14 5 12 7 10 8 11 9 8 10 7 11 9 13 6 14
REMARK SMILES IDX 5 15 88 16 86 17 87 18 89 19 99 20 90 21 91 22 3 24 4 25
REMARK SMILES IDX 2 26 1 27 92 28 93 29 94 30 98 31 95 32 97 33 96 34 18 35
REMARK SMILES IDX 19 36 20 37 21 38 22 40 23 41 24 42 85 43 25 44 84 45 26 46
REMARK SMILES IDX 27 47 28 48 78 49 29 50 83 51 77 52 79 53 30 54 82 55 76 56
REMARK SMILES IDX 75 57 31 59 63 60 43 61 62 62 44 63 47 64 61 65 80 66 45 67
REMARK SMILES IDX 46 68 60 70 81 71 48 72 32 73 33 74 41 75 34 76 40 77 42 78
REMARK SMILES IDX 39 79 35 80 36 81 37 82 38 83 64 84 65 85 73 86 66 87 72 88
REMARK SMILES IDX 74 89 71 90 67 91 68 92 69 93 70 94 49 95 50 96 58 97 51 98
REMARK SMILES IDX 57 99 59 100 56 101 52 102 53 103 54 104 55 105
REMARK H PARENT 15 6 7 12 91 23 20 39 79 58 47 69
REMARK Flexibility Score: inf
ROOT
ATOM      1  C   UNL A   1      31.892  29.508  26.911  1.00  0.00     0.023 C 
ENDROOT
BRANCH   1   2
ATOM      2  C   UNL A   1      31.915  30.470  25.731  1.00  0.00     0.116 C 
BRANCH   2   3
ATOM      3  N   UNL A   1      31.085  30.087  24.616  1.00  0.00    -0.356 N 
ATOM      4  C   UNL A   1      31.235  29.208  23.580  1.00  0.00     0.223 C 
ATOM      5  O   UNL A   1      30.236  29.008  22.891  1.00  0.00    -0.275 OA
ATOM      6  H   UNL A   1      30.223  30.562  24.596  1.00  0.00     0.163 HD
BRANCH   4   7
ATOM      7  C   UNL A   1      32.490  28.553  23.129  1.00  0.00     0.091 C 
ATOM      8  C   UNL A   1      32.857  27.216  22.553  1.00  0.00     0.092 C 
ATOM      9  C   UNL A   1      33.140  27.518  24.005  1.00  0.00     0.028 C 
BRANCH   8  10
ATOM     10  C   UNL A   1      31.964  26.120  22.171  1.00  0.00     0.228 C 
ATOM     11  N   UNL A   1      32.034  24.886  22.741  1.00  0.00    -0.317 N 
ATOM     12  H   UNL A   1      31.522  24.208  22.244  1.00  0.00     0.170 HD
ATOM     13  O   UNL A   1      31.159  26.316  21.262  1.00  0.00    -0.274 OA
BRANCH  11  14
ATOM     14  C   UNL A   1      32.655  24.372  23.851  1.00  0.00     0.110 A 
ATOM     15  C   UNL A   1      32.535  24.363  25.231  1.00  0.00     0.098 A 
ATOM     16  C   UNL A   1      33.460  23.394  25.800  1.00  0.00    -0.006 A 
ATOM     17  S   UNL A   1      33.960  23.394  23.299  1.00  0.00    -0.116 S 
ATOM     18  C   UNL A   1      34.178  22.725  24.831  1.00  0.00     0.065 A 
ATOM     19  C   UNL A   1      33.486  22.911  27.228  1.00  0.00     0.099 C 
ATOM     20  C   UNL A   1      34.947  21.459  25.067  1.00  0.00     0.310 C 
ATOM     21  C   UNL A   1      34.254  21.573  27.395  1.00  0.00     0.267 C 
ATOM     22  N   UNL A   1      34.377  20.716  26.207  1.00  0.00    -0.326 N 
ATOM     23  H   UNL A   1      35.062  20.003  26.458  1.00  0.00     0.348 HD
BRANCH  15  24
ATOM     24  C   UNL A   1      31.548  25.030  26.072  1.00  0.00     0.341 C 
ATOM     25  O   UNL A   1      31.832  25.897  26.877  1.00  0.00    -0.246 OA
BRANCH  24  26
ATOM     26  O   UNL A   1      30.292  24.504  25.941  1.00  0.00    -0.465 OA
ATOM     27  C   UNL A   1      30.005  23.453  26.867  1.00  0.00     0.282 C 
ENDBRANCH  24  26
ENDBRANCH  15  24
BRANCH  22  28
ATOM     28  C   UNL A   1      33.233  19.846  25.897  1.00  0.00     0.299 C 
BRANCH  28  29
ATOM     29  C   UNL A   1      33.307  18.936  24.685  1.00  0.00     0.006 A 
ATOM     30  C   UNL A   1      34.215  17.868  24.636  1.00  0.00     0.009 A 
ATOM     31  C   UNL A   1      32.455  19.132  23.587  1.00  0.00     0.009 A 
ATOM     32  C   UNL A   1      34.219  16.981  23.555  1.00  0.00     0.001 A 
ATOM     33  C   UNL A   1      32.443  18.235  22.516  1.00  0.00     0.001 A 
ATOM     34  C   UNL A   1      33.320  17.154  22.505  1.00  0.00     0.000 A 
ENDBRANCH  28  29
ENDBRANCH  22  28
ENDBRANCH  11  14
ENDBRANCH   8  10
ENDBRANCH   4   7
ENDBRANCH   2   3
ENDBRANCH   1   2
BRANCH   1  35
ATOM     35  C   UNL A   1      33.234  29.309  27.619  1.00  0.00     0.023 C 
BRANCH  35  36
ATOM     36  C   UNL A   1      34.315  30.329  27.266  1.00  0.00     0.116 C 
BRANCH  36  37
ATOM     37  N   UNL A   1      34.362  31.462  28.184  1.00  0.00    -0.352 N 
ATOM     38  C   UNL A   1      35.303  31.697  29.166  1.00  0.00     0.251 C 
ATOM     39  H   UNL A   1      33.645  32.129  28.094  1.00  0.00     0.163 HD
ATOM     40  O   UNL A   1      35.053  32.435  30.111  1.00  0.00    -0.269 OA
BRANCH  38  41
ATOM     41  C   UNL A   1      36.612  31.027  29.057  1.00  0.00     0.039 A 
ATOM     42  C   UNL A   1      37.758  31.635  29.567  1.00  0.00     0.014 A 
ATOM     43  C   UNL A   1      36.665  29.745  28.504  1.00  0.00     0.014 A 
ATOM     44  C   UNL A   1      38.941  30.900  29.616  1.00  0.00     0.010 A 
ATOM     45  C   UNL A   1      37.821  28.993  28.620  1.00  0.00     0.010 A 
ATOM     46  C   UNL A   1      38.966  29.561  29.180  1.00  0.00    -0.014 A 
BRANCH  46  47
ATOM     47  C   UNL A   1      40.147  28.738  29.474  1.00  0.00     0.031 A 
ATOM     48  C   UNL A   1      40.450  28.550  30.922  1.00  0.00     0.074 A 
ATOM     49  C   UNL A   1      40.850  28.013  28.578  1.00  0.00     0.049 A 
ATOM     50  N   UNL A   1      41.460  29.012  31.582  1.00  0.00    -0.248 NA
ATOM     51  C   UNL A   1      39.465  27.857  31.764  1.00  0.00     0.031 C 
ATOM     52  C   UNL A   1      40.567  27.803  27.157  1.00  0.00     0.029 A 
ATOM     53  N   UNL A   1      41.939  27.216  28.794  1.00  0.00    -0.354 N 
ATOM     54  C   UNL A   1      41.365  28.492  32.871  1.00  0.00     0.074 A 
ATOM     55  C   UNL A   1      40.040  27.936  32.966  1.00  0.00     0.031 C 
ATOM     56  C   UNL A   1      41.314  26.775  26.697  1.00  0.00     0.029 A 
ATOM     57  C   UNL A   1      42.241  26.364  27.739  1.00  0.00     0.049 A 
ATOM     58  H   UNL A   1      42.465  27.244  29.626  1.00  0.00     0.167 HD
ATOM     59  C   UNL A   1      42.461  28.391  33.678  1.00  0.00     0.034 A 
ATOM     60  C   UNL A   1      43.173  25.377  27.710  1.00  0.00     0.034 A 
ATOM     61  C   UNL A   1      43.551  29.201  33.174  1.00  0.00     0.049 A 
ATOM     62  C   UNL A   1      44.197  25.708  28.729  1.00  0.00     0.074 A 
ATOM     63  C   UNL A   1      43.700  30.540  32.857  1.00  0.00     0.029 A 
ATOM     64  N   UNL A   1      44.615  28.569  32.568  1.00  0.00    -0.354 N 
ATOM     65  N   UNL A   1      44.987  26.741  28.638  1.00  0.00    -0.248 NA
ATOM     66  C   UNL A   1      44.061  25.153  30.066  1.00  0.00     0.031 C 
ATOM     67  C   UNL A   1      44.492  30.546  31.670  1.00  0.00     0.029 A 
ATOM     68  C   UNL A   1      44.849  29.226  31.385  1.00  0.00     0.049 A 
ATOM     69  H   UNL A   1      45.113  27.795  32.918  1.00  0.00     0.167 HD
ATOM     70  C   UNL A   1      45.079  27.237  29.928  1.00  0.00     0.074 A 
ATOM     71  C   UNL A   1      44.594  26.151  30.778  1.00  0.00     0.031 C 
ATOM     72  C   UNL A   1      45.272  28.569  30.164  1.00  0.00     0.034 A 
BRANCH  59  73
ATOM     73  C   UNL A   1      42.693  27.317  34.724  1.00  0.00     0.023 A 
ATOM     74  C   UNL A   1      43.508  26.226  34.356  1.00  0.00     0.031 A 
ATOM     75  C   UNL A   1      41.949  27.144  35.912  1.00  0.00     0.131 A 
ATOM     76  C   UNL A   1      43.459  25.008  35.057  1.00  0.00     0.055 A 
ATOM     77  C   UNL A   1      41.961  25.954  36.651  1.00  0.00     0.041 A 
ATOM     78  F   UNL A   1      41.105  28.069  36.380  1.00  0.00    -0.206 F 
ATOM     79  C   UNL A   1      42.686  24.864  36.204  1.00  0.00     0.022 A 
BRANCH  76  80
ATOM     80  S   UNL A   1      44.255  23.560  34.314  1.00  0.00     0.124 S 
ATOM     81  O   UNL A   1      44.098  22.568  35.373  1.00  0.00    -0.237 OA
ATOM     82  O   UNL A   1      43.450  23.358  33.115  1.00  0.00    -0.237 OA
ATOM     83  O   UNL A   1      45.625  24.011  34.079  1.00  0.00    -0.744 OA
ENDBRANCH  76  80
ENDBRANCH  59  73
BRANCH  60  84
ATOM     84  C   UNL A   1      43.085  24.066  27.020  1.00  0.00     0.023 A 
ATOM     85  C   UNL A   1      43.993  23.672  26.015  1.00  0.00     0.031 A 
ATOM     86  C   UNL A   1      42.226  23.066  27.529  1.00  0.00     0.131 A 
ATOM     87  C   UNL A   1      44.019  22.331  25.567  1.00  0.00     0.055 A 
ATOM     88  C   UNL A   1      42.251  21.745  27.079  1.00  0.00     0.041 A 
ATOM     89  F   UNL A   1      41.391  23.320  28.549  1.00  0.00    -0.206 F 
ATOM     90  C   UNL A   1      43.158  21.369  26.101  1.00  0.00     0.022 A 
BRANCH  87  91
ATOM     91  S   UNL A   1      45.265  21.789  24.354  1.00  0.00     0.124 S 
ATOM     92  O   UNL A   1      46.419  21.508  25.200  1.00  0.00    -0.237 OA
ATOM     93  O   UNL A   1      44.620  20.639  23.731  1.00  0.00    -0.237 OA
ATOM     94  O   UNL A   1      45.414  22.952  23.478  1.00  0.00    -0.744 OA
ENDBRANCH  87  91
ENDBRANCH  60  84
BRANCH  72  95
ATOM     95  C   UNL A   1      45.730  29.455  29.020  1.00  0.00     0.023 A 
ATOM     96  C   UNL A   1      44.923  30.408  28.359  1.00  0.00     0.031 A 
ATOM     97  C   UNL A   1      47.085  29.386  28.646  1.00  0.00     0.131 A 
ATOM     98  C   UNL A   1      45.471  31.224  27.350  1.00  0.00     0.055 A 
ATOM     99  C   UNL A   1      47.632  30.213  27.665  1.00  0.00     0.041 A 
ATOM    100  F   UNL A   1      47.918  28.522  29.251  1.00  0.00    -0.206 F 
ATOM    101  C   UNL A   1      46.823  31.129  27.005  1.00  0.00     0.022 A 
BRANCH  98 102
ATOM    102  S   UNL A   1      44.425  32.402  26.434  1.00  0.00     0.124 S 
ATOM    103  O   UNL A   1      43.883  33.268  27.474  1.00  0.00    -0.237 OA
ATOM    104  O   UNL A   1      45.380  33.025  25.520  1.00  0.00    -0.237 OA
ATOM    105  O   UNL A   1      43.436  31.540  25.783  1.00  0.00    -0.744 OA
ENDBRANCH  98 102
ENDBRANCH  72  95
ENDBRANCH  46  47
ENDBRANCH  38  41
ENDBRANCH  36  37
ENDBRANCH  35  36
ENDBRANCH   1  35
TORSDOF 20
ENDMDL
MODEL 2
REMARK VINA RESULT:     -13.2      1.997      6.818
REMARK SMILES COC(=O)c1c(NC(=O)[C@@H]2C[C@@H]2C(=O)NCCCCNC(=O)c2ccc(-c3c4nc(c(-c5cc(S(=O)(=O)[O-])ccc5F)c5ccc([nH]5)c(-c5cc(S(=O)(=O)[O-])ccc5F)c5nc(c(-c6cc(S(=O)(=O)[O-])ccc6F)c6ccc3[nH]6)C=C5)C=C4)cc2)sc2c1CC[N@@H+](Cc1ccccc1)C2
REMARK SMILES IDX 17 1 16 2 15 3 13 4 14 5 12 7 10 8 11 9 8 10 7 11 9 13 6 14
REMARK SMILES IDX 5 15 88 16 86 17 87 18 89 19 99 20 90 21 91 22 3 24 4 25
REMARK SMILES IDX 2 26 1 27 92 28 93 29 94 30 98 31 95 32 97 33 96 34 18 35
REMARK SMILES IDX 19 36 20 37 21 38 22 40 23 41 24 42 85 43 25 44 84 45 26 46
REMARK SMILES IDX 27 47 28 48 78 49 29 50 83 51 77 52 79 53 30 54 82 55 76 56
REMARK SMILES IDX 75 57 31 59 63 60 43 61 62 62 44 63 47 64 61 65 80 66 45 67
REMARK SMILES IDX 46 68 60 70 81 71 48 72 32 73 33 74 41 75 34 76 40 77 42 78
REMARK SMILES IDX 39 79 35 80 36 81 37 82 38 83 64 84 65 85 73 86 66 87 72 88
REMARK SMILES IDX 74 89 71 90 67 91 68 92 69 93 70 94 49 95 50 96 58 97 51 98
REMARK SMILES IDX 57 99 59 100 56 101 52 102 53 103 54 104 55 105
REMARK H PARENT 15 6 7 12 91 23 20 39 79 58 47 69
REMARK Flexibility Score: inf
ROOT
ATOM      1  C   UNL A   1      32.567  29.506  27.298  1.00  0.00     0.023 C 
ENDROOT
BRANCH   1   2
ATOM      2  C   UNL A   1      32.507  30.520  26.163  1.00  0.00     0.116 C 
BRANCH   2   3
ATOM      3  N   UNL A   1      31.565  30.209  25.117  1.00  0.00    -0.356 N 
ATOM      4  C   UNL A   1      31.595  29.383  24.029  1.00  0.00     0.223 C 
ATOM      5  O   UNL A   1      30.529  29.236  23.432  1.00  0.00    -0.275 OA
ATOM      6  H   UNL A   1      30.715  30.699  25.205  1.00  0.00     0.163 HD
BRANCH   4   7
ATOM      7  C   UNL A   1      32.786  28.731  23.425  1.00  0.00     0.091 C 
ATOM      8  C   UNL A   1      33.038  27.492  22.616  1.00  0.00     0.092 C 
ATOM      9  C   UNL A   1      33.379  27.518  24.087  1.00  0.00     0.028 C 
BRANCH   8  10
ATOM     10  C   UNL A   1      32.056  26.542  22.088  1.00  0.00     0.228 C 
ATOM     11  N   UNL A   1      31.985  25.250  22.510  1.00  0.00    -0.317 N 
ATOM     12  H   UNL A   1      31.427  24.689  21.925  1.00  0.00     0.170 HD
ATOM     13  O   UNL A   1      31.305  26.921  21.189  1.00  0.00    -0.274 OA
BRANCH  11  14
ATOM     14  C   UNL A   1      32.515  24.552  23.566  1.00  0.00     0.110 A 
ATOM     15  C   UNL A   1      32.209  24.199  24.870  1.00  0.00     0.098 A 
ATOM     16  C   UNL A   1      33.176  23.224  25.356  1.00  0.00    -0.006 A 
ATOM     17  S   UNL A   1      34.009  23.880  23.036  1.00  0.00    -0.116 S 
ATOM     18  C   UNL A   1      34.107  22.888  24.396  1.00  0.00     0.065 A 
ATOM     19  C   UNL A   1      33.074  22.418  26.625  1.00  0.00     0.099 C 
ATOM     20  C   UNL A   1      35.009  21.692  24.470  1.00  0.00     0.310 C 
ATOM     21  C   UNL A   1      33.993  21.168  26.617  1.00  0.00     0.267 C 
ATOM     22  N   UNL A   1      34.399  20.640  25.306  1.00  0.00    -0.326 N 
ATOM     23  H   UNL A   1      35.137  19.964  25.503  1.00  0.00     0.348 HD
BRANCH  15  24
ATOM     24  C   UNL A   1      31.032  24.535  25.662  1.00  0.00     0.341 C 
ATOM     25  O   UNL A   1      30.365  23.706  26.253  1.00  0.00    -0.246 OA
BRANCH  24  26
ATOM     26  O   UNL A   1      30.693  25.857  25.580  1.00  0.00    -0.465 OA
ATOM     27  C   UNL A   1      29.532  26.110  24.786  1.00  0.00     0.282 C 
ENDBRANCH  24  26
ENDBRANCH  15  24
BRANCH  22  28
ATOM     28  C   UNL A   1      33.443  19.754  24.625  1.00  0.00     0.299 C 
BRANCH  28  29
ATOM     29  C   UNL A   1      33.551  18.255  24.835  1.00  0.00     0.006 A 
ATOM     30  C   UNL A   1      34.707  17.554  24.459  1.00  0.00     0.009 A 
ATOM     31  C   UNL A   1      32.501  17.534  25.425  1.00  0.00     0.009 A 
ATOM     32  C   UNL A   1      34.836  16.189  24.734  1.00  0.00     0.001 A 
ATOM     33  C   UNL A   1      32.637  16.176  25.719  1.00  0.00     0.001 A 
ATOM     34  C   UNL A   1      33.809  15.505  25.381  1.00  0.00     0.000 A 
ENDBRANCH  28  29
ENDBRANCH  22  28
ENDBRANCH  11  14
ENDBRANCH   8  10
ENDBRANCH   4   7
ENDBRANCH   2   3
ENDBRANCH   1   2
BRANCH   1  35
ATOM     35  C   UNL A   1      33.772  28.564  27.271  1.00  0.00     0.023 C 
BRANCH  35  36
ATOM     36  C   UNL A   1      35.136  29.249  27.303  1.00  0.00     0.116 C 
BRANCH  36  37
ATOM     37  N   UNL A   1      35.332  30.089  28.479  1.00  0.00    -0.352 N 
ATOM     38  C   UNL A   1      36.345  29.989  29.412  1.00  0.00     0.251 C 
ATOM     39  H   UNL A   1      34.672  30.804  28.623  1.00  0.00     0.163 HD
ATOM     40  O   UNL A   1      36.214  30.463  30.534  1.00  0.00    -0.269 OA
BRANCH  38  41
ATOM     41  C   UNL A   1      37.583  29.285  29.030  1.00  0.00     0.039 A 
ATOM     42  C   UNL A   1      38.315  29.701  27.918  1.00  0.00     0.014 A 
ATOM     43  C   UNL A   1      38.044  28.249  29.845  1.00  0.00     0.014 A 
ATOM     44  C   UNL A   1      39.570  29.139  27.694  1.00  0.00     0.010 A 
ATOM     45  C   UNL A   1      39.320  27.745  29.662  1.00  0.00     0.010 A 
ATOM     46  C   UNL A   1      40.095  28.187  28.589  1.00  0.00    -0.014 A 
BRANCH  46  47
ATOM     47  C   UNL A   1      41.507  27.802  28.473  1.00  0.00     0.031 A 
ATOM     48  C   UNL A   1      41.772  26.586  27.649  1.00  0.00     0.074 A 
ATOM     49  C   UNL A   1      42.564  28.534  28.884  1.00  0.00     0.049 A 
ATOM     50  N   UNL A   1      42.205  25.439  28.055  1.00  0.00    -0.248 NA
ATOM     51  C   UNL A   1      41.416  26.611  26.224  1.00  0.00     0.031 C 
ATOM     52  C   UNL A   1      42.570  29.885  29.446  1.00  0.00     0.029 A 
ATOM     53  N   UNL A   1      43.895  28.238  28.785  1.00  0.00    -0.354 N 
ATOM     54  C   UNL A   1      42.390  24.658  26.916  1.00  0.00     0.074 A 
ATOM     55  C   UNL A   1      41.732  25.369  25.850  1.00  0.00     0.031 C 
ATOM     56  C   UNL A   1      43.829  30.375  29.429  1.00  0.00     0.029 A 
ATOM     57  C   UNL A   1      44.738  29.320  29.010  1.00  0.00     0.049 A 
ATOM     58  H   UNL A   1      44.228  27.337  28.572  1.00  0.00     0.167 HD
ATOM     59  C   UNL A   1      43.241  23.592  26.918  1.00  0.00     0.034 A 
ATOM     60  C   UNL A   1      46.086  29.367  28.855  1.00  0.00     0.034 A 
ATOM     61  C   UNL A   1      43.581  23.202  28.271  1.00  0.00     0.049 A 
ATOM     62  C   UNL A   1      46.592  27.979  28.973  1.00  0.00     0.074 A 
ATOM     63  C   UNL A   1      42.852  22.834  29.387  1.00  0.00     0.029 A 
ATOM     64  N   UNL A   1      44.836  23.511  28.748  1.00  0.00    -0.354 N 
ATOM     65  N   UNL A   1      46.535  27.290  30.077  1.00  0.00    -0.248 NA
ATOM     66  C   UNL A   1      46.765  27.191  27.763  1.00  0.00     0.031 C 
ATOM     67  C   UNL A   1      43.523  23.457  30.481  1.00  0.00     0.029 A 
ATOM     68  C   UNL A   1      44.663  24.091  29.981  1.00  0.00     0.049 A 
ATOM     69  H   UNL A   1      45.693  23.346  28.293  1.00  0.00     0.167 HD
ATOM     70  C   UNL A   1      46.207  26.004  29.680  1.00  0.00     0.074 A 
ATOM     71  C   UNL A   1      46.486  25.976  28.246  1.00  0.00     0.031 C 
ATOM     72  C   UNL A   1      45.483  25.174  30.489  1.00  0.00     0.034 A 
BRANCH  59  73
ATOM     73  C   UNL A   1      44.047  23.102  25.728  1.00  0.00     0.023 A 
ATOM     74  C   UNL A   1      43.972  21.727  25.424  1.00  0.00     0.031 A 
ATOM     75  C   UNL A   1      45.084  23.810  25.083  1.00  0.00     0.131 A 
ATOM     76  C   UNL A   1      44.958  21.097  24.644  1.00  0.00     0.055 A 
ATOM     77  C   UNL A   1      46.020  23.192  24.244  1.00  0.00     0.041 A 
ATOM     78  F   UNL A   1      45.310  25.112  25.288  1.00  0.00    -0.206 F 
ATOM     79  C   UNL A   1      45.986  21.822  24.053  1.00  0.00     0.022 A 
BRANCH  76  80
ATOM     80  S   UNL A   1      44.987  19.286  24.600  1.00  0.00     0.124 S 
ATOM     81  O   UNL A   1      45.810  19.038  23.421  1.00  0.00    -0.237 OA
ATOM     82  O   UNL A   1      45.591  18.965  25.888  1.00  0.00    -0.237 OA
ATOM     83  O   UNL A   1      43.577  18.928  24.464  1.00  0.00    -0.744 OA
ENDBRANCH  76  80
ENDBRANCH  59  73
BRANCH  60  84
ATOM     84  C   UNL A   1      46.905  30.510  28.380  1.00  0.00     0.023 A 
ATOM     85  C   UNL A   1      46.415  31.474  27.476  1.00  0.00     0.031 A 
ATOM     86  C   UNL A   1      48.131  30.803  29.020  1.00  0.00     0.131 A 
ATOM     87  C   UNL A   1      47.139  32.667  27.248  1.00  0.00     0.055 A 
ATOM     88  C   UNL A   1      48.845  31.980  28.787  1.00  0.00     0.041 A 
ATOM     89  F   UNL A   1      48.634  29.992  29.964  1.00  0.00    -0.206 F 
ATOM     90  C   UNL A   1      48.344  32.924  27.905  1.00  0.00     0.022 A 
BRANCH  87  91
ATOM     91  S   UNL A   1      46.455  33.968  26.169  1.00  0.00     0.124 S 
ATOM     92  O   UNL A   1      47.595  34.299  25.323  1.00  0.00    -0.237 OA
ATOM     93  O   UNL A   1      45.340  33.286  25.522  1.00  0.00    -0.237 OA
ATOM     94  O   UNL A   1      46.062  35.017  27.111  1.00  0.00    -0.744 OA
ENDBRANCH  87  91
ENDBRANCH  60  84
BRANCH  72  95
ATOM     95  C   UNL A   1      45.330  25.534  31.956  1.00  0.00     0.023 A 
ATOM     96  C   UNL A   1      46.231  25.162  32.980  1.00  0.00     0.031 A 
ATOM     97  C   UNL A   1      44.260  26.376  32.310  1.00  0.00     0.131 A 
ATOM     98  C   UNL A   1      46.024  25.607  34.301  1.00  0.00     0.055 A 
ATOM     99  C   UNL A   1      44.073  26.836  33.614  1.00  0.00     0.041 A 
ATOM    100  F   UNL A   1      43.380  26.791  31.383  1.00  0.00    -0.206 F 
ATOM    101  C   UNL A   1      44.950  26.444  34.617  1.00  0.00     0.022 A 
BRANCH  98 102
ATOM    102  S   UNL A   1      47.130  25.073  35.647  1.00  0.00     0.124 S 
ATOM    103  O   UNL A   1      48.232  24.417  34.953  1.00  0.00    -0.237 OA
ATOM    104  O   UNL A   1      47.455  26.336  36.306  1.00  0.00    -0.237 OA
ATOM    105  O   UNL A   1      46.287  24.174  36.438  1.00  0.00    -0.744 OA
ENDBRANCH  98 102
ENDBRANCH  72  95
ENDBRANCH  46  47
ENDBRANCH  38  41
ENDBRANCH  36  37
ENDBRANCH  35  36
ENDBRANCH   1  35
TORSDOF 20
ENDMDL
MODEL 3
REMARK VINA RESULT:     -13.0      2.300      2.708
REMARK SMILES COC(=O)c1c(NC(=O)[C@@H]2C[C@@H]2C(=O)NCCCCNC(=O)c2ccc(-c3c4nc(c(-c5cc(S(=O)(=O)[O-])ccc5F)c5ccc([nH]5)c(-c5cc(S(=O)(=O)[O-])ccc5F)c5nc(c(-c6cc(S(=O)(=O)[O-])ccc6F)c6ccc3[nH]6)C=C5)C=C4)cc2)sc2c1CC[N@@H+](Cc1ccccc1)C2
REMARK SMILES IDX 17 1 16 2 15 3 13 4 14 5 12 7 10 8 11 9 8 10 7 11 9 13 6 14
REMARK SMILES IDX 5 15 88 16 86 17 87 18 89 19 99 20 90 21 91 22 3 24 4 25
REMARK SMILES IDX 2 26 1 27 92 28 93 29 94 30 98 31 95 32 97 33 96 34 18 35
REMARK SMILES IDX 19 36 20 37 21 38 22 40 23 41 24 42 85 43 25 44 84 45 26 46
REMARK SMILES IDX 27 47 28 48 78 49 29 50 83 51 77 52 79 53 30 54 82 55 76 56
REMARK SMILES IDX 75 57 31 59 63 60 43 61 62 62 44 63 47 64 61 65 80 66 45 67
REMARK SMILES IDX 46 68 60 70 81 71 48 72 32 73 33 74 41 75 34 76 40 77 42 78
REMARK SMILES IDX 39 79 35 80 36 81 37 82 38 83 64 84 65 85 73 86 66 87 72 88
REMARK SMILES IDX 74 89 71 90 67 91 68 92 69 93 70 94 49 95 50 96 58 97 51 98
REMARK SMILES IDX 57 99 59 100 56 101 52 102 53 103 54 104 55 105
REMARK H PARENT 15 6 7 12 91 23 20 39 79 58 47 69
REMARK Flexibility Score: inf
ROOT
ATOM      1  C   UNL A   1      33.014  29.150  25.097  1.00  0.00     0.023 C 
ENDROOT
BRANCH   1   2
ATOM      2  C   UNL A   1      31.518  29.400  24.968  1.00  0.00     0.116 C 
BRANCH   2   3
ATOM      3  N   UNL A   1      31.026  29.471  23.614  1.00  0.00    -0.356 N 
ATOM      4  C   UNL A   1      30.603  28.539  22.710  1.00  0.00     0.223 C 
ATOM      5  O   UNL A   1      30.081  28.978  21.685  1.00  0.00    -0.275 OA
ATOM      6  H   UNL A   1      30.987  30.392  23.266  1.00  0.00     0.163 HD
BRANCH   4   7
ATOM      7  C   UNL A   1      30.796  27.068  22.775  1.00  0.00     0.091 C 
ATOM      8  C   UNL A   1      31.976  26.139  22.793  1.00  0.00     0.092 C 
ATOM      9  C   UNL A   1      31.171  26.316  21.527  1.00  0.00     0.028 C 
BRANCH   8  10
ATOM     10  C   UNL A   1      33.398  26.485  22.835  1.00  0.00     0.228 C 
ATOM     11  N   UNL A   1      34.222  26.079  23.840  1.00  0.00    -0.317 N 
ATOM     12  H   UNL A   1      35.083  26.555  23.842  1.00  0.00     0.170 HD
ATOM     13  O   UNL A   1      33.846  27.215  21.952  1.00  0.00    -0.274 OA
BRANCH  11  14
ATOM     14  C   UNL A   1      34.124  25.156  24.851  1.00  0.00     0.110 A 
ATOM     15  C   UNL A   1      33.274  24.792  25.882  1.00  0.00     0.098 A 
ATOM     16  C   UNL A   1      33.710  23.527  26.457  1.00  0.00    -0.006 A 
ATOM     17  S   UNL A   1      35.487  24.112  24.723  1.00  0.00    -0.116 S 
ATOM     18  C   UNL A   1      34.816  23.014  25.813  1.00  0.00     0.065 A 
ATOM     19  C   UNL A   1      32.942  22.674  27.434  1.00  0.00     0.099 C 
ATOM     20  C   UNL A   1      35.293  21.598  25.942  1.00  0.00     0.310 C 
ATOM     21  C   UNL A   1      33.452  21.209  27.482  1.00  0.00     0.267 C 
ATOM     22  N   UNL A   1      34.172  20.709  26.302  1.00  0.00    -0.326 N 
ATOM     23  H   UNL A   1      34.587  19.824  26.594  1.00  0.00     0.348 HD
BRANCH  15  24
ATOM     24  C   UNL A   1      32.011  25.396  26.290  1.00  0.00     0.341 C 
ATOM     25  O   UNL A   1      31.923  26.233  27.169  1.00  0.00    -0.246 OA
BRANCH  24  26
ATOM     26  O   UNL A   1      30.929  24.845  25.661  1.00  0.00    -0.465 OA
ATOM     27  C   UNL A   1      29.700  25.531  25.914  1.00  0.00     0.282 C 
ENDBRANCH  24  26
ENDBRANCH  15  24
BRANCH  22  28
ATOM     28  C   UNL A   1      33.351  20.226  25.181  1.00  0.00     0.299 C 
BRANCH  28  29
ATOM     29  C   UNL A   1      33.280  18.735  24.910  1.00  0.00     0.006 A 
ATOM     30  C   UNL A   1      33.838  18.184  23.747  1.00  0.00     0.009 A 
ATOM     31  C   UNL A   1      32.666  17.867  25.827  1.00  0.00     0.009 A 
ATOM     32  C   UNL A   1      33.846  16.801  23.544  1.00  0.00     0.001 A 
ATOM     33  C   UNL A   1      32.693  16.483  25.636  1.00  0.00     0.001 A 
ATOM     34  C   UNL A   1      33.291  15.950  24.497  1.00  0.00     0.000 A 
ENDBRANCH  28  29
ENDBRANCH  22  28
ENDBRANCH  11  14
ENDBRANCH   8  10
ENDBRANCH   4   7
ENDBRANCH   2   3
ENDBRANCH   1   2
BRANCH   1  35
ATOM     35  C   UNL A   1      33.528  28.975  26.528  1.00  0.00     0.023 C 
BRANCH  35  36
ATOM     36  C   UNL A   1      34.791  29.763  26.868  1.00  0.00     0.116 C 
BRANCH  36  37
ATOM     37  N   UNL A   1      34.516  31.082  27.427  1.00  0.00    -0.352 N 
ATOM     38  C   UNL A   1      35.017  31.609  28.600  1.00  0.00     0.251 C 
ATOM     39  H   UNL A   1      33.907  31.658  26.912  1.00  0.00     0.163 HD
ATOM     40  O   UNL A   1      34.446  32.532  29.168  1.00  0.00    -0.269 OA
BRANCH  38  41
ATOM     41  C   UNL A   1      36.249  31.024  29.160  1.00  0.00     0.039 A 
ATOM     42  C   UNL A   1      36.258  29.708  29.622  1.00  0.00     0.014 A 
ATOM     43  C   UNL A   1      37.419  31.787  29.148  1.00  0.00     0.014 A 
ATOM     44  C   UNL A   1      37.475  29.128  29.970  1.00  0.00     0.010 A 
ATOM     45  C   UNL A   1      38.635  31.187  29.425  1.00  0.00     0.010 A 
ATOM     46  C   UNL A   1      38.675  29.853  29.834  1.00  0.00    -0.014 A 
BRANCH  46  47
ATOM     47  C   UNL A   1      39.955  29.145  29.964  1.00  0.00     0.031 A 
ATOM     48  C   UNL A   1      40.435  28.944  31.363  1.00  0.00     0.074 A 
ATOM     49  C   UNL A   1      40.621  28.522  28.969  1.00  0.00     0.049 A 
ATOM     50  N   UNL A   1      41.462  29.486  31.928  1.00  0.00    -0.248 NA
ATOM     51  C   UNL A   1      39.620  28.130  32.276  1.00  0.00     0.031 C 
ATOM     52  C   UNL A   1      40.203  28.328  27.579  1.00  0.00     0.029 A 
ATOM     53  N   UNL A   1      41.800  27.833  29.033  1.00  0.00    -0.354 N 
ATOM     54  C   UNL A   1      41.562  28.919  33.197  1.00  0.00     0.074 A 
ATOM     55  C   UNL A   1      40.316  28.230  33.411  1.00  0.00     0.031 C 
ATOM     56  C   UNL A   1      40.991  27.395  26.999  1.00  0.00     0.029 A 
ATOM     57  C   UNL A   1      42.063  27.048  27.917  1.00  0.00     0.049 A 
ATOM     58  H   UNL A   1      42.409  27.888  29.804  1.00  0.00     0.167 HD
ATOM     59  C   UNL A   1      42.745  28.905  33.877  1.00  0.00     0.034 A 
ATOM     60  C   UNL A   1      43.077  26.161  27.748  1.00  0.00     0.034 A 
ATOM     61  C   UNL A   1      43.689  29.835  33.293  1.00  0.00     0.049 A 
ATOM     62  C   UNL A   1      44.171  26.562  28.663  1.00  0.00     0.074 A 
ATOM     63  C   UNL A   1      43.672  31.191  33.017  1.00  0.00     0.029 A 
ATOM     64  N   UNL A   1      44.735  29.332  32.550  1.00  0.00    -0.354 N 
ATOM     65  N   UNL A   1      44.843  27.672  28.530  1.00  0.00    -0.248 NA
ATOM     66  C   UNL A   1      44.239  25.956  29.983  1.00  0.00     0.031 C 
ATOM     67  C   UNL A   1      44.322  31.313  31.753  1.00  0.00     0.029 A 
ATOM     68  C   UNL A   1      44.771  30.045  31.377  1.00  0.00     0.049 A 
ATOM     69  H   UNL A   1      45.341  28.601  32.812  1.00  0.00     0.167 HD
ATOM     70  C   UNL A   1      45.029  28.134  29.822  1.00  0.00     0.074 A 
ATOM     71  C   UNL A   1      44.749  26.980  30.674  1.00  0.00     0.031 C 
ATOM     72  C   UNL A   1      45.118  29.472  30.091  1.00  0.00     0.034 A 
BRANCH  59  73
ATOM     73  C   UNL A   1      43.195  27.827  34.847  1.00  0.00     0.023 A 
ATOM     74  C   UNL A   1      43.604  28.248  36.130  1.00  0.00     0.031 A 
ATOM     75  C   UNL A   1      43.526  26.497  34.511  1.00  0.00     0.131 A 
ATOM     76  C   UNL A   1      44.410  27.431  36.943  1.00  0.00     0.055 A 
ATOM     77  C   UNL A   1      44.264  25.659  35.357  1.00  0.00     0.041 A 
ATOM     78  F   UNL A   1      43.238  25.955  33.322  1.00  0.00    -0.206 F 
ATOM     79  C   UNL A   1      44.746  26.137  36.562  1.00  0.00     0.022 A 
BRANCH  76  80
ATOM     80  S   UNL A   1      45.184  28.175  38.403  1.00  0.00     0.124 S 
ATOM     81  O   UNL A   1      46.599  27.937  38.133  1.00  0.00    -0.237 OA
ATOM     82  O   UNL A   1      44.733  29.559  38.308  1.00  0.00    -0.237 OA
ATOM     83  O   UNL A   1      44.621  27.409  39.512  1.00  0.00    -0.744 OA
ENDBRANCH  76  80
ENDBRANCH  59  73
BRANCH  60  84
ATOM     84  C   UNL A   1      43.040  24.870  27.017  1.00  0.00     0.023 A 
ATOM     85  C   UNL A   1      42.113  23.851  27.317  1.00  0.00     0.031 A 
ATOM     86  C   UNL A   1      43.783  24.723  25.823  1.00  0.00     0.131 A 
ATOM     87  C   UNL A   1      41.955  22.753  26.441  1.00  0.00     0.055 A 
ATOM     88  C   UNL A   1      43.628  23.633  24.964  1.00  0.00     0.041 A 
ATOM     89  F   UNL A   1      44.623  25.683  25.404  1.00  0.00    -0.206 F 
ATOM     90  C   UNL A   1      42.703  22.646  25.265  1.00  0.00     0.022 A 
BRANCH  87  91
ATOM     91  S   UNL A   1      40.679  21.493  26.763  1.00  0.00     0.124 S 
ATOM     92  O   UNL A   1      40.825  21.263  28.195  1.00  0.00    -0.237 OA
ATOM     93  O   UNL A   1      39.458  22.164  26.333  1.00  0.00    -0.237 OA
ATOM     94  O   UNL A   1      41.088  20.372  25.915  1.00  0.00    -0.744 OA
ENDBRANCH  87  91
ENDBRANCH  60  84
BRANCH  72  95
ATOM     95  C   UNL A   1      45.358  30.433  28.942  1.00  0.00     0.023 A 
ATOM     96  C   UNL A   1      46.625  30.901  28.526  1.00  0.00     0.031 A 
ATOM     97  C   UNL A   1      44.243  30.820  28.174  1.00  0.00     0.131 A 
ATOM     98  C   UNL A   1      46.736  31.744  27.403  1.00  0.00     0.055 A 
ATOM     99  C   UNL A   1      44.358  31.633  27.047  1.00  0.00     0.041 A 
ATOM    100  F   UNL A   1      43.011  30.391  28.495  1.00  0.00    -0.206 F 
ATOM    101  C   UNL A   1      45.606  32.107  26.663  1.00  0.00     0.022 A 
BRANCH  98 102
ATOM    102  S   UNL A   1      48.352  32.420  26.901  1.00  0.00     0.124 S 
ATOM    103  O   UNL A   1      49.116  31.240  26.511  1.00  0.00    -0.237 OA
ATOM    104  O   UNL A   1      47.989  33.330  25.818  1.00  0.00    -0.237 OA
ATOM    105  O   UNL A   1      48.832  33.081  28.116  1.00  0.00    -0.744 OA
ENDBRANCH  98 102
ENDBRANCH  72  95
ENDBRANCH  46  47
ENDBRANCH  38  41
ENDBRANCH  36  37
ENDBRANCH  35  36
ENDBRANCH   1  35
TORSDOF 20
ENDMDL
