MODEL 1
REMARK VINA RESULT:     -10.6      0.000      0.000
REMARK SMILES O=C(NCCCCNC(=O)c1ccc(-c2c3nc(c(-c4cc(S(=O)(=O)[O-])ccc4F)c4ccc([nH]4)c(-c4cc(S(=O)(=O)[O-])ccc4F)c4nc(c(-c5cc(S(=O)(=O)[O-])ccc5F)c5ccc2[nH]5)C=C4)C=C3)cc1)c1ccc(C[N@@H+]2CCC[C@H]2c2nc(-c3ccc(-c4cncnc4)nc3)no2)cc1
REMARK SMILES IDX 4 1 3 2 1 3 2 4 74 6 75 7 102 8 76 9 101 10 77 11 78 12
REMARK SMILES IDX 79 13 80 14 83 15 81 17 82 18 84 19 85 20 100 21 86 22 99 23
REMARK SMILES IDX 87 24 88 25 98 26 89 27 97 28 90 29 91 30 92 31 96 32 93 33
REMARK SMILES IDX 95 34 94 35 5 36 6 37 7 38 8 39 9 40 10 42 11 43 12 44 73 45
REMARK SMILES IDX 13 46 72 47 14 48 15 49 16 50 66 51 17 52 71 53 65 54 67 55
REMARK SMILES IDX 18 56 70 57 64 58 63 59 19 61 51 62 31 63 50 64 32 65 35 66
REMARK SMILES IDX 49 67 68 68 33 69 34 70 48 72 69 73 36 74 20 75 21 76 29 77
REMARK SMILES IDX 22 78 28 79 30 80 27 81 23 82 24 83 25 84 26 85 52 86 53 87
REMARK SMILES IDX 61 88 54 89 60 90 62 91 59 92 55 93 56 94 57 95 58 96 37 97
REMARK SMILES IDX 38 98 46 99 39 100 45 101 47 102 44 103 40 104 41 105 42 106
REMARK SMILES IDX 43 107
REMARK H PARENT 3 5 79 16 8 41 67 60 35 71
REMARK Flexibility Score: inf
ROOT
ATOM      1  C   UNL A   1      33.912  34.609  29.845  1.00  0.00     0.116 C 
ENDROOT
BRANCH   1   2
ATOM      2  N   UNL A   1      34.224  35.544  30.915  1.00  0.00    -0.352 N 
ATOM      3  O   UNL A   1      35.046  36.183  32.929  1.00  0.00    -0.269 OA
ATOM      4  C   UNL A   1      34.980  35.337  32.043  1.00  0.00     0.251 C 
ATOM      5  H   UNL A   1      33.842  36.445  30.817  1.00  0.00     0.163 HD
BRANCH   4   6
ATOM      6  C   UNL A   1      35.701  34.062  32.197  1.00  0.00     0.039 A 
ATOM      7  C   UNL A   1      35.048  32.942  32.716  1.00  0.00     0.014 A 
ATOM      8  C   UNL A   1      37.047  33.996  31.835  1.00  0.00     0.014 A 
ATOM      9  C   UNL A   1      35.775  31.776  32.961  1.00  0.00     0.010 A 
ATOM     10  C   UNL A   1      37.770  32.826  32.085  1.00  0.00     0.010 A 
ATOM     11  C   UNL A   1      37.152  31.717  32.689  1.00  0.00     0.006 A 
BRANCH  11  12
ATOM     12  C   UNL A   1      37.949  30.477  33.047  1.00  0.00     0.299 C 
BRANCH  12  13
ATOM     13  N   UNL A   1      38.556  30.423  34.383  1.00  0.00    -0.321 N 
ATOM     14  C   UNL A   1      37.909  31.227  35.417  1.00  0.00     0.263 C 
ATOM     15  C   UNL A   1      40.002  30.717  34.431  1.00  0.00     0.275 C 
ATOM     16  H   UNL A   1      38.402  29.437  34.595  1.00  0.00     0.349 HD
ATOM     17  C   UNL A   1      38.759  32.473  35.558  1.00  0.00     0.068 C 
ATOM     18  C   UNL A   1      40.167  31.969  35.305  1.00  0.00     0.081 C 
BRANCH  15  19
ATOM     19  C   UNL A   1      40.804  29.582  35.007  1.00  0.00     0.285 A 
ATOM     20  N   UNL A   1      41.737  28.817  34.475  1.00  0.00    -0.186 NA
ATOM     21  O   UNL A   1      40.437  29.184  36.260  1.00  0.00    -0.332 OA
ATOM     22  C   UNL A   1      41.929  27.864  35.449  1.00  0.00     0.204 A 
ATOM     23  N   UNL A   1      41.177  28.042  36.547  1.00  0.00    -0.057 NA
BRANCH  22  24
ATOM     24  C   UNL A   1      42.815  26.729  35.285  1.00  0.00     0.041 A 
ATOM     25  C   UNL A   1      43.606  26.596  34.142  1.00  0.00     0.016 A 
ATOM     26  C   UNL A   1      42.899  25.722  36.235  1.00  0.00     0.123 A 
ATOM     27  C   UNL A   1      44.430  25.481  33.993  1.00  0.00     0.030 A 
ATOM     28  N   UNL A   1      43.669  24.606  36.099  1.00  0.00    -0.255 NA
ATOM     29  C   UNL A   1      44.432  24.500  34.982  1.00  0.00     0.073 A 
BRANCH  29  30
ATOM     30  C   UNL A   1      45.221  23.281  34.850  1.00  0.00     0.037 A 
ATOM     31  C   UNL A   1      44.669  22.013  34.820  1.00  0.00     0.124 A 
ATOM     32  C   UNL A   1      46.603  23.289  34.788  1.00  0.00     0.124 A 
ATOM     33  N   UNL A   1      45.381  20.865  34.765  1.00  0.00    -0.244 NA
ATOM     34  N   UNL A   1      47.375  22.179  34.737  1.00  0.00    -0.244 NA
ATOM     35  C   UNL A   1      46.713  21.013  34.728  1.00  0.00     0.221 A 
ENDBRANCH  29  30
ENDBRANCH  22  24
ENDBRANCH  15  19
ENDBRANCH  12  13
ENDBRANCH  11  12
ENDBRANCH   4   6
ENDBRANCH   1   2
BRANCH   1  36
ATOM     36  C   UNL A   1      34.914  34.683  28.694  1.00  0.00     0.023 C 
BRANCH  36  37
ATOM     37  C   UNL A   1      35.494  33.338  28.253  1.00  0.00     0.023 C 
BRANCH  37  38
ATOM     38  C   UNL A   1      35.120  32.140  29.120  1.00  0.00     0.116 C 
BRANCH  38  39
ATOM     39  N   UNL A   1      34.580  31.024  28.358  1.00  0.00    -0.352 N 
ATOM     40  C   UNL A   1      35.214  29.875  27.942  1.00  0.00     0.251 C 
ATOM     41  H   UNL A   1      33.631  31.100  28.106  1.00  0.00     0.163 HD
ATOM     42  O   UNL A   1      34.629  29.085  27.207  1.00  0.00    -0.269 OA
BRANCH  40  43
ATOM     43  C   UNL A   1      36.614  29.625  28.350  1.00  0.00     0.039 A 
ATOM     44  C   UNL A   1      36.868  29.084  29.614  1.00  0.00     0.014 A 
ATOM     45  C   UNL A   1      37.669  29.883  27.471  1.00  0.00     0.014 A 
ATOM     46  C   UNL A   1      38.172  28.719  29.963  1.00  0.00     0.010 A 
ATOM     47  C   UNL A   1      38.955  29.461  27.796  1.00  0.00     0.010 A 
ATOM     48  C   UNL A   1      39.219  28.862  29.039  1.00  0.00    -0.014 A 
BRANCH  48  49
ATOM     49  C   UNL A   1      40.600  28.390  29.332  1.00  0.00     0.031 A 
ATOM     50  C   UNL A   1      41.473  29.184  30.266  1.00  0.00     0.074 A 
ATOM     51  C   UNL A   1      41.102  27.324  28.676  1.00  0.00     0.049 A 
ATOM     52  N   UNL A   1      42.753  29.063  30.506  1.00  0.00    -0.248 NA
ATOM     53  C   UNL A   1      40.823  30.281  31.000  1.00  0.00     0.031 C 
ATOM     54  C   UNL A   1      40.363  26.489  27.726  1.00  0.00     0.029 A 
ATOM     55  N   UNL A   1      42.361  26.775  28.686  1.00  0.00    -0.354 N 
ATOM     56  C   UNL A   1      43.072  30.092  31.386  1.00  0.00     0.074 A 
ATOM     57  C   UNL A   1      41.855  30.842  31.615  1.00  0.00     0.031 C 
ATOM     58  C   UNL A   1      41.182  25.538  27.246  1.00  0.00     0.029 A 
ATOM     59  C   UNL A   1      42.515  25.723  27.811  1.00  0.00     0.049 A 
ATOM     60  H   UNL A   1      43.086  27.103  29.266  1.00  0.00     0.167 HD
ATOM     61  C   UNL A   1      44.269  30.379  31.954  1.00  0.00     0.034 A 
ATOM     62  C   UNL A   1      43.610  25.009  27.479  1.00  0.00     0.034 A 
ATOM     63  C   UNL A   1      45.461  29.596  31.754  1.00  0.00     0.049 A 
ATOM     64  C   UNL A   1      44.928  25.346  28.134  1.00  0.00     0.074 A 
ATOM     65  C   UNL A   1      46.702  29.751  32.348  1.00  0.00     0.029 A 
ATOM     66  N   UNL A   1      45.565  28.510  30.896  1.00  0.00    -0.354 N 
ATOM     67  N   UNL A   1      45.200  26.294  29.002  1.00  0.00    -0.248 NA
ATOM     68  C   UNL A   1      46.085  24.514  27.773  1.00  0.00     0.031 C 
ATOM     69  C   UNL A   1      47.569  28.795  31.809  1.00  0.00     0.029 A 
ATOM     70  C   UNL A   1      46.854  28.003  30.928  1.00  0.00     0.049 A 
ATOM     71  H   UNL A   1      44.831  28.154  30.345  1.00  0.00     0.167 HD
ATOM     72  C   UNL A   1      46.547  26.141  29.320  1.00  0.00     0.074 A 
ATOM     73  C   UNL A   1      47.032  25.011  28.555  1.00  0.00     0.031 C 
ATOM     74  C   UNL A   1      47.314  26.864  30.172  1.00  0.00     0.034 A 
BRANCH  61  75
ATOM     75  C   UNL A   1      44.356  31.606  32.825  1.00  0.00     0.023 A 
ATOM     76  C   UNL A   1      44.191  31.540  34.218  1.00  0.00     0.031 A 
ATOM     77  C   UNL A   1      44.615  32.862  32.247  1.00  0.00     0.131 A 
ATOM     78  C   UNL A   1      44.232  32.716  34.981  1.00  0.00     0.055 A 
ATOM     79  C   UNL A   1      44.724  34.019  33.021  1.00  0.00     0.041 A 
ATOM     80  F   UNL A   1      44.762  32.985  30.919  1.00  0.00    -0.206 F 
ATOM     81  C   UNL A   1      44.522  33.951  34.395  1.00  0.00     0.022 A 
BRANCH  78  82
ATOM     82  S   UNL A   1      43.798  32.624  36.739  1.00  0.00     0.124 S 
ATOM     83  O   UNL A   1      45.095  32.844  37.373  1.00  0.00    -0.237 OA
ATOM     84  O   UNL A   1      42.827  33.702  36.883  1.00  0.00    -0.237 OA
ATOM     85  O   UNL A   1      43.259  31.274  36.890  1.00  0.00    -0.744 OA
ENDBRANCH  78  82
ENDBRANCH  61  75
BRANCH  62  86
ATOM     86  C   UNL A   1      43.536  23.924  26.458  1.00  0.00     0.023 A 
ATOM     87  C   UNL A   1      42.822  22.742  26.714  1.00  0.00     0.031 A 
ATOM     88  C   UNL A   1      44.240  24.017  25.244  1.00  0.00     0.131 A 
ATOM     89  C   UNL A   1      42.879  21.677  25.802  1.00  0.00     0.055 A 
ATOM     90  C   UNL A   1      44.247  22.977  24.313  1.00  0.00     0.041 A 
ATOM     91  F   UNL A   1      44.935  25.127  24.945  1.00  0.00    -0.206 F 
ATOM     92  C   UNL A   1      43.578  21.790  24.598  1.00  0.00     0.022 A 
BRANCH  89  93
ATOM     93  S   UNL A   1      42.125  20.095  26.269  1.00  0.00     0.124 S 
ATOM     94  O   UNL A   1      42.628  19.206  25.228  1.00  0.00    -0.237 OA
ATOM     95  O   UNL A   1      42.667  19.887  27.607  1.00  0.00    -0.237 OA
ATOM     96  O   UNL A   1      40.691  20.373  26.213  1.00  0.00    -0.744 OA
ENDBRANCH  89  93
ENDBRANCH  62  86
BRANCH  74  97
ATOM     97  C   UNL A   1      48.734  26.405  30.381  1.00  0.00     0.023 A 
ATOM     98  C   UNL A   1      49.096  25.571  31.451  1.00  0.00     0.031 A 
ATOM     99  C   UNL A   1      49.736  26.805  29.479  1.00  0.00     0.131 A 
ATOM    100  C   UNL A   1      50.437  25.194  31.616  1.00  0.00     0.055 A 
ATOM    101  C   UNL A   1      51.059  26.388  29.620  1.00  0.00     0.041 A 
ATOM    102  F   UNL A   1      49.440  27.601  28.439  1.00  0.00    -0.206 F 
ATOM    103  C   UNL A   1      51.418  25.584  30.699  1.00  0.00     0.022 A 
BRANCH 100 104
ATOM    104  S   UNL A   1      50.900  24.227  33.080  1.00  0.00     0.124 S 
ATOM    105  O   UNL A   1      50.163  22.985  32.868  1.00  0.00    -0.237 OA
ATOM    106  O   UNL A   1      52.350  24.137  32.951  1.00  0.00    -0.237 OA
ATOM    107  O   UNL A   1      50.428  25.046  34.195  1.00  0.00    -0.744 OA
ENDBRANCH 100 104
ENDBRANCH  74  97
ENDBRANCH  48  49
ENDBRANCH  40  43
ENDBRANCH  38  39
ENDBRANCH  37  38
ENDBRANCH  36  37
ENDBRANCH   1  36
TORSDOF 19
ENDMDL
MODEL 2
REMARK VINA RESULT:     -10.3      1.987      2.290
REMARK SMILES O=C(NCCCCNC(=O)c1ccc(-c2c3nc(c(-c4cc(S(=O)(=O)[O-])ccc4F)c4ccc([nH]4)c(-c4cc(S(=O)(=O)[O-])ccc4F)c4nc(c(-c5cc(S(=O)(=O)[O-])ccc5F)c5ccc2[nH]5)C=C4)C=C3)cc1)c1ccc(C[N@@H+]2CCC[C@H]2c2nc(-c3ccc(-c4cncnc4)nc3)no2)cc1
REMARK SMILES IDX 4 1 3 2 1 3 2 4 74 6 75 7 102 8 76 9 101 10 77 11 78 12
REMARK SMILES IDX 79 13 80 14 83 15 81 17 82 18 84 19 85 20 100 21 86 22 99 23
REMARK SMILES IDX 87 24 88 25 98 26 89 27 97 28 90 29 91 30 92 31 96 32 93 33
REMARK SMILES IDX 95 34 94 35 5 36 6 37 7 38 8 39 9 40 10 42 11 43 12 44 73 45
REMARK SMILES IDX 13 46 72 47 14 48 15 49 16 50 66 51 17 52 71 53 65 54 67 55
REMARK SMILES IDX 18 56 70 57 64 58 63 59 19 61 51 62 31 63 50 64 32 65 35 66
REMARK SMILES IDX 49 67 68 68 33 69 34 70 48 72 69 73 36 74 20 75 21 76 29 77
REMARK SMILES IDX 22 78 28 79 30 80 27 81 23 82 24 83 25 84 26 85 52 86 53 87
REMARK SMILES IDX 61 88 54 89 60 90 62 91 59 92 55 93 56 94 57 95 58 96 37 97
REMARK SMILES IDX 38 98 46 99 39 100 45 101 47 102 44 103 40 104 41 105 42 106
REMARK SMILES IDX 43 107
REMARK H PARENT 3 5 79 16 8 41 67 60 35 71
REMARK Flexibility Score: inf
ROOT
ATOM      1  C   UNL A   1      33.510  34.855  29.857  1.00  0.00     0.116 C 
ENDROOT
BRANCH   1   2
ATOM      2  N   UNL A   1      33.859  35.826  30.882  1.00  0.00    -0.352 N 
ATOM      3  O   UNL A   1      34.750  36.533  32.844  1.00  0.00    -0.269 OA
ATOM      4  C   UNL A   1      34.653  35.658  31.991  1.00  0.00     0.251 C 
ATOM      5  H   UNL A   1      33.475  36.724  30.766  1.00  0.00     0.163 HD
BRANCH   4   6
ATOM      6  C   UNL A   1      35.378  34.387  32.165  1.00  0.00     0.039 A 
ATOM      7  C   UNL A   1      34.772  33.313  32.820  1.00  0.00     0.014 A 
ATOM      8  C   UNL A   1      36.683  34.280  31.683  1.00  0.00     0.014 A 
ATOM      9  C   UNL A   1      35.511  32.159  33.075  1.00  0.00     0.010 A 
ATOM     10  C   UNL A   1      37.420  33.122  31.944  1.00  0.00     0.010 A 
ATOM     11  C   UNL A   1      36.857  32.065  32.679  1.00  0.00     0.006 A 
BRANCH  11  12
ATOM     12  C   UNL A   1      37.677  30.842  33.046  1.00  0.00     0.299 C 
BRANCH  12  13
ATOM     13  N   UNL A   1      38.418  30.877  34.313  1.00  0.00    -0.321 N 
ATOM     14  C   UNL A   1      38.001  31.897  35.274  1.00  0.00     0.263 C 
ATOM     15  C   UNL A   1      39.886  30.962  34.184  1.00  0.00     0.275 C 
ATOM     16  H   UNL A   1      38.161  29.961  34.682  1.00  0.00     0.349 HD
ATOM     17  C   UNL A   1      39.018  33.014  35.151  1.00  0.00     0.068 C 
ATOM     18  C   UNL A   1      40.311  32.281  34.846  1.00  0.00     0.081 C 
BRANCH  15  19
ATOM     19  C   UNL A   1      40.591  29.809  34.843  1.00  0.00     0.285 A 
ATOM     20  N   UNL A   1      41.478  28.949  34.379  1.00  0.00    -0.186 NA
ATOM     21  O   UNL A   1      40.172  29.512  36.108  1.00  0.00    -0.332 OA
ATOM     22  C   UNL A   1      41.580  28.044  35.411  1.00  0.00     0.204 A 
ATOM     23  N   UNL A   1      40.821  28.339  36.478  1.00  0.00    -0.057 NA
BRANCH  22  24
ATOM     24  C   UNL A   1      42.384  26.841  35.333  1.00  0.00     0.041 A 
ATOM     25  C   UNL A   1      42.029  25.693  36.044  1.00  0.00     0.016 A 
ATOM     26  C   UNL A   1      43.544  26.783  34.574  1.00  0.00     0.123 A 
ATOM     27  C   UNL A   1      42.833  24.556  35.976  1.00  0.00     0.030 A 
ATOM     28  N   UNL A   1      44.366  25.698  34.517  1.00  0.00    -0.255 NA
ATOM     29  C   UNL A   1      43.999  24.593  35.214  1.00  0.00     0.073 A 
BRANCH  29  30
ATOM     30  C   UNL A   1      44.913  23.459  35.159  1.00  0.00     0.037 A 
ATOM     31  C   UNL A   1      46.199  23.488  35.670  1.00  0.00     0.124 A 
ATOM     32  C   UNL A   1      44.584  22.262  34.547  1.00  0.00     0.124 A 
ATOM     33  N   UNL A   1      47.089  22.474  35.573  1.00  0.00    -0.244 NA
ATOM     34  N   UNL A   1      45.426  21.212  34.412  1.00  0.00    -0.244 NA
ATOM     35  C   UNL A   1      46.648  21.378  34.939  1.00  0.00     0.221 A 
ENDBRANCH  29  30
ENDBRANCH  22  24
ENDBRANCH  15  19
ENDBRANCH  12  13
ENDBRANCH  11  12
ENDBRANCH   4   6
ENDBRANCH   1   2
BRANCH   1  36
ATOM     36  C   UNL A   1      34.464  34.897  28.664  1.00  0.00     0.023 C 
BRANCH  36  37
ATOM     37  C   UNL A   1      34.938  33.531  28.165  1.00  0.00     0.023 C 
BRANCH  37  38
ATOM     38  C   UNL A   1      34.587  32.343  29.056  1.00  0.00     0.116 C 
BRANCH  38  39
ATOM     39  N   UNL A   1      34.054  31.208  28.317  1.00  0.00    -0.352 N 
ATOM     40  C   UNL A   1      34.701  30.064  27.907  1.00  0.00     0.251 C 
ATOM     41  H   UNL A   1      33.100  31.264  28.080  1.00  0.00     0.163 HD
ATOM     42  O   UNL A   1      34.118  29.254  27.193  1.00  0.00    -0.269 OA
BRANCH  40  43
ATOM     43  C   UNL A   1      36.111  29.843  28.296  1.00  0.00     0.039 A 
ATOM     44  C   UNL A   1      36.395  29.335  29.567  1.00  0.00     0.014 A 
ATOM     45  C   UNL A   1      37.147  30.096  27.393  1.00  0.00     0.014 A 
ATOM     46  C   UNL A   1      37.710  28.997  29.902  1.00  0.00     0.010 A 
ATOM     47  C   UNL A   1      38.445  29.699  27.704  1.00  0.00     0.010 A 
ATOM     48  C   UNL A   1      38.739  29.134  28.957  1.00  0.00    -0.014 A 
BRANCH  48  49
ATOM     49  C   UNL A   1      40.131  28.688  29.235  1.00  0.00     0.031 A 
ATOM     50  C   UNL A   1      41.046  29.571  30.042  1.00  0.00     0.074 A 
ATOM     51  C   UNL A   1      40.603  27.557  28.674  1.00  0.00     0.049 A 
ATOM     52  N   UNL A   1      42.335  29.470  30.235  1.00  0.00    -0.248 NA
ATOM     53  C   UNL A   1      40.429  30.742  30.685  1.00  0.00     0.031 C 
ATOM     54  C   UNL A   1      39.823  26.631  27.850  1.00  0.00     0.029 A 
ATOM     55  N   UNL A   1      41.861  27.006  28.685  1.00  0.00    -0.354 N 
ATOM     56  C   UNL A   1      42.693  30.584  30.988  1.00  0.00     0.074 A 
ATOM     57  C   UNL A   1      41.487  31.359  31.191  1.00  0.00     0.031 C 
ATOM     58  C   UNL A   1      40.619  25.630  27.436  1.00  0.00     0.029 A 
ATOM     59  C   UNL A   1      41.976  25.867  27.919  1.00  0.00     0.049 A 
ATOM     60  H   UNL A   1      42.612  27.389  29.195  1.00  0.00     0.167 HD
ATOM     61  C   UNL A   1      43.914  30.923  31.469  1.00  0.00     0.034 A 
ATOM     62  C   UNL A   1      43.055  25.117  27.616  1.00  0.00     0.034 A 
ATOM     63  C   UNL A   1      45.096  30.117  31.300  1.00  0.00     0.049 A 
ATOM     64  C   UNL A   1      44.401  25.514  28.173  1.00  0.00     0.074 A 
ATOM     65  C   UNL A   1      46.362  30.327  31.818  1.00  0.00     0.029 A 
ATOM     66  N   UNL A   1      45.161  28.947  30.556  1.00  0.00    -0.354 N 
ATOM     67  N   UNL A   1      44.712  26.546  28.923  1.00  0.00    -0.248 NA
ATOM     68  C   UNL A   1      45.540  24.644  27.850  1.00  0.00     0.031 C 
ATOM     69  C   UNL A   1      47.205  29.316  31.345  1.00  0.00     0.029 A 
ATOM     70  C   UNL A   1      46.451  28.439  30.584  1.00  0.00     0.049 A 
ATOM     71  H   UNL A   1      44.403  28.538  30.078  1.00  0.00     0.167 HD
ATOM     72  C   UNL A   1      46.071  26.421  29.195  1.00  0.00     0.074 A 
ATOM     73  C   UNL A   1      46.521  25.215  28.532  1.00  0.00     0.031 C 
ATOM     74  C   UNL A   1      46.876  27.226  29.932  1.00  0.00     0.034 A 
BRANCH  61  75
ATOM     75  C   UNL A   1      44.040  32.234  32.202  1.00  0.00     0.023 A 
ATOM     76  C   UNL A   1      44.309  33.437  31.529  1.00  0.00     0.031 A 
ATOM     77  C   UNL A   1      43.881  32.277  33.599  1.00  0.00     0.131 A 
ATOM     78  C   UNL A   1      44.467  34.624  32.259  1.00  0.00     0.055 A 
ATOM     79  C   UNL A   1      43.969  33.474  34.312  1.00  0.00     0.041 A 
ATOM     80  F   UNL A   1      43.642  31.154  34.293  1.00  0.00    -0.206 F 
ATOM     81  C   UNL A   1      44.274  34.655  33.643  1.00  0.00     0.022 A 
BRANCH  78  82
ATOM     82  S   UNL A   1      45.029  36.111  31.387  1.00  0.00     0.124 S 
ATOM     83  O   UNL A   1      44.889  35.703  29.991  1.00  0.00    -0.237 OA
ATOM     84  O   UNL A   1      44.090  37.125  31.852  1.00  0.00    -0.237 OA
ATOM     85  O   UNL A   1      46.406  36.278  31.846  1.00  0.00    -0.744 OA
ENDBRANCH  78  82
ENDBRANCH  61  75
BRANCH  62  86
ATOM     86  C   UNL A   1      42.935  23.932  26.718  1.00  0.00     0.023 A 
ATOM     87  C   UNL A   1      42.270  22.770  27.145  1.00  0.00     0.031 A 
ATOM     88  C   UNL A   1      43.549  23.911  25.453  1.00  0.00     0.131 A 
ATOM     89  C   UNL A   1      42.289  21.618  26.343  1.00  0.00     0.055 A 
ATOM     90  C   UNL A   1      43.515  22.781  24.634  1.00  0.00     0.041 A 
ATOM     91  F   UNL A   1      44.193  24.995  24.993  1.00  0.00    -0.206 F 
ATOM     92  C   UNL A   1      42.898  21.618  25.087  1.00  0.00     0.022 A 
BRANCH  89  93
ATOM     93  S   UNL A   1      41.608  20.080  27.023  1.00  0.00     0.124 S 
ATOM     94  O   UNL A   1      42.818  19.373  27.430  1.00  0.00    -0.237 OA
ATOM     95  O   UNL A   1      40.762  20.576  28.102  1.00  0.00    -0.237 OA
ATOM     96  O   UNL A   1      40.895  19.494  25.890  1.00  0.00    -0.744 OA
ENDBRANCH  89  93
ENDBRANCH  62  86
BRANCH  74  97
ATOM     97  C   UNL A   1      48.303  26.784  30.124  1.00  0.00     0.023 A 
ATOM     98  C   UNL A   1      49.334  27.204  29.268  1.00  0.00     0.031 A 
ATOM     99  C   UNL A   1      48.632  25.934  31.195  1.00  0.00     0.131 A 
ATOM    100  C   UNL A   1      50.642  26.741  29.474  1.00  0.00     0.055 A 
ATOM    101  C   UNL A   1      49.943  25.515  31.424  1.00  0.00     0.041 A 
ATOM    102  F   UNL A   1      47.684  25.506  32.043  1.00  0.00    -0.206 F 
ATOM    103  C   UNL A   1      50.956  25.912  30.555  1.00  0.00     0.022 A 
BRANCH 100 104
ATOM    104  S   UNL A   1      51.928  27.192  28.275  1.00  0.00     0.124 S 
ATOM    105  O   UNL A   1      52.629  25.925  28.091  1.00  0.00    -0.237 OA
ATOM    106  O   UNL A   1      51.144  27.658  27.136  1.00  0.00    -0.237 OA
ATOM    107  O   UNL A   1      52.691  28.230  28.965  1.00  0.00    -0.744 OA
ENDBRANCH 100 104
ENDBRANCH  74  97
ENDBRANCH  48  49
ENDBRANCH  40  43
ENDBRANCH  38  39
ENDBRANCH  37  38
ENDBRANCH  36  37
ENDBRANCH   1  36
TORSDOF 19
ENDMDL
MODEL 3
REMARK VINA RESULT:     -10.0      4.478      8.494
REMARK SMILES O=C(NCCCCNC(=O)c1ccc(-c2c3nc(c(-c4cc(S(=O)(=O)[O-])ccc4F)c4ccc([nH]4)c(-c4cc(S(=O)(=O)[O-])ccc4F)c4nc(c(-c5cc(S(=O)(=O)[O-])ccc5F)c5ccc2[nH]5)C=C4)C=C3)cc1)c1ccc(C[N@@H+]2CCC[C@H]2c2nc(-c3ccc(-c4cncnc4)nc3)no2)cc1
REMARK SMILES IDX 4 1 3 2 1 3 2 4 74 6 75 7 102 8 76 9 101 10 77 11 78 12
REMARK SMILES IDX 79 13 80 14 83 15 81 17 82 18 84 19 85 20 100 21 86 22 99 23
REMARK SMILES IDX 87 24 88 25 98 26 89 27 97 28 90 29 91 30 92 31 96 32 93 33
REMARK SMILES IDX 95 34 94 35 5 36 6 37 7 38 8 39 9 40 10 42 11 43 12 44 73 45
REMARK SMILES IDX 13 46 72 47 14 48 15 49 16 50 66 51 17 52 71 53 65 54 67 55
REMARK SMILES IDX 18 56 70 57 64 58 63 59 19 61 51 62 31 63 50 64 32 65 35 66
REMARK SMILES IDX 49 67 68 68 33 69 34 70 48 72 69 73 36 74 20 75 21 76 29 77
REMARK SMILES IDX 22 78 28 79 30 80 27 81 23 82 24 83 25 84 26 85 52 86 53 87
REMARK SMILES IDX 61 88 54 89 60 90 62 91 59 92 55 93 56 94 57 95 58 96 37 97
REMARK SMILES IDX 38 98 46 99 39 100 45 101 47 102 44 103 40 104 41 105 42 106
REMARK SMILES IDX 43 107
REMARK H PARENT 3 5 79 16 8 41 67 60 35 71
REMARK Flexibility Score: inf
ROOT
ATOM      1  C   UNL A   1      39.029  33.556  38.109  1.00  0.00     0.116 C 
ENDROOT
BRANCH   1   2
ATOM      2  N   UNL A   1      38.336  32.288  38.273  1.00  0.00    -0.352 N 
ATOM      3  O   UNL A   1      37.323  30.380  37.585  1.00  0.00    -0.269 OA
ATOM      4  C   UNL A   1      38.033  31.344  37.322  1.00  0.00     0.251 C 
ATOM      5  H   UNL A   1      38.044  32.078  39.189  1.00  0.00     0.163 HD
BRANCH   4   6
ATOM      6  C   UNL A   1      38.555  31.514  35.954  1.00  0.00     0.039 A 
ATOM      7  C   UNL A   1      38.211  32.640  35.204  1.00  0.00     0.014 A 
ATOM      8  C   UNL A   1      39.381  30.527  35.416  1.00  0.00     0.014 A 
ATOM      9  C   UNL A   1      38.620  32.730  33.874  1.00  0.00     0.010 A 
ATOM     10  C   UNL A   1      39.786  30.621  34.082  1.00  0.00     0.010 A 
ATOM     11  C   UNL A   1      39.376  31.703  33.284  1.00  0.00     0.006 A 
BRANCH  11  12
ATOM     12  C   UNL A   1      39.735  31.769  31.811  1.00  0.00     0.299 C 
BRANCH  12  13
ATOM     13  N   UNL A   1      38.767  31.222  30.852  1.00  0.00    -0.321 N 
ATOM     14  C   UNL A   1      37.648  32.094  30.499  1.00  0.00     0.263 C 
ATOM     15  C   UNL A   1      38.208  29.902  31.202  1.00  0.00     0.275 C 
ATOM     16  H   UNL A   1      39.374  31.130  30.037  1.00  0.00     0.349 HD
ATOM     17  C   UNL A   1      36.469  31.594  31.310  1.00  0.00     0.068 C 
ATOM     18  C   UNL A   1      36.693  30.095  31.369  1.00  0.00     0.081 C 
BRANCH  15  19
ATOM     19  C   UNL A   1      38.477  28.863  30.148  1.00  0.00     0.285 A 
ATOM     20  N   UNL A   1      38.980  27.646  30.233  1.00  0.00    -0.186 NA
ATOM     21  O   UNL A   1      38.281  29.271  28.861  1.00  0.00    -0.332 OA
ATOM     22  C   UNL A   1      39.139  27.299  28.910  1.00  0.00     0.204 A 
ATOM     23  N   UNL A   1      38.727  28.238  28.043  1.00  0.00    -0.057 NA
BRANCH  22  24
ATOM     24  C   UNL A   1      39.756  26.060  28.484  1.00  0.00     0.041 A 
ATOM     25  C   UNL A   1      41.123  25.840  28.662  1.00  0.00     0.016 A 
ATOM     26  C   UNL A   1      39.027  25.054  27.866  1.00  0.00     0.123 A 
ATOM     27  C   UNL A   1      41.700  24.650  28.220  1.00  0.00     0.030 A 
ATOM     28  N   UNL A   1      39.571  23.897  27.393  1.00  0.00    -0.255 NA
ATOM     29  C   UNL A   1      40.901  23.705  27.580  1.00  0.00     0.073 A 
BRANCH  29  30
ATOM     30  C   UNL A   1      41.460  22.473  27.036  1.00  0.00     0.037 A 
ATOM     31  C   UNL A   1      41.306  21.235  27.634  1.00  0.00     0.124 A 
ATOM     32  C   UNL A   1      42.236  22.446  25.891  1.00  0.00     0.124 A 
ATOM     33  N   UNL A   1      41.869  20.089  27.188  1.00  0.00    -0.244 NA
ATOM     34  N   UNL A   1      42.833  21.338  25.395  1.00  0.00    -0.244 NA
ATOM     35  C   UNL A   1      42.614  20.206  26.079  1.00  0.00     0.221 A 
ENDBRANCH  29  30
ENDBRANCH  22  24
ENDBRANCH  15  19
ENDBRANCH  12  13
ENDBRANCH  11  12
ENDBRANCH   4   6
ENDBRANCH   1   2
BRANCH   1  36
ATOM     36  C   UNL A   1      39.057  34.378  39.396  1.00  0.00     0.023 C 
BRANCH  36  37
ATOM     37  C   UNL A   1      40.181  34.021  40.370  1.00  0.00     0.023 C 
BRANCH  37  38
ATOM     38  C   UNL A   1      41.565  34.550  40.004  1.00  0.00     0.116 C 
BRANCH  38  39
ATOM     39  N   UNL A   1      41.604  35.997  39.847  1.00  0.00    -0.352 N 
ATOM     40  C   UNL A   1      41.980  36.735  38.748  1.00  0.00     0.251 C 
ATOM     41  H   UNL A   1      41.321  36.518  40.632  1.00  0.00     0.163 HD
ATOM     42  O   UNL A   1      42.057  37.958  38.830  1.00  0.00    -0.269 OA
BRANCH  40  43
ATOM     43  C   UNL A   1      42.331  36.044  37.488  1.00  0.00     0.039 A 
ATOM     44  C   UNL A   1      43.664  35.700  37.248  1.00  0.00     0.014 A 
ATOM     45  C   UNL A   1      41.339  35.700  36.565  1.00  0.00     0.014 A 
ATOM     46  C   UNL A   1      43.992  34.931  36.127  1.00  0.00     0.010 A 
ATOM     47  C   UNL A   1      41.658  34.882  35.484  1.00  0.00     0.010 A 
ATOM     48  C   UNL A   1      42.985  34.478  35.261  1.00  0.00    -0.014 A 
BRANCH  48  49
ATOM     49  C   UNL A   1      43.278  33.573  34.116  1.00  0.00     0.031 A 
ATOM     50  C   UNL A   1      43.429  34.148  32.734  1.00  0.00     0.074 A 
ATOM     51  C   UNL A   1      43.293  32.237  34.299  1.00  0.00     0.049 A 
ATOM     52  N   UNL A   1      43.491  33.532  31.582  1.00  0.00    -0.248 NA
ATOM     53  C   UNL A   1      43.481  35.616  32.636  1.00  0.00     0.031 C 
ATOM     54  C   UNL A   1      43.132  31.556  35.586  1.00  0.00     0.029 A 
ATOM     55  N   UNL A   1      43.424  31.208  33.398  1.00  0.00    -0.354 N 
ATOM     56  C   UNL A   1      43.549  34.534  30.619  1.00  0.00     0.074 A 
ATOM     57  C   UNL A   1      43.487  35.798  31.323  1.00  0.00     0.031 C 
ATOM     58  C   UNL A   1      43.173  30.227  35.390  1.00  0.00     0.029 A 
ATOM     59  C   UNL A   1      43.310  29.957  33.962  1.00  0.00     0.049 A 
ATOM     60  H   UNL A   1      43.585  31.352  32.437  1.00  0.00     0.167 HD
ATOM     61  C   UNL A   1      43.651  34.409  29.273  1.00  0.00     0.034 A 
ATOM     62  C   UNL A   1      43.288  28.735  33.392  1.00  0.00     0.034 A 
ATOM     63  C   UNL A   1      43.760  33.145  28.590  1.00  0.00     0.049 A 
ATOM     64  C   UNL A   1      43.411  28.626  31.892  1.00  0.00     0.074 A 
ATOM     65  C   UNL A   1      43.952  32.911  27.239  1.00  0.00     0.029 A 
ATOM     66  N   UNL A   1      43.686  31.901  29.201  1.00  0.00    -0.354 N 
ATOM     67  N   UNL A   1      43.513  29.585  31.000  1.00  0.00    -0.248 NA
ATOM     68  C   UNL A   1      43.424  27.272  31.320  1.00  0.00     0.031 C 
ATOM     69  C   UNL A   1      43.940  31.529  27.026  1.00  0.00     0.029 A 
ATOM     70  C   UNL A   1      43.805  30.899  28.252  1.00  0.00     0.049 A 
ATOM     71  H   UNL A   1      43.566  31.753  30.167  1.00  0.00     0.167 HD
ATOM     72  C   UNL A   1      43.646  28.946  29.770  1.00  0.00     0.074 A 
ATOM     73  C   UNL A   1      43.614  27.522  30.033  1.00  0.00     0.031 C 
ATOM     74  C   UNL A   1      43.790  29.485  28.535  1.00  0.00     0.034 A 
BRANCH  61  75
ATOM     75  C   UNL A   1      43.622  35.669  28.447  1.00  0.00     0.023 A 
ATOM     76  C   UNL A   1      44.793  36.382  28.140  1.00  0.00     0.031 A 
ATOM     77  C   UNL A   1      42.400  36.160  27.954  1.00  0.00     0.131 A 
ATOM     78  C   UNL A   1      44.711  37.576  27.410  1.00  0.00     0.055 A 
ATOM     79  C   UNL A   1      42.334  37.311  27.168  1.00  0.00     0.041 A 
ATOM     80  F   UNL A   1      41.249  35.529  28.233  1.00  0.00    -0.206 F 
ATOM     81  C   UNL A   1      43.493  38.033  26.901  1.00  0.00     0.022 A 
BRANCH  78  82
ATOM     82  S   UNL A   1      46.208  38.582  27.221  1.00  0.00     0.124 S 
ATOM     83  O   UNL A   1      46.567  38.316  25.831  1.00  0.00    -0.237 OA
ATOM     84  O   UNL A   1      45.725  39.926  27.510  1.00  0.00    -0.237 OA
ATOM     85  O   UNL A   1      47.125  38.022  28.213  1.00  0.00    -0.744 OA
ENDBRANCH  78  82
ENDBRANCH  61  75
BRANCH  62  86
ATOM     86  C   UNL A   1      43.111  27.507  34.222  1.00  0.00     0.023 A 
ATOM     87  C   UNL A   1      44.224  26.789  34.689  1.00  0.00     0.031 A 
ATOM     88  C   UNL A   1      41.832  26.990  34.494  1.00  0.00     0.131 A 
ATOM     89  C   UNL A   1      44.040  25.562  35.347  1.00  0.00     0.055 A 
ATOM     90  C   UNL A   1      41.652  25.798  35.199  1.00  0.00     0.041 A 
ATOM     91  F   UNL A   1      40.734  27.639  34.075  1.00  0.00    -0.206 F 
ATOM     92  C   UNL A   1      42.762  25.067  35.614  1.00  0.00     0.022 A 
BRANCH  89  93
ATOM     93  S   UNL A   1      45.502  24.563  35.741  1.00  0.00     0.124 S 
ATOM     94  O   UNL A   1      46.244  25.457  36.623  1.00  0.00    -0.237 OA
ATOM     95  O   UNL A   1      44.904  23.391  36.370  1.00  0.00    -0.237 OA
ATOM     96  O   UNL A   1      46.113  24.326  34.435  1.00  0.00    -0.744 OA
ENDBRANCH  89  93
ENDBRANCH  62  86
BRANCH  74  97
ATOM     97  C   UNL A   1      44.001  28.533  27.387  1.00  0.00     0.023 A 
ATOM     98  C   UNL A   1      45.269  28.017  27.073  1.00  0.00     0.031 A 
ATOM     99  C   UNL A   1      42.906  28.130  26.604  1.00  0.00     0.131 A 
ATOM    100  C   UNL A   1      45.417  27.154  25.977  1.00  0.00     0.055 A 
ATOM    101  C   UNL A   1      43.050  27.234  25.544  1.00  0.00     0.041 A 
ATOM    102  F   UNL A   1      41.673  28.594  26.864  1.00  0.00    -0.206 F 
ATOM    103  C   UNL A   1      44.314  26.748  25.220  1.00  0.00     0.022 A 
BRANCH 100 104
ATOM    104  S   UNL A   1      47.084  26.608  25.513  1.00  0.00     0.124 S 
ATOM    105  O   UNL A   1      47.132  26.949  24.094  1.00  0.00    -0.237 OA
ATOM    106  O   UNL A   1      47.932  27.411  26.389  1.00  0.00    -0.237 OA
ATOM    107  O   UNL A   1      47.071  25.177  25.808  1.00  0.00    -0.744 OA
ENDBRANCH 100 104
ENDBRANCH  74  97
ENDBRANCH  48  49
ENDBRANCH  40  43
ENDBRANCH  38  39
ENDBRANCH  37  38
ENDBRANCH  36  37
ENDBRANCH   1  36
TORSDOF 19
ENDMDL
