MODEL 1
REMARK VINA RESULT:      -9.6      0.000      0.000
REMARK SMILES CC(=O)N1CCC[C@H]1COCC(=O)NCCCCNC(=O)c1ccc(-c2c3nc(c(-c4cc(S(=O)(=O)[O-])ccc4F)c4ccc([nH]4)c(-c4cc(S(=O)(=O)[O-])ccc4F)c4nc(c(-c5cc(S(=O)(=O)[O-])ccc5F)c5ccc2[nH]5)C=C4)C=C3)cc1
REMARK SMILES IDX 16 1 15 2 14 3 12 4 13 5 11 7 10 8 9 9 8 10 4 11 5 12 6 13
REMARK SMILES IDX 7 14 2 15 1 16 3 17 17 18 18 19 19 20 20 21 21 23 22 24
REMARK SMILES IDX 23 25 84 26 24 27 83 28 25 29 26 30 27 31 77 32 28 33 82 34
REMARK SMILES IDX 76 35 78 36 29 37 81 38 75 39 74 40 30 42 62 43 42 44 61 45
REMARK SMILES IDX 43 46 46 47 60 48 79 49 44 50 45 51 59 53 80 54 47 55 31 56
REMARK SMILES IDX 32 57 40 58 33 59 39 60 41 61 38 62 34 63 35 64 36 65 37 66
REMARK SMILES IDX 63 67 64 68 72 69 65 70 71 71 73 72 70 73 66 74 67 75 68 76
REMARK SMILES IDX 69 77 48 78 49 79 57 80 50 81 56 82 58 83 55 84 51 85 52 86
REMARK SMILES IDX 53 87 54 88
REMARK H PARENT 14 6 19 22 78 41 46 52
REMARK Flexibility Score: inf
ROOT
ATOM      1  C   UNL A   1      33.534  35.048  29.007  1.00  0.00     0.023 C 
ENDROOT
BRANCH   1   2
ATOM      2  C   UNL A   1      34.037  35.320  30.422  1.00  0.00     0.116 C 
BRANCH   2   3
ATOM      3  N   UNL A   1      33.575  36.593  30.938  1.00  0.00    -0.354 N 
ATOM      4  C   UNL A   1      33.747  37.109  32.188  1.00  0.00     0.245 C 
ATOM      5  O   UNL A   1      33.295  38.225  32.446  1.00  0.00    -0.272 OA
ATOM      6  H   UNL A   1      33.073  37.157  30.305  1.00  0.00     0.163 HD
BRANCH   4   7
ATOM      7  C   UNL A   1      34.484  36.277  33.253  1.00  0.00     0.260 C 
BRANCH   7   8
ATOM      8  O   UNL A   1      33.993  34.998  33.621  1.00  0.00    -0.370 OA
BRANCH   8   9
ATOM      9  C   UNL A   1      34.969  34.056  34.082  1.00  0.00     0.185 C 
BRANCH   9  10
ATOM     10  C   UNL A   1      36.042  33.621  33.058  1.00  0.00     0.111 C 
ATOM     11  N   UNL A   1      37.310  33.254  33.679  1.00  0.00    -0.338 N 
ATOM     12  C   UNL A   1      37.374  31.826  33.900  1.00  0.00     0.120 C 
ATOM     13  C   UNL A   1      36.501  31.228  32.808  1.00  0.00     0.024 C 
ATOM     14  C   UNL A   1      35.717  32.397  32.206  1.00  0.00     0.029 C 
BRANCH  11  15
ATOM     15  C   UNL A   1      38.274  34.193  33.962  1.00  0.00     0.219 C 
ATOM     16  C   UNL A   1      39.286  34.469  32.882  1.00  0.00     0.114 C 
ATOM     17  O   UNL A   1      38.287  34.832  35.014  1.00  0.00    -0.275 OA
ENDBRANCH  11  15
ENDBRANCH   9  10
ENDBRANCH   8   9
ENDBRANCH   7   8
ENDBRANCH   4   7
ENDBRANCH   2   3
ENDBRANCH   1   2
BRANCH   1  18
ATOM     18  C   UNL A   1      34.569  34.457  28.045  1.00  0.00     0.023 C 
BRANCH  18  19
ATOM     19  C   UNL A   1      35.042  33.041  28.362  1.00  0.00     0.116 C 
BRANCH  19  20
ATOM     20  N   UNL A   1      34.112  32.012  27.924  1.00  0.00    -0.352 N 
ATOM     21  C   UNL A   1      34.326  30.663  27.769  1.00  0.00     0.251 C 
ATOM     22  H   UNL A   1      33.203  32.326  27.711  1.00  0.00     0.163 HD
ATOM     23  O   UNL A   1      33.445  29.959  27.283  1.00  0.00    -0.269 OA
BRANCH  21  24
ATOM     24  C   UNL A   1      35.631  30.076  28.145  1.00  0.00     0.039 A 
ATOM     25  C   UNL A   1      36.678  30.113  27.220  1.00  0.00     0.014 A 
ATOM     26  C   UNL A   1      35.832  29.525  29.412  1.00  0.00     0.014 A 
ATOM     27  C   UNL A   1      37.948  29.666  27.594  1.00  0.00     0.010 A 
ATOM     28  C   UNL A   1      37.113  29.147  29.807  1.00  0.00     0.010 A 
ATOM     29  C   UNL A   1      38.187  29.219  28.904  1.00  0.00    -0.014 A 
BRANCH  29  30
ATOM     30  C   UNL A   1      39.551  28.830  29.352  1.00  0.00     0.031 A 
ATOM     31  C   UNL A   1      40.231  29.601  30.451  1.00  0.00     0.074 A 
ATOM     32  C   UNL A   1      40.204  27.834  28.721  1.00  0.00     0.049 A 
ATOM     33  N   UNL A   1      41.447  29.479  30.920  1.00  0.00    -0.248 NA
ATOM     34  C   UNL A   1      39.448  30.672  31.085  1.00  0.00     0.031 C 
ATOM     35  C   UNL A   1      39.666  27.039  27.614  1.00  0.00     0.029 A 
ATOM     36  N   UNL A   1      41.464  27.324  28.911  1.00  0.00    -0.354 N 
ATOM     37  C   UNL A   1      41.581  30.465  31.891  1.00  0.00     0.074 A 
ATOM     38  C   UNL A   1      40.342  31.214  31.896  1.00  0.00     0.031 C 
ATOM     39  C   UNL A   1      40.581  26.131  27.239  1.00  0.00     0.029 A 
ATOM     40  C   UNL A   1      41.786  26.305  28.043  1.00  0.00     0.049 A 
ATOM     41  H   UNL A   1      42.080  27.656  29.603  1.00  0.00     0.167 HD
ATOM     42  C   UNL A   1      42.630  30.708  32.716  1.00  0.00     0.034 A 
ATOM     43  C   UNL A   1      42.928  25.602  27.900  1.00  0.00     0.034 A 
ATOM     44  C   UNL A   1      43.853  29.943  32.705  1.00  0.00     0.049 A 
ATOM     45  C   UNL A   1      44.089  25.903  28.814  1.00  0.00     0.074 A 
ATOM     46  C   UNL A   1      44.956  30.067  33.531  1.00  0.00     0.029 A 
ATOM     47  N   UNL A   1      44.140  28.913  31.816  1.00  0.00    -0.354 N 
ATOM     48  N   UNL A   1      44.182  26.808  29.760  1.00  0.00    -0.248 NA
ATOM     49  C   UNL A   1      45.294  25.080  28.647  1.00  0.00     0.031 C 
ATOM     50  C   UNL A   1      45.933  29.162  33.101  1.00  0.00     0.029 A 
ATOM     51  C   UNL A   1      45.412  28.415  32.056  1.00  0.00     0.049 A 
ATOM     52  H   UNL A   1      43.528  28.584  31.118  1.00  0.00     0.167 HD
ATOM     53  C   UNL A   1      45.443  26.638  30.325  1.00  0.00     0.074 A 
ATOM     54  C   UNL A   1      46.069  25.539  29.618  1.00  0.00     0.031 C 
ATOM     55  C   UNL A   1      46.028  27.322  31.341  1.00  0.00     0.034 A 
BRANCH  42  56
ATOM     56  C   UNL A   1      42.502  31.867  33.678  1.00  0.00     0.023 A 
ATOM     57  C   UNL A   1      41.918  31.710  34.948  1.00  0.00     0.031 A 
ATOM     58  C   UNL A   1      42.938  33.151  33.311  1.00  0.00     0.131 A 
ATOM     59  C   UNL A   1      41.708  32.830  35.767  1.00  0.00     0.055 A 
ATOM     60  C   UNL A   1      42.807  34.247  34.167  1.00  0.00     0.041 A 
ATOM     61  F   UNL A   1      43.486  33.370  32.104  1.00  0.00    -0.206 F 
ATOM     62  C   UNL A   1      42.173  34.094  35.396  1.00  0.00     0.022 A 
BRANCH  59  63
ATOM     63  S   UNL A   1      40.681  32.638  37.249  1.00  0.00     0.124 S 
ATOM     64  O   UNL A   1      41.637  32.068  38.196  1.00  0.00    -0.237 OA
ATOM     65  O   UNL A   1      40.253  34.005  37.516  1.00  0.00    -0.237 OA
ATOM     66  O   UNL A   1      39.625  31.724  36.818  1.00  0.00    -0.744 OA
ENDBRANCH  59  63
ENDBRANCH  42  56
BRANCH  43  67
ATOM     67  C   UNL A   1      43.038  24.549  26.850  1.00  0.00     0.023 A 
ATOM     68  C   UNL A   1      42.422  23.297  27.012  1.00  0.00     0.031 A 
ATOM     69  C   UNL A   1      43.792  24.764  25.683  1.00  0.00     0.131 A 
ATOM     70  C   UNL A   1      42.608  22.295  26.048  1.00  0.00     0.055 A 
ATOM     71  C   UNL A   1      43.932  23.782  24.701  1.00  0.00     0.041 A 
ATOM     72  F   UNL A   1      44.398  25.944  25.475  1.00  0.00    -0.206 F 
ATOM     73  C   UNL A   1      43.347  22.533  24.887  1.00  0.00     0.022 A 
BRANCH  70  74
ATOM     74  S   UNL A   1      41.935  20.642  26.373  1.00  0.00     0.124 S 
ATOM     75  O   UNL A   1      42.299  20.442  27.770  1.00  0.00    -0.237 OA
ATOM     76  O   UNL A   1      40.514  20.835  26.101  1.00  0.00    -0.237 OA
ATOM     77  O   UNL A   1      42.640  19.794  25.415  1.00  0.00    -0.744 OA
ENDBRANCH  70  74
ENDBRANCH  43  67
BRANCH  55  78
ATOM     78  C   UNL A   1      47.395  26.861  31.785  1.00  0.00     0.023 A 
ATOM     79  C   UNL A   1      48.574  27.379  31.222  1.00  0.00     0.031 A 
ATOM     80  C   UNL A   1      47.514  25.883  32.789  1.00  0.00     0.131 A 
ATOM     81  C   UNL A   1      49.820  26.879  31.631  1.00  0.00     0.055 A 
ATOM     82  C   UNL A   1      48.758  25.434  33.234  1.00  0.00     0.041 A 
ATOM     83  F   UNL A   1      46.421  25.354  33.360  1.00  0.00    -0.206 F 
ATOM     84  C   UNL A   1      49.920  25.924  32.645  1.00  0.00     0.022 A 
BRANCH  81  85
ATOM     85  S   UNL A   1      51.311  27.436  30.760  1.00  0.00     0.124 S 
ATOM     86  O   UNL A   1      52.024  28.158  31.809  1.00  0.00    -0.237 OA
ATOM     87  O   UNL A   1      51.912  26.176  30.331  1.00  0.00    -0.237 OA
ATOM     88  O   UNL A   1      50.787  28.270  29.680  1.00  0.00    -0.744 OA
ENDBRANCH  81  85
ENDBRANCH  55  78
ENDBRANCH  29  30
ENDBRANCH  21  24
ENDBRANCH  19  20
ENDBRANCH  18  19
ENDBRANCH   1  18
TORSDOF 18
ENDMDL
MODEL 2
REMARK VINA RESULT:      -9.4      3.463      6.280
REMARK SMILES CC(=O)N1CCC[C@H]1COCC(=O)NCCCCNC(=O)c1ccc(-c2c3nc(c(-c4cc(S(=O)(=O)[O-])ccc4F)c4ccc([nH]4)c(-c4cc(S(=O)(=O)[O-])ccc4F)c4nc(c(-c5cc(S(=O)(=O)[O-])ccc5F)c5ccc2[nH]5)C=C4)C=C3)cc1
REMARK SMILES IDX 16 1 15 2 14 3 12 4 13 5 11 7 10 8 9 9 8 10 4 11 5 12 6 13
REMARK SMILES IDX 7 14 2 15 1 16 3 17 17 18 18 19 19 20 20 21 21 23 22 24
REMARK SMILES IDX 23 25 84 26 24 27 83 28 25 29 26 30 27 31 77 32 28 33 82 34
REMARK SMILES IDX 76 35 78 36 29 37 81 38 75 39 74 40 30 42 62 43 42 44 61 45
REMARK SMILES IDX 43 46 46 47 60 48 79 49 44 50 45 51 59 53 80 54 47 55 31 56
REMARK SMILES IDX 32 57 40 58 33 59 39 60 41 61 38 62 34 63 35 64 36 65 37 66
REMARK SMILES IDX 63 67 64 68 72 69 65 70 71 71 73 72 70 73 66 74 67 75 68 76
REMARK SMILES IDX 69 77 48 78 49 79 57 80 50 81 56 82 58 83 55 84 51 85 52 86
REMARK SMILES IDX 53 87 54 88
REMARK H PARENT 14 6 19 22 78 41 46 52
REMARK Flexibility Score: inf
ROOT
ATOM      1  C   UNL A   1      33.403  27.011  24.461  1.00  0.00     0.023 C 
ENDROOT
BRANCH   1   2
ATOM      2  C   UNL A   1      31.940  26.752  24.811  1.00  0.00     0.116 C 
BRANCH   2   3
ATOM      3  N   UNL A   1      31.791  25.963  26.018  1.00  0.00    -0.354 N 
ATOM      4  C   UNL A   1      31.457  24.645  26.128  1.00  0.00     0.245 C 
ATOM      5  O   UNL A   1      31.395  24.132  27.245  1.00  0.00    -0.272 OA
ATOM      6  H   UNL A   1      31.952  26.439  26.866  1.00  0.00     0.163 HD
BRANCH   4   7
ATOM      7  C   UNL A   1      31.148  23.836  24.856  1.00  0.00     0.260 C 
BRANCH   7   8
ATOM      8  O   UNL A   1      31.850  22.633  24.590  1.00  0.00    -0.370 OA
BRANCH   8   9
ATOM      9  C   UNL A   1      33.204  22.776  24.145  1.00  0.00     0.185 C 
BRANCH   9  10
ATOM     10  C   UNL A   1      34.269  21.962  24.913  1.00  0.00     0.111 C 
ATOM     11  N   UNL A   1      35.254  22.800  25.588  1.00  0.00    -0.338 N 
ATOM     12  C   UNL A   1      34.871  23.030  26.963  1.00  0.00     0.120 C 
ATOM     13  C   UNL A   1      34.066  21.799  27.350  1.00  0.00     0.024 C 
ATOM     14  C   UNL A   1      33.762  21.065  26.040  1.00  0.00     0.029 C 
BRANCH  11  15
ATOM     15  C   UNL A   1      36.381  23.252  24.941  1.00  0.00     0.219 C 
ATOM     16  C   UNL A   1      37.477  23.812  25.808  1.00  0.00     0.114 C 
ATOM     17  O   UNL A   1      36.530  23.153  23.723  1.00  0.00    -0.275 OA
ENDBRANCH  11  15
ENDBRANCH   9  10
ENDBRANCH   8   9
ENDBRANCH   7   8
ENDBRANCH   4   7
ENDBRANCH   2   3
ENDBRANCH   1   2
BRANCH   1  18
ATOM     18  C   UNL A   1      33.908  28.426  24.758  1.00  0.00     0.023 C 
BRANCH  18  19
ATOM     19  C   UNL A   1      34.208  28.734  26.222  1.00  0.00     0.116 C 
BRANCH  19  20
ATOM     20  N   UNL A   1      33.847  30.088  26.611  1.00  0.00    -0.352 N 
ATOM     21  C   UNL A   1      34.468  30.923  27.509  1.00  0.00     0.251 C 
ATOM     22  H   UNL A   1      33.048  30.457  26.169  1.00  0.00     0.163 HD
ATOM     23  O   UNL A   1      33.954  32.003  27.792  1.00  0.00    -0.269 OA
BRANCH  21  24
ATOM     24  C   UNL A   1      35.725  30.498  28.163  1.00  0.00     0.039 A 
ATOM     25  C   UNL A   1      35.653  29.760  29.347  1.00  0.00     0.014 A 
ATOM     26  C   UNL A   1      36.966  30.796  27.595  1.00  0.00     0.014 A 
ATOM     27  C   UNL A   1      36.822  29.254  29.920  1.00  0.00     0.010 A 
ATOM     28  C   UNL A   1      38.123  30.231  28.127  1.00  0.00     0.010 A 
ATOM     29  C   UNL A   1      38.063  29.448  29.292  1.00  0.00    -0.014 A 
BRANCH  29  30
ATOM     30  C   UNL A   1      39.308  28.837  29.831  1.00  0.00     0.031 A 
ATOM     31  C   UNL A   1      39.975  29.431  31.042  1.00  0.00     0.074 A 
ATOM     32  C   UNL A   1      39.876  27.797  29.189  1.00  0.00     0.049 A 
ATOM     33  N   UNL A   1      41.109  29.104  31.608  1.00  0.00    -0.248 NA
ATOM     34  C   UNL A   1      39.289  30.564  31.681  1.00  0.00     0.031 C 
ATOM     35  C   UNL A   1      39.346  27.159  27.981  1.00  0.00     0.029 A 
ATOM     36  N   UNL A   1      41.026  27.098  29.453  1.00  0.00    -0.354 N 
ATOM     37  C   UNL A   1      41.280  29.999  32.659  1.00  0.00     0.074 A 
ATOM     38  C   UNL A   1      40.164  30.919  32.608  1.00  0.00     0.031 C 
ATOM     39  C   UNL A   1      40.158  26.152  27.623  1.00  0.00     0.029 A 
ATOM     40  C   UNL A   1      41.289  26.098  28.543  1.00  0.00     0.049 A 
ATOM     41  H   UNL A   1      41.610  27.293  30.221  1.00  0.00     0.167 HD
ATOM     42  C   UNL A   1      42.265  30.035  33.592  1.00  0.00     0.034 A 
ATOM     43  C   UNL A   1      42.330  25.246  28.452  1.00  0.00     0.034 A 
ATOM     44  C   UNL A   1      43.364  29.101  33.634  1.00  0.00     0.049 A 
ATOM     45  C   UNL A   1      43.424  25.317  29.487  1.00  0.00     0.074 A 
ATOM     46  C   UNL A   1      44.385  29.012  34.564  1.00  0.00     0.029 A 
ATOM     47  N   UNL A   1      43.592  28.097  32.700  1.00  0.00    -0.354 N 
ATOM     48  N   UNL A   1      43.547  26.139  30.503  1.00  0.00    -0.248 NA
ATOM     49  C   UNL A   1      44.513  24.339  29.369  1.00  0.00     0.031 C 
ATOM     50  C   UNL A   1      45.265  28.002  34.157  1.00  0.00     0.029 A 
ATOM     51  C   UNL A   1      44.752  27.405  33.016  1.00  0.00     0.049 A 
ATOM     52  H   UNL A   1      43.014  27.905  31.926  1.00  0.00     0.167 HD
ATOM     53  C   UNL A   1      44.709  25.752  31.166  1.00  0.00     0.074 A 
ATOM     54  C   UNL A   1      45.243  24.618  30.438  1.00  0.00     0.031 C 
ATOM     55  C   UNL A   1      45.278  26.279  32.279  1.00  0.00     0.034 A 
BRANCH  42  56
ATOM     56  C   UNL A   1      42.203  31.138  34.623  1.00  0.00     0.023 A 
ATOM     57  C   UNL A   1      42.788  32.396  34.392  1.00  0.00     0.031 A 
ATOM     58  C   UNL A   1      41.582  30.921  35.865  1.00  0.00     0.131 A 
ATOM     59  C   UNL A   1      42.815  33.356  35.416  1.00  0.00     0.055 A 
ATOM     60  C   UNL A   1      41.534  31.912  36.848  1.00  0.00     0.041 A 
ATOM     61  F   UNL A   1      41.024  29.735  36.153  1.00  0.00    -0.206 F 
ATOM     62  C   UNL A   1      42.168  33.133  36.633  1.00  0.00     0.022 A 
BRANCH  59  63
ATOM     63  S   UNL A   1      43.839  34.835  35.188  1.00  0.00     0.124 S 
ATOM     64  O   UNL A   1      44.520  34.530  33.931  1.00  0.00    -0.237 OA
ATOM     65  O   UNL A   1      42.847  35.901  35.135  1.00  0.00    -0.237 OA
ATOM     66  O   UNL A   1      44.702  34.839  36.368  1.00  0.00    -0.744 OA
ENDBRANCH  59  63
ENDBRANCH  42  56
BRANCH  43  67
ATOM     67  C   UNL A   1      42.397  24.254  27.340  1.00  0.00     0.023 A 
ATOM     68  C   UNL A   1      41.620  23.085  27.365  1.00  0.00     0.031 A 
ATOM     69  C   UNL A   1      43.268  24.443  26.252  1.00  0.00     0.131 A 
ATOM     70  C   UNL A   1      41.761  22.129  26.347  1.00  0.00     0.055 A 
ATOM     71  C   UNL A   1      43.367  23.513  25.215  1.00  0.00     0.041 A 
ATOM     72  F   UNL A   1      44.030  25.545  26.176  1.00  0.00    -0.206 F 
ATOM     73  C   UNL A   1      42.619  22.341  25.265  1.00  0.00     0.022 A 
BRANCH  70  74
ATOM     74  S   UNL A   1      40.864  20.559  26.500  1.00  0.00     0.124 S 
ATOM     75  O   UNL A   1      39.556  20.910  25.960  1.00  0.00    -0.237 OA
ATOM     76  O   UNL A   1      41.677  19.666  25.681  1.00  0.00    -0.237 OA
ATOM     77  O   UNL A   1      40.897  20.288  27.935  1.00  0.00    -0.744 OA
ENDBRANCH  70  74
ENDBRANCH  43  67
BRANCH  55  78
ATOM     78  C   UNL A   1      46.515  25.597  32.809  1.00  0.00     0.023 A 
ATOM     79  C   UNL A   1      47.798  25.893  32.315  1.00  0.00     0.031 A 
ATOM     80  C   UNL A   1      46.404  24.633  33.827  1.00  0.00     0.131 A 
ATOM     81  C   UNL A   1      48.912  25.193  32.803  1.00  0.00     0.055 A 
ATOM     82  C   UNL A   1      47.522  23.983  34.351  1.00  0.00     0.041 A 
ATOM     83  F   UNL A   1      45.204  24.311  34.335  1.00  0.00    -0.206 F 
ATOM     84  C   UNL A   1      48.785  24.254  33.829  1.00  0.00     0.022 A 
BRANCH  81  85
ATOM     85  S   UNL A   1      50.525  25.466  32.020  1.00  0.00     0.124 S 
ATOM     86  O   UNL A   1      51.439  25.325  33.149  1.00  0.00    -0.237 OA
ATOM     87  O   UNL A   1      50.574  24.402  31.023  1.00  0.00    -0.237 OA
ATOM     88  O   UNL A   1      50.418  26.819  31.475  1.00  0.00    -0.744 OA
ENDBRANCH  81  85
ENDBRANCH  55  78
ENDBRANCH  29  30
ENDBRANCH  21  24
ENDBRANCH  19  20
ENDBRANCH  18  19
ENDBRANCH   1  18
TORSDOF 18
ENDMDL
MODEL 3
REMARK VINA RESULT:      -9.3      4.148      7.026
REMARK SMILES CC(=O)N1CCC[C@H]1COCC(=O)NCCCCNC(=O)c1ccc(-c2c3nc(c(-c4cc(S(=O)(=O)[O-])ccc4F)c4ccc([nH]4)c(-c4cc(S(=O)(=O)[O-])ccc4F)c4nc(c(-c5cc(S(=O)(=O)[O-])ccc5F)c5ccc2[nH]5)C=C4)C=C3)cc1
REMARK SMILES IDX 16 1 15 2 14 3 12 4 13 5 11 7 10 8 9 9 8 10 4 11 5 12 6 13
REMARK SMILES IDX 7 14 2 15 1 16 3 17 17 18 18 19 19 20 20 21 21 23 22 24
REMARK SMILES IDX 23 25 84 26 24 27 83 28 25 29 26 30 27 31 77 32 28 33 82 34
REMARK SMILES IDX 76 35 78 36 29 37 81 38 75 39 74 40 30 42 62 43 42 44 61 45
REMARK SMILES IDX 43 46 46 47 60 48 79 49 44 50 45 51 59 53 80 54 47 55 31 56
REMARK SMILES IDX 32 57 40 58 33 59 39 60 41 61 38 62 34 63 35 64 36 65 37 66
REMARK SMILES IDX 63 67 64 68 72 69 65 70 71 71 73 72 70 73 66 74 67 75 68 76
REMARK SMILES IDX 69 77 48 78 49 79 57 80 50 81 56 82 58 83 55 84 51 85 52 86
REMARK SMILES IDX 53 87 54 88
REMARK H PARENT 14 6 19 22 78 41 46 52
REMARK Flexibility Score: inf
ROOT
ATOM      1  C   UNL A   1      31.578  29.206  24.606  1.00  0.00     0.023 C 
ENDROOT
BRANCH   1   2
ATOM      2  C   UNL A   1      32.111  27.786  24.432  1.00  0.00     0.116 C 
BRANCH   2   3
ATOM      3  N   UNL A   1      32.681  27.566  23.118  1.00  0.00    -0.354 N 
ATOM      4  C   UNL A   1      33.358  26.472  22.665  1.00  0.00     0.245 C 
ATOM      5  O   UNL A   1      33.759  26.452  21.501  1.00  0.00    -0.272 OA
ATOM      6  H   UNL A   1      32.564  28.298  22.470  1.00  0.00     0.163 HD
BRANCH   4   7
ATOM      7  C   UNL A   1      33.623  25.297  23.623  1.00  0.00     0.260 C 
BRANCH   7   8
ATOM      8  O   UNL A   1      33.017  24.037  23.388  1.00  0.00    -0.370 OA
BRANCH   8   9
ATOM      9  C   UNL A   1      33.874  22.894  23.499  1.00  0.00     0.185 C 
BRANCH   9  10
ATOM     10  C   UNL A   1      33.980  22.247  24.899  1.00  0.00     0.111 C 
ATOM     11  N   UNL A   1      34.258  20.816  24.850  1.00  0.00    -0.338 N 
ATOM     12  C   UNL A   1      35.679  20.570  24.958  1.00  0.00     0.120 C 
ATOM     13  C   UNL A   1      36.211  21.738  25.773  1.00  0.00     0.024 C 
ATOM     14  C   UNL A   1      35.084  22.774  25.812  1.00  0.00     0.029 C 
BRANCH  11  15
ATOM     15  C   UNL A   1      33.249  19.889  24.737  1.00  0.00     0.219 C 
ATOM     16  C   UNL A   1      33.653  18.499  24.320  1.00  0.00     0.114 C 
ATOM     17  O   UNL A   1      32.079  20.144  25.021  1.00  0.00    -0.275 OA
ENDBRANCH  11  15
ENDBRANCH   9  10
ENDBRANCH   8   9
ENDBRANCH   7   8
ENDBRANCH   4   7
ENDBRANCH   2   3
ENDBRANCH   1   2
BRANCH   1  18
ATOM     18  C   UNL A   1      31.586  29.738  26.041  1.00  0.00     0.023 C 
BRANCH  18  19
ATOM     19  C   UNL A   1      32.934  30.225  26.565  1.00  0.00     0.116 C 
BRANCH  19  20
ATOM     20  N   UNL A   1      32.939  31.637  26.914  1.00  0.00    -0.352 N 
ATOM     21  C   UNL A   1      33.870  32.345  27.638  1.00  0.00     0.251 C 
ATOM     22  H   UNL A   1      32.170  32.158  26.587  1.00  0.00     0.163 HD
ATOM     23  O   UNL A   1      33.652  33.519  27.926  1.00  0.00    -0.269 OA
BRANCH  21  24
ATOM     24  C   UNL A   1      35.105  31.677  28.102  1.00  0.00     0.039 A 
ATOM     25  C   UNL A   1      36.296  32.407  28.136  1.00  0.00     0.014 A 
ATOM     26  C   UNL A   1      35.084  30.348  28.534  1.00  0.00     0.014 A 
ATOM     27  C   UNL A   1      37.448  31.830  28.675  1.00  0.00     0.010 A 
ATOM     28  C   UNL A   1      36.213  29.799  29.136  1.00  0.00     0.010 A 
ATOM     29  C   UNL A   1      37.406  30.535  29.219  1.00  0.00    -0.014 A 
BRANCH  29  30
ATOM     30  C   UNL A   1      38.594  29.937  29.886  1.00  0.00     0.031 A 
ATOM     31  C   UNL A   1      39.003  30.403  31.256  1.00  0.00     0.074 A 
ATOM     32  C   UNL A   1      39.345  29.032  29.227  1.00  0.00     0.049 A 
ATOM     33  N   UNL A   1      40.054  30.075  31.965  1.00  0.00    -0.248 NA
ATOM     34  C   UNL A   1      38.129  31.393  31.902  1.00  0.00     0.031 C 
ATOM     35  C   UNL A   1      39.074  28.530  27.877  1.00  0.00     0.029 A 
ATOM     36  N   UNL A   1      40.493  28.377  29.597  1.00  0.00    -0.354 N 
ATOM     37  C   UNL A   1      39.976  30.828  33.131  1.00  0.00     0.074 A 
ATOM     38  C   UNL A   1      38.809  31.674  33.002  1.00  0.00     0.031 C 
ATOM     39  C   UNL A   1      40.016  27.634  27.543  1.00  0.00     0.029 A 
ATOM     40  C   UNL A   1      40.984  27.528  28.630  1.00  0.00     0.049 A 
ATOM     41  H   UNL A   1      40.926  28.503  30.472  1.00  0.00     0.167 HD
ATOM     42  C   UNL A   1      40.790  30.800  34.216  1.00  0.00     0.034 A 
ATOM     43  C   UNL A   1      42.094  26.764  28.615  1.00  0.00     0.034 A 
ATOM     44  C   UNL A   1      41.943  29.941  34.332  1.00  0.00     0.049 A 
ATOM     45  C   UNL A   1      42.997  26.764  29.824  1.00  0.00     0.074 A 
ATOM     46  C   UNL A   1      42.804  29.791  35.405  1.00  0.00     0.029 A 
ATOM     47  N   UNL A   1      42.404  29.089  33.334  1.00  0.00    -0.354 N 
ATOM     48  N   UNL A   1      42.882  27.447  30.939  1.00  0.00    -0.248 NA
ATOM     49  C   UNL A   1      44.169  25.882  29.775  1.00  0.00     0.031 C 
ATOM     50  C   UNL A   1      43.821  28.904  35.034  1.00  0.00     0.029 A 
ATOM     51  C   UNL A   1      43.552  28.435  33.758  1.00  0.00     0.049 A 
ATOM     52  H   UNL A   1      41.978  28.967  32.455  1.00  0.00     0.167 HD
ATOM     53  C   UNL A   1      43.950  27.048  31.739  1.00  0.00     0.074 A 
ATOM     54  C   UNL A   1      44.690  26.060  30.980  1.00  0.00     0.031 C 
ATOM     55  C   UNL A   1      44.284  27.455  32.989  1.00  0.00     0.034 A 
BRANCH  42  56
ATOM     56  C   UNL A   1      40.469  31.748  35.348  1.00  0.00     0.023 A 
ATOM     57  C   UNL A   1      39.452  31.468  36.279  1.00  0.00     0.031 A 
ATOM     58  C   UNL A   1      41.164  32.962  35.482  1.00  0.00     0.131 A 
ATOM     59  C   UNL A   1      39.102  32.423  37.246  1.00  0.00     0.055 A 
ATOM     60  C   UNL A   1      40.870  33.871  36.501  1.00  0.00     0.041 A 
ATOM     61  F   UNL A   1      42.131  33.297  34.613  1.00  0.00    -0.206 F 
ATOM     62  C   UNL A   1      39.822  33.613  37.380  1.00  0.00     0.022 A 
BRANCH  59  63
ATOM     63  S   UNL A   1      37.596  32.158  38.219  1.00  0.00     0.124 S 
ATOM     64  O   UNL A   1      36.693  33.151  37.641  1.00  0.00    -0.237 OA
ATOM     65  O   UNL A   1      37.279  30.763  37.935  1.00  0.00    -0.237 OA
ATOM     66  O   UNL A   1      38.019  32.437  39.589  1.00  0.00    -0.744 OA
ENDBRANCH  59  63
ENDBRANCH  42  56
BRANCH  43  67
ATOM     67  C   UNL A   1      42.424  25.938  27.418  1.00  0.00     0.023 A 
ATOM     68  C   UNL A   1      42.048  24.588  27.344  1.00  0.00     0.031 A 
ATOM     69  C   UNL A   1      43.155  26.478  26.344  1.00  0.00     0.131 A 
ATOM     70  C   UNL A   1      42.441  23.811  26.243  1.00  0.00     0.055 A 
ATOM     71  C   UNL A   1      43.500  25.715  25.227  1.00  0.00     0.041 A 
ATOM     72  F   UNL A   1      43.537  27.765  26.362  1.00  0.00    -0.206 F 
ATOM     73  C   UNL A   1      43.153  24.368  25.178  1.00  0.00     0.022 A 
BRANCH  70  74
ATOM     74  S   UNL A   1      42.079  22.033  26.262  1.00  0.00     0.124 S 
ATOM     75  O   UNL A   1      40.635  22.021  26.059  1.00  0.00    -0.237 OA
ATOM     76  O   UNL A   1      42.888  21.549  25.148  1.00  0.00    -0.237 OA
ATOM     77  O   UNL A   1      42.529  21.609  27.585  1.00  0.00    -0.744 OA
ENDBRANCH  70  74
ENDBRANCH  43  67
BRANCH  55  78
ATOM     78  C   UNL A   1      45.473  26.788  33.636  1.00  0.00     0.023 A 
ATOM     79  C   UNL A   1      45.376  25.528  34.252  1.00  0.00     0.031 A 
ATOM     80  C   UNL A   1      46.725  27.430  33.635  1.00  0.00     0.131 A 
ATOM     81  C   UNL A   1      46.498  24.973  34.886  1.00  0.00     0.055 A 
ATOM     82  C   UNL A   1      47.852  26.845  34.215  1.00  0.00     0.041 A 
ATOM     83  F   UNL A   1      46.875  28.635  33.063  1.00  0.00    -0.206 F 
ATOM     84  C   UNL A   1      47.739  25.615  34.857  1.00  0.00     0.022 A 
BRANCH  81  85
ATOM     85  S   UNL A   1      46.297  23.434  35.825  1.00  0.00     0.124 S 
ATOM     86  O   UNL A   1      44.965  23.599  36.398  1.00  0.00    -0.237 OA
ATOM     87  O   UNL A   1      46.424  22.415  34.788  1.00  0.00    -0.237 OA
ATOM     88  O   UNL A   1      47.395  23.474  36.790  1.00  0.00    -0.744 OA
ENDBRANCH  81  85
ENDBRANCH  55  78
ENDBRANCH  29  30
ENDBRANCH  21  24
ENDBRANCH  19  20
ENDBRANCH  18  19
ENDBRANCH   1  18
TORSDOF 18
ENDMDL
