MODEL 1
REMARK VINA RESULT:     -12.5      0.000      0.000
REMARK SMILES Cc1csc(CNC(=O)NC[C@H]2CC[C@@H](C(=O)NCCCCNC(=O)c3ccc(-c4c5nc(c(-c6cc(S(=O)(=O)[O-])ccc6F)c6ccc([nH]6)c(-c6cc(S(=O)(=O)[O-])ccc6F)c6nc(c(-c7cc(S(=O)(=O)[O-])ccc7F)c7ccc4[nH]7)C=C6)C=C5)cc3)CC2)n1
REMARK SMILES IDX 20 1 19 2 18 3 16 4 17 5 15 7 12 8 13 9 90 10 14 11 89 12
REMARK SMILES IDX 11 13 10 14 7 15 8 16 9 18 6 20 5 21 1 22 2 23 3 24 91 25
REMARK SMILES IDX 4 26 21 27 22 28 23 29 24 30 25 32 26 33 27 34 88 35 28 36
REMARK SMILES IDX 87 37 29 38 30 39 31 40 81 41 32 42 86 43 80 44 82 45 33 46
REMARK SMILES IDX 85 47 79 48 78 49 34 51 66 52 46 53 65 54 47 55 50 56 64 57
REMARK SMILES IDX 83 58 48 59 49 60 63 62 84 63 51 64 35 65 36 66 44 67 37 68
REMARK SMILES IDX 43 69 45 70 42 71 38 72 39 73 40 74 41 75 67 76 68 77 76 78
REMARK SMILES IDX 69 79 75 80 77 81 74 82 70 83 71 84 72 85 73 86 52 87 53 88
REMARK SMILES IDX 61 89 54 90 60 91 62 92 59 93 55 94 56 95 57 96 58 97
REMARK H PARENT 18 6 7 17 10 19 23 31 82 50 50 61
REMARK Flexibility Score: inf
ROOT
ATOM      1  C   UNL A   1      32.911  29.814  26.122  1.00  0.00     0.023 C 
ENDROOT
BRANCH   1   2
ATOM      2  C   UNL A   1      31.847  29.051  25.333  1.00  0.00     0.116 C 
BRANCH   2   3
ATOM      3  N   UNL A   1      31.047  29.889  24.472  1.00  0.00    -0.356 N 
ATOM      4  C   UNL A   1      30.137  29.616  23.506  1.00  0.00     0.223 C 
ATOM      5  O   UNL A   1      29.486  30.586  23.095  1.00  0.00    -0.275 OA
ATOM      6  H   UNL A   1      31.194  30.853  24.613  1.00  0.00     0.163 HD
BRANCH   4   7
ATOM      7  C   UNL A   1      29.878  28.235  22.881  1.00  0.00     0.078 C 
ATOM      8  C   UNL A   1      30.582  25.638  24.262  1.00  0.00     0.008 C 
ATOM      9  C   UNL A   1      29.227  26.329  24.520  1.00  0.00     0.006 C 
ATOM     10  C   UNL A   1      31.633  26.469  23.510  1.00  0.00     0.006 C 
ATOM     11  C   UNL A   1      28.787  27.366  23.496  1.00  0.00     0.014 C 
ATOM     12  C   UNL A   1      31.115  27.447  22.474  1.00  0.00     0.014 C 
BRANCH   8  13
ATOM     13  C   UNL A   1      31.189  25.151  25.600  1.00  0.00     0.121 C 
BRANCH  13  14
ATOM     14  N   UNL A   1      30.219  24.449  26.409  1.00  0.00    -0.338 N 
ATOM     15  N   UNL A   1      30.772  22.167  26.207  1.00  0.00    -0.332 N 
ATOM     16  C   UNL A   1      30.174  23.181  26.835  1.00  0.00     0.315 C 
ATOM     17  H   UNL A   1      30.872  21.368  26.774  1.00  0.00     0.165 HD
ATOM     18  O   UNL A   1      29.521  22.939  27.851  1.00  0.00    -0.249 OA
ATOM     19  H   UNL A   1      29.459  25.002  26.700  1.00  0.00     0.165 HD
BRANCH  15  20
ATOM     20  C   UNL A   1      31.307  21.986  24.872  1.00  0.00     0.185 C 
BRANCH  20  21
ATOM     21  C   UNL A   1      32.464  21.026  24.904  1.00  0.00     0.112 A 
ATOM     22  C   UNL A   1      33.805  17.746  24.228  1.00  0.00     0.067 C 
ATOM     23  C   UNL A   1      33.661  19.174  24.616  1.00  0.00     0.049 A 
ATOM     24  C   UNL A   1      34.680  20.044  24.953  1.00  0.00     0.090 A 
ATOM     25  N   UNL A   1      32.395  19.737  24.638  1.00  0.00    -0.245 NA
ATOM     26  S   UNL A   1      34.045  21.602  25.274  1.00  0.00    -0.125 S 
ENDBRANCH  20  21
ENDBRANCH  15  20
ENDBRANCH  13  14
ENDBRANCH   8  13
ENDBRANCH   4   7
ENDBRANCH   2   3
ENDBRANCH   1   2
BRANCH   1  27
ATOM     27  C   UNL A   1      32.372  30.842  27.108  1.00  0.00     0.023 C 
BRANCH  27  28
ATOM     28  C   UNL A   1      33.339  31.961  27.483  1.00  0.00     0.116 C 
BRANCH  28  29
ATOM     29  N   UNL A   1      32.743  33.279  27.638  1.00  0.00    -0.352 N 
ATOM     30  C   UNL A   1      33.197  34.311  28.443  1.00  0.00     0.251 C 
ATOM     31  H   UNL A   1      31.928  33.458  27.115  1.00  0.00     0.163 HD
ATOM     32  O   UNL A   1      32.634  35.387  28.481  1.00  0.00    -0.269 OA
BRANCH  30  33
ATOM     33  C   UNL A   1      34.351  34.044  29.327  1.00  0.00     0.039 A 
ATOM     34  C   UNL A   1      34.123  33.383  30.535  1.00  0.00     0.014 A 
ATOM     35  C   UNL A   1      35.648  34.324  28.895  1.00  0.00     0.014 A 
ATOM     36  C   UNL A   1      35.210  32.908  31.270  1.00  0.00     0.010 A 
ATOM     37  C   UNL A   1      36.724  33.782  29.587  1.00  0.00     0.010 A 
ATOM     38  C   UNL A   1      36.514  33.055  30.771  1.00  0.00    -0.014 A 
BRANCH  38  39
ATOM     39  C   UNL A   1      37.681  32.455  31.468  1.00  0.00     0.031 A 
ATOM     40  C   UNL A   1      38.409  31.304  30.831  1.00  0.00     0.074 A 
ATOM     41  C   UNL A   1      38.032  32.891  32.694  1.00  0.00     0.049 A 
ATOM     42  N   UNL A   1      39.351  30.545  31.326  1.00  0.00    -0.248 NA
ATOM     43  C   UNL A   1      37.991  30.939  29.469  1.00  0.00     0.031 C 
ATOM     44  C   UNL A   1      37.378  33.979  33.428  1.00  0.00     0.029 A 
ATOM     45  N   UNL A   1      39.018  32.466  33.548  1.00  0.00    -0.354 N 
ATOM     46  C   UNL A   1      39.630  29.604  30.341  1.00  0.00     0.074 A 
ATOM     47  C   UNL A   1      38.712  29.850  29.250  1.00  0.00     0.031 C 
ATOM     48  C   UNL A   1      37.995  34.147  34.609  1.00  0.00     0.029 A 
ATOM     49  C   UNL A   1      39.055  33.154  34.741  1.00  0.00     0.049 A 
ATOM     50  H   UNL A   1      39.642  31.737  33.329  1.00  0.00     0.167 HD
ATOM     51  C   UNL A   1      40.583  28.640  30.336  1.00  0.00     0.034 A 
ATOM     52  C   UNL A   1      39.846  32.990  35.821  1.00  0.00     0.034 A 
ATOM     53  C   UNL A   1      41.505  28.418  31.422  1.00  0.00     0.049 A 
ATOM     54  C   UNL A   1      40.894  31.903  35.793  1.00  0.00     0.074 A 
ATOM     55  C   UNL A   1      42.515  27.479  31.520  1.00  0.00     0.029 A 
ATOM     56  N   UNL A   1      41.535  29.158  32.596  1.00  0.00    -0.354 N 
ATOM     57  N   UNL A   1      41.151  31.029  34.846  1.00  0.00    -0.248 NA
ATOM     58  C   UNL A   1      41.762  31.787  36.971  1.00  0.00     0.031 C 
ATOM     59  C   UNL A   1      43.132  27.625  32.769  1.00  0.00     0.029 A 
ATOM     60  C   UNL A   1      42.542  28.693  33.425  1.00  0.00     0.049 A 
ATOM     61  H   UNL A   1      40.929  29.905  32.809  1.00  0.00     0.167 HD
ATOM     62  C   UNL A   1      42.237  30.287  35.304  1.00  0.00     0.074 A 
ATOM     63  C   UNL A   1      42.592  30.824  36.600  1.00  0.00     0.031 C 
ATOM     64  C   UNL A   1      42.885  29.253  34.708  1.00  0.00     0.034 A 
BRANCH  51  65
ATOM     65  C   UNL A   1      40.660  27.756  29.117  1.00  0.00     0.023 A 
ATOM     66  C   UNL A   1      41.602  27.997  28.101  1.00  0.00     0.031 A 
ATOM     67  C   UNL A   1      39.764  26.688  28.948  1.00  0.00     0.131 A 
ATOM     68  C   UNL A   1      41.578  27.228  26.930  1.00  0.00     0.055 A 
ATOM     69  C   UNL A   1      39.797  25.875  27.813  1.00  0.00     0.041 A 
ATOM     70  F   UNL A   1      38.830  26.425  29.875  1.00  0.00    -0.206 F 
ATOM     71  C   UNL A   1      40.699  26.151  26.788  1.00  0.00     0.022 A 
BRANCH  68  72
ATOM     72  S   UNL A   1      42.628  27.735  25.541  1.00  0.00     0.124 S 
ATOM     73  O   UNL A   1      41.886  28.879  25.017  1.00  0.00    -0.237 OA
ATOM     74  O   UNL A   1      43.895  28.040  26.196  1.00  0.00    -0.237 OA
ATOM     75  O   UNL A   1      42.641  26.558  24.674  1.00  0.00    -0.744 OA
ENDBRANCH  68  72
ENDBRANCH  51  65
BRANCH  52  76
ATOM     76  C   UNL A   1      39.690  33.854  37.027  1.00  0.00     0.023 A 
ATOM     77  C   UNL A   1      39.059  33.368  38.183  1.00  0.00     0.031 A 
ATOM     78  C   UNL A   1      40.099  35.199  37.016  1.00  0.00     0.131 A 
ATOM     79  C   UNL A   1      38.791  34.236  39.253  1.00  0.00     0.055 A 
ATOM     80  C   UNL A   1      39.881  36.045  38.106  1.00  0.00     0.041 A 
ATOM     81  F   UNL A   1      40.714  35.714  35.939  1.00  0.00    -0.206 F 
ATOM     82  C   UNL A   1      39.207  35.569  39.227  1.00  0.00     0.022 A 
BRANCH  79  83
ATOM     83  S   UNL A   1      37.784  33.625  40.633  1.00  0.00     0.124 S 
ATOM     84  O   UNL A   1      38.766  32.881  41.413  1.00  0.00    -0.237 OA
ATOM     85  O   UNL A   1      37.301  34.867  41.225  1.00  0.00    -0.237 OA
ATOM     86  O   UNL A   1      36.764  32.812  39.973  1.00  0.00    -0.744 OA
ENDBRANCH  79  83
ENDBRANCH  52  76
BRANCH  64  87
ATOM     87  C   UNL A   1      44.080  28.692  35.433  1.00  0.00     0.023 A 
ATOM     88  C   UNL A   1      43.950  27.682  36.402  1.00  0.00     0.031 A 
ATOM     89  C   UNL A   1      45.366  29.186  35.155  1.00  0.00     0.131 A 
ATOM     90  C   UNL A   1      45.082  27.236  37.098  1.00  0.00     0.055 A 
ATOM     91  C   UNL A   1      46.496  28.702  35.814  1.00  0.00     0.041 A 
ATOM     92  F   UNL A   1      45.543  30.150  34.237  1.00  0.00    -0.206 F 
ATOM     93  C   UNL A   1      46.356  27.730  36.801  1.00  0.00     0.022 A 
BRANCH  90  94
ATOM     94  S   UNL A   1      44.859  26.054  38.455  1.00  0.00     0.124 S 
ATOM     95  O   UNL A   1      46.175  26.059  39.083  1.00  0.00    -0.237 OA
ATOM     96  O   UNL A   1      43.782  26.664  39.227  1.00  0.00    -0.237 OA
ATOM     97  O   UNL A   1      44.503  24.811  37.772  1.00  0.00    -0.744 OA
ENDBRANCH  90  94
ENDBRANCH  64  87
ENDBRANCH  38  39
ENDBRANCH  30  33
ENDBRANCH  28  29
ENDBRANCH  27  28
ENDBRANCH   1  27
TORSDOF 18
ENDMDL
MODEL 2
REMARK VINA RESULT:     -12.5      2.550      4.527
REMARK SMILES Cc1csc(CNC(=O)NC[C@H]2CC[C@@H](C(=O)NCCCCNC(=O)c3ccc(-c4c5nc(c(-c6cc(S(=O)(=O)[O-])ccc6F)c6ccc([nH]6)c(-c6cc(S(=O)(=O)[O-])ccc6F)c6nc(c(-c7cc(S(=O)(=O)[O-])ccc7F)c7ccc4[nH]7)C=C6)C=C5)cc3)CC2)n1
REMARK SMILES IDX 20 1 19 2 18 3 16 4 17 5 15 7 12 8 13 9 90 10 14 11 89 12
REMARK SMILES IDX 11 13 10 14 7 15 8 16 9 18 6 20 5 21 1 22 2 23 3 24 91 25
REMARK SMILES IDX 4 26 21 27 22 28 23 29 24 30 25 32 26 33 27 34 88 35 28 36
REMARK SMILES IDX 87 37 29 38 30 39 31 40 81 41 32 42 86 43 80 44 82 45 33 46
REMARK SMILES IDX 85 47 79 48 78 49 34 51 66 52 46 53 65 54 47 55 50 56 64 57
REMARK SMILES IDX 83 58 48 59 49 60 63 62 84 63 51 64 35 65 36 66 44 67 37 68
REMARK SMILES IDX 43 69 45 70 42 71 38 72 39 73 40 74 41 75 67 76 68 77 76 78
REMARK SMILES IDX 69 79 75 80 77 81 74 82 70 83 71 84 72 85 73 86 52 87 53 88
REMARK SMILES IDX 61 89 54 90 60 91 62 92 59 93 55 94 56 95 57 96 58 97
REMARK H PARENT 18 6 7 17 10 19 23 31 82 50 50 61
REMARK Flexibility Score: inf
ROOT
ATOM      1  C   UNL A   1      31.787  26.660  26.723  1.00  0.00     0.023 C 
ENDROOT
BRANCH   1   2
ATOM      2  C   UNL A   1      30.873  25.835  25.817  1.00  0.00     0.116 C 
BRANCH   2   3
ATOM      3  N   UNL A   1      30.099  24.839  26.521  1.00  0.00    -0.356 N 
ATOM      4  C   UNL A   1      30.334  23.542  26.834  1.00  0.00     0.223 C 
ATOM      5  O   UNL A   1      29.531  23.030  27.625  1.00  0.00    -0.275 OA
ATOM      6  H   UNL A   1      29.225  25.168  26.834  1.00  0.00     0.163 HD
BRANCH   4   7
ATOM      7  C   UNL A   1      31.475  22.676  26.274  1.00  0.00     0.078 C 
ATOM      8  C   UNL A   1      33.466  23.683  24.233  1.00  0.00     0.008 C 
ATOM      9  C   UNL A   1      33.702  23.901  25.742  1.00  0.00     0.006 C 
ATOM     10  C   UNL A   1      32.067  23.195  23.830  1.00  0.00     0.006 C 
ATOM     11  C   UNL A   1      32.901  23.019  26.690  1.00  0.00     0.014 C 
ATOM     12  C   UNL A   1      31.355  22.283  24.809  1.00  0.00     0.014 C 
BRANCH   8  13
ATOM     13  C   UNL A   1      33.790  24.981  23.455  1.00  0.00     0.121 C 
BRANCH  13  14
ATOM     14  N   UNL A   1      33.311  24.929  22.093  1.00  0.00    -0.338 N 
ATOM     15  N   UNL A   1      32.217  26.987  21.738  1.00  0.00    -0.332 N 
ATOM     16  C   UNL A   1      32.817  25.881  21.292  1.00  0.00     0.315 C 
ATOM     17  H   UNL A   1      32.156  27.694  21.055  1.00  0.00     0.165 HD
ATOM     18  O   UNL A   1      32.902  25.709  20.075  1.00  0.00    -0.249 OA
ATOM     19  H   UNL A   1      33.357  24.036  21.681  1.00  0.00     0.165 HD
BRANCH  15  20
ATOM     20  C   UNL A   1      31.637  27.374  23.009  1.00  0.00     0.185 C 
BRANCH  20  21
ATOM     21  C   UNL A   1      30.368  28.146  22.784  1.00  0.00     0.112 A 
ATOM     22  C   UNL A   1      26.839  28.582  23.396  1.00  0.00     0.067 C 
ATOM     23  C   UNL A   1      28.240  28.774  22.934  1.00  0.00     0.049 A 
ATOM     24  C   UNL A   1      28.751  29.885  22.292  1.00  0.00     0.090 A 
ATOM     25  N   UNL A   1      29.164  27.769  23.166  1.00  0.00    -0.245 NA
ATOM     26  S   UNL A   1      30.426  29.681  22.002  1.00  0.00    -0.125 S 
ENDBRANCH  20  21
ENDBRANCH  15  20
ENDBRANCH  13  14
ENDBRANCH   8  13
ENDBRANCH   4   7
ENDBRANCH   2   3
ENDBRANCH   1   2
BRANCH   1  27
ATOM     27  C   UNL A   1      31.419  28.133  26.844  1.00  0.00     0.023 C 
BRANCH  27  28
ATOM     28  C   UNL A   1      32.574  29.114  26.661  1.00  0.00     0.116 C 
BRANCH  28  29
ATOM     29  N   UNL A   1      32.232  30.520  26.820  1.00  0.00    -0.352 N 
ATOM     30  C   UNL A   1      33.069  31.539  27.248  1.00  0.00     0.251 C 
ATOM     31  H   UNL A   1      31.308  30.776  26.599  1.00  0.00     0.163 HD
ATOM     32  O   UNL A   1      32.687  32.690  27.322  1.00  0.00    -0.269 OA
BRANCH  30  33
ATOM     33  C   UNL A   1      34.429  31.176  27.694  1.00  0.00     0.039 A 
ATOM     34  C   UNL A   1      35.327  32.203  27.991  1.00  0.00     0.014 A 
ATOM     35  C   UNL A   1      34.757  29.842  27.942  1.00  0.00     0.014 A 
ATOM     36  C   UNL A   1      36.525  31.897  28.636  1.00  0.00     0.010 A 
ATOM     37  C   UNL A   1      35.913  29.550  28.655  1.00  0.00     0.010 A 
ATOM     38  C   UNL A   1      36.799  30.576  29.024  1.00  0.00    -0.014 A 
BRANCH  38  39
ATOM     39  C   UNL A   1      38.008  30.237  29.818  1.00  0.00     0.031 A 
ATOM     40  C   UNL A   1      39.010  29.266  29.258  1.00  0.00     0.074 A 
ATOM     41  C   UNL A   1      38.163  30.739  31.059  1.00  0.00     0.049 A 
ATOM     42  N   UNL A   1      40.050  28.724  29.836  1.00  0.00    -0.248 NA
ATOM     43  C   UNL A   1      38.786  28.820  27.874  1.00  0.00     0.031 C 
ATOM     44  C   UNL A   1      37.239  31.664  31.723  1.00  0.00     0.029 A 
ATOM     45  N   UNL A   1      39.147  30.533  31.993  1.00  0.00    -0.354 N 
ATOM     46  C   UNL A   1      40.597  27.863  28.891  1.00  0.00     0.074 A 
ATOM     47  C   UNL A   1      39.735  27.908  27.730  1.00  0.00     0.031 C 
ATOM     48  C   UNL A   1      37.713  31.960  32.945  1.00  0.00     0.029 A 
ATOM     49  C   UNL A   1      38.945  31.214  33.173  1.00  0.00     0.049 A 
ATOM     50  H   UNL A   1      39.926  29.952  31.835  1.00  0.00     0.167 HD
ATOM     51  C   UNL A   1      41.730  27.123  28.975  1.00  0.00     0.034 A 
ATOM     52  C   UNL A   1      39.667  31.222  34.313  1.00  0.00     0.034 A 
ATOM     53  C   UNL A   1      42.590  27.102  30.131  1.00  0.00     0.049 A 
ATOM     54  C   UNL A   1      40.919  30.382  34.383  1.00  0.00     0.074 A 
ATOM     55  C   UNL A   1      43.765  26.398  30.322  1.00  0.00     0.029 A 
ATOM     56  N   UNL A   1      42.372  27.833  31.291  1.00  0.00    -0.354 N 
ATOM     57  N   UNL A   1      41.428  29.582  33.474  1.00  0.00    -0.248 NA
ATOM     58  C   UNL A   1      41.698  30.453  35.625  1.00  0.00     0.031 C 
ATOM     59  C   UNL A   1      44.238  26.672  31.611  1.00  0.00     0.029 A 
ATOM     60  C   UNL A   1      43.387  27.592  32.202  1.00  0.00     0.049 A 
ATOM     61  H   UNL A   1      41.607  28.434  31.445  1.00  0.00     0.167 HD
ATOM     62  C   UNL A   1      42.607  29.087  34.025  1.00  0.00     0.074 A 
ATOM     63  C   UNL A   1      42.738  29.688  35.335  1.00  0.00     0.031 C 
ATOM     64  C   UNL A   1      43.503  28.213  33.498  1.00  0.00     0.034 A 
BRANCH  51  65
ATOM     65  C   UNL A   1      42.086  26.275  27.781  1.00  0.00     0.023 A 
ATOM     66  C   UNL A   1      41.652  24.941  27.680  1.00  0.00     0.031 A 
ATOM     67  C   UNL A   1      42.895  26.786  26.753  1.00  0.00     0.131 A 
ATOM     68  C   UNL A   1      42.089  24.143  26.613  1.00  0.00     0.055 A 
ATOM     69  C   UNL A   1      43.263  26.009  25.653  1.00  0.00     0.041 A 
ATOM     70  F   UNL A   1      43.357  28.045  26.808  1.00  0.00    -0.206 F 
ATOM     71  C   UNL A   1      42.871  24.674  25.585  1.00  0.00     0.022 A 
BRANCH  68  72
ATOM     72  S   UNL A   1      41.725  22.367  26.657  1.00  0.00     0.124 S 
ATOM     73  O   UNL A   1      42.272  21.925  25.377  1.00  0.00    -0.237 OA
ATOM     74  O   UNL A   1      42.442  21.925  27.847  1.00  0.00    -0.237 OA
ATOM     75  O   UNL A   1      40.267  22.320  26.754  1.00  0.00    -0.744 OA
ENDBRANCH  68  72
ENDBRANCH  51  65
BRANCH  52  76
ATOM     76  C   UNL A   1      39.239  32.034  35.488  1.00  0.00     0.023 A 
ATOM     77  C   UNL A   1      38.580  31.436  36.574  1.00  0.00     0.031 A 
ATOM     78  C   UNL A   1      39.411  33.429  35.510  1.00  0.00     0.131 A 
ATOM     79  C   UNL A   1      38.056  32.235  37.603  1.00  0.00     0.055 A 
ATOM     80  C   UNL A   1      38.938  34.214  36.564  1.00  0.00     0.041 A 
ATOM     81  F   UNL A   1      40.040  34.053  34.502  1.00  0.00    -0.206 F 
ATOM     82  C   UNL A   1      38.239  33.619  37.610  1.00  0.00     0.022 A 
BRANCH  79  83
ATOM     83  S   UNL A   1      37.027  31.446  38.872  1.00  0.00     0.124 S 
ATOM     84  O   UNL A   1      36.874  30.098  38.338  1.00  0.00    -0.237 OA
ATOM     85  O   UNL A   1      37.864  31.576  40.060  1.00  0.00    -0.237 OA
ATOM     86  O   UNL A   1      35.811  32.259  38.876  1.00  0.00    -0.744 OA
ENDBRANCH  79  83
ENDBRANCH  52  76
BRANCH  64  87
ATOM     87  C   UNL A   1      44.730  27.918  34.321  1.00  0.00     0.023 A 
ATOM     88  C   UNL A   1      44.770  26.847  35.229  1.00  0.00     0.031 A 
ATOM     89  C   UNL A   1      45.869  28.732  34.200  1.00  0.00     0.131 A 
ATOM     90  C   UNL A   1      45.909  26.650  36.022  1.00  0.00     0.055 A 
ATOM     91  C   UNL A   1      47.019  28.500  34.953  1.00  0.00     0.041 A 
ATOM     92  F   UNL A   1      45.881  29.768  33.345  1.00  0.00    -0.206 F 
ATOM     93  C   UNL A   1      47.040  27.461  35.880  1.00  0.00     0.022 A 
BRANCH  90  94
ATOM     94  S   UNL A   1      45.869  25.363  37.299  1.00  0.00     0.124 S 
ATOM     95  O   UNL A   1      47.131  25.585  37.996  1.00  0.00    -0.237 OA
ATOM     96  O   UNL A   1      44.661  25.700  38.044  1.00  0.00    -0.237 OA
ATOM     97  O   UNL A   1      45.795  24.120  36.532  1.00  0.00    -0.744 OA
ENDBRANCH  90  94
ENDBRANCH  64  87
ENDBRANCH  38  39
ENDBRANCH  30  33
ENDBRANCH  28  29
ENDBRANCH  27  28
ENDBRANCH   1  27
TORSDOF 18
ENDMDL
MODEL 3
REMARK VINA RESULT:     -12.4      2.887      8.829
REMARK SMILES Cc1csc(CNC(=O)NC[C@H]2CC[C@@H](C(=O)NCCCCNC(=O)c3ccc(-c4c5nc(c(-c6cc(S(=O)(=O)[O-])ccc6F)c6ccc([nH]6)c(-c6cc(S(=O)(=O)[O-])ccc6F)c6nc(c(-c7cc(S(=O)(=O)[O-])ccc7F)c7ccc4[nH]7)C=C6)C=C5)cc3)CC2)n1
REMARK SMILES IDX 20 1 19 2 18 3 16 4 17 5 15 7 12 8 13 9 90 10 14 11 89 12
REMARK SMILES IDX 11 13 10 14 7 15 8 16 9 18 6 20 5 21 1 22 2 23 3 24 91 25
REMARK SMILES IDX 4 26 21 27 22 28 23 29 24 30 25 32 26 33 27 34 88 35 28 36
REMARK SMILES IDX 87 37 29 38 30 39 31 40 81 41 32 42 86 43 80 44 82 45 33 46
REMARK SMILES IDX 85 47 79 48 78 49 34 51 66 52 46 53 65 54 47 55 50 56 64 57
REMARK SMILES IDX 83 58 48 59 49 60 63 62 84 63 51 64 35 65 36 66 44 67 37 68
REMARK SMILES IDX 43 69 45 70 42 71 38 72 39 73 40 74 41 75 67 76 68 77 76 78
REMARK SMILES IDX 69 79 75 80 77 81 74 82 70 83 71 84 72 85 73 86 52 87 53 88
REMARK SMILES IDX 61 89 54 90 60 91 62 92 59 93 55 94 56 95 57 96 58 97
REMARK H PARENT 18 6 7 17 10 19 23 31 82 50 50 61
REMARK Flexibility Score: inf
ROOT
ATOM      1  C   UNL A   1      31.490  27.518  26.754  1.00  0.00     0.023 C 
ENDROOT
BRANCH   1   2
ATOM      2  C   UNL A   1      31.153  26.233  25.997  1.00  0.00     0.116 C 
BRANCH   2   3
ATOM      3  N   UNL A   1      31.184  25.047  26.820  1.00  0.00    -0.356 N 
ATOM      4  C   UNL A   1      31.878  23.886  26.736  1.00  0.00     0.223 C 
ATOM      5  O   UNL A   1      31.809  23.150  27.730  1.00  0.00    -0.275 OA
ATOM      6  H   UNL A   1      30.579  25.089  27.596  1.00  0.00     0.163 HD
BRANCH   4   7
ATOM      7  C   UNL A   1      32.697  23.415  25.524  1.00  0.00     0.078 C 
ATOM      8  C   UNL A   1      32.666  24.836  22.855  1.00  0.00     0.008 C 
ATOM      9  C   UNL A   1      33.636  25.273  23.972  1.00  0.00     0.006 C 
ATOM     10  C   UNL A   1      31.556  23.858  23.267  1.00  0.00     0.006 C 
ATOM     11  C   UNL A   1      33.883  24.269  25.089  1.00  0.00     0.014 C 
ATOM     12  C   UNL A   1      31.897  22.860  24.355  1.00  0.00     0.014 C 
BRANCH   8  13
ATOM     13  C   UNL A   1      32.022  26.082  22.199  1.00  0.00     0.121 C 
BRANCH  13  14
ATOM     14  N   UNL A   1      32.962  27.171  22.070  1.00  0.00    -0.338 N 
ATOM     15  N   UNL A   1      31.728  29.120  22.555  1.00  0.00    -0.332 N 
ATOM     16  C   UNL A   1      32.879  28.458  22.429  1.00  0.00     0.315 C 
ATOM     17  H   UNL A   1      31.816  29.952  23.074  1.00  0.00     0.165 HD
ATOM     18  O   UNL A   1      33.932  29.067  22.632  1.00  0.00    -0.249 OA
ATOM     19  H   UNL A   1      33.813  26.924  21.643  1.00  0.00     0.165 HD
BRANCH  15  20
ATOM     20  C   UNL A   1      30.375  28.881  22.093  1.00  0.00     0.185 C 
BRANCH  20  21
ATOM     21  C   UNL A   1      29.585  30.160  22.119  1.00  0.00     0.112 A 
ATOM     22  C   UNL A   1      27.651  32.660  20.381  1.00  0.00     0.067 C 
ATOM     23  C   UNL A   1      28.333  31.866  21.437  1.00  0.00     0.049 A 
ATOM     24  C   UNL A   1      28.234  32.053  22.802  1.00  0.00     0.090 A 
ATOM     25  N   UNL A   1      29.146  30.810  21.060  1.00  0.00    -0.245 NA
ATOM     26  S   UNL A   1      29.150  30.867  23.629  1.00  0.00    -0.125 S 
ENDBRANCH  20  21
ENDBRANCH  15  20
ENDBRANCH  13  14
ENDBRANCH   8  13
ENDBRANCH   4   7
ENDBRANCH   2   3
ENDBRANCH   1   2
BRANCH   1  27
ATOM     27  C   UNL A   1      31.559  28.774  25.895  1.00  0.00     0.023 C 
BRANCH  27  28
ATOM     28  C   UNL A   1      32.778  29.663  26.131  1.00  0.00     0.116 C 
BRANCH  28  29
ATOM     29  N   UNL A   1      32.490  31.010  26.602  1.00  0.00    -0.352 N 
ATOM     30  C   UNL A   1      33.342  31.849  27.300  1.00  0.00     0.251 C 
ATOM     31  H   UNL A   1      31.593  31.362  26.403  1.00  0.00     0.163 HD
ATOM     32  O   UNL A   1      33.008  32.971  27.626  1.00  0.00    -0.269 OA
BRANCH  30  33
ATOM     33  C   UNL A   1      34.656  31.314  27.714  1.00  0.00     0.039 A 
ATOM     34  C   UNL A   1      35.686  32.217  27.981  1.00  0.00     0.014 A 
ATOM     35  C   UNL A   1      34.814  29.950  27.961  1.00  0.00     0.014 A 
ATOM     36  C   UNL A   1      36.852  31.761  28.598  1.00  0.00     0.010 A 
ATOM     37  C   UNL A   1      35.941  29.513  28.646  1.00  0.00     0.010 A 
ATOM     38  C   UNL A   1      36.962  30.416  28.986  1.00  0.00    -0.014 A 
BRANCH  38  39
ATOM     39  C   UNL A   1      38.137  29.926  29.752  1.00  0.00     0.031 A 
ATOM     40  C   UNL A   1      38.381  30.446  31.141  1.00  0.00     0.074 A 
ATOM     41  C   UNL A   1      39.015  29.083  29.174  1.00  0.00     0.049 A 
ATOM     42  N   UNL A   1      39.413  30.266  31.923  1.00  0.00    -0.248 NA
ATOM     43  C   UNL A   1      37.337  31.314  31.707  1.00  0.00     0.031 C 
ATOM     44  C   UNL A   1      38.902  28.536  27.818  1.00  0.00     0.029 A 
ATOM     45  N   UNL A   1      40.185  28.544  29.648  1.00  0.00    -0.354 N 
ATOM     46  C   UNL A   1      39.149  31.010  33.069  1.00  0.00     0.074 A 
ATOM     47  C   UNL A   1      37.892  31.692  32.849  1.00  0.00     0.031 C 
ATOM     48  C   UNL A   1      39.947  27.726  27.580  1.00  0.00     0.029 A 
ATOM     49  C   UNL A   1      40.829  27.730  28.743  1.00  0.00     0.049 A 
ATOM     50  H   UNL A   1      40.533  28.723  30.551  1.00  0.00     0.167 HD
ATOM     51  C   UNL A   1      39.876  31.094  34.210  1.00  0.00     0.034 A 
ATOM     52  C   UNL A   1      42.003  27.072  28.838  1.00  0.00     0.034 A 
ATOM     53  C   UNL A   1      41.117  30.393  34.423  1.00  0.00     0.049 A 
ATOM     54  C   UNL A   1      42.797  27.190  30.117  1.00  0.00     0.074 A 
ATOM     55  C   UNL A   1      41.930  30.397  35.542  1.00  0.00     0.029 A 
ATOM     56  N   UNL A   1      41.717  29.549  33.498  1.00  0.00    -0.354 N 
ATOM     57  N   UNL A   1      42.525  27.889  31.195  1.00  0.00    -0.248 NA
ATOM     58  C   UNL A   1      44.047  26.425  30.196  1.00  0.00     0.031 C 
ATOM     59  C   UNL A   1      43.042  29.587  35.280  1.00  0.00     0.029 A 
ATOM     60  C   UNL A   1      42.892  29.032  34.019  1.00  0.00     0.049 A 
ATOM     61  H   UNL A   1      41.360  29.347  32.603  1.00  0.00     0.167 HD
ATOM     62  C   UNL A   1      43.554  27.614  32.092  1.00  0.00     0.074 A 
ATOM     63  C   UNL A   1      44.440  26.678  31.434  1.00  0.00     0.031 C 
ATOM     64  C   UNL A   1      43.752  28.090  33.348  1.00  0.00     0.034 A 
BRANCH  51  65
ATOM     65  C   UNL A   1      39.339  31.983  35.302  1.00  0.00     0.023 A 
ATOM     66  C   UNL A   1      39.752  33.322  35.419  1.00  0.00     0.031 A 
ATOM     67  C   UNL A   1      38.437  31.484  36.256  1.00  0.00     0.131 A 
ATOM     68  C   UNL A   1      39.322  34.094  36.508  1.00  0.00     0.055 A 
ATOM     69  C   UNL A   1      37.950  32.281  37.294  1.00  0.00     0.041 A 
ATOM     70  F   UNL A   1      38.026  30.208  36.206  1.00  0.00    -0.206 F 
ATOM     71  C   UNL A   1      38.403  33.591  37.433  1.00  0.00     0.022 A 
BRANCH  68  72
ATOM     72  S   UNL A   1      40.079  35.721  36.767  1.00  0.00     0.124 S 
ATOM     73  O   UNL A   1      39.624  36.447  35.584  1.00  0.00    -0.237 OA
ATOM     74  O   UNL A   1      39.499  36.142  38.037  1.00  0.00    -0.237 OA
ATOM     75  O   UNL A   1      41.511  35.430  36.801  1.00  0.00    -0.744 OA
ENDBRANCH  68  72
ENDBRANCH  51  65
BRANCH  52  76
ATOM     76  C   UNL A   1      42.519  26.251  27.705  1.00  0.00     0.023 A 
ATOM     77  C   UNL A   1      42.073  24.935  27.509  1.00  0.00     0.031 A 
ATOM     78  C   UNL A   1      43.522  26.740  26.850  1.00  0.00     0.131 A 
ATOM     79  C   UNL A   1      42.674  24.129  26.529  1.00  0.00     0.055 A 
ATOM     80  C   UNL A   1      44.078  25.953  25.839  1.00  0.00     0.041 A 
ATOM     81  F   UNL A   1      43.981  27.994  26.988  1.00  0.00    -0.206 F 
ATOM     82  C   UNL A   1      43.667  24.632  25.686  1.00  0.00     0.022 A 
BRANCH  79  83
ATOM     83  S   UNL A   1      42.220  22.374  26.453  1.00  0.00     0.124 S 
ATOM     84  O   UNL A   1      40.774  22.447  26.278  1.00  0.00    -0.237 OA
ATOM     85  O   UNL A   1      42.985  21.916  25.298  1.00  0.00    -0.237 OA
ATOM     86  O   UNL A   1      42.668  21.852  27.743  1.00  0.00    -0.744 OA
ENDBRANCH  79  83
ENDBRANCH  52  76
BRANCH  64  87
ATOM     87  C   UNL A   1      44.938  27.548  34.102  1.00  0.00     0.023 A 
ATOM     88  C   UNL A   1      44.848  26.382  34.881  1.00  0.00     0.031 A 
ATOM     89  C   UNL A   1      46.171  28.219  34.047  1.00  0.00     0.131 A 
ATOM     90  C   UNL A   1      45.959  25.951  35.619  1.00  0.00     0.055 A 
ATOM     91  C   UNL A   1      47.289  27.756  34.742  1.00  0.00     0.041 A 
ATOM     92  F   UNL A   1      46.309  29.337  33.316  1.00  0.00    -0.206 F 
ATOM     93  C   UNL A   1      47.183  26.623  35.543  1.00  0.00     0.022 A 
BRANCH  90  94
ATOM     94  S   UNL A   1      45.765  24.540  36.742  1.00  0.00     0.124 S 
ATOM     95  O   UNL A   1      45.146  25.162  37.908  1.00  0.00    -0.237 OA
ATOM     96  O   UNL A   1      44.912  23.643  35.970  1.00  0.00    -0.237 OA
ATOM     97  O   UNL A   1      47.134  24.070  36.944  1.00  0.00    -0.744 OA
ENDBRANCH  90  94
ENDBRANCH  64  87
ENDBRANCH  38  39
ENDBRANCH  30  33
ENDBRANCH  28  29
ENDBRANCH  27  28
ENDBRANCH   1  27
TORSDOF 18
ENDMDL
