MODEL 1
REMARK VINA RESULT:     -11.7      0.000      0.000
REMARK SMILES C[C@H](NC(=O)N1CC[C@H](C(=O)NCCCCNC(=O)c2ccc(-c3c4nc(c(-c5cc(S(=O)(=O)[O-])ccc5F)c5ccc([nH]5)c(-c5cc(S(=O)(=O)[O-])ccc5F)c5nc(c(-c6cc(S(=O)(=O)[O-])ccc6F)c6ccc3[nH]6)C=C5)C=C4)cc2)[C@H]1C)c1ccsc1
REMARK SMILES IDX 14 1 13 2 12 3 10 4 11 5 9 7 6 8 7 9 83 10 8 11 84 12 4 13
REMARK SMILES IDX 3 14 5 16 2 17 1 18 85 19 86 20 89 21 87 22 88 23 15 24
REMARK SMILES IDX 16 25 17 26 18 27 19 29 20 30 21 31 82 32 22 33 81 34 23 35
REMARK SMILES IDX 24 36 25 37 75 38 26 39 80 40 74 41 76 42 27 43 79 44 73 45
REMARK SMILES IDX 72 46 28 48 60 49 40 50 59 51 41 52 44 53 58 54 77 55 42 56
REMARK SMILES IDX 43 57 57 59 78 60 45 61 29 62 30 63 38 64 31 65 37 66 39 67
REMARK SMILES IDX 36 68 32 69 33 70 34 71 35 72 61 73 62 74 70 75 63 76 69 77
REMARK SMILES IDX 71 78 68 79 64 80 65 81 66 82 67 83 46 84 47 85 55 86 48 87
REMARK SMILES IDX 54 88 56 89 53 90 49 91 50 92 51 93 52 94
REMARK H PARENT 12 6 3 15 17 28 76 47 44 58
REMARK Flexibility Score: inf
ROOT
ATOM      1  C   UNL A   1      32.038  30.261  26.891  1.00  0.00     0.023 C 
ENDROOT
BRANCH   1   2
ATOM      2  C   UNL A   1      33.162  29.754  25.991  1.00  0.00     0.116 C 
BRANCH   2   3
ATOM      3  N   UNL A   1      32.769  29.641  24.604  1.00  0.00    -0.356 N 
ATOM      4  C   UNL A   1      32.205  28.649  23.886  1.00  0.00     0.225 C 
ATOM      5  O   UNL A   1      31.858  28.951  22.735  1.00  0.00    -0.275 OA
ATOM      6  H   UNL A   1      32.950  30.455  24.079  1.00  0.00     0.163 HD
BRANCH   4   7
ATOM      7  C   UNL A   1      31.896  27.239  24.377  1.00  0.00     0.102 C 
ATOM      8  N   UNL A   1      32.357  25.247  23.124  1.00  0.00    -0.321 N 
ATOM      9  C   UNL A   1      30.948  25.550  22.948  1.00  0.00     0.122 C 
ATOM     10  C   UNL A   1      32.996  26.232  24.018  1.00  0.00     0.096 C 
ATOM     11  C   UNL A   1      30.599  26.515  24.061  1.00  0.00     0.037 C 
ATOM     12  C   UNL A   1      33.513  25.584  25.307  1.00  0.00     0.032 C 
BRANCH   8  13
ATOM     13  C   UNL A   1      33.055  24.742  22.051  1.00  0.00     0.318 C 
ATOM     14  N   UNL A   1      33.345  23.413  22.083  1.00  0.00    -0.331 N 
ATOM     15  H   UNL A   1      34.046  23.092  21.470  1.00  0.00     0.165 HD
ATOM     16  O   UNL A   1      33.344  25.405  21.059  1.00  0.00    -0.249 OA
BRANCH  14  17
ATOM     17  C   UNL A   1      32.718  22.428  22.937  1.00  0.00     0.112 C 
ATOM     18  C   UNL A   1      31.987  21.359  22.129  1.00  0.00     0.036 C 
BRANCH  17  19
ATOM     19  C   UNL A   1      33.699  21.823  23.912  1.00  0.00    -0.015 A 
ATOM     20  C   UNL A   1      33.526  20.653  24.728  1.00  0.00     0.017 A 
ATOM     21  C   UNL A   1      34.938  22.396  24.158  1.00  0.00     0.070 A 
ATOM     22  C   UNL A   1      34.613  20.407  25.542  1.00  0.00     0.065 A 
ATOM     23  S   UNL A   1      35.846  21.568  25.341  1.00  0.00    -0.152 S 
ENDBRANCH  17  19
ENDBRANCH  14  17
ENDBRANCH   8  13
ENDBRANCH   4   7
ENDBRANCH   2   3
ENDBRANCH   1   2
BRANCH   1  24
ATOM     24  C   UNL A   1      31.822  31.771  26.863  1.00  0.00     0.023 C 
BRANCH  24  25
ATOM     25  C   UNL A   1      33.030  32.578  27.297  1.00  0.00     0.116 C 
BRANCH  25  26
ATOM     26  N   UNL A   1      32.694  33.951  27.641  1.00  0.00    -0.352 N 
ATOM     27  C   UNL A   1      33.201  34.731  28.656  1.00  0.00     0.251 C 
ATOM     28  H   UNL A   1      32.013  34.379  27.073  1.00  0.00     0.163 HD
ATOM     29  O   UNL A   1      32.706  35.816  28.904  1.00  0.00    -0.269 OA
BRANCH  27  30
ATOM     30  C   UNL A   1      34.326  34.204  29.457  1.00  0.00     0.039 A 
ATOM     31  C   UNL A   1      34.049  33.379  30.547  1.00  0.00     0.014 A 
ATOM     32  C   UNL A   1      35.647  34.488  29.098  1.00  0.00     0.014 A 
ATOM     33  C   UNL A   1      35.104  32.792  31.246  1.00  0.00     0.010 A 
ATOM     34  C   UNL A   1      36.690  33.831  29.736  1.00  0.00     0.010 A 
ATOM     35  C   UNL A   1      36.430  32.987  30.827  1.00  0.00    -0.014 A 
BRANCH  35  36
ATOM     36  C   UNL A   1      37.565  32.351  31.540  1.00  0.00     0.031 A 
ATOM     37  C   UNL A   1      38.338  31.249  30.867  1.00  0.00     0.074 A 
ATOM     38  C   UNL A   1      37.857  32.723  32.801  1.00  0.00     0.049 A 
ATOM     39  N   UNL A   1      39.313  30.515  31.336  1.00  0.00    -0.248 NA
ATOM     40  C   UNL A   1      37.934  30.900  29.494  1.00  0.00     0.031 C 
ATOM     41  C   UNL A   1      37.141  33.744  33.570  1.00  0.00     0.029 A 
ATOM     42  N   UNL A   1      38.829  32.282  33.663  1.00  0.00    -0.354 N 
ATOM     43  C   UNL A   1      39.624  29.608  30.328  1.00  0.00     0.074 A 
ATOM     44  C   UNL A   1      38.689  29.841  29.249  1.00  0.00     0.031 C 
ATOM     45  C   UNL A   1      37.716  33.868  34.777  1.00  0.00     0.029 A 
ATOM     46  C   UNL A   1      38.813  32.912  34.886  1.00  0.00     0.049 A 
ATOM     47  H   UNL A   1      39.478  31.580  33.428  1.00  0.00     0.167 HD
ATOM     48  C   UNL A   1      40.617  28.686  30.294  1.00  0.00     0.034 A 
ATOM     49  C   UNL A   1      39.591  32.732  35.972  1.00  0.00     0.034 A 
ATOM     50  C   UNL A   1      41.557  28.489  31.369  1.00  0.00     0.049 A 
ATOM     51  C   UNL A   1      40.698  31.710  35.904  1.00  0.00     0.074 A 
ATOM     52  C   UNL A   1      42.636  27.626  31.424  1.00  0.00     0.029 A 
ATOM     53  N   UNL A   1      41.530  29.168  32.582  1.00  0.00    -0.354 N 
ATOM     54  N   UNL A   1      41.015  30.897  34.921  1.00  0.00    -0.248 NA
ATOM     55  C   UNL A   1      41.564  31.592  37.084  1.00  0.00     0.031 C 
ATOM     56  C   UNL A   1      43.224  27.738  32.689  1.00  0.00     0.029 A 
ATOM     57  C   UNL A   1      42.560  28.728  33.397  1.00  0.00     0.049 A 
ATOM     58  H   UNL A   1      40.874  29.862  32.826  1.00  0.00     0.167 HD
ATOM     59  C   UNL A   1      42.142  30.203  35.351  1.00  0.00     0.074 A 
ATOM     60  C   UNL A   1      42.456  30.703  36.675  1.00  0.00     0.031 C 
ATOM     61  C   UNL A   1      42.857  29.241  34.713  1.00  0.00     0.034 A 
BRANCH  48  62
ATOM     62  C   UNL A   1      40.718  27.815  29.066  1.00  0.00     0.023 A 
ATOM     63  C   UNL A   1      41.636  28.089  28.036  1.00  0.00     0.031 A 
ATOM     64  C   UNL A   1      39.868  26.705  28.909  1.00  0.00     0.131 A 
ATOM     65  C   UNL A   1      41.635  27.311  26.869  1.00  0.00     0.055 A 
ATOM     66  C   UNL A   1      39.928  25.886  27.780  1.00  0.00     0.041 A 
ATOM     67  F   UNL A   1      38.955  26.407  29.846  1.00  0.00    -0.206 F 
ATOM     68  C   UNL A   1      40.805  26.195  26.745  1.00  0.00     0.022 A 
BRANCH  65  69
ATOM     69  S   UNL A   1      42.638  27.860  25.460  1.00  0.00     0.124 S 
ATOM     70  O   UNL A   1      42.641  26.666  24.618  1.00  0.00    -0.237 OA
ATOM     71  O   UNL A   1      41.878  28.997  24.955  1.00  0.00    -0.237 OA
ATOM     72  O   UNL A   1      43.926  28.190  26.067  1.00  0.00    -0.744 OA
ENDBRANCH  65  69
ENDBRANCH  48  62
BRANCH  49  73
ATOM     73  C   UNL A   1      39.364  33.529  37.213  1.00  0.00     0.023 A 
ATOM     74  C   UNL A   1      40.049  34.734  37.435  1.00  0.00     0.031 A 
ATOM     75  C   UNL A   1      38.500  33.067  38.222  1.00  0.00     0.131 A 
ATOM     76  C   UNL A   1      39.906  35.406  38.659  1.00  0.00     0.055 A 
ATOM     77  C   UNL A   1      38.318  33.769  39.415  1.00  0.00     0.041 A 
ATOM     78  F   UNL A   1      37.814  31.924  38.060  1.00  0.00    -0.206 F 
ATOM     79  C   UNL A   1      39.036  34.939  39.646  1.00  0.00     0.022 A 
BRANCH  76  80
ATOM     80  S   UNL A   1      40.958  36.849  38.985  1.00  0.00     0.124 S 
ATOM     81  O   UNL A   1      41.753  36.917  37.764  1.00  0.00    -0.237 OA
ATOM     82  O   UNL A   1      39.969  37.907  39.167  1.00  0.00    -0.237 OA
ATOM     83  O   UNL A   1      41.691  36.470  40.190  1.00  0.00    -0.744 OA
ENDBRANCH  76  80
ENDBRANCH  49  73
BRANCH  61  84
ATOM     84  C   UNL A   1      44.083  28.718  35.420  1.00  0.00     0.023 A 
ATOM     85  C   UNL A   1      44.019  27.641  36.321  1.00  0.00     0.031 A 
ATOM     86  C   UNL A   1      45.334  29.321  35.197  1.00  0.00     0.131 A 
ATOM     87  C   UNL A   1      45.171  27.242  37.015  1.00  0.00     0.055 A 
ATOM     88  C   UNL A   1      46.489  28.877  35.840  1.00  0.00     0.041 A 
ATOM     89  F   UNL A   1      45.453  30.353  34.346  1.00  0.00    -0.206 F 
ATOM     90  C   UNL A   1      46.408  27.843  36.769  1.00  0.00     0.022 A 
BRANCH  87  91
ATOM     91  S   UNL A   1      45.010  25.998  38.325  1.00  0.00     0.124 S 
ATOM     92  O   UNL A   1      43.886  26.515  39.098  1.00  0.00    -0.237 OA
ATOM     93  O   UNL A   1      44.753  24.778  37.566  1.00  0.00    -0.237 OA
ATOM     94  O   UNL A   1      46.304  26.045  39.003  1.00  0.00    -0.744 OA
ENDBRANCH  87  91
ENDBRANCH  61  84
ENDBRANCH  35  36
ENDBRANCH  27  30
ENDBRANCH  25  26
ENDBRANCH  24  25
ENDBRANCH   1  24
TORSDOF 17
ENDMDL
MODEL 2
REMARK VINA RESULT:     -11.7      1.329      1.611
REMARK SMILES C[C@H](NC(=O)N1CC[C@H](C(=O)NCCCCNC(=O)c2ccc(-c3c4nc(c(-c5cc(S(=O)(=O)[O-])ccc5F)c5ccc([nH]5)c(-c5cc(S(=O)(=O)[O-])ccc5F)c5nc(c(-c6cc(S(=O)(=O)[O-])ccc6F)c6ccc3[nH]6)C=C5)C=C4)cc2)[C@H]1C)c1ccsc1
REMARK SMILES IDX 14 1 13 2 12 3 10 4 11 5 9 7 6 8 7 9 83 10 8 11 84 12 4 13
REMARK SMILES IDX 3 14 5 16 2 17 1 18 85 19 86 20 89 21 87 22 88 23 15 24
REMARK SMILES IDX 16 25 17 26 18 27 19 29 20 30 21 31 82 32 22 33 81 34 23 35
REMARK SMILES IDX 24 36 25 37 75 38 26 39 80 40 74 41 76 42 27 43 79 44 73 45
REMARK SMILES IDX 72 46 28 48 60 49 40 50 59 51 41 52 44 53 58 54 77 55 42 56
REMARK SMILES IDX 43 57 57 59 78 60 45 61 29 62 30 63 38 64 31 65 37 66 39 67
REMARK SMILES IDX 36 68 32 69 33 70 34 71 35 72 61 73 62 74 70 75 63 76 69 77
REMARK SMILES IDX 71 78 68 79 64 80 65 81 66 82 67 83 46 84 47 85 55 86 48 87
REMARK SMILES IDX 54 88 56 89 53 90 49 91 50 92 51 93 52 94
REMARK H PARENT 12 6 3 15 17 28 76 47 44 58
REMARK Flexibility Score: inf
ROOT
ATOM      1  C   UNL A   1      31.924  30.292  26.765  1.00  0.00     0.023 C 
ENDROOT
BRANCH   1   2
ATOM      2  C   UNL A   1      32.901  29.921  25.652  1.00  0.00     0.116 C 
BRANCH   2   3
ATOM      3  N   UNL A   1      32.255  29.738  24.372  1.00  0.00    -0.356 N 
ATOM      4  C   UNL A   1      31.635  28.687  23.796  1.00  0.00     0.225 C 
ATOM      5  O   UNL A   1      31.051  28.928  22.730  1.00  0.00    -0.275 OA
ATOM      6  H   UNL A   1      32.271  30.544  23.806  1.00  0.00     0.163 HD
BRANCH   4   7
ATOM      7  C   UNL A   1      31.530  27.277  24.365  1.00  0.00     0.102 C 
ATOM      8  N   UNL A   1      32.184  25.296  23.180  1.00  0.00    -0.321 N 
ATOM      9  C   UNL A   1      30.741  25.412  23.062  1.00  0.00     0.122 C 
ATOM     10  C   UNL A   1      32.731  26.397  23.996  1.00  0.00     0.096 C 
ATOM     11  C   UNL A   1      30.323  26.382  24.147  1.00  0.00     0.037 C 
ATOM     12  C   UNL A   1      33.383  25.885  25.286  1.00  0.00     0.032 C 
BRANCH   8  13
ATOM     13  C   UNL A   1      32.892  24.828  22.097  1.00  0.00     0.318 C 
ATOM     14  N   UNL A   1      33.612  23.690  22.285  1.00  0.00    -0.331 N 
ATOM     15  H   UNL A   1      34.310  23.486  21.621  1.00  0.00     0.165 HD
ATOM     16  O   UNL A   1      32.834  25.336  20.981  1.00  0.00    -0.249 OA
BRANCH  14  17
ATOM     17  C   UNL A   1      33.447  22.751  23.373  1.00  0.00     0.112 C 
ATOM     18  C   UNL A   1      32.631  21.531  22.951  1.00  0.00     0.036 C 
BRANCH  17  19
ATOM     19  C   UNL A   1      34.770  22.358  23.984  1.00  0.00    -0.015 A 
ATOM     20  C   UNL A   1      36.090  22.674  23.513  1.00  0.00     0.017 A 
ATOM     21  C   UNL A   1      34.848  21.569  25.122  1.00  0.00     0.070 A 
ATOM     22  C   UNL A   1      37.081  22.113  24.291  1.00  0.00     0.065 A 
ATOM     23  S   UNL A   1      36.447  21.207  25.590  1.00  0.00    -0.152 S 
ENDBRANCH  17  19
ENDBRANCH  14  17
ENDBRANCH   8  13
ENDBRANCH   4   7
ENDBRANCH   2   3
ENDBRANCH   1   2
BRANCH   1  24
ATOM     24  C   UNL A   1      31.694  31.789  26.949  1.00  0.00     0.023 C 
BRANCH  24  25
ATOM     25  C   UNL A   1      32.919  32.551  27.417  1.00  0.00     0.116 C 
BRANCH  25  26
ATOM     26  N   UNL A   1      32.639  33.953  27.686  1.00  0.00    -0.352 N 
ATOM     27  C   UNL A   1      33.202  34.773  28.638  1.00  0.00     0.251 C 
ATOM     28  H   UNL A   1      31.956  34.369  27.113  1.00  0.00     0.163 HD
ATOM     29  O   UNL A   1      32.751  35.888  28.834  1.00  0.00    -0.269 OA
BRANCH  27  30
ATOM     30  C   UNL A   1      34.332  34.255  29.438  1.00  0.00     0.039 A 
ATOM     31  C   UNL A   1      34.061  33.465  30.555  1.00  0.00     0.014 A 
ATOM     32  C   UNL A   1      35.651  34.515  29.054  1.00  0.00     0.014 A 
ATOM     33  C   UNL A   1      35.119  32.885  31.255  1.00  0.00     0.010 A 
ATOM     34  C   UNL A   1      36.695  33.864  29.695  1.00  0.00     0.010 A 
ATOM     35  C   UNL A   1      36.442  33.054  30.812  1.00  0.00    -0.014 A 
BRANCH  35  36
ATOM     36  C   UNL A   1      37.580  32.424  31.527  1.00  0.00     0.031 A 
ATOM     37  C   UNL A   1      38.326  31.290  30.878  1.00  0.00     0.074 A 
ATOM     38  C   UNL A   1      37.897  32.832  32.771  1.00  0.00     0.049 A 
ATOM     39  N   UNL A   1      39.299  30.558  31.355  1.00  0.00    -0.248 NA
ATOM     40  C   UNL A   1      37.895  30.904  29.524  1.00  0.00     0.031 C 
ATOM     41  C   UNL A   1      37.207  33.887  33.519  1.00  0.00     0.029 A 
ATOM     42  N   UNL A   1      38.877  32.405  33.631  1.00  0.00    -0.354 N 
ATOM     43  C   UNL A   1      39.581  29.616  30.371  1.00  0.00     0.074 A 
ATOM     44  C   UNL A   1      38.632  29.827  29.300  1.00  0.00     0.031 C 
ATOM     45  C   UNL A   1      37.804  34.042  34.712  1.00  0.00     0.029 A 
ATOM     46  C   UNL A   1      38.889  33.074  34.834  1.00  0.00     0.049 A 
ATOM     47  H   UNL A   1      39.513  31.687  33.409  1.00  0.00     0.167 HD
ATOM     48  C   UNL A   1      40.561  28.679  30.351  1.00  0.00     0.034 A 
ATOM     49  C   UNL A   1      39.683  32.917  35.912  1.00  0.00     0.034 A 
ATOM     50  C   UNL A   1      41.515  28.504  31.417  1.00  0.00     0.049 A 
ATOM     51  C   UNL A   1      40.774  31.878  35.859  1.00  0.00     0.074 A 
ATOM     52  C   UNL A   1      42.584  27.627  31.482  1.00  0.00     0.029 A 
ATOM     53  N   UNL A   1      41.517  29.221  32.607  1.00  0.00    -0.354 N 
ATOM     54  N   UNL A   1      41.064  31.030  34.898  1.00  0.00    -0.248 NA
ATOM     55  C   UNL A   1      41.657  31.785  37.028  1.00  0.00     0.031 C 
ATOM     56  C   UNL A   1      43.193  27.771  32.733  1.00  0.00     0.029 A 
ATOM     57  C   UNL A   1      42.554  28.792  33.420  1.00  0.00     0.049 A 
ATOM     58  H   UNL A   1      40.875  29.931  32.839  1.00  0.00     0.167 HD
ATOM     59  C   UNL A   1      42.188  30.334  35.332  1.00  0.00     0.074 A 
ATOM     60  C   UNL A   1      42.530  30.872  36.634  1.00  0.00     0.031 C 
ATOM     61  C   UNL A   1      42.880  29.342  34.714  1.00  0.00     0.034 A 
BRANCH  48  62
ATOM     62  C   UNL A   1      40.629  27.768  29.150  1.00  0.00     0.023 A 
ATOM     63  C   UNL A   1      41.559  27.976  28.115  1.00  0.00     0.031 A 
ATOM     64  C   UNL A   1      39.738  26.687  29.025  1.00  0.00     0.131 A 
ATOM     65  C   UNL A   1      41.529  27.164  26.971  1.00  0.00     0.055 A 
ATOM     66  C   UNL A   1      39.768  25.833  27.921  1.00  0.00     0.041 A 
ATOM     67  F   UNL A   1      38.813  26.452  29.968  1.00  0.00    -0.206 F 
ATOM     68  C   UNL A   1      40.658  26.077  26.879  1.00  0.00     0.022 A 
BRANCH  65  69
ATOM     69  S   UNL A   1      42.553  27.631  25.549  1.00  0.00     0.124 S 
ATOM     70  O   UNL A   1      43.848  27.868  26.183  1.00  0.00    -0.237 OA
ATOM     71  O   UNL A   1      42.466  26.453  24.694  1.00  0.00    -0.237 OA
ATOM     72  O   UNL A   1      41.893  28.828  25.030  1.00  0.00    -0.744 OA
ENDBRANCH  65  69
ENDBRANCH  48  62
BRANCH  49  73
ATOM     73  C   UNL A   1      39.487  33.756  37.131  1.00  0.00     0.023 A 
ATOM     74  C   UNL A   1      38.826  33.248  38.260  1.00  0.00     0.031 A 
ATOM     75  C   UNL A   1      39.908  35.098  37.163  1.00  0.00     0.131 A 
ATOM     76  C   UNL A   1      38.551  34.090  39.350  1.00  0.00     0.055 A 
ATOM     77  C   UNL A   1      39.683  35.916  38.271  1.00  0.00     0.041 A 
ATOM     78  F   UNL A   1      40.552  35.633  36.113  1.00  0.00    -0.206 F 
ATOM     79  C   UNL A   1      38.986  35.417  39.368  1.00  0.00     0.022 A 
BRANCH  76  80
ATOM     80  S   UNL A   1      37.522  33.453  40.702  1.00  0.00     0.124 S 
ATOM     81  O   UNL A   1      37.263  34.663  41.473  1.00  0.00    -0.237 OA
ATOM     82  O   UNL A   1      36.384  32.897  39.977  1.00  0.00    -0.237 OA
ATOM     83  O   UNL A   1      38.386  32.470  41.350  1.00  0.00    -0.744 OA
ENDBRANCH  76  80
ENDBRANCH  49  73
BRANCH  61  84
ATOM     84  C   UNL A   1      44.110  28.825  35.417  1.00  0.00     0.023 A 
ATOM     85  C   UNL A   1      44.047  27.774  36.349  1.00  0.00     0.031 A 
ATOM     86  C   UNL A   1      45.364  29.407  35.160  1.00  0.00     0.131 A 
ATOM     87  C   UNL A   1      45.204  27.381  37.037  1.00  0.00     0.055 A 
ATOM     88  C   UNL A   1      46.523  28.968  35.799  1.00  0.00     0.041 A 
ATOM     89  F   UNL A   1      45.483  30.414  34.280  1.00  0.00    -0.206 F 
ATOM     90  C   UNL A   1      46.445  27.960  36.757  1.00  0.00     0.022 A 
BRANCH  87  91
ATOM     91  S   UNL A   1      45.048  26.176  38.383  1.00  0.00     0.124 S 
ATOM     92  O   UNL A   1      44.080  26.824  39.261  1.00  0.00    -0.237 OA
ATOM     93  O   UNL A   1      44.576  24.986  37.682  1.00  0.00    -0.237 OA
ATOM     94  O   UNL A   1      46.405  26.081  38.918  1.00  0.00    -0.744 OA
ENDBRANCH  87  91
ENDBRANCH  61  84
ENDBRANCH  35  36
ENDBRANCH  27  30
ENDBRANCH  25  26
ENDBRANCH  24  25
ENDBRANCH   1  24
TORSDOF 17
ENDMDL
MODEL 3
REMARK VINA RESULT:     -11.7      5.621      9.053
REMARK SMILES C[C@H](NC(=O)N1CC[C@H](C(=O)NCCCCNC(=O)c2ccc(-c3c4nc(c(-c5cc(S(=O)(=O)[O-])ccc5F)c5ccc([nH]5)c(-c5cc(S(=O)(=O)[O-])ccc5F)c5nc(c(-c6cc(S(=O)(=O)[O-])ccc6F)c6ccc3[nH]6)C=C5)C=C4)cc2)[C@H]1C)c1ccsc1
REMARK SMILES IDX 14 1 13 2 12 3 10 4 11 5 9 7 6 8 7 9 83 10 8 11 84 12 4 13
REMARK SMILES IDX 3 14 5 16 2 17 1 18 85 19 86 20 89 21 87 22 88 23 15 24
REMARK SMILES IDX 16 25 17 26 18 27 19 29 20 30 21 31 82 32 22 33 81 34 23 35
REMARK SMILES IDX 24 36 25 37 75 38 26 39 80 40 74 41 76 42 27 43 79 44 73 45
REMARK SMILES IDX 72 46 28 48 60 49 40 50 59 51 41 52 44 53 58 54 77 55 42 56
REMARK SMILES IDX 43 57 57 59 78 60 45 61 29 62 30 63 38 64 31 65 37 66 39 67
REMARK SMILES IDX 36 68 32 69 33 70 34 71 35 72 61 73 62 74 70 75 63 76 69 77
REMARK SMILES IDX 71 78 68 79 64 80 65 81 66 82 67 83 46 84 47 85 55 86 48 87
REMARK SMILES IDX 54 88 56 89 53 90 49 91 50 92 51 93 52 94
REMARK H PARENT 12 6 3 15 17 28 76 47 44 58
REMARK Flexibility Score: inf
ROOT
ATOM      1  C   UNL A   1      34.908  20.952  25.632  1.00  0.00     0.023 C 
ENDROOT
BRANCH   1   2
ATOM      2  C   UNL A   1      33.465  20.637  25.246  1.00  0.00     0.116 C 
BRANCH   2   3
ATOM      3  N   UNL A   1      33.137  21.051  23.901  1.00  0.00    -0.356 N 
ATOM      4  C   UNL A   1      32.727  22.224  23.374  1.00  0.00     0.225 C 
ATOM      5  O   UNL A   1      32.683  22.268  22.136  1.00  0.00    -0.275 OA
ATOM      6  H   UNL A   1      33.233  20.332  23.234  1.00  0.00     0.163 HD
BRANCH   4   7
ATOM      7  C   UNL A   1      32.389  23.493  24.146  1.00  0.00     0.102 C 
ATOM      8  N   UNL A   1      32.536  25.705  23.229  1.00  0.00    -0.321 N 
ATOM      9  C   UNL A   1      33.737  25.484  24.015  1.00  0.00     0.122 C 
ATOM     10  C   UNL A   1      31.647  24.528  23.291  1.00  0.00     0.096 C 
ATOM     11  C   UNL A   1      33.424  24.302  24.908  1.00  0.00     0.037 C 
ATOM     12  C   UNL A   1      30.309  24.856  23.962  1.00  0.00     0.032 C 
BRANCH   8  13
ATOM     13  C   UNL A   1      32.645  26.421  22.059  1.00  0.00     0.318 C 
ATOM     14  N   UNL A   1      31.916  27.567  21.975  1.00  0.00    -0.331 N 
ATOM     15  H   UNL A   1      31.781  27.948  21.077  1.00  0.00     0.165 HD
ATOM     16  O   UNL A   1      33.413  26.120  21.150  1.00  0.00    -0.249 OA
BRANCH  14  17
ATOM     17  C   UNL A   1      31.319  28.276  23.086  1.00  0.00     0.112 C 
ATOM     18  C   UNL A   1      32.289  29.279  23.706  1.00  0.00     0.036 C 
BRANCH  17  19
ATOM     19  C   UNL A   1      30.010  28.923  22.704  1.00  0.00    -0.015 A 
ATOM     20  C   UNL A   1      28.685  28.549  23.115  1.00  0.00     0.017 A 
ATOM     21  C   UNL A   1      29.951  29.998  21.828  1.00  0.00     0.070 A 
ATOM     22  C   UNL A   1      27.708  29.332  22.537  1.00  0.00     0.065 A 
ATOM     23  S   UNL A   1      28.361  30.519  21.500  1.00  0.00    -0.152 S 
ENDBRANCH  17  19
ENDBRANCH  14  17
ENDBRANCH   8  13
ENDBRANCH   4   7
ENDBRANCH   2   3
ENDBRANCH   1   2
BRANCH   1  24
ATOM     24  C   UNL A   1      35.785  21.457  24.492  1.00  0.00     0.023 C 
BRANCH  24  25
ATOM     25  C   UNL A   1      37.162  21.922  24.928  1.00  0.00     0.116 C 
BRANCH  25  26
ATOM     26  N   UNL A   1      38.017  20.824  25.353  1.00  0.00    -0.352 N 
ATOM     27  C   UNL A   1      39.234  20.881  25.993  1.00  0.00     0.251 C 
ATOM     28  H   UNL A   1      37.680  19.920  25.155  1.00  0.00     0.163 HD
ATOM     29  O   UNL A   1      39.896  19.870  26.148  1.00  0.00    -0.269 OA
BRANCH  27  30
ATOM     30  C   UNL A   1      39.732  22.197  26.446  1.00  0.00     0.039 A 
ATOM     31  C   UNL A   1      40.914  22.252  27.186  1.00  0.00     0.014 A 
ATOM     32  C   UNL A   1      39.055  23.370  26.099  1.00  0.00     0.014 A 
ATOM     33  C   UNL A   1      41.448  23.494  27.529  1.00  0.00     0.010 A 
ATOM     34  C   UNL A   1      39.636  24.603  26.361  1.00  0.00     0.010 A 
ATOM     35  C   UNL A   1      40.832  24.678  27.092  1.00  0.00    -0.014 A 
BRANCH  35  36
ATOM     36  C   UNL A   1      41.398  26.010  27.424  1.00  0.00     0.031 A 
ATOM     37  C   UNL A   1      42.758  26.386  26.902  1.00  0.00     0.074 A 
ATOM     38  C   UNL A   1      40.718  26.844  28.233  1.00  0.00     0.049 A 
ATOM     39  N   UNL A   1      43.464  27.463  27.130  1.00  0.00    -0.248 NA
ATOM     40  C   UNL A   1      43.432  25.401  26.039  1.00  0.00     0.031 C 
ATOM     41  C   UNL A   1      39.414  26.561  28.839  1.00  0.00     0.029 A 
ATOM     42  N   UNL A   1      41.030  28.098  28.693  1.00  0.00    -0.354 N 
ATOM     43  C   UNL A   1      44.666  27.278  26.457  1.00  0.00     0.074 A 
ATOM     44  C   UNL A   1      44.621  25.956  25.869  1.00  0.00     0.031 C 
ATOM     45  C   UNL A   1      39.028  27.622  29.567  1.00  0.00     0.029 A 
ATOM     46  C   UNL A   1      40.069  28.642  29.515  1.00  0.00     0.049 A 
ATOM     47  H   UNL A   1      41.863  28.566  28.457  1.00  0.00     0.167 HD
ATOM     48  C   UNL A   1      45.702  28.142  26.318  1.00  0.00     0.034 A 
ATOM     49  C   UNL A   1      40.039  29.827  30.156  1.00  0.00     0.034 A 
ATOM     50  C   UNL A   1      45.715  29.465  26.887  1.00  0.00     0.049 A 
ATOM     51  C   UNL A   1      41.196  30.776  29.975  1.00  0.00     0.074 A 
ATOM     52  C   UNL A   1      46.683  30.447  26.766  1.00  0.00     0.029 A 
ATOM     53  N   UNL A   1      44.711  29.995  27.688  1.00  0.00    -0.354 N 
ATOM     54  N   UNL A   1      42.304  30.608  29.288  1.00  0.00    -0.248 NA
ATOM     55  C   UNL A   1      41.093  32.082  30.637  1.00  0.00     0.031 C 
ATOM     56  C   UNL A   1      46.294  31.545  27.541  1.00  0.00     0.029 A 
ATOM     57  C   UNL A   1      45.046  31.280  28.084  1.00  0.00     0.049 A 
ATOM     58  H   UNL A   1      43.881  29.526  27.938  1.00  0.00     0.167 HD
ATOM     59  C   UNL A   1      43.008  31.803  29.405  1.00  0.00     0.074 A 
ATOM     60  C   UNL A   1      42.192  32.686  30.215  1.00  0.00     0.031 C 
ATOM     61  C   UNL A   1      44.217  32.145  28.890  1.00  0.00     0.034 A 
BRANCH  48  62
ATOM     62  C   UNL A   1      46.905  27.669  25.537  1.00  0.00     0.023 A 
ATOM     63  C   UNL A   1      47.103  28.030  24.192  1.00  0.00     0.031 A 
ATOM     64  C   UNL A   1      47.856  26.825  26.138  1.00  0.00     0.131 A 
ATOM     65  C   UNL A   1      48.183  27.494  23.474  1.00  0.00     0.055 A 
ATOM     66  C   UNL A   1      48.973  26.362  25.441  1.00  0.00     0.041 A 
ATOM     67  F   UNL A   1      47.708  26.427  27.411  1.00  0.00    -0.206 F 
ATOM     68  C   UNL A   1      49.135  26.684  24.096  1.00  0.00     0.022 A 
BRANCH  65  69
ATOM     69  S   UNL A   1      48.251  27.764  21.682  1.00  0.00     0.124 S 
ATOM     70  O   UNL A   1      48.525  26.416  21.190  1.00  0.00    -0.237 OA
ATOM     71  O   UNL A   1      46.923  28.292  21.390  1.00  0.00    -0.237 OA
ATOM     72  O   UNL A   1      49.350  28.715  21.520  1.00  0.00    -0.744 OA
ENDBRANCH  65  69
ENDBRANCH  48  62
BRANCH  49  73
ATOM     73  C   UNL A   1      38.883  30.193  31.027  1.00  0.00     0.023 A 
ATOM     74  C   UNL A   1      37.833  30.988  30.540  1.00  0.00     0.031 A 
ATOM     75  C   UNL A   1      38.838  29.798  32.376  1.00  0.00     0.131 A 
ATOM     76  C   UNL A   1      36.816  31.415  31.409  1.00  0.00     0.055 A 
ATOM     77  C   UNL A   1      37.794  30.178  33.222  1.00  0.00     0.041 A 
ATOM     78  F   UNL A   1      39.812  29.031  32.892  1.00  0.00    -0.206 F 
ATOM     79  C   UNL A   1      36.782  31.005  32.743  1.00  0.00     0.022 A 
BRANCH  76  80
ATOM     80  S   UNL A   1      35.590  32.602  30.792  1.00  0.00     0.124 S 
ATOM     81  O   UNL A   1      36.196  33.875  31.164  1.00  0.00    -0.237 OA
ATOM     82  O   UNL A   1      35.565  32.295  29.365  1.00  0.00    -0.237 OA
ATOM     83  O   UNL A   1      34.377  32.248  31.524  1.00  0.00    -0.744 OA
ENDBRANCH  76  80
ENDBRANCH  49  73
BRANCH  61  84
ATOM     84  C   UNL A   1      44.693  33.555  29.139  1.00  0.00     0.023 A 
ATOM     85  C   UNL A   1      44.278  34.632  28.336  1.00  0.00     0.031 A 
ATOM     86  C   UNL A   1      45.590  33.819  30.190  1.00  0.00     0.131 A 
ATOM     87  C   UNL A   1      44.810  35.911  28.555  1.00  0.00     0.055 A 
ATOM     88  C   UNL A   1      46.065  35.106  30.444  1.00  0.00     0.041 A 
ATOM     89  F   UNL A   1      46.019  32.828  30.987  1.00  0.00    -0.206 F 
ATOM     90  C   UNL A   1      45.688  36.158  29.614  1.00  0.00     0.022 A 
BRANCH  87  91
ATOM     91  S   UNL A   1      44.422  37.229  27.371  1.00  0.00     0.124 S 
ATOM     92  O   UNL A   1      44.072  38.337  28.253  1.00  0.00    -0.237 OA
ATOM     93  O   UNL A   1      45.677  37.369  26.638  1.00  0.00    -0.237 OA
ATOM     94  O   UNL A   1      43.311  36.677  26.597  1.00  0.00    -0.744 OA
ENDBRANCH  87  91
ENDBRANCH  61  84
ENDBRANCH  35  36
ENDBRANCH  27  30
ENDBRANCH  25  26
ENDBRANCH  24  25
ENDBRANCH   1  24
TORSDOF 17
ENDMDL
