MODEL 1
REMARK VINA RESULT:     -11.4      0.000      0.000
REMARK SMILES CC1(C)CC[NH+](CC[C@H]2CCC[C@]2([NH3+])C(=O)NCCCCNC(=O)c2ccc(-c3c4nc(c(-c5cc(S(=O)(=O)[O-])ccc5F)c5ccc([nH]5)c(-c5cc(S(=O)(=O)[O-])ccc5F)c5nc(c(-c6cc(S(=O)(=O)[O-])ccc6F)c6ccc3[nH]6)C=C5)C=C4)cc2)CC1
REMARK SMILES IDX 19 1 18 2 17 3 15 4 16 5 13 7 9 8 10 9 11 10 12 11 8 12 7 13
REMARK SMILES IDX 6 14 1 15 2 16 3 17 4 18 89 19 5 20 88 21 14 23 20 27 21 28
REMARK SMILES IDX 22 29 23 30 24 32 25 33 26 34 87 35 27 36 86 37 28 38 29 39
REMARK SMILES IDX 30 40 80 41 31 42 85 43 79 44 81 45 32 46 84 47 78 48 77 49
REMARK SMILES IDX 33 51 65 52 45 53 64 54 46 55 49 56 63 57 82 58 47 59 48 60
REMARK SMILES IDX 62 62 83 63 50 64 34 65 35 66 43 67 36 68 42 69 44 70 41 71
REMARK SMILES IDX 37 72 38 73 39 74 40 75 66 76 67 77 75 78 68 79 74 80 76 81
REMARK SMILES IDX 73 82 69 83 70 84 71 85 72 86 51 87 52 88 60 89 53 90 59 91
REMARK SMILES IDX 61 92 58 93 54 94 55 95 56 96 57 97
REMARK H PARENT 17 6 6 22 14 24 14 25 14 26 22 31 81 50 49 61
REMARK Flexibility Score: inf
ROOT
ATOM      1  C   UNL A   1      32.786  29.644  27.254  1.00  0.00     0.023 C 
ENDROOT
BRANCH   1   2
ATOM      2  C   UNL A   1      33.973  29.056  26.486  1.00  0.00     0.116 C 
BRANCH   2   3
ATOM      3  N   UNL A   1      33.802  29.316  25.074  1.00  0.00    -0.351 N 
ATOM      4  C   UNL A   1      33.743  28.396  24.063  1.00  0.00     0.281 C 
ATOM      5  O   UNL A   1      34.298  28.704  23.007  1.00  0.00    -0.268 OA
ATOM      6  H   UNL A   1      33.719  30.261  24.811  1.00  0.00     0.163 HD
BRANCH   4   7
ATOM      7  C   UNL A   1      32.801  27.142  24.233  1.00  0.00     0.177 C 
ATOM      8  C   UNL A   1      33.232  26.176  25.384  1.00  0.00     0.066 C 
ATOM      9  C   UNL A   1      34.257  25.283  24.647  1.00  0.00     0.011 C 
ATOM     10  C   UNL A   1      33.648  25.034  23.277  1.00  0.00     0.008 C 
ATOM     11  C   UNL A   1      32.896  26.310  22.925  1.00  0.00     0.079 C 
BRANCH   8  12
ATOM     12  C   UNL A   1      32.263  25.240  26.204  1.00  0.00     0.072 C 
BRANCH  12  13
ATOM     13  C   UNL A   1      31.631  23.947  25.618  1.00  0.00     0.262 C 
BRANCH  13  14
ATOM     14  N   UNL A   1      32.032  22.605  26.097  1.00  0.00    -0.335 N 
ATOM     15  C   UNL A   1      34.611  19.644  24.794  1.00  0.00     0.011 C 
ATOM     16  C   UNL A   1      34.478  21.161  25.038  1.00  0.00    -0.025 C 
ATOM     17  C   UNL A   1      35.749  21.837  24.491  1.00  0.00     0.011 C 
ATOM     18  C   UNL A   1      33.247  21.606  24.248  1.00  0.00     0.068 C 
ATOM     19  C   UNL A   1      34.311  21.479  26.548  1.00  0.00     0.068 C 
ATOM     20  C   UNL A   1      31.988  21.554  25.098  1.00  0.00     0.262 C 
ATOM     21  C   UNL A   1      33.227  22.525  26.935  1.00  0.00     0.262 C 
ATOM     22  H   UNL A   1      31.268  22.417  26.747  1.00  0.00     0.348 HD
ENDBRANCH  13  14
ENDBRANCH  12  13
ENDBRANCH   8  12
BRANCH   7  23
ATOM     23  N   UNL A   1      31.470  27.740  24.367  1.00  0.00    -0.345 N 
ATOM     24  H   UNL A   1      30.953  27.618  23.496  1.00  0.00     0.345 HD
ATOM     25  H   UNL A   1      31.561  28.734  24.572  1.00  0.00     0.345 HD
ATOM     26  H   UNL A   1      30.966  27.281  25.127  1.00  0.00     0.345 HD
ENDBRANCH   7  23
ENDBRANCH   4   7
ENDBRANCH   2   3
ENDBRANCH   1   2
BRANCH   1  27
ATOM     27  C   UNL A   1      32.504  31.112  26.916  1.00  0.00     0.023 C 
BRANCH  27  28
ATOM     28  C   UNL A   1      33.511  32.094  27.495  1.00  0.00     0.116 C 
BRANCH  28  29
ATOM     29  N   UNL A   1      32.940  33.414  27.713  1.00  0.00    -0.352 N 
ATOM     30  C   UNL A   1      33.315  34.327  28.667  1.00  0.00     0.251 C 
ATOM     31  H   UNL A   1      32.207  33.680  27.113  1.00  0.00     0.163 HD
ATOM     32  O   UNL A   1      32.703  35.378  28.815  1.00  0.00    -0.269 OA
BRANCH  30  33
ATOM     33  C   UNL A   1      34.451  33.965  29.527  1.00  0.00     0.039 A 
ATOM     34  C   UNL A   1      34.225  33.117  30.610  1.00  0.00     0.014 A 
ATOM     35  C   UNL A   1      35.746  34.323  29.137  1.00  0.00     0.014 A 
ATOM     36  C   UNL A   1      35.318  32.581  31.286  1.00  0.00     0.010 A 
ATOM     37  C   UNL A   1      36.830  33.727  29.767  1.00  0.00     0.010 A 
ATOM     38  C   UNL A   1      36.625  32.855  30.850  1.00  0.00    -0.014 A 
BRANCH  38  39
ATOM     39  C   UNL A   1      37.797  32.259  31.535  1.00  0.00     0.031 A 
ATOM     40  C   UNL A   1      38.555  31.151  30.861  1.00  0.00     0.074 A 
ATOM     41  C   UNL A   1      38.139  32.676  32.770  1.00  0.00     0.049 A 
ATOM     42  N   UNL A   1      39.562  30.445  31.307  1.00  0.00    -0.248 NA
ATOM     43  C   UNL A   1      38.095  30.759  29.519  1.00  0.00     0.031 C 
ATOM     44  C   UNL A   1      37.441  33.713  33.537  1.00  0.00     0.029 A 
ATOM     45  N   UNL A   1      39.151  32.275  33.604  1.00  0.00    -0.354 N 
ATOM     46  C   UNL A   1      39.840  29.517  30.311  1.00  0.00     0.074 A 
ATOM     47  C   UNL A   1      38.855  29.706  29.268  1.00  0.00     0.031 C 
ATOM     48  C   UNL A   1      38.061  33.879  34.716  1.00  0.00     0.029 A 
ATOM     49  C   UNL A   1      39.171  32.937  34.811  1.00  0.00     0.049 A 
ATOM     50  H   UNL A   1      39.804  31.578  33.362  1.00  0.00     0.167 HD
ATOM     51  C   UNL A   1      40.844  28.608  30.260  1.00  0.00     0.034 A 
ATOM     52  C   UNL A   1      39.988  32.791  35.873  1.00  0.00     0.034 A 
ATOM     53  C   UNL A   1      41.830  28.456  31.299  1.00  0.00     0.049 A 
ATOM     54  C   UNL A   1      41.096  31.768  35.795  1.00  0.00     0.074 A 
ATOM     55  C   UNL A   1      42.932  27.621  31.325  1.00  0.00     0.029 A 
ATOM     56  N   UNL A   1      41.829  29.152  32.501  1.00  0.00    -0.354 N 
ATOM     57  N   UNL A   1      41.388  30.942  34.816  1.00  0.00    -0.248 NA
ATOM     58  C   UNL A   1      41.988  31.666  36.956  1.00  0.00     0.031 C 
ATOM     59  C   UNL A   1      43.558  27.764  32.568  1.00  0.00     0.029 A 
ATOM     60  C   UNL A   1      42.892  28.742  33.289  1.00  0.00     0.049 A 
ATOM     61  H   UNL A   1      41.169  29.837  32.757  1.00  0.00     0.167 HD
ATOM     62  C   UNL A   1      42.516  30.242  35.236  1.00  0.00     0.074 A 
ATOM     63  C   UNL A   1      42.859  30.756  36.546  1.00  0.00     0.031 C 
ATOM     64  C   UNL A   1      43.210  29.264  34.597  1.00  0.00     0.034 A 
BRANCH  51  65
ATOM     65  C   UNL A   1      40.902  27.703  29.054  1.00  0.00     0.023 A 
ATOM     66  C   UNL A   1      41.825  27.914  28.014  1.00  0.00     0.031 A 
ATOM     67  C   UNL A   1      40.002  26.631  28.927  1.00  0.00     0.131 A 
ATOM     68  C   UNL A   1      41.777  27.116  26.861  1.00  0.00     0.055 A 
ATOM     69  C   UNL A   1      40.014  25.788  27.813  1.00  0.00     0.041 A 
ATOM     70  F   UNL A   1      39.083  26.394  29.876  1.00  0.00    -0.206 F 
ATOM     71  C   UNL A   1      40.894  26.038  26.765  1.00  0.00     0.022 A 
BRANCH  68  72
ATOM     72  S   UNL A   1      42.787  27.596  25.433  1.00  0.00     0.124 S 
ATOM     73  O   UNL A   1      42.917  26.324  24.725  1.00  0.00    -0.237 OA
ATOM     74  O   UNL A   1      41.959  28.605  24.785  1.00  0.00    -0.237 OA
ATOM     75  O   UNL A   1      44.020  28.093  26.038  1.00  0.00    -0.744 OA
ENDBRANCH  68  72
ENDBRANCH  51  65
BRANCH  52  76
ATOM     76  C   UNL A   1      39.791  33.609  37.105  1.00  0.00     0.023 A 
ATOM     77  C   UNL A   1      39.058  33.115  38.196  1.00  0.00     0.031 A 
ATOM     78  C   UNL A   1      40.293  34.921  37.190  1.00  0.00     0.131 A 
ATOM     79  C   UNL A   1      38.805  33.943  39.303  1.00  0.00     0.055 A 
ATOM     80  C   UNL A   1      40.084  35.721  38.314  1.00  0.00     0.041 A 
ATOM     81  F   UNL A   1      41.005  35.442  36.177  1.00  0.00    -0.206 F 
ATOM     82  C   UNL A   1      39.323  35.237  39.374  1.00  0.00     0.022 A 
BRANCH  79  83
ATOM     83  S   UNL A   1      37.706  33.332  40.611  1.00  0.00     0.124 S 
ATOM     84  O   UNL A   1      38.513  32.272  41.206  1.00  0.00    -0.237 OA
ATOM     85  O   UNL A   1      37.514  34.526  41.425  1.00  0.00    -0.237 OA
ATOM     86  O   UNL A   1      36.525  32.881  39.879  1.00  0.00    -0.744 OA
ENDBRANCH  79  83
ENDBRANCH  52  76
BRANCH  64  87
ATOM     87  C   UNL A   1      44.431  28.723  35.296  1.00  0.00     0.023 A 
ATOM     88  C   UNL A   1      44.361  27.607  36.147  1.00  0.00     0.031 A 
ATOM     89  C   UNL A   1      45.683  29.332  35.100  1.00  0.00     0.131 A 
ATOM     90  C   UNL A   1      45.514  27.163  36.811  1.00  0.00     0.055 A 
ATOM     91  C   UNL A   1      46.838  28.849  35.717  1.00  0.00     0.041 A 
ATOM     92  F   UNL A   1      45.805  30.401  34.298  1.00  0.00    -0.206 F 
ATOM     93  C   UNL A   1      46.755  27.766  36.586  1.00  0.00     0.022 A 
BRANCH  90  94
ATOM     94  S   UNL A   1      45.357  25.835  38.035  1.00  0.00     0.124 S 
ATOM     95  O   UNL A   1      44.038  26.098  38.600  1.00  0.00    -0.237 OA
ATOM     96  O   UNL A   1      45.470  24.635  37.211  1.00  0.00    -0.237 OA
ATOM     97  O   UNL A   1      46.479  26.069  38.941  1.00  0.00    -0.744 OA
ENDBRANCH  90  94
ENDBRANCH  64  87
ENDBRANCH  38  39
ENDBRANCH  30  33
ENDBRANCH  28  29
ENDBRANCH  27  28
ENDBRANCH   1  27
TORSDOF 18
ENDMDL
MODEL 2
REMARK VINA RESULT:     -11.4      2.247      7.809
REMARK SMILES CC1(C)CC[NH+](CC[C@H]2CCC[C@]2([NH3+])C(=O)NCCCCNC(=O)c2ccc(-c3c4nc(c(-c5cc(S(=O)(=O)[O-])ccc5F)c5ccc([nH]5)c(-c5cc(S(=O)(=O)[O-])ccc5F)c5nc(c(-c6cc(S(=O)(=O)[O-])ccc6F)c6ccc3[nH]6)C=C5)C=C4)cc2)CC1
REMARK SMILES IDX 19 1 18 2 17 3 15 4 16 5 13 7 9 8 10 9 11 10 12 11 8 12 7 13
REMARK SMILES IDX 6 14 1 15 2 16 3 17 4 18 89 19 5 20 88 21 14 23 20 27 21 28
REMARK SMILES IDX 22 29 23 30 24 32 25 33 26 34 87 35 27 36 86 37 28 38 29 39
REMARK SMILES IDX 30 40 80 41 31 42 85 43 79 44 81 45 32 46 84 47 78 48 77 49
REMARK SMILES IDX 33 51 65 52 45 53 64 54 46 55 49 56 63 57 82 58 47 59 48 60
REMARK SMILES IDX 62 62 83 63 50 64 34 65 35 66 43 67 36 68 42 69 44 70 41 71
REMARK SMILES IDX 37 72 38 73 39 74 40 75 66 76 67 77 75 78 68 79 74 80 76 81
REMARK SMILES IDX 73 82 69 83 70 84 71 85 72 86 51 87 52 88 60 89 53 90 59 91
REMARK SMILES IDX 61 92 58 93 54 94 55 95 56 96 57 97
REMARK H PARENT 17 6 6 22 14 24 14 25 14 26 22 31 81 50 49 61
REMARK Flexibility Score: inf
ROOT
ATOM      1  C   UNL A   1      32.139  29.104  24.426  1.00  0.00     0.023 C 
ENDROOT
BRANCH   1   2
ATOM      2  C   UNL A   1      31.180  28.167  23.685  1.00  0.00     0.116 C 
BRANCH   2   3
ATOM      3  N   UNL A   1      31.825  27.676  22.488  1.00  0.00    -0.351 N 
ATOM      4  C   UNL A   1      32.824  26.746  22.407  1.00  0.00     0.281 C 
ATOM      5  O   UNL A   1      33.697  26.948  21.561  1.00  0.00    -0.268 OA
ATOM      6  H   UNL A   1      31.510  28.055  21.636  1.00  0.00     0.163 HD
BRANCH   4   7
ATOM      7  C   UNL A   1      32.674  25.399  23.216  1.00  0.00     0.177 C 
ATOM      8  C   UNL A   1      32.325  25.602  24.726  1.00  0.00     0.066 C 
ATOM      9  C   UNL A   1      33.736  25.785  25.329  1.00  0.00     0.011 C 
ATOM     10  C   UNL A   1      34.607  24.770  24.609  1.00  0.00     0.008 C 
ATOM     11  C   UNL A   1      34.054  24.688  23.193  1.00  0.00     0.079 C 
BRANCH   8  12
ATOM     12  C   UNL A   1      31.532  24.579  25.627  1.00  0.00     0.072 C 
BRANCH  12  13
ATOM     13  C   UNL A   1      31.184  23.135  25.169  1.00  0.00     0.262 C 
BRANCH  13  14
ATOM     14  N   UNL A   1      31.796  21.951  25.813  1.00  0.00    -0.335 N 
ATOM     15  C   UNL A   1      34.929  19.394  24.940  1.00  0.00     0.011 C 
ATOM     16  C   UNL A   1      34.512  20.877  25.001  1.00  0.00    -0.025 C 
ATOM     17  C   UNL A   1      35.666  21.714  24.416  1.00  0.00     0.011 C 
ATOM     18  C   UNL A   1      33.262  20.998  24.129  1.00  0.00     0.068 C 
ATOM     19  C   UNL A   1      34.215  21.322  26.459  1.00  0.00     0.068 C 
ATOM     20  C   UNL A   1      31.992  20.807  24.943  1.00  0.00     0.262 C 
ATOM     21  C   UNL A   1      32.942  22.186  26.689  1.00  0.00     0.262 C 
ATOM     22  H   UNL A   1      31.046  21.697  26.457  1.00  0.00     0.348 HD
ENDBRANCH  13  14
ENDBRANCH  12  13
ENDBRANCH   8  12
BRANCH   7  23
ATOM     23  N   UNL A   1      31.694  24.645  22.430  1.00  0.00    -0.345 N 
ATOM     24  H   UNL A   1      32.174  23.928  21.886  1.00  0.00     0.345 HD
ATOM     25  H   UNL A   1      31.202  25.277  21.800  1.00  0.00     0.345 HD
ATOM     26  H   UNL A   1      31.023  24.202  23.058  1.00  0.00     0.345 HD
ENDBRANCH   7  23
ENDBRANCH   4   7
ENDBRANCH   2   3
ENDBRANCH   1   2
BRANCH   1  27
ATOM     27  C   UNL A   1      31.430  30.113  25.336  1.00  0.00     0.023 C 
BRANCH  27  28
ATOM     28  C   UNL A   1      32.243  30.545  26.546  1.00  0.00     0.116 C 
BRANCH  28  29
ATOM     29  N   UNL A   1      32.093  31.962  26.841  1.00  0.00    -0.352 N 
ATOM     30  C   UNL A   1      32.982  32.763  27.513  1.00  0.00     0.251 C 
ATOM     31  H   UNL A   1      31.265  32.391  26.525  1.00  0.00     0.163 HD
ATOM     32  O   UNL A   1      32.711  33.927  27.781  1.00  0.00    -0.269 OA
BRANCH  30  33
ATOM     33  C   UNL A   1      34.250  32.147  27.933  1.00  0.00     0.039 A 
ATOM     34  C   UNL A   1      35.369  32.964  28.090  1.00  0.00     0.014 A 
ATOM     35  C   UNL A   1      34.258  30.809  28.340  1.00  0.00     0.014 A 
ATOM     36  C   UNL A   1      36.503  32.442  28.708  1.00  0.00     0.010 A 
ATOM     37  C   UNL A   1      35.364  30.318  29.021  1.00  0.00     0.010 A 
ATOM     38  C   UNL A   1      36.496  31.129  29.206  1.00  0.00    -0.014 A 
BRANCH  38  39
ATOM     39  C   UNL A   1      37.682  30.573  29.903  1.00  0.00     0.031 A 
ATOM     40  C   UNL A   1      37.979  31.011  31.309  1.00  0.00     0.074 A 
ATOM     41  C   UNL A   1      38.508  29.727  29.255  1.00  0.00     0.049 A 
ATOM     42  N   UNL A   1      38.993  30.706  32.074  1.00  0.00    -0.248 NA
ATOM     43  C   UNL A   1      37.023  31.948  31.922  1.00  0.00     0.031 C 
ATOM     44  C   UNL A   1      38.339  29.273  27.871  1.00  0.00     0.029 A 
ATOM     45  N   UNL A   1      39.657  29.104  29.669  1.00  0.00    -0.354 N 
ATOM     46  C   UNL A   1      38.809  31.427  33.248  1.00  0.00     0.074 A 
ATOM     47  C   UNL A   1      37.621  32.233  33.067  1.00  0.00     0.031 C 
ATOM     48  C   UNL A   1      39.336  28.428  27.562  1.00  0.00     0.029 A 
ATOM     49  C   UNL A   1      40.237  28.311  28.704  1.00  0.00     0.049 A 
ATOM     50  H   UNL A   1      40.033  29.213  30.572  1.00  0.00     0.167 HD
ATOM     51  C   UNL A   1      39.548  31.396  34.383  1.00  0.00     0.034 A 
ATOM     52  C   UNL A   1      41.370  27.582  28.738  1.00  0.00     0.034 A 
ATOM     53  C   UNL A   1      40.711  30.563  34.551  1.00  0.00     0.049 A 
ATOM     54  C   UNL A   1      42.180  27.568  30.012  1.00  0.00     0.074 A 
ATOM     55  C   UNL A   1      41.496  30.396  35.677  1.00  0.00     0.029 A 
ATOM     56  N   UNL A   1      41.262  29.763  33.558  1.00  0.00    -0.354 N 
ATOM     57  N   UNL A   1      41.955  28.204  31.140  1.00  0.00    -0.248 NA
ATOM     58  C   UNL A   1      43.386  26.731  30.023  1.00  0.00     0.031 C 
ATOM     59  C   UNL A   1      42.557  29.546  35.347  1.00  0.00     0.029 A 
ATOM     60  C   UNL A   1      42.395  29.124  34.037  1.00  0.00     0.049 A 
ATOM     61  H   UNL A   1      40.902  29.664  32.647  1.00  0.00     0.167 HD
ATOM     62  C   UNL A   1      42.979  27.821  32.002  1.00  0.00     0.074 A 
ATOM     63  C   UNL A   1      43.809  26.886  31.270  1.00  0.00     0.031 C 
ATOM     64  C   UNL A   1      43.213  28.202  33.284  1.00  0.00     0.034 A 
BRANCH  51  65
ATOM     65  C   UNL A   1      39.126  32.304  35.512  1.00  0.00     0.023 A 
ATOM     66  C   UNL A   1      39.569  33.637  35.595  1.00  0.00     0.031 A 
ATOM     67  C   UNL A   1      38.293  31.823  36.536  1.00  0.00     0.131 A 
ATOM     68  C   UNL A   1      39.241  34.416  36.715  1.00  0.00     0.055 A 
ATOM     69  C   UNL A   1      37.902  32.630  37.607  1.00  0.00     0.041 A 
ATOM     70  F   UNL A   1      37.857  30.553  36.524  1.00  0.00    -0.206 F 
ATOM     71  C   UNL A   1      38.389  33.930  37.709  1.00  0.00     0.022 A 
BRANCH  68  72
ATOM     72  S   UNL A   1      40.058  36.022  36.922  1.00  0.00     0.124 S 
ATOM     73  O   UNL A   1      39.385  36.543  38.109  1.00  0.00    -0.237 OA
ATOM     74  O   UNL A   1      41.456  35.646  37.093  1.00  0.00    -0.237 OA
ATOM     75  O   UNL A   1      39.748  36.726  35.679  1.00  0.00    -0.744 OA
ENDBRANCH  68  72
ENDBRANCH  51  65
BRANCH  52  76
ATOM     76  C   UNL A   1      41.823  26.820  27.538  1.00  0.00     0.023 A 
ATOM     77  C   UNL A   1      41.607  25.437  27.432  1.00  0.00     0.031 A 
ATOM     78  C   UNL A   1      42.524  27.457  26.498  1.00  0.00     0.131 A 
ATOM     79  C   UNL A   1      42.129  24.727  26.338  1.00  0.00     0.055 A 
ATOM     80  C   UNL A   1      42.995  26.757  25.387  1.00  0.00     0.041 A 
ATOM     81  F   UNL A   1      42.755  28.779  26.546  1.00  0.00    -0.206 F 
ATOM     82  C   UNL A   1      42.811  25.379  25.310  1.00  0.00     0.022 A 
BRANCH  79  83
ATOM     83  S   UNL A   1      41.984  22.919  26.327  1.00  0.00     0.124 S 
ATOM     84  O   UNL A   1      42.647  22.559  27.575  1.00  0.00    -0.237 OA
ATOM     85  O   UNL A   1      40.538  22.732  26.291  1.00  0.00    -0.237 OA
ATOM     86  O   UNL A   1      42.693  22.529  25.110  1.00  0.00    -0.744 OA
ENDBRANCH  79  83
ENDBRANCH  52  76
BRANCH  64  87
ATOM     87  C   UNL A   1      44.391  27.572  33.982  1.00  0.00     0.023 A 
ATOM     88  C   UNL A   1      44.271  26.362  34.686  1.00  0.00     0.031 A 
ATOM     89  C   UNL A   1      45.652  28.192  33.936  1.00  0.00     0.131 A 
ATOM     90  C   UNL A   1      45.384  25.834  35.359  1.00  0.00     0.055 A 
ATOM     91  C   UNL A   1      46.768  27.631  34.556  1.00  0.00     0.041 A 
ATOM     92  F   UNL A   1      45.820  29.350  33.278  1.00  0.00    -0.206 F 
ATOM     93  C   UNL A   1      46.635  26.452  35.282  1.00  0.00     0.022 A 
BRANCH  90  94
ATOM     94  S   UNL A   1      45.156  24.368  36.401  1.00  0.00     0.124 S 
ATOM     95  O   UNL A   1      46.509  23.824  36.458  1.00  0.00    -0.237 OA
ATOM     96  O   UNL A   1      44.648  24.943  37.643  1.00  0.00    -0.237 OA
ATOM     97  O   UNL A   1      44.193  23.562  35.654  1.00  0.00    -0.744 OA
ENDBRANCH  90  94
ENDBRANCH  64  87
ENDBRANCH  38  39
ENDBRANCH  30  33
ENDBRANCH  28  29
ENDBRANCH  27  28
ENDBRANCH   1  27
TORSDOF 18
ENDMDL
MODEL 3
REMARK VINA RESULT:     -11.1      3.409      8.607
REMARK SMILES CC1(C)CC[NH+](CC[C@H]2CCC[C@]2([NH3+])C(=O)NCCCCNC(=O)c2ccc(-c3c4nc(c(-c5cc(S(=O)(=O)[O-])ccc5F)c5ccc([nH]5)c(-c5cc(S(=O)(=O)[O-])ccc5F)c5nc(c(-c6cc(S(=O)(=O)[O-])ccc6F)c6ccc3[nH]6)C=C5)C=C4)cc2)CC1
REMARK SMILES IDX 19 1 18 2 17 3 15 4 16 5 13 7 9 8 10 9 11 10 12 11 8 12 7 13
REMARK SMILES IDX 6 14 1 15 2 16 3 17 4 18 89 19 5 20 88 21 14 23 20 27 21 28
REMARK SMILES IDX 22 29 23 30 24 32 25 33 26 34 87 35 27 36 86 37 28 38 29 39
REMARK SMILES IDX 30 40 80 41 31 42 85 43 79 44 81 45 32 46 84 47 78 48 77 49
REMARK SMILES IDX 33 51 65 52 45 53 64 54 46 55 49 56 63 57 82 58 47 59 48 60
REMARK SMILES IDX 62 62 83 63 50 64 34 65 35 66 43 67 36 68 42 69 44 70 41 71
REMARK SMILES IDX 37 72 38 73 39 74 40 75 66 76 67 77 75 78 68 79 74 80 76 81
REMARK SMILES IDX 73 82 69 83 70 84 71 85 72 86 51 87 52 88 60 89 53 90 59 91
REMARK SMILES IDX 61 92 58 93 54 94 55 95 56 96 57 97
REMARK H PARENT 17 6 6 22 14 24 14 25 14 26 22 31 81 50 49 61
REMARK Flexibility Score: inf
ROOT
ATOM      1  C   UNL A   1      31.959  28.571  26.952  1.00  0.00     0.023 C 
ENDROOT
BRANCH   1   2
ATOM      2  C   UNL A   1      31.234  27.456  26.194  1.00  0.00     0.116 C 
BRANCH   2   3
ATOM      3  N   UNL A   1      31.418  26.206  26.897  1.00  0.00    -0.351 N 
ATOM      4  C   UNL A   1      31.185  24.945  26.421  1.00  0.00     0.281 C 
ATOM      5  O   UNL A   1      30.698  24.139  27.215  1.00  0.00    -0.268 OA
ATOM      6  H   UNL A   1      31.750  26.269  27.821  1.00  0.00     0.163 HD
BRANCH   4   7
ATOM      7  C   UNL A   1      31.749  24.554  24.999  1.00  0.00     0.177 C 
ATOM      8  C   UNL A   1      32.705  23.317  25.014  1.00  0.00     0.066 C 
ATOM      9  C   UNL A   1      34.054  23.996  25.343  1.00  0.00     0.011 C 
ATOM     10  C   UNL A   1      34.058  25.280  24.532  1.00  0.00     0.008 C 
ATOM     11  C   UNL A   1      32.608  25.746  24.498  1.00  0.00     0.079 C 
BRANCH   8  12
ATOM     12  C   UNL A   1      32.933  22.322  23.813  1.00  0.00     0.072 C 
BRANCH  12  13
ATOM     13  C   UNL A   1      32.602  20.805  23.891  1.00  0.00     0.262 C 
BRANCH  13  14
ATOM     14  N   UNL A   1      33.268  19.918  24.872  1.00  0.00    -0.335 N 
ATOM     15  C   UNL A   1      33.969  15.853  25.190  1.00  0.00     0.011 C 
ATOM     16  C   UNL A   1      34.027  17.056  24.226  1.00  0.00    -0.025 C 
ATOM     17  C   UNL A   1      34.382  16.518  22.827  1.00  0.00     0.011 C 
ATOM     18  C   UNL A   1      32.626  17.666  24.231  1.00  0.00     0.068 C 
ATOM     19  C   UNL A   1      35.086  18.096  24.683  1.00  0.00     0.068 C 
ATOM     20  C   UNL A   1      32.496  18.760  25.279  1.00  0.00     0.262 C 
ATOM     21  C   UNL A   1      34.673  19.594  24.632  1.00  0.00     0.262 C 
ATOM     22  H   UNL A   1      33.297  20.544  25.678  1.00  0.00     0.348 HD
ENDBRANCH  13  14
ENDBRANCH  12  13
ENDBRANCH   8  12
BRANCH   7  23
ATOM     23  N   UNL A   1      30.538  24.415  24.186  1.00  0.00    -0.345 N 
ATOM     24  H   UNL A   1      30.287  23.428  24.116  1.00  0.00     0.345 HD
ATOM     25  H   UNL A   1      30.709  24.789  23.253  1.00  0.00     0.345 HD
ATOM     26  H   UNL A   1      29.773  24.929  24.624  1.00  0.00     0.345 HD
ENDBRANCH   7  23
ENDBRANCH   4   7
ENDBRANCH   2   3
ENDBRANCH   1   2
BRANCH   1  27
ATOM     27  C   UNL A   1      33.433  28.263  27.235  1.00  0.00     0.023 C 
BRANCH  27  28
ATOM     28  C   UNL A   1      34.406  29.300  26.696  1.00  0.00     0.116 C 
BRANCH  28  29
ATOM     29  N   UNL A   1      33.973  30.663  26.965  1.00  0.00    -0.352 N 
ATOM     30  C   UNL A   1      34.541  31.551  27.844  1.00  0.00     0.251 C 
ATOM     31  H   UNL A   1      33.188  30.982  26.463  1.00  0.00     0.163 HD
ATOM     32  O   UNL A   1      34.038  32.648  28.054  1.00  0.00    -0.269 OA
BRANCH  30  33
ATOM     33  C   UNL A   1      35.752  31.107  28.551  1.00  0.00     0.039 A 
ATOM     34  C   UNL A   1      35.642  30.068  29.474  1.00  0.00     0.014 A 
ATOM     35  C   UNL A   1      36.997  31.602  28.152  1.00  0.00     0.014 A 
ATOM     36  C   UNL A   1      36.805  29.483  29.972  1.00  0.00     0.010 A 
ATOM     37  C   UNL A   1      38.150  30.966  28.595  1.00  0.00     0.010 A 
ATOM     38  C   UNL A   1      38.063  29.905  29.511  1.00  0.00    -0.014 A 
BRANCH  38  39
ATOM     39  C   UNL A   1      39.307  29.264  30.002  1.00  0.00     0.031 A 
ATOM     40  C   UNL A   1      39.999  29.834  31.208  1.00  0.00     0.074 A 
ATOM     41  C   UNL A   1      39.832  28.217  29.337  1.00  0.00     0.049 A 
ATOM     42  N   UNL A   1      41.127  29.476  31.762  1.00  0.00    -0.248 NA
ATOM     43  C   UNL A   1      39.351  30.987  31.855  1.00  0.00     0.031 C 
ATOM     44  C   UNL A   1      39.267  27.614  28.126  1.00  0.00     0.029 A 
ATOM     45  N   UNL A   1      40.962  27.478  29.576  1.00  0.00    -0.354 N 
ATOM     46  C   UNL A   1      41.334  30.368  32.807  1.00  0.00     0.074 A 
ATOM     47  C   UNL A   1      40.248  31.324  32.768  1.00  0.00     0.031 C 
ATOM     48  C   UNL A   1      40.042  26.585  27.745  1.00  0.00     0.029 A 
ATOM     49  C   UNL A   1      41.179  26.479  28.654  1.00  0.00     0.049 A 
ATOM     50  H   UNL A   1      41.563  27.646  30.338  1.00  0.00     0.167 HD
ATOM     51  C   UNL A   1      42.324  30.373  33.731  1.00  0.00     0.034 A 
ATOM     52  C   UNL A   1      42.185  25.589  28.551  1.00  0.00     0.034 A 
ATOM     53  C   UNL A   1      43.380  29.393  33.767  1.00  0.00     0.049 A 
ATOM     54  C   UNL A   1      43.281  25.616  29.590  1.00  0.00     0.074 A 
ATOM     55  C   UNL A   1      44.395  29.254  34.696  1.00  0.00     0.029 A 
ATOM     56  N   UNL A   1      43.561  28.387  32.826  1.00  0.00    -0.354 N 
ATOM     57  N   UNL A   1      43.426  26.426  30.614  1.00  0.00    -0.248 NA
ATOM     58  C   UNL A   1      44.338  24.605  29.467  1.00  0.00     0.031 C 
ATOM     59  C   UNL A   1      45.226  28.208  34.281  1.00  0.00     0.029 A 
ATOM     60  C   UNL A   1      44.690  27.645  33.134  1.00  0.00     0.049 A 
ATOM     61  H   UNL A   1      42.974  28.226  32.051  1.00  0.00     0.167 HD
ATOM     62  C   UNL A   1      44.578  26.002  31.271  1.00  0.00     0.074 A 
ATOM     63  C   UNL A   1      45.075  24.856  30.539  1.00  0.00     0.031 C 
ATOM     64  C   UNL A   1      45.171  26.510  32.382  1.00  0.00     0.034 A 
BRANCH  51  65
ATOM     65  C   UNL A   1      42.315  31.481  34.755  1.00  0.00     0.023 A 
ATOM     66  C   UNL A   1      41.363  31.524  35.790  1.00  0.00     0.031 A 
ATOM     67  C   UNL A   1      43.252  32.525  34.679  1.00  0.00     0.131 A 
ATOM     68  C   UNL A   1      41.321  32.625  36.658  1.00  0.00     0.055 A 
ATOM     69  C   UNL A   1      43.257  33.578  35.597  1.00  0.00     0.041 A 
ATOM     70  F   UNL A   1      44.170  32.551  33.699  1.00  0.00    -0.206 F 
ATOM     71  C   UNL A   1      42.278  33.640  36.584  1.00  0.00     0.022 A 
BRANCH  68  72
ATOM     72  S   UNL A   1      39.914  32.781  37.792  1.00  0.00     0.124 S 
ATOM     73  O   UNL A   1      39.061  31.679  37.354  1.00  0.00    -0.237 OA
ATOM     74  O   UNL A   1      40.542  32.623  39.098  1.00  0.00    -0.237 OA
ATOM     75  O   UNL A   1      39.391  34.115  37.507  1.00  0.00    -0.744 OA
ENDBRANCH  68  72
ENDBRANCH  51  65
BRANCH  52  76
ATOM     76  C   UNL A   1      42.225  24.608  27.427  1.00  0.00     0.023 A 
ATOM     77  C   UNL A   1      41.490  23.413  27.479  1.00  0.00     0.031 A 
ATOM     78  C   UNL A   1      43.038  24.831  26.301  1.00  0.00     0.131 A 
ATOM     79  C   UNL A   1      41.621  22.464  26.452  1.00  0.00     0.055 A 
ATOM     80  C   UNL A   1      43.125  23.908  25.257  1.00  0.00     0.041 A 
ATOM     81  F   UNL A   1      43.758  25.959  26.197  1.00  0.00    -0.206 F 
ATOM     82  C   UNL A   1      42.424  22.708  25.337  1.00  0.00     0.022 A 
BRANCH  79  83
ATOM     83  S   UNL A   1      40.797  20.859  26.643  1.00  0.00     0.124 S 
ATOM     84  O   UNL A   1      40.807  20.689  28.091  1.00  0.00    -0.237 OA
ATOM     85  O   UNL A   1      39.496  21.113  26.035  1.00  0.00    -0.237 OA
ATOM     86  O   UNL A   1      41.662  19.943  25.902  1.00  0.00    -0.744 OA
ENDBRANCH  79  83
ENDBRANCH  52  76
BRANCH  64  87
ATOM     87  C   UNL A   1      46.400  25.798  32.889  1.00  0.00     0.023 A 
ATOM     88  C   UNL A   1      47.666  26.016  32.321  1.00  0.00     0.031 A 
ATOM     89  C   UNL A   1      46.299  24.893  33.960  1.00  0.00     0.131 A 
ATOM     90  C   UNL A   1      48.775  25.299  32.794  1.00  0.00     0.055 A 
ATOM     91  C   UNL A   1      47.416  24.228  34.466  1.00  0.00     0.041 A 
ATOM     92  F   UNL A   1      45.112  24.648  34.538  1.00  0.00    -0.206 F 
ATOM     93  C   UNL A   1      48.661  24.421  33.876  1.00  0.00     0.022 A 
BRANCH  90  94
ATOM     94  S   UNL A   1      50.358  25.471  31.927  1.00  0.00     0.124 S 
ATOM     95  O   UNL A   1      49.988  26.299  30.783  1.00  0.00    -0.237 OA
ATOM     96  O   UNL A   1      51.198  26.114  32.933  1.00  0.00    -0.237 OA
ATOM     97  O   UNL A   1      50.724  24.094  31.604  1.00  0.00    -0.744 OA
ENDBRANCH  90  94
ENDBRANCH  64  87
ENDBRANCH  38  39
ENDBRANCH  30  33
ENDBRANCH  28  29
ENDBRANCH  27  28
ENDBRANCH   1  27
TORSDOF 18
ENDMDL
