MODEL 1
REMARK VINA RESULT:     -11.2      0.000      0.000
REMARK SMILES C[NH+](C)Cc1noc(C[C@@](C)(C(=O)NCCCCNC(=O)c2ccc(-c3c4nc(c(-c5cc(S(=O)(=O)[O-])ccc5F)c5ccc([nH]5)c(-c5cc(S(=O)(=O)[O-])ccc5F)c5nc(c(-c6cc(S(=O)(=O)[O-])ccc6F)c6ccc3[nH]6)C=C5)C=C4)cc2)c2ccccc2)n1
REMARK SMILES IDX 16 1 15 2 14 3 12 4 13 5 10 7 11 8 9 9 8 10 5 11 6 12 91 13
REMARK SMILES IDX 7 14 4 15 2 16 1 17 3 18 85 20 86 21 90 22 87 23 89 24 88 25
REMARK SMILES IDX 17 26 18 27 19 28 20 29 21 31 22 32 23 33 84 34 24 35 83 36
REMARK SMILES IDX 25 37 26 38 27 39 77 40 28 41 82 42 76 43 78 44 29 45 81 46
REMARK SMILES IDX 75 47 74 48 30 50 62 51 42 52 61 53 43 54 46 55 60 56 79 57
REMARK SMILES IDX 44 58 45 59 59 61 80 62 47 63 31 64 32 65 40 66 33 67 39 68
REMARK SMILES IDX 41 69 38 70 34 71 35 72 36 73 37 74 63 75 64 76 72 77 65 78
REMARK SMILES IDX 71 79 73 80 70 81 66 82 67 83 68 84 69 85 48 86 49 87 57 88
REMARK SMILES IDX 50 89 56 90 58 91 55 92 51 93 52 94 53 95 54 96
REMARK H PARENT 14 6 2 19 19 30 78 49 46 60
REMARK Flexibility Score: inf
ROOT
ATOM      1  C   UNL A   1      33.674  27.088  24.736  1.00  0.00     0.023 C 
ENDROOT
BRANCH   1   2
ATOM      2  C   UNL A   1      32.310  26.456  24.465  1.00  0.00     0.116 C 
BRANCH   2   3
ATOM      3  N   UNL A   1      31.761  25.788  25.637  1.00  0.00    -0.355 N 
ATOM      4  C   UNL A   1      31.833  24.508  26.119  1.00  0.00     0.230 C 
ATOM      5  O   UNL A   1      31.386  24.377  27.262  1.00  0.00    -0.274 OA
ATOM      6  H   UNL A   1      31.224  26.384  26.206  1.00  0.00     0.163 HD
BRANCH   4   7
ATOM      7  C   UNL A   1      32.474  23.334  25.306  1.00  0.00     0.080 C 
ATOM      8  C   UNL A   1      31.719  23.348  23.950  1.00  0.00     0.027 C 
BRANCH   7   9
ATOM      9  C   UNL A   1      32.326  22.050  26.166  1.00  0.00     0.122 C 
BRANCH   9  10
ATOM     10  C   UNL A   1      32.717  20.781  25.510  1.00  0.00     0.228 A 
ATOM     11  C   UNL A   1      32.909  19.021  24.402  1.00  0.00     0.226 A 
ATOM     12  N   UNL A   1      34.149  19.219  24.875  1.00  0.00    -0.056 NA
ATOM     13  N   UNL A   1      31.990  19.965  24.786  1.00  0.00    -0.190 NA
ATOM     14  O   UNL A   1      34.027  20.410  25.594  1.00  0.00    -0.339 OA
BRANCH  11  15
ATOM     15  C   UNL A   1      32.552  17.885  23.495  1.00  0.00     0.344 C 
BRANCH  15  16
ATOM     16  N   UNL A   1      32.801  16.539  24.064  1.00  0.00    -0.333 N 
ATOM     17  C   UNL A   1      34.178  16.091  23.850  1.00  0.00     0.332 C 
ATOM     18  C   UNL A   1      32.445  16.466  25.480  1.00  0.00     0.332 C 
ATOM     19  H   UNL A   1      32.188  15.902  23.556  1.00  0.00     0.348 HD
ENDBRANCH  15  16
ENDBRANCH  11  15
ENDBRANCH   9  10
ENDBRANCH   7   9
BRANCH   7  20
ATOM     20  C   UNL A   1      34.006  23.484  25.007  1.00  0.00    -0.032 A 
ATOM     21  C   UNL A   1      34.965  23.731  26.005  1.00  0.00     0.005 A 
ATOM     22  C   UNL A   1      34.502  23.263  23.701  1.00  0.00     0.005 A 
ATOM     23  C   UNL A   1      36.332  23.813  25.703  1.00  0.00     0.000 A 
ATOM     24  C   UNL A   1      35.867  23.314  23.405  1.00  0.00     0.000 A 
ATOM     25  C   UNL A   1      36.783  23.602  24.405  1.00  0.00     0.000 A 
ENDBRANCH   7  20
ENDBRANCH   4   7
ENDBRANCH   2   3
ENDBRANCH   1   2
BRANCH   1  26
ATOM     26  C   UNL A   1      33.651  28.587  25.030  1.00  0.00     0.023 C 
BRANCH  26  27
ATOM     27  C   UNL A   1      34.254  29.003  26.367  1.00  0.00     0.116 C 
BRANCH  27  28
ATOM     28  N   UNL A   1      33.892  30.355  26.764  1.00  0.00    -0.352 N 
ATOM     29  C   UNL A   1      34.499  31.177  27.684  1.00  0.00     0.251 C 
ATOM     30  H   UNL A   1      33.104  30.733  26.312  1.00  0.00     0.163 HD
ATOM     31  O   UNL A   1      33.981  32.251  27.976  1.00  0.00    -0.269 OA
BRANCH  29  32
ATOM     32  C   UNL A   1      35.748  30.741  28.345  1.00  0.00     0.039 A 
ATOM     33  C   UNL A   1      35.669  29.817  29.390  1.00  0.00     0.014 A 
ATOM     34  C   UNL A   1      36.991  31.213  27.914  1.00  0.00     0.014 A 
ATOM     35  C   UNL A   1      36.842  29.308  29.951  1.00  0.00     0.010 A 
ATOM     36  C   UNL A   1      38.159  30.650  28.425  1.00  0.00     0.010 A 
ATOM     37  C   UNL A   1      38.096  29.687  29.445  1.00  0.00    -0.014 A 
BRANCH  37  38
ATOM     38  C   UNL A   1      39.350  29.078  29.962  1.00  0.00     0.031 A 
ATOM     39  C   UNL A   1      40.022  29.651  31.178  1.00  0.00     0.074 A 
ATOM     40  C   UNL A   1      39.913  28.050  29.295  1.00  0.00     0.049 A 
ATOM     41  N   UNL A   1      41.149  29.299  31.743  1.00  0.00    -0.248 NA
ATOM     42  C   UNL A   1      39.356  30.791  31.824  1.00  0.00     0.031 C 
ATOM     43  C   UNL A   1      39.379  27.442  28.075  1.00  0.00     0.029 A 
ATOM     44  N   UNL A   1      41.060  27.340  29.544  1.00  0.00    -0.354 N 
ATOM     45  C   UNL A   1      41.333  30.179  32.804  1.00  0.00     0.074 A 
ATOM     46  C   UNL A   1      40.233  31.120  32.761  1.00  0.00     0.031 C 
ATOM     47  C   UNL A   1      40.183  26.436  27.697  1.00  0.00     0.029 A 
ATOM     48  C   UNL A   1      41.310  26.351  28.619  1.00  0.00     0.049 A 
ATOM     49  H   UNL A   1      41.649  27.520  30.311  1.00  0.00     0.167 HD
ATOM     50  C   UNL A   1      42.313  30.187  33.742  1.00  0.00     0.034 A 
ATOM     51  C   UNL A   1      42.336  25.483  28.521  1.00  0.00     0.034 A 
ATOM     52  C   UNL A   1      43.395  29.234  33.777  1.00  0.00     0.049 A 
ATOM     53  C   UNL A   1      43.421  25.518  29.566  1.00  0.00     0.074 A 
ATOM     54  C   UNL A   1      44.406  29.110  34.714  1.00  0.00     0.029 A 
ATOM     55  N   UNL A   1      43.614  28.242  32.827  1.00  0.00    -0.354 N 
ATOM     56  N   UNL A   1      43.548  26.320  30.598  1.00  0.00    -0.248 NA
ATOM     57  C   UNL A   1      44.496  24.525  29.438  1.00  0.00     0.031 C 
ATOM     58  C   UNL A   1      45.271  28.091  34.297  1.00  0.00     0.029 A 
ATOM     59  C   UNL A   1      44.760  27.526  33.140  1.00  0.00     0.049 A 
ATOM     60  H   UNL A   1      43.039  28.074  32.046  1.00  0.00     0.167 HD
ATOM     61  C   UNL A   1      44.701  25.906  31.259  1.00  0.00     0.074 A 
ATOM     62  C   UNL A   1      45.223  24.776  30.516  1.00  0.00     0.031 C 
ATOM     63  C   UNL A   1      45.275  26.410  32.381  1.00  0.00     0.034 A 
BRANCH  50  64
ATOM     64  C   UNL A   1      42.264  31.275  34.788  1.00  0.00     0.023 A 
ATOM     65  C   UNL A   1      42.934  32.500  34.611  1.00  0.00     0.031 A 
ATOM     66  C   UNL A   1      41.564  31.080  35.991  1.00  0.00     0.131 A 
ATOM     67  C   UNL A   1      42.959  33.443  35.650  1.00  0.00     0.055 A 
ATOM     68  C   UNL A   1      41.522  32.057  36.988  1.00  0.00     0.041 A 
ATOM     69  F   UNL A   1      40.921  29.924  36.227  1.00  0.00    -0.206 F 
ATOM     70  C   UNL A   1      42.236  33.241  36.826  1.00  0.00     0.022 A 
BRANCH  67  71
ATOM     71  S   UNL A   1      44.072  34.866  35.497  1.00  0.00     0.124 S 
ATOM     72  O   UNL A   1      44.074  35.387  36.862  1.00  0.00    -0.237 OA
ATOM     73  O   UNL A   1      45.314  34.250  35.047  1.00  0.00    -0.237 OA
ATOM     74  O   UNL A   1      43.405  35.719  34.515  1.00  0.00    -0.744 OA
ENDBRANCH  67  71
ENDBRANCH  50  64
BRANCH  51  75
ATOM     75  C   UNL A   1      42.393  24.506  27.395  1.00  0.00     0.023 A 
ATOM     76  C   UNL A   1      41.629  23.329  27.419  1.00  0.00     0.031 A 
ATOM     77  C   UNL A   1      43.241  24.720  26.294  1.00  0.00     0.131 A 
ATOM     78  C   UNL A   1      41.761  22.389  26.386  1.00  0.00     0.055 A 
ATOM     79  C   UNL A   1      43.331  23.805  25.244  1.00  0.00     0.041 A 
ATOM     80  F   UNL A   1      43.988  25.835  26.218  1.00  0.00    -0.206 F 
ATOM     81  C   UNL A   1      42.598  22.624  25.292  1.00  0.00     0.022 A 
BRANCH  78  82
ATOM     82  S   UNL A   1      40.880  20.810  26.531  1.00  0.00     0.124 S 
ATOM     83  O   UNL A   1      41.731  19.921  25.748  1.00  0.00    -0.237 OA
ATOM     84  O   UNL A   1      40.884  20.594  27.974  1.00  0.00    -0.237 OA
ATOM     85  O   UNL A   1      39.571  21.095  25.948  1.00  0.00    -0.744 OA
ENDBRANCH  78  82
ENDBRANCH  51  75
BRANCH  63  86
ATOM     86  C   UNL A   1      46.510  25.710  32.893  1.00  0.00     0.023 A 
ATOM     87  C   UNL A   1      47.787  25.993  32.382  1.00  0.00     0.031 A 
ATOM     88  C   UNL A   1      46.401  24.735  33.901  1.00  0.00     0.131 A 
ATOM     89  C   UNL A   1      48.900  25.272  32.842  1.00  0.00     0.055 A 
ATOM     90  C   UNL A   1      47.518  24.062  34.397  1.00  0.00     0.041 A 
ATOM     91  F   UNL A   1      45.204  24.423  34.424  1.00  0.00    -0.206 F 
ATOM     92  C   UNL A   1      48.775  24.321  33.858  1.00  0.00     0.022 A 
BRANCH  89  93
ATOM     93  S   UNL A   1      50.503  25.532  32.034  1.00  0.00     0.124 S 
ATOM     94  O   UNL A   1      50.337  26.860  31.451  1.00  0.00    -0.237 OA
ATOM     95  O   UNL A   1      51.435  25.439  33.153  1.00  0.00    -0.237 OA
ATOM     96  O   UNL A   1      50.584  24.437  31.070  1.00  0.00    -0.744 OA
ENDBRANCH  89  93
ENDBRANCH  63  86
ENDBRANCH  37  38
ENDBRANCH  29  32
ENDBRANCH  27  28
ENDBRANCH  26  27
ENDBRANCH   1  26
TORSDOF 19
ENDMDL
MODEL 2
REMARK VINA RESULT:     -11.1      2.416      3.044
REMARK SMILES C[NH+](C)Cc1noc(C[C@@](C)(C(=O)NCCCCNC(=O)c2ccc(-c3c4nc(c(-c5cc(S(=O)(=O)[O-])ccc5F)c5ccc([nH]5)c(-c5cc(S(=O)(=O)[O-])ccc5F)c5nc(c(-c6cc(S(=O)(=O)[O-])ccc6F)c6ccc3[nH]6)C=C5)C=C4)cc2)c2ccccc2)n1
REMARK SMILES IDX 16 1 15 2 14 3 12 4 13 5 10 7 11 8 9 9 8 10 5 11 6 12 91 13
REMARK SMILES IDX 7 14 4 15 2 16 1 17 3 18 85 20 86 21 90 22 87 23 89 24 88 25
REMARK SMILES IDX 17 26 18 27 19 28 20 29 21 31 22 32 23 33 84 34 24 35 83 36
REMARK SMILES IDX 25 37 26 38 27 39 77 40 28 41 82 42 76 43 78 44 29 45 81 46
REMARK SMILES IDX 75 47 74 48 30 50 62 51 42 52 61 53 43 54 46 55 60 56 79 57
REMARK SMILES IDX 44 58 45 59 59 61 80 62 47 63 31 64 32 65 40 66 33 67 39 68
REMARK SMILES IDX 41 69 38 70 34 71 35 72 36 73 37 74 63 75 64 76 72 77 65 78
REMARK SMILES IDX 71 79 73 80 70 81 66 82 67 83 68 84 69 85 48 86 49 87 57 88
REMARK SMILES IDX 50 89 56 90 58 91 55 92 51 93 52 94 53 95 54 96
REMARK H PARENT 14 6 2 19 19 30 78 49 46 60
REMARK Flexibility Score: inf
ROOT
ATOM      1  C   UNL A   1      33.648  27.297  24.740  1.00  0.00     0.023 C 
ENDROOT
BRANCH   1   2
ATOM      2  C   UNL A   1      32.600  26.238  24.405  1.00  0.00     0.116 C 
BRANCH   2   3
ATOM      3  N   UNL A   1      32.043  25.608  25.595  1.00  0.00    -0.355 N 
ATOM      4  C   UNL A   1      32.086  24.337  26.104  1.00  0.00     0.230 C 
ATOM      5  O   UNL A   1      31.644  24.242  27.252  1.00  0.00    -0.274 OA
ATOM      6  H   UNL A   1      31.525  26.230  26.155  1.00  0.00     0.163 HD
BRANCH   4   7
ATOM      7  C   UNL A   1      32.690  23.131  25.312  1.00  0.00     0.080 C 
ATOM      8  C   UNL A   1      31.937  23.144  23.955  1.00  0.00     0.027 C 
BRANCH   7   9
ATOM      9  C   UNL A   1      32.503  21.867  26.194  1.00  0.00     0.122 C 
BRANCH   9  10
ATOM     10  C   UNL A   1      32.778  20.569  25.535  1.00  0.00     0.228 A 
ATOM     11  C   UNL A   1      33.526  18.768  24.786  1.00  0.00     0.226 A 
ATOM     12  N   UNL A   1      32.219  18.702  24.489  1.00  0.00    -0.056 NA
ATOM     13  N   UNL A   1      33.912  19.920  25.425  1.00  0.00    -0.190 NA
ATOM     14  O   UNL A   1      31.713  19.893  25.013  1.00  0.00    -0.339 OA
BRANCH  11  15
ATOM     15  C   UNL A   1      34.490  17.665  24.484  1.00  0.00     0.344 C 
BRANCH  15  16
ATOM     16  N   UNL A   1      34.513  16.573  25.487  1.00  0.00    -0.333 N 
ATOM     17  C   UNL A   1      33.400  15.638  25.316  1.00  0.00     0.332 C 
ATOM     18  C   UNL A   1      35.790  15.864  25.498  1.00  0.00     0.332 C 
ATOM     19  H   UNL A   1      34.399  17.023  26.395  1.00  0.00     0.348 HD
ENDBRANCH  15  16
ENDBRANCH  11  15
ENDBRANCH   9  10
ENDBRANCH   7   9
BRANCH   7  20
ATOM     20  C   UNL A   1      34.227  23.229  25.011  1.00  0.00    -0.032 A 
ATOM     21  C   UNL A   1      34.774  23.057  23.728  1.00  0.00     0.005 A 
ATOM     22  C   UNL A   1      35.129  23.612  26.032  1.00  0.00     0.005 A 
ATOM     23  C   UNL A   1      36.148  23.198  23.492  1.00  0.00     0.000 A 
ATOM     24  C   UNL A   1      36.495  23.784  25.791  1.00  0.00     0.000 A 
ATOM     25  C   UNL A   1      37.008  23.564  24.522  1.00  0.00     0.000 A 
ENDBRANCH   7  20
ENDBRANCH   4   7
ENDBRANCH   2   3
ENDBRANCH   1   2
BRANCH   1  26
ATOM     26  C   UNL A   1      33.108  28.714  24.925  1.00  0.00     0.023 C 
BRANCH  26  27
ATOM     27  C   UNL A   1      32.744  29.096  26.355  1.00  0.00     0.116 C 
BRANCH  27  28
ATOM     28  N   UNL A   1      32.505  30.521  26.525  1.00  0.00    -0.352 N 
ATOM     29  C   UNL A   1      33.266  31.451  27.192  1.00  0.00     0.251 C 
ATOM     30  H   UNL A   1      31.684  30.867  26.105  1.00  0.00     0.163 HD
ATOM     31  O   UNL A   1      32.845  32.595  27.332  1.00  0.00    -0.269 OA
BRANCH  29  32
ATOM     32  C   UNL A   1      34.567  31.053  27.773  1.00  0.00     0.039 A 
ATOM     33  C   UNL A   1      35.434  32.049  28.228  1.00  0.00     0.014 A 
ATOM     34  C   UNL A   1      34.914  29.705  27.899  1.00  0.00     0.014 A 
ATOM     35  C   UNL A   1      36.616  31.691  28.880  1.00  0.00     0.010 A 
ATOM     36  C   UNL A   1      36.056  29.350  28.613  1.00  0.00     0.010 A 
ATOM     37  C   UNL A   1      36.916  30.339  29.117  1.00  0.00    -0.014 A 
BRANCH  37  38
ATOM     38  C   UNL A   1      38.117  29.944  29.898  1.00  0.00     0.031 A 
ATOM     39  C   UNL A   1      38.342  30.506  31.274  1.00  0.00     0.074 A 
ATOM     40  C   UNL A   1      39.033  29.128  29.340  1.00  0.00     0.049 A 
ATOM     41  N   UNL A   1      39.354  30.331  32.084  1.00  0.00    -0.248 NA
ATOM     42  C   UNL A   1      37.307  31.413  31.792  1.00  0.00     0.031 C 
ATOM     43  C   UNL A   1      38.949  28.558  27.994  1.00  0.00     0.029 A 
ATOM     44  N   UNL A   1      40.219  28.641  29.831  1.00  0.00    -0.354 N 
ATOM     45  C   UNL A   1      39.085  31.112  33.203  1.00  0.00     0.074 A 
ATOM     46  C   UNL A   1      37.845  31.810  32.936  1.00  0.00     0.031 C 
ATOM     47  C   UNL A   1      40.021  27.781  27.776  1.00  0.00     0.029 A 
ATOM     48  C   UNL A   1      40.892  27.828  28.946  1.00  0.00     0.049 A 
ATOM     49  H   UNL A   1      40.558  28.853  30.730  1.00  0.00     0.167 HD
ATOM     50  C   UNL A   1      39.792  31.216  34.357  1.00  0.00     0.034 A 
ATOM     51  C   UNL A   1      42.078  27.200  29.062  1.00  0.00     0.034 A 
ATOM     52  C   UNL A   1      41.019  30.503  34.611  1.00  0.00     0.049 A 
ATOM     53  C   UNL A   1      42.854  27.342  30.347  1.00  0.00     0.074 A 
ATOM     54  C   UNL A   1      41.785  30.487  35.763  1.00  0.00     0.029 A 
ATOM     55  N   UNL A   1      41.669  29.684  33.694  1.00  0.00    -0.354 N 
ATOM     56  N   UNL A   1      42.555  28.038  31.420  1.00  0.00    -0.248 NA
ATOM     57  C   UNL A   1      44.121  26.605  30.440  1.00  0.00     0.031 C 
ATOM     58  C   UNL A   1      42.927  29.714  35.524  1.00  0.00     0.029 A 
ATOM     59  C   UNL A   1      42.839  29.185  34.246  1.00  0.00     0.049 A 
ATOM     60  H   UNL A   1      41.344  29.487  32.786  1.00  0.00     0.167 HD
ATOM     61  C   UNL A   1      43.583  27.796  32.327  1.00  0.00     0.074 A 
ATOM     62  C   UNL A   1      44.502  26.881  31.679  1.00  0.00     0.031 C 
ATOM     63  C   UNL A   1      43.752  28.283  33.582  1.00  0.00     0.034 A 
BRANCH  50  64
ATOM     64  C   UNL A   1      39.259  32.155  35.413  1.00  0.00     0.023 A 
ATOM     65  C   UNL A   1      39.675  33.497  35.487  1.00  0.00     0.031 A 
ATOM     66  C   UNL A   1      38.347  31.698  36.381  1.00  0.00     0.131 A 
ATOM     67  C   UNL A   1      39.245  34.308  36.548  1.00  0.00     0.055 A 
ATOM     68  C   UNL A   1      37.856  32.534  37.386  1.00  0.00     0.041 A 
ATOM     69  F   UNL A   1      37.927  30.422  36.376  1.00  0.00    -0.206 F 
ATOM     70  C   UNL A   1      38.318  33.844  37.483  1.00  0.00     0.022 A 
BRANCH  67  71
ATOM     71  S   UNL A   1      40.031  35.927  36.771  1.00  0.00     0.124 S 
ATOM     72  O   UNL A   1      39.705  36.590  35.511  1.00  0.00    -0.237 OA
ATOM     73  O   UNL A   1      39.360  36.443  37.958  1.00  0.00    -0.237 OA
ATOM     74  O   UNL A   1      41.446  35.600  36.945  1.00  0.00    -0.744 OA
ENDBRANCH  67  71
ENDBRANCH  50  64
BRANCH  51  75
ATOM     75  C   UNL A   1      42.613  26.381  27.936  1.00  0.00     0.023 A 
ATOM     76  C   UNL A   1      42.299  25.018  27.821  1.00  0.00     0.031 A 
ATOM     77  C   UNL A   1      43.474  26.943  26.978  1.00  0.00     0.131 A 
ATOM     78  C   UNL A   1      42.878  24.251  26.798  1.00  0.00     0.055 A 
ATOM     79  C   UNL A   1      44.008  26.188  25.933  1.00  0.00     0.041 A 
ATOM     80  F   UNL A   1      43.800  28.245  27.038  1.00  0.00    -0.206 F 
ATOM     81  C   UNL A   1      43.721  24.830  25.846  1.00  0.00     0.022 A 
BRANCH  78  82
ATOM     82  S   UNL A   1      42.576  22.463  26.776  1.00  0.00     0.124 S 
ATOM     83  O   UNL A   1      41.250  22.392  26.175  1.00  0.00    -0.237 OA
ATOM     84  O   UNL A   1      43.681  21.982  25.952  1.00  0.00    -0.237 OA
ATOM     85  O   UNL A   1      42.645  22.088  28.187  1.00  0.00    -0.744 OA
ENDBRANCH  78  82
ENDBRANCH  51  75
BRANCH  63  86
ATOM     86  C   UNL A   1      44.956  27.796  34.350  1.00  0.00     0.023 A 
ATOM     87  C   UNL A   1      44.875  26.719  35.249  1.00  0.00     0.031 A 
ATOM     88  C   UNL A   1      46.201  28.428  34.184  1.00  0.00     0.131 A 
ATOM     89  C   UNL A   1      46.005  26.340  35.989  1.00  0.00     0.055 A 
ATOM     90  C   UNL A   1      47.337  28.010  34.880  1.00  0.00     0.041 A 
ATOM     91  F   UNL A   1      46.336  29.464  33.340  1.00  0.00    -0.206 F 
ATOM     92  C   UNL A   1      47.239  26.968  35.797  1.00  0.00     0.022 A 
BRANCH  89  93
ATOM     93  S   UNL A   1      45.823  25.071  37.271  1.00  0.00     0.124 S 
ATOM     94  O   UNL A   1      44.496  24.535  36.981  1.00  0.00    -0.237 OA
ATOM     95  O   UNL A   1      46.946  24.181  36.992  1.00  0.00    -0.237 OA
ATOM     96  O   UNL A   1      45.928  25.824  38.519  1.00  0.00    -0.744 OA
ENDBRANCH  89  93
ENDBRANCH  63  86
ENDBRANCH  37  38
ENDBRANCH  29  32
ENDBRANCH  27  28
ENDBRANCH  26  27
ENDBRANCH   1  26
TORSDOF 19
ENDMDL
MODEL 3
REMARK VINA RESULT:     -11.0      4.365      9.613
REMARK SMILES C[NH+](C)Cc1noc(C[C@@](C)(C(=O)NCCCCNC(=O)c2ccc(-c3c4nc(c(-c5cc(S(=O)(=O)[O-])ccc5F)c5ccc([nH]5)c(-c5cc(S(=O)(=O)[O-])ccc5F)c5nc(c(-c6cc(S(=O)(=O)[O-])ccc6F)c6ccc3[nH]6)C=C5)C=C4)cc2)c2ccccc2)n1
REMARK SMILES IDX 16 1 15 2 14 3 12 4 13 5 10 7 11 8 9 9 8 10 5 11 6 12 91 13
REMARK SMILES IDX 7 14 4 15 2 16 1 17 3 18 85 20 86 21 90 22 87 23 89 24 88 25
REMARK SMILES IDX 17 26 18 27 19 28 20 29 21 31 22 32 23 33 84 34 24 35 83 36
REMARK SMILES IDX 25 37 26 38 27 39 77 40 28 41 82 42 76 43 78 44 29 45 81 46
REMARK SMILES IDX 75 47 74 48 30 50 62 51 42 52 61 53 43 54 46 55 60 56 79 57
REMARK SMILES IDX 44 58 45 59 59 61 80 62 47 63 31 64 32 65 40 66 33 67 39 68
REMARK SMILES IDX 41 69 38 70 34 71 35 72 36 73 37 74 63 75 64 76 72 77 65 78
REMARK SMILES IDX 71 79 73 80 70 81 66 82 67 83 68 84 69 85 48 86 49 87 57 88
REMARK SMILES IDX 50 89 56 90 58 91 55 92 51 93 52 94 53 95 54 96
REMARK H PARENT 14 6 2 19 19 30 78 49 46 60
REMARK Flexibility Score: inf
ROOT
ATOM      1  C   UNL A   1      36.183  22.726  23.496  1.00  0.00     0.023 C 
ENDROOT
BRANCH   1   2
ATOM      2  C   UNL A   1      35.358  23.876  24.071  1.00  0.00     0.116 C 
BRANCH   2   3
ATOM      3  N   UNL A   1      34.368  24.380  23.128  1.00  0.00    -0.355 N 
ATOM      4  C   UNL A   1      32.999  24.364  23.091  1.00  0.00     0.230 C 
ATOM      5  O   UNL A   1      32.514  25.075  22.207  1.00  0.00    -0.274 OA
ATOM      6  H   UNL A   1      34.770  24.829  22.349  1.00  0.00     0.163 HD
BRANCH   4   7
ATOM      7  C   UNL A   1      32.136  23.555  24.115  1.00  0.00     0.080 C 
ATOM      8  C   UNL A   1      30.670  23.862  23.710  1.00  0.00     0.027 C 
BRANCH   7   9
ATOM      9  C   UNL A   1      32.570  24.008  25.535  1.00  0.00     0.122 C 
BRANCH   9  10
ATOM     10  C   UNL A   1      32.392  25.447  25.840  1.00  0.00     0.228 A 
ATOM     11  C   UNL A   1      32.359  27.533  25.934  1.00  0.00     0.226 A 
ATOM     12  N   UNL A   1      31.442  27.173  26.845  1.00  0.00    -0.056 NA
ATOM     13  N   UNL A   1      32.979  26.486  25.298  1.00  0.00    -0.190 NA
ATOM     14  O   UNL A   1      31.444  25.779  26.764  1.00  0.00    -0.339 OA
BRANCH  11  15
ATOM     15  C   UNL A   1      32.665  28.959  25.601  1.00  0.00     0.344 C 
BRANCH  15  16
ATOM     16  N   UNL A   1      32.343  29.927  26.677  1.00  0.00    -0.333 N 
ATOM     17  C   UNL A   1      33.543  30.536  27.253  1.00  0.00     0.332 C 
ATOM     18  C   UNL A   1      31.403  30.953  26.230  1.00  0.00     0.332 C 
ATOM     19  H   UNL A   1      31.888  29.388  27.413  1.00  0.00     0.348 HD
ENDBRANCH  15  16
ENDBRANCH  11  15
ENDBRANCH   9  10
ENDBRANCH   7   9
BRANCH   7  20
ATOM     20  C   UNL A   1      32.332  21.999  24.074  1.00  0.00    -0.032 A 
ATOM     21  C   UNL A   1      32.614  21.228  25.214  1.00  0.00     0.005 A 
ATOM     22  C   UNL A   1      32.118  21.286  22.870  1.00  0.00     0.005 A 
ATOM     23  C   UNL A   1      32.735  19.833  25.144  1.00  0.00     0.000 A 
ATOM     24  C   UNL A   1      32.209  19.893  22.806  1.00  0.00     0.000 A 
ATOM     25  C   UNL A   1      32.531  19.166  23.942  1.00  0.00     0.000 A 
ENDBRANCH   7  20
ENDBRANCH   4   7
ENDBRANCH   2   3
ENDBRANCH   1   2
BRANCH   1  26
ATOM     26  C   UNL A   1      36.238  21.467  24.360  1.00  0.00     0.023 C 
BRANCH  26  27
ATOM     27  C   UNL A   1      37.008  21.602  25.668  1.00  0.00     0.116 C 
BRANCH  27  28
ATOM     28  N   UNL A   1      38.091  20.639  25.798  1.00  0.00    -0.352 N 
ATOM     29  C   UNL A   1      39.395  20.852  26.179  1.00  0.00     0.251 C 
ATOM     30  H   UNL A   1      37.858  19.707  25.585  1.00  0.00     0.163 HD
ATOM     31  O   UNL A   1      40.204  19.932  26.117  1.00  0.00    -0.269 OA
BRANCH  29  32
ATOM     32  C   UNL A   1      39.820  22.200  26.616  1.00  0.00     0.039 A 
ATOM     33  C   UNL A   1      40.834  22.309  27.571  1.00  0.00     0.014 A 
ATOM     34  C   UNL A   1      39.247  23.348  26.063  1.00  0.00     0.014 A 
ATOM     35  C   UNL A   1      41.326  23.570  27.914  1.00  0.00     0.010 A 
ATOM     36  C   UNL A   1      39.788  24.599  26.351  1.00  0.00     0.010 A 
ATOM     37  C   UNL A   1      40.838  24.722  27.275  1.00  0.00    -0.014 A 
BRANCH  37  38
ATOM     38  C   UNL A   1      41.421  26.061  27.554  1.00  0.00     0.031 A 
ATOM     39  C   UNL A   1      42.784  26.415  27.028  1.00  0.00     0.074 A 
ATOM     40  C   UNL A   1      40.748  26.929  28.334  1.00  0.00     0.049 A 
ATOM     41  N   UNL A   1      43.485  27.504  27.213  1.00  0.00    -0.248 NA
ATOM     42  C   UNL A   1      43.461  25.396  26.211  1.00  0.00     0.031 C 
ATOM     43  C   UNL A   1      39.440  26.679  28.943  1.00  0.00     0.029 A 
ATOM     44  N   UNL A   1      41.071  28.195  28.756  1.00  0.00    -0.354 N 
ATOM     45  C   UNL A   1      44.689  27.299  26.548  1.00  0.00     0.074 A 
ATOM     46  C   UNL A   1      44.645  25.955  26.010  1.00  0.00     0.031 C 
ATOM     47  C   UNL A   1      39.062  27.764  29.637  1.00  0.00     0.029 A 
ATOM     48  C   UNL A   1      40.115  28.771  29.561  1.00  0.00     0.049 A 
ATOM     49  H   UNL A   1      41.908  28.648  28.507  1.00  0.00     0.167 HD
ATOM     50  C   UNL A   1      45.724  28.160  26.379  1.00  0.00     0.034 A 
ATOM     51  C   UNL A   1      40.094  29.970  30.175  1.00  0.00     0.034 A 
ATOM     52  C   UNL A   1      45.747  29.499  26.912  1.00  0.00     0.049 A 
ATOM     53  C   UNL A   1      41.261  30.905  29.985  1.00  0.00     0.074 A 
ATOM     54  C   UNL A   1      46.714  30.476  26.752  1.00  0.00     0.029 A 
ATOM     55  N   UNL A   1      44.758  30.052  27.719  1.00  0.00    -0.354 N 
ATOM     56  N   UNL A   1      42.367  30.718  29.302  1.00  0.00    -0.248 NA
ATOM     57  C   UNL A   1      41.172  32.217  30.641  1.00  0.00     0.031 C 
ATOM     58  C   UNL A   1      46.345  31.592  27.512  1.00  0.00     0.029 A 
ATOM     59  C   UNL A   1      45.109  31.342  28.088  1.00  0.00     0.049 A 
ATOM     60  H   UNL A   1      43.930  29.594  27.989  1.00  0.00     0.167 HD
ATOM     61  C   UNL A   1      43.091  31.901  29.422  1.00  0.00     0.074 A 
ATOM     62  C   UNL A   1      42.289  32.798  30.230  1.00  0.00     0.031 C 
ATOM     63  C   UNL A   1      44.305  32.220  28.906  1.00  0.00     0.034 A 
BRANCH  50  64
ATOM     64  C   UNL A   1      46.921  27.661  25.605  1.00  0.00     0.023 A 
ATOM     65  C   UNL A   1      47.147  28.040  24.269  1.00  0.00     0.031 A 
ATOM     66  C   UNL A   1      47.835  26.770  26.196  1.00  0.00     0.131 A 
ATOM     67  C   UNL A   1      48.206  27.470  23.546  1.00  0.00     0.055 A 
ATOM     68  C   UNL A   1      48.936  26.272  25.497  1.00  0.00     0.041 A 
ATOM     69  F   UNL A   1      47.663  26.355  27.462  1.00  0.00    -0.206 F 
ATOM     70  C   UNL A   1      49.117  26.609  24.159  1.00  0.00     0.022 A 
BRANCH  67  71
ATOM     71  S   UNL A   1      48.283  27.755  21.757  1.00  0.00     0.124 S 
ATOM     72  O   UNL A   1      48.649  26.430  21.263  1.00  0.00    -0.237 OA
ATOM     73  O   UNL A   1      46.930  28.201  21.450  1.00  0.00    -0.237 OA
ATOM     74  O   UNL A   1      49.324  28.773  21.617  1.00  0.00    -0.744 OA
ENDBRANCH  67  71
ENDBRANCH  50  64
BRANCH  51  75
ATOM     75  C   UNL A   1      38.934  30.362  31.027  1.00  0.00     0.023 A 
ATOM     76  C   UNL A   1      37.903  31.168  30.520  1.00  0.00     0.031 A 
ATOM     77  C   UNL A   1      38.859  29.964  32.374  1.00  0.00     0.131 A 
ATOM     78  C   UNL A   1      36.864  31.588  31.365  1.00  0.00     0.055 A 
ATOM     79  C   UNL A   1      37.798  30.344  33.197  1.00  0.00     0.041 A 
ATOM     80  F   UNL A   1      39.816  29.186  32.906  1.00  0.00    -0.206 F 
ATOM     81  C   UNL A   1      36.798  31.172  32.697  1.00  0.00     0.022 A 
BRANCH  78  82
ATOM     82  S   UNL A   1      35.638  32.757  30.718  1.00  0.00     0.124 S 
ATOM     83  O   UNL A   1      36.174  34.034  31.174  1.00  0.00    -0.237 OA
ATOM     84  O   UNL A   1      35.711  32.506  29.282  1.00  0.00    -0.237 OA
ATOM     85  O   UNL A   1      34.394  32.336  31.360  1.00  0.00    -0.744 OA
ENDBRANCH  78  82
ENDBRANCH  51  75
BRANCH  63  86
ATOM     86  C   UNL A   1      44.816  33.615  29.170  1.00  0.00     0.023 A 
ATOM     87  C   UNL A   1      45.367  33.980  30.410  1.00  0.00     0.031 A 
ATOM     88  C   UNL A   1      44.738  34.596  28.165  1.00  0.00     0.131 A 
ATOM     89  C   UNL A   1      45.771  35.305  30.632  1.00  0.00     0.055 A 
ATOM     90  C   UNL A   1      45.195  35.898  28.372  1.00  0.00     0.041 A 
ATOM     91  F   UNL A   1      44.218  34.303  26.963  1.00  0.00    -0.206 F 
ATOM     92  C   UNL A   1      45.704  36.262  29.616  1.00  0.00     0.022 A 
BRANCH  89  93
ATOM     93  S   UNL A   1      46.306  35.787  32.297  1.00  0.00     0.124 S 
ATOM     94  O   UNL A   1      45.855  34.654  33.100  1.00  0.00    -0.237 OA
ATOM     95  O   UNL A   1      47.750  35.918  32.135  1.00  0.00    -0.237 OA
ATOM     96  O   UNL A   1      45.594  37.040  32.538  1.00  0.00    -0.744 OA
ENDBRANCH  89  93
ENDBRANCH  63  86
ENDBRANCH  37  38
ENDBRANCH  29  32
ENDBRANCH  27  28
ENDBRANCH  26  27
ENDBRANCH   1  26
TORSDOF 19
ENDMDL
