MODEL 1
REMARK VINA RESULT:     -11.3      0.000      0.000
REMARK SMILES CC(C)N1C[C@@H](C(=O)NCCCCNC(=O)c2ccc(-c3c4nc(c(-c5cc(S(=O)(=O)[O-])ccc5F)c5ccc([nH]5)c(-c5cc(S(=O)(=O)[O-])ccc5F)c5nc(c(-c6cc(S(=O)(=O)[O-])ccc6F)c6ccc3[nH]6)C=C5)C=C4)cc2)CC1=O
REMARK SMILES IDX 12 1 11 2 10 3 9 4 7 5 8 6 6 8 4 9 5 10 81 11 80 12 82 13
REMARK SMILES IDX 2 14 1 15 3 16 13 17 14 18 15 19 16 21 17 22 18 23 79 24
REMARK SMILES IDX 19 25 78 26 20 27 21 28 22 29 72 30 23 31 77 32 71 33 73 34
REMARK SMILES IDX 24 35 76 36 70 37 69 38 25 40 57 41 37 42 56 43 38 44 41 45
REMARK SMILES IDX 55 46 74 47 39 48 40 49 54 51 75 52 42 53 26 54 27 55 35 56
REMARK SMILES IDX 28 57 34 58 36 59 33 60 29 61 30 62 31 63 32 64 58 65 59 66
REMARK SMILES IDX 67 67 60 68 66 69 68 70 65 71 61 72 62 73 63 74 64 75 43 76
REMARK SMILES IDX 44 77 52 78 45 79 51 80 53 81 50 82 46 83 47 84 48 85 49 86
REMARK H PARENT 9 7 14 20 73 39 41 50
REMARK Flexibility Score: inf
ROOT
ATOM      1  C   UNL A   1      38.201  19.729  25.017  1.00  0.00     0.023 C 
ENDROOT
BRANCH   1   2
ATOM      2  C   UNL A   1      37.042  20.713  24.855  1.00  0.00     0.023 C 
BRANCH   2   3
ATOM      3  C   UNL A   1      35.651  20.083  24.901  1.00  0.00     0.116 C 
BRANCH   3   4
ATOM      4  N   UNL A   1      34.690  20.926  25.592  1.00  0.00    -0.356 N 
ATOM      5  C   UNL A   1      33.350  20.799  25.776  1.00  0.00     0.225 C 
ATOM      6  O   UNL A   1      32.779  21.675  26.431  1.00  0.00    -0.275 OA
ATOM      7  H   UNL A   1      35.080  21.734  25.998  1.00  0.00     0.163 HD
BRANCH   5   8
ATOM      8  C   UNL A   1      32.554  19.629  25.236  1.00  0.00     0.107 C 
ATOM      9  N   UNL A   1      33.008  17.392  24.655  1.00  0.00    -0.339 N 
ATOM     10  C   UNL A   1      33.027  18.296  25.782  1.00  0.00     0.133 C 
ATOM     11  C   UNL A   1      32.838  18.053  23.450  1.00  0.00     0.223 C 
ATOM     12  C   UNL A   1      32.553  19.506  23.719  1.00  0.00     0.115 C 
ATOM     13  O   UNL A   1      32.901  17.572  22.329  1.00  0.00    -0.275 OA
BRANCH   9  14
ATOM     14  C   UNL A   1      33.363  15.978  24.828  1.00  0.00     0.078 C 
ATOM     15  C   UNL A   1      34.803  15.758  25.295  1.00  0.00     0.031 C 
ATOM     16  C   UNL A   1      32.383  15.267  25.758  1.00  0.00     0.031 C 
ENDBRANCH   9  14
ENDBRANCH   5   8
ENDBRANCH   3   4
ENDBRANCH   2   3
ENDBRANCH   1   2
BRANCH   1  17
ATOM     17  C   UNL A   1      39.239  20.111  26.066  1.00  0.00     0.116 C 
BRANCH  17  18
ATOM     18  N   UNL A   1      40.411  19.252  26.044  1.00  0.00    -0.352 N 
ATOM     19  C   UNL A   1      41.739  19.599  26.127  1.00  0.00     0.251 C 
ATOM     20  H   UNL A   1      40.229  18.289  25.957  1.00  0.00     0.163 HD
ATOM     21  O   UNL A   1      42.603  18.747  25.939  1.00  0.00    -0.269 OA
BRANCH  19  22
ATOM     22  C   UNL A   1      42.115  21.002  26.405  1.00  0.00     0.039 A 
ATOM     23  C   UNL A   1      42.381  21.385  27.722  1.00  0.00     0.014 A 
ATOM     24  C   UNL A   1      42.226  21.933  25.368  1.00  0.00     0.014 A 
ATOM     25  C   UNL A   1      42.818  22.684  27.990  1.00  0.00     0.010 A 
ATOM     26  C   UNL A   1      42.744  23.198  25.627  1.00  0.00     0.010 A 
ATOM     27  C   UNL A   1      43.039  23.592  26.941  1.00  0.00    -0.014 A 
BRANCH  27  28
ATOM     28  C   UNL A   1      43.552  24.964  27.201  1.00  0.00     0.031 A 
ATOM     29  C   UNL A   1      42.628  26.018  27.750  1.00  0.00     0.074 A 
ATOM     30  C   UNL A   1      44.826  25.276  26.890  1.00  0.00     0.049 A 
ATOM     31  N   UNL A   1      42.855  27.287  27.972  1.00  0.00    -0.248 NA
ATOM     32  C   UNL A   1      41.254  25.592  28.060  1.00  0.00     0.031 C 
ATOM     33  C   UNL A   1      45.808  24.352  26.319  1.00  0.00     0.029 A 
ATOM     34  N   UNL A   1      45.515  26.459  27.006  1.00  0.00    -0.354 N 
ATOM     35  C   UNL A   1      41.653  27.813  28.435  1.00  0.00     0.074 A 
ATOM     36  C   UNL A   1      40.683  26.739  28.392  1.00  0.00     0.031 C 
ATOM     37  C   UNL A   1      46.977  24.994  26.162  1.00  0.00     0.029 A 
ATOM     38  C   UNL A   1      46.819  26.386  26.572  1.00  0.00     0.049 A 
ATOM     39  H   UNL A   1      45.113  27.282  27.367  1.00  0.00     0.167 HD
ATOM     40  C   UNL A   1      41.389  29.067  28.880  1.00  0.00     0.034 A 
ATOM     41  C   UNL A   1      47.774  27.335  26.500  1.00  0.00     0.034 A 
ATOM     42  C   UNL A   1      42.372  30.123  28.925  1.00  0.00     0.049 A 
ATOM     43  C   UNL A   1      47.449  28.731  26.971  1.00  0.00     0.074 A 
ATOM     44  C   UNL A   1      42.226  31.415  29.396  1.00  0.00     0.029 A 
ATOM     45  N   UNL A   1      43.682  30.011  28.477  1.00  0.00    -0.354 N 
ATOM     46  N   UNL A   1      46.318  29.202  27.447  1.00  0.00    -0.248 NA
ATOM     47  C   UNL A   1      48.533  29.720  26.910  1.00  0.00     0.031 C 
ATOM     48  C   UNL A   1      43.420  32.105  29.165  1.00  0.00     0.029 A 
ATOM     49  C   UNL A   1      44.344  31.219  28.634  1.00  0.00     0.049 A 
ATOM     50  H   UNL A   1      44.083  29.193  28.103  1.00  0.00     0.167 HD
ATOM     51  C   UNL A   1      46.571  30.531  27.780  1.00  0.00     0.074 A 
ATOM     52  C   UNL A   1      47.961  30.780  27.461  1.00  0.00     0.031 C 
ATOM     53  C   UNL A   1      45.732  31.458  28.310  1.00  0.00     0.034 A 
BRANCH  40  54
ATOM     54  C   UNL A   1      39.976  29.364  29.324  1.00  0.00     0.023 A 
ATOM     55  C   UNL A   1      39.618  29.391  30.685  1.00  0.00     0.031 A 
ATOM     56  C   UNL A   1      38.963  29.593  28.376  1.00  0.00     0.131 A 
ATOM     57  C   UNL A   1      38.275  29.558  31.054  1.00  0.00     0.055 A 
ATOM     58  C   UNL A   1      37.643  29.851  28.755  1.00  0.00     0.041 A 
ATOM     59  F   UNL A   1      39.234  29.558  27.062  1.00  0.00    -0.206 F 
ATOM     60  C   UNL A   1      37.289  29.818  30.100  1.00  0.00     0.022 A 
BRANCH  57  61
ATOM     61  S   UNL A   1      37.812  29.273  32.785  1.00  0.00     0.124 S 
ATOM     62  O   UNL A   1      36.499  29.910  32.847  1.00  0.00    -0.237 OA
ATOM     63  O   UNL A   1      37.821  27.818  32.878  1.00  0.00    -0.237 OA
ATOM     64  O   UNL A   1      38.863  29.954  33.538  1.00  0.00    -0.744 OA
ENDBRANCH  57  61
ENDBRANCH  40  54
BRANCH  41  65
ATOM     65  C   UNL A   1      49.126  27.011  25.957  1.00  0.00     0.023 A 
ATOM     66  C   UNL A   1      49.499  27.401  24.661  1.00  0.00     0.031 A 
ATOM     67  C   UNL A   1      50.049  26.261  26.709  1.00  0.00     0.131 A 
ATOM     68  C   UNL A   1      50.736  26.996  24.135  1.00  0.00     0.055 A 
ATOM     69  C   UNL A   1      51.302  25.911  26.203  1.00  0.00     0.041 A 
ATOM     70  F   UNL A   1      49.747  25.862  27.954  1.00  0.00    -0.206 F 
ATOM     71  C   UNL A   1      51.646  26.266  24.903  1.00  0.00     0.022 A 
BRANCH  68  72
ATOM     72  S   UNL A   1      51.098  27.350  22.393  1.00  0.00     0.124 S 
ATOM     73  O   UNL A   1      52.395  26.706  22.223  1.00  0.00    -0.237 OA
ATOM     74  O   UNL A   1      49.972  26.715  21.716  1.00  0.00    -0.237 OA
ATOM     75  O   UNL A   1      51.114  28.810  22.339  1.00  0.00    -0.744 OA
ENDBRANCH  68  72
ENDBRANCH  41  65
BRANCH  53  76
ATOM     76  C   UNL A   1      46.318  32.811  28.639  1.00  0.00     0.023 A 
ATOM     77  C   UNL A   1      46.275  33.885  27.733  1.00  0.00     0.031 A 
ATOM     78  C   UNL A   1      46.941  33.022  29.882  1.00  0.00     0.131 A 
ATOM     79  C   UNL A   1      46.898  35.100  28.058  1.00  0.00     0.055 A 
ATOM     80  C   UNL A   1      47.499  34.254  30.228  1.00  0.00     0.041 A 
ATOM     81  F   UNL A   1      47.016  32.033  30.787  1.00  0.00    -0.206 F 
ATOM     82  C   UNL A   1      47.493  35.297  29.306  1.00  0.00     0.022 A 
BRANCH  79  83
ATOM     83  S   UNL A   1      47.020  36.386  26.784  1.00  0.00     0.124 S 
ATOM     84  O   UNL A   1      45.662  36.921  26.763  1.00  0.00    -0.237 OA
ATOM     85  O   UNL A   1      48.045  37.268  27.329  1.00  0.00    -0.237 OA
ATOM     86  O   UNL A   1      47.413  35.646  25.586  1.00  0.00    -0.744 OA
ENDBRANCH  79  83
ENDBRANCH  53  76
ENDBRANCH  27  28
ENDBRANCH  19  22
ENDBRANCH  17  18
ENDBRANCH   1  17
TORSDOF 15
ENDMDL
MODEL 2
REMARK VINA RESULT:     -11.1      2.569      8.461
REMARK SMILES CC(C)N1C[C@@H](C(=O)NCCCCNC(=O)c2ccc(-c3c4nc(c(-c5cc(S(=O)(=O)[O-])ccc5F)c5ccc([nH]5)c(-c5cc(S(=O)(=O)[O-])ccc5F)c5nc(c(-c6cc(S(=O)(=O)[O-])ccc6F)c6ccc3[nH]6)C=C5)C=C4)cc2)CC1=O
REMARK SMILES IDX 12 1 11 2 10 3 9 4 7 5 8 6 6 8 4 9 5 10 81 11 80 12 82 13
REMARK SMILES IDX 2 14 1 15 3 16 13 17 14 18 15 19 16 21 17 22 18 23 79 24
REMARK SMILES IDX 19 25 78 26 20 27 21 28 22 29 72 30 23 31 77 32 71 33 73 34
REMARK SMILES IDX 24 35 76 36 70 37 69 38 25 40 57 41 37 42 56 43 38 44 41 45
REMARK SMILES IDX 55 46 74 47 39 48 40 49 54 51 75 52 42 53 26 54 27 55 35 56
REMARK SMILES IDX 28 57 34 58 36 59 33 60 29 61 30 62 31 63 32 64 58 65 59 66
REMARK SMILES IDX 67 67 60 68 66 69 68 70 65 71 61 72 62 73 63 74 64 75 43 76
REMARK SMILES IDX 44 77 52 78 45 79 51 80 53 81 50 82 46 83 47 84 48 85 49 86
REMARK H PARENT 9 7 14 20 73 39 41 50
REMARK Flexibility Score: inf
ROOT
ATOM      1  C   UNL A   1      36.859  22.210  24.079  1.00  0.00     0.023 C 
ENDROOT
BRANCH   1   2
ATOM      2  C   UNL A   1      35.903  23.316  23.630  1.00  0.00     0.023 C 
BRANCH   2   3
ATOM      3  C   UNL A   1      35.064  23.935  24.746  1.00  0.00     0.116 C 
BRANCH   3   4
ATOM      4  N   UNL A   1      33.645  23.674  24.575  1.00  0.00    -0.356 N 
ATOM      5  C   UNL A   1      32.941  22.513  24.548  1.00  0.00     0.225 C 
ATOM      6  O   UNL A   1      31.718  22.592  24.401  1.00  0.00    -0.275 OA
ATOM      7  H   UNL A   1      33.097  24.483  24.456  1.00  0.00     0.163 HD
BRANCH   5   8
ATOM      8  C   UNL A   1      33.589  21.154  24.714  1.00  0.00     0.107 C 
ATOM      9  N   UNL A   1      33.043  18.934  24.151  1.00  0.00    -0.339 N 
ATOM     10  C   UNL A   1      33.304  20.223  23.552  1.00  0.00     0.133 C 
ATOM     11  C   UNL A   1      32.875  19.012  25.523  1.00  0.00     0.223 C 
ATOM     12  C   UNL A   1      33.192  20.410  25.981  1.00  0.00     0.115 C 
ATOM     13  O   UNL A   1      32.528  18.116  26.278  1.00  0.00    -0.275 OA
BRANCH   9  14
ATOM     14  C   UNL A   1      32.774  17.762  23.309  1.00  0.00     0.078 C 
ATOM     15  C   UNL A   1      32.156  18.108  21.952  1.00  0.00     0.031 C 
ATOM     16  C   UNL A   1      34.026  16.909  23.126  1.00  0.00     0.031 C 
ENDBRANCH   9  14
ENDBRANCH   5   8
ENDBRANCH   3   4
ENDBRANCH   2   3
ENDBRANCH   1   2
BRANCH   1  17
ATOM     17  C   UNL A   1      37.206  22.213  25.564  1.00  0.00     0.116 C 
BRANCH  17  18
ATOM     18  N   UNL A   1      38.239  21.250  25.906  1.00  0.00    -0.352 N 
ATOM     19  C   UNL A   1      39.488  21.473  26.436  1.00  0.00     0.251 C 
ATOM     20  H   UNL A   1      38.014  20.307  25.734  1.00  0.00     0.163 HD
ATOM     21  O   UNL A   1      40.288  20.545  26.521  1.00  0.00    -0.269 OA
BRANCH  19  22
ATOM     22  C   UNL A   1      39.870  22.836  26.866  1.00  0.00     0.039 A 
ATOM     23  C   UNL A   1      40.740  22.986  27.949  1.00  0.00     0.014 A 
ATOM     24  C   UNL A   1      39.389  23.961  26.191  1.00  0.00     0.014 A 
ATOM     25  C   UNL A   1      41.176  24.262  28.314  1.00  0.00     0.010 A 
ATOM     26  C   UNL A   1      39.891  25.221  26.501  1.00  0.00     0.010 A 
ATOM     27  C   UNL A   1      40.784  25.389  27.570  1.00  0.00    -0.014 A 
BRANCH  27  28
ATOM     28  C   UNL A   1      41.276  26.750  27.912  1.00  0.00     0.031 A 
ATOM     29  C   UNL A   1      42.694  27.137  27.591  1.00  0.00     0.074 A 
ATOM     30  C   UNL A   1      40.468  27.615  28.559  1.00  0.00     0.049 A 
ATOM     31  N   UNL A   1      43.338  28.241  27.875  1.00  0.00    -0.248 NA
ATOM     32  C   UNL A   1      43.507  26.134  26.885  1.00  0.00     0.031 C 
ATOM     33  C   UNL A   1      39.085  27.343  28.957  1.00  0.00     0.029 A 
ATOM     34  N   UNL A   1      40.693  28.895  29.001  1.00  0.00    -0.354 N 
ATOM     35  C   UNL A   1      44.632  28.060  27.394  1.00  0.00     0.074 A 
ATOM     36  C   UNL A   1      44.697  26.714  26.867  1.00  0.00     0.031 C 
ATOM     37  C   UNL A   1      38.578  28.433  29.557  1.00  0.00     0.029 A 
ATOM     38  C   UNL A   1      39.610  29.461  29.634  1.00  0.00     0.049 A 
ATOM     39  H   UNL A   1      41.551  29.364  28.877  1.00  0.00     0.167 HD
ATOM     40  C   UNL A   1      45.660  28.944  27.370  1.00  0.00     0.034 A 
ATOM     41  C   UNL A   1      39.469  30.667  30.220  1.00  0.00     0.034 A 
ATOM     42  C   UNL A   1      45.574  30.286  27.892  1.00  0.00     0.049 A 
ATOM     43  C   UNL A   1      40.637  31.623  30.210  1.00  0.00     0.074 A 
ATOM     44  C   UNL A   1      46.538  31.279  27.881  1.00  0.00     0.029 A 
ATOM     45  N   UNL A   1      44.460  30.825  28.525  1.00  0.00    -0.354 N 
ATOM     46  N   UNL A   1      41.841  31.453  29.712  1.00  0.00    -0.248 NA
ATOM     47  C   UNL A   1      40.422  32.938  30.826  1.00  0.00     0.031 C 
ATOM     48  C   UNL A   1      46.037  32.387  28.571  1.00  0.00     0.029 A 
ATOM     49  C   UNL A   1      44.725  32.123  28.933  1.00  0.00     0.049 A 
ATOM     50  H   UNL A   1      43.607  30.354  28.662  1.00  0.00     0.167 HD
ATOM     51  C   UNL A   1      42.511  32.657  29.920  1.00  0.00     0.074 A 
ATOM     52  C   UNL A   1      41.573  33.544  30.576  1.00  0.00     0.031 C 
ATOM     53  C   UNL A   1      43.783  33.000  29.590  1.00  0.00     0.034 A 
BRANCH  40  54
ATOM     54  C   UNL A   1      46.971  28.470  26.785  1.00  0.00     0.023 A 
ATOM     55  C   UNL A   1      47.170  28.379  25.395  1.00  0.00     0.031 A 
ATOM     56  C   UNL A   1      48.026  28.074  27.625  1.00  0.00     0.131 A 
ATOM     57  C   UNL A   1      48.358  27.829  24.891  1.00  0.00     0.055 A 
ATOM     58  C   UNL A   1      49.242  27.613  27.115  1.00  0.00     0.041 A 
ATOM     59  F   UNL A   1      47.891  28.114  28.960  1.00  0.00    -0.206 F 
ATOM     60  C   UNL A   1      49.407  27.472  25.740  1.00  0.00     0.022 A 
BRANCH  57  61
ATOM     61  S   UNL A   1      48.448  27.438  23.122  1.00  0.00     0.124 S 
ATOM     62  O   UNL A   1      47.321  28.202  22.594  1.00  0.00    -0.237 OA
ATOM     63  O   UNL A   1      49.774  27.921  22.758  1.00  0.00    -0.237 OA
ATOM     64  O   UNL A   1      48.278  25.986  23.083  1.00  0.00    -0.744 OA
ENDBRANCH  57  61
ENDBRANCH  40  54
BRANCH  41  65
ATOM     65  C   UNL A   1      38.182  31.047  30.874  1.00  0.00     0.023 A 
ATOM     66  C   UNL A   1      37.183  31.733  30.165  1.00  0.00     0.031 A 
ATOM     67  C   UNL A   1      37.952  30.774  32.235  1.00  0.00     0.131 A 
ATOM     68  C   UNL A   1      36.026  32.171  30.829  1.00  0.00     0.055 A 
ATOM     69  C   UNL A   1      36.773  31.159  32.876  1.00  0.00     0.041 A 
ATOM     70  F   UNL A   1      38.871  30.119  32.961  1.00  0.00    -0.206 F 
ATOM     71  C   UNL A   1      35.808  31.875  32.176  1.00  0.00     0.022 A 
BRANCH  68  72
ATOM     72  S   UNL A   1      34.854  33.223  29.930  1.00  0.00     0.124 S 
ATOM     73  O   UNL A   1      34.211  32.260  29.043  1.00  0.00    -0.237 OA
ATOM     74  O   UNL A   1      34.028  33.748  31.012  1.00  0.00    -0.237 OA
ATOM     75  O   UNL A   1      35.713  34.203  29.270  1.00  0.00    -0.744 OA
ENDBRANCH  68  72
ENDBRANCH  41  65
BRANCH  53  76
ATOM     76  C   UNL A   1      44.211  34.420  29.876  1.00  0.00     0.023 A 
ATOM     77  C   UNL A   1      43.928  35.478  28.994  1.00  0.00     0.031 A 
ATOM     78  C   UNL A   1      44.928  34.714  31.050  1.00  0.00     0.131 A 
ATOM     79  C   UNL A   1      44.412  36.766  29.269  1.00  0.00     0.055 A 
ATOM     80  C   UNL A   1      45.347  36.011  31.352  1.00  0.00     0.041 A 
ATOM     81  F   UNL A   1      45.231  33.744  31.927  1.00  0.00    -0.206 F 
ATOM     82  C   UNL A   1      45.103  37.043  30.451  1.00  0.00     0.022 A 
BRANCH  79  83
ATOM     83  S   UNL A   1      44.224  38.056  28.007  1.00  0.00     0.124 S 
ATOM     84  O   UNL A   1      43.695  37.299  26.877  1.00  0.00    -0.237 OA
ATOM     85  O   UNL A   1      43.294  38.981  28.645  1.00  0.00    -0.237 OA
ATOM     86  O   UNL A   1      45.582  38.565  27.832  1.00  0.00    -0.744 OA
ENDBRANCH  79  83
ENDBRANCH  53  76
ENDBRANCH  27  28
ENDBRANCH  19  22
ENDBRANCH  17  18
ENDBRANCH   1  17
TORSDOF 15
ENDMDL
MODEL 3
REMARK VINA RESULT:     -11.0      5.335      8.490
REMARK SMILES CC(C)N1C[C@@H](C(=O)NCCCCNC(=O)c2ccc(-c3c4nc(c(-c5cc(S(=O)(=O)[O-])ccc5F)c5ccc([nH]5)c(-c5cc(S(=O)(=O)[O-])ccc5F)c5nc(c(-c6cc(S(=O)(=O)[O-])ccc6F)c6ccc3[nH]6)C=C5)C=C4)cc2)CC1=O
REMARK SMILES IDX 12 1 11 2 10 3 9 4 7 5 8 6 6 8 4 9 5 10 81 11 80 12 82 13
REMARK SMILES IDX 2 14 1 15 3 16 13 17 14 18 15 19 16 21 17 22 18 23 79 24
REMARK SMILES IDX 19 25 78 26 20 27 21 28 22 29 72 30 23 31 77 32 71 33 73 34
REMARK SMILES IDX 24 35 76 36 70 37 69 38 25 40 57 41 37 42 56 43 38 44 41 45
REMARK SMILES IDX 55 46 74 47 39 48 40 49 54 51 75 52 42 53 26 54 27 55 35 56
REMARK SMILES IDX 28 57 34 58 36 59 33 60 29 61 30 62 31 63 32 64 58 65 59 66
REMARK SMILES IDX 67 67 60 68 66 69 68 70 65 71 61 72 62 73 63 74 64 75 43 76
REMARK SMILES IDX 44 77 52 78 45 79 51 80 53 81 50 82 46 83 47 84 48 85 49 86
REMARK H PARENT 9 7 14 20 73 39 41 50
REMARK Flexibility Score: inf
ROOT
ATOM      1  C   UNL A   1      32.150  29.054  26.270  1.00  0.00     0.023 C 
ENDROOT
BRANCH   1   2
ATOM      2  C   UNL A   1      31.798  27.753  26.993  1.00  0.00     0.023 C 
BRANCH   2   3
ATOM      3  C   UNL A   1      31.751  26.514  26.101  1.00  0.00     0.116 C 
BRANCH   3   4
ATOM      4  N   UNL A   1      31.184  25.366  26.788  1.00  0.00    -0.356 N 
ATOM      5  C   UNL A   1      31.434  24.036  26.675  1.00  0.00     0.225 C 
ATOM      6  O   UNL A   1      30.803  23.273  27.411  1.00  0.00    -0.275 OA
ATOM      7  H   UNL A   1      30.496  25.593  27.454  1.00  0.00     0.163 HD
BRANCH   5   8
ATOM      8  C   UNL A   1      32.458  23.471  25.712  1.00  0.00     0.107 C 
ATOM      9  N   UNL A   1      33.246  21.327  25.139  1.00  0.00    -0.339 N 
ATOM     10  C   UNL A   1      32.044  22.130  25.138  1.00  0.00     0.133 C 
ATOM     11  C   UNL A   1      34.268  21.906  25.873  1.00  0.00     0.223 C 
ATOM     12  C   UNL A   1      33.850  23.287  26.298  1.00  0.00     0.115 C 
ATOM     13  O   UNL A   1      35.349  21.410  26.152  1.00  0.00    -0.275 OA
BRANCH   9  14
ATOM     14  C   UNL A   1      33.231  19.963  24.597  1.00  0.00     0.078 C 
ATOM     15  C   UNL A   1      32.787  18.904  25.608  1.00  0.00     0.031 C 
ATOM     16  C   UNL A   1      32.389  19.878  23.326  1.00  0.00     0.031 C 
ENDBRANCH   9  14
ENDBRANCH   5   8
ENDBRANCH   3   4
ENDBRANCH   2   3
ENDBRANCH   1   2
BRANCH   1  17
ATOM     17  C   UNL A   1      33.527  29.625  26.589  1.00  0.00     0.116 C 
BRANCH  17  18
ATOM     18  N   UNL A   1      33.470  30.972  27.132  1.00  0.00    -0.352 N 
ATOM     19  C   UNL A   1      34.334  31.590  28.005  1.00  0.00     0.251 C 
ATOM     20  H   UNL A   1      32.707  31.518  26.833  1.00  0.00     0.163 HD
ATOM     21  O   UNL A   1      34.044  32.688  28.473  1.00  0.00    -0.269 OA
BRANCH  19  22
ATOM     22  C   UNL A   1      35.587  30.911  28.401  1.00  0.00     0.039 A 
ATOM     23  C   UNL A   1      36.809  31.446  27.984  1.00  0.00     0.014 A 
ATOM     24  C   UNL A   1      35.559  29.764  29.198  1.00  0.00     0.014 A 
ATOM     25  C   UNL A   1      38.002  30.865  28.419  1.00  0.00     0.010 A 
ATOM     26  C   UNL A   1      36.747  29.240  29.699  1.00  0.00     0.010 A 
ATOM     27  C   UNL A   1      37.983  29.779  29.310  1.00  0.00    -0.014 A 
BRANCH  27  28
ATOM     28  C   UNL A   1      39.242  29.177  29.824  1.00  0.00     0.031 A 
ATOM     29  C   UNL A   1      39.920  29.771  31.030  1.00  0.00     0.074 A 
ATOM     30  C   UNL A   1      39.805  28.137  29.176  1.00  0.00     0.049 A 
ATOM     31  N   UNL A   1      41.059  29.447  31.586  1.00  0.00    -0.248 NA
ATOM     32  C   UNL A   1      39.239  30.904  31.676  1.00  0.00     0.031 C 
ATOM     33  C   UNL A   1      39.263  27.497  27.976  1.00  0.00     0.029 A 
ATOM     34  N   UNL A   1      40.958  27.438  29.431  1.00  0.00    -0.354 N 
ATOM     35  C   UNL A   1      41.237  30.341  32.637  1.00  0.00     0.074 A 
ATOM     36  C   UNL A   1      40.123  31.265  32.593  1.00  0.00     0.031 C 
ATOM     37  C   UNL A   1      40.067  26.482  27.617  1.00  0.00     0.029 A 
ATOM     38  C   UNL A   1      41.207  26.430  28.527  1.00  0.00     0.049 A 
ATOM     39  H   UNL A   1      41.553  27.639  30.190  1.00  0.00     0.167 HD
ATOM     40  C   UNL A   1      42.223  30.373  33.568  1.00  0.00     0.034 A 
ATOM     41  C   UNL A   1      42.241  25.569  28.435  1.00  0.00     0.034 A 
ATOM     42  C   UNL A   1      43.320  29.437  33.603  1.00  0.00     0.049 A 
ATOM     43  C   UNL A   1      43.343  25.643  29.463  1.00  0.00     0.074 A 
ATOM     44  C   UNL A   1      44.349  29.349  34.525  1.00  0.00     0.029 A 
ATOM     45  N   UNL A   1      43.538  28.430  32.671  1.00  0.00    -0.354 N 
ATOM     46  N   UNL A   1      43.474  26.468  30.478  1.00  0.00    -0.248 NA
ATOM     47  C   UNL A   1      44.427  24.660  29.344  1.00  0.00     0.031 C 
ATOM     48  C   UNL A   1      45.226  28.343  34.110  1.00  0.00     0.029 A 
ATOM     49  C   UNL A   1      44.699  27.737  32.981  1.00  0.00     0.049 A 
ATOM     50  H   UNL A   1      42.953  28.235  31.904  1.00  0.00     0.167 HD
ATOM     51  C   UNL A   1      44.635  26.073  31.140  1.00  0.00     0.074 A 
ATOM     52  C   UNL A   1      45.156  24.933  30.416  1.00  0.00     0.031 C 
ATOM     53  C   UNL A   1      45.212  26.601  32.250  1.00  0.00     0.034 A 
BRANCH  40  54
ATOM     54  C   UNL A   1      42.166  31.472  34.604  1.00  0.00     0.023 A 
ATOM     55  C   UNL A   1      41.195  31.480  35.623  1.00  0.00     0.031 A 
ATOM     56  C   UNL A   1      43.074  32.544  34.557  1.00  0.00     0.131 A 
ATOM     57  C   UNL A   1      41.103  32.573  36.497  1.00  0.00     0.055 A 
ATOM     58  C   UNL A   1      43.034  33.585  35.488  1.00  0.00     0.041 A 
ATOM     59  F   UNL A   1      44.008  32.609  33.596  1.00  0.00    -0.206 F 
ATOM     60  C   UNL A   1      42.034  33.613  36.455  1.00  0.00     0.022 A 
BRANCH  57  61
ATOM     61  S   UNL A   1      39.654  32.694  37.581  1.00  0.00     0.124 S 
ATOM     62  O   UNL A   1      39.109  33.995  37.201  1.00  0.00    -0.237 OA
ATOM     63  O   UNL A   1      38.867  31.531  37.188  1.00  0.00    -0.237 OA
ATOM     64  O   UNL A   1      40.227  32.636  38.925  1.00  0.00    -0.744 OA
ENDBRANCH  57  61
ENDBRANCH  40  54
BRANCH  41  65
ATOM     65  C   UNL A   1      42.298  24.567  27.330  1.00  0.00     0.023 A 
ATOM     66  C   UNL A   1      41.528  23.394  27.375  1.00  0.00     0.031 A 
ATOM     67  C   UNL A   1      43.164  24.743  26.235  1.00  0.00     0.131 A 
ATOM     68  C   UNL A   1      41.676  22.419  26.377  1.00  0.00     0.055 A 
ATOM     69  C   UNL A   1      43.263  23.797  25.214  1.00  0.00     0.041 A 
ATOM     70  F   UNL A   1      43.922  25.846  26.139  1.00  0.00    -0.206 F 
ATOM     71  C   UNL A   1      42.528  22.619  25.289  1.00  0.00     0.022 A 
BRANCH  68  72
ATOM     72  S   UNL A   1      40.813  20.835  26.574  1.00  0.00     0.124 S 
ATOM     73  O   UNL A   1      40.858  20.652  28.020  1.00  0.00    -0.237 OA
ATOM     74  O   UNL A   1      39.503  21.132  26.005  1.00  0.00    -0.237 OA
ATOM     75  O   UNL A   1      41.632  19.904  25.801  1.00  0.00    -0.744 OA
ENDBRANCH  68  72
ENDBRANCH  41  65
BRANCH  53  76
ATOM     76  C   UNL A   1      46.440  25.904  32.787  1.00  0.00     0.023 A 
ATOM     77  C   UNL A   1      47.720  26.123  32.249  1.00  0.00     0.031 A 
ATOM     78  C   UNL A   1      46.320  24.993  33.853  1.00  0.00     0.131 A 
ATOM     79  C   UNL A   1      48.817  25.396  32.735  1.00  0.00     0.055 A 
ATOM     80  C   UNL A   1      47.426  24.324  34.378  1.00  0.00     0.041 A 
ATOM     81  F   UNL A   1      45.123  24.740  34.405  1.00  0.00    -0.206 F 
ATOM     82  C   UNL A   1      48.681  24.512  33.808  1.00  0.00     0.022 A 
BRANCH  79  83
ATOM     83  S   UNL A   1      50.408  25.535  31.873  1.00  0.00     0.124 S 
ATOM     84  O   UNL A   1      50.671  24.150  31.497  1.00  0.00    -0.237 OA
ATOM     85  O   UNL A   1      50.089  26.443  30.777  1.00  0.00    -0.237 OA
ATOM     86  O   UNL A   1      51.302  26.083  32.890  1.00  0.00    -0.744 OA
ENDBRANCH  79  83
ENDBRANCH  53  76
ENDBRANCH  27  28
ENDBRANCH  19  22
ENDBRANCH  17  18
ENDBRANCH   1  17
TORSDOF 15
ENDMDL
