MODEL 1
REMARK VINA RESULT:     -13.0      0.000      0.000
REMARK SMILES COC(=O)c1sc(SCC(=O)NCCCCNC(=O)c2ccc(-c3c4nc(c(-c5cc(S(=O)(=O)[O-])ccc5F)c5ccc([nH]5)c(-c5cc(S(=O)(=O)[O-])ccc5F)c5nc(c(-c6cc(S(=O)(=O)[O-])ccc6F)c6ccc3[nH]6)C=C5)C=C4)cc2)c(NC(=O)c2ccccc2)c1O
REMARK SMILES IDX 14 1 13 2 12 3 10 4 11 5 9 7 8 8 7 9 5 10 6 11 93 12 83 13
REMARK SMILES IDX 3 14 4 15 2 16 1 17 94 18 84 20 85 21 86 23 87 24 88 25
REMARK SMILES IDX 92 26 89 27 91 28 90 29 15 30 16 31 17 32 18 33 19 35 20 36
REMARK SMILES IDX 21 37 82 38 22 39 81 40 23 41 24 42 25 43 75 44 26 45 80 46
REMARK SMILES IDX 74 47 76 48 27 49 79 50 73 51 72 52 28 54 60 55 40 56 59 57
REMARK SMILES IDX 41 58 44 59 58 60 77 61 42 62 43 63 57 65 78 66 45 67 29 68
REMARK SMILES IDX 30 69 38 70 31 71 37 72 39 73 36 74 32 75 33 76 34 77 35 78
REMARK SMILES IDX 61 79 62 80 70 81 63 82 69 83 71 84 68 85 64 86 65 87 66 88
REMARK SMILES IDX 67 89 46 90 47 91 55 92 48 93 54 94 56 95 53 96 49 97 50 98
REMARK SMILES IDX 51 99 52 100
REMARK H PARENT 12 6 94 19 84 22 17 34 76 53 44 64
REMARK Flexibility Score: inf
ROOT
ATOM      1  C   UNL A   1      33.639  27.257  26.155  1.00  0.00     0.023 C 
ENDROOT
BRANCH   1   2
ATOM      2  C   UNL A   1      32.783  27.247  24.886  1.00  0.00     0.116 C 
BRANCH   2   3
ATOM      3  N   UNL A   1      33.457  27.715  23.699  1.00  0.00    -0.355 N 
ATOM      4  C   UNL A   1      33.630  27.114  22.475  1.00  0.00     0.230 C 
ATOM      5  O   UNL A   1      34.086  27.842  21.588  1.00  0.00    -0.274 OA
ATOM      6  H   UNL A   1      33.858  28.611  23.779  1.00  0.00     0.163 HD
BRANCH   4   7
ATOM      7  C   UNL A   1      33.150  25.448  22.201  1.00  0.00     0.175 C 
BRANCH   7   8
ATOM      8  S   UNL A   1      31.436  24.017  23.521  1.00  0.00    -0.103 SA
BRANCH   8   9
ATOM      9  C   UNL A   1      31.853  22.216  23.837  1.00  0.00     0.089 A 
ATOM     10  C   UNL A   1      32.302  19.778  23.461  1.00  0.00     0.157 A 
ATOM     11  S   UNL A   1      32.104  21.173  22.475  1.00  0.00    -0.116 S 
ATOM     12  C   UNL A   1      32.254  20.122  24.793  1.00  0.00     0.166 A 
ATOM     13  C   UNL A   1      32.019  21.504  25.028  1.00  0.00     0.109 A 
BRANCH  10  14
ATOM     14  C   UNL A   1      32.490  18.474  22.855  1.00  0.00     0.352 C 
ATOM     15  O   UNL A   1      32.222  18.145  21.707  1.00  0.00    -0.245 OA
BRANCH  14  16
ATOM     16  O   UNL A   1      33.043  17.627  23.782  1.00  0.00    -0.465 OA
ATOM     17  C   UNL A   1      34.104  16.791  23.310  1.00  0.00     0.282 C 
ENDBRANCH  14  16
ENDBRANCH  10  14
BRANCH  12  18
ATOM     18  O   UNL A   1      32.366  19.237  25.813  1.00  0.00    -0.504 OA
ATOM     19  H   UNL A   1      32.156  19.502  26.688  1.00  0.00     0.293 HD
ENDBRANCH  12  18
BRANCH  13  20
ATOM     20  N   UNL A   1      31.917  21.960  26.338  1.00  0.00    -0.317 N 
ATOM     21  C   UNL A   1      32.955  22.303  27.149  1.00  0.00     0.255 C 
ATOM     22  H   UNL A   1      31.011  22.040  26.714  1.00  0.00     0.170 HD
ATOM     23  O   UNL A   1      32.868  22.376  28.365  1.00  0.00    -0.269 OA
BRANCH  21  24
ATOM     24  C   UNL A   1      34.216  22.517  26.447  1.00  0.00     0.040 A 
ATOM     25  C   UNL A   1      35.202  21.059  26.123  1.00  0.00     0.014 A 
ATOM     26  C   UNL A   1      34.518  24.069  25.497  1.00  0.00     0.014 A 
ATOM     27  C   UNL A   1      36.484  21.129  24.873  1.00  0.00     0.001 A 
ATOM     28  C   UNL A   1      35.793  24.079  24.219  1.00  0.00     0.001 A 
ATOM     29  C   UNL A   1      36.763  22.603  23.915  1.00  0.00     0.000 A 
ENDBRANCH  21  24
ENDBRANCH  13  20
ENDBRANCH   8   9
ENDBRANCH   7   8
ENDBRANCH   4   7
ENDBRANCH   2   3
ENDBRANCH   1   2
BRANCH   1  30
ATOM     30  C   UNL A   1      33.782  28.566  26.929  1.00  0.00     0.023 C 
BRANCH  30  31
ATOM     31  C   UNL A   1      35.206  29.010  27.215  1.00  0.00     0.116 C 
BRANCH  31  32
ATOM     32  N   UNL A   1      35.354  29.707  28.498  1.00  0.00    -0.352 N 
ATOM     33  C   UNL A   1      36.379  29.576  29.428  1.00  0.00     0.251 C 
ATOM     34  H   UNL A   1      34.641  30.345  28.728  1.00  0.00     0.163 HD
ATOM     35  O   UNL A   1      36.201  29.881  30.601  1.00  0.00    -0.269 OA
BRANCH  33  36
ATOM     36  C   UNL A   1      37.693  29.106  28.948  1.00  0.00     0.039 A 
ATOM     37  C   UNL A   1      38.336  29.570  27.806  1.00  0.00     0.014 A 
ATOM     38  C   UNL A   1      38.322  28.188  29.773  1.00  0.00     0.014 A 
ATOM     39  C   UNL A   1      39.640  29.125  27.564  1.00  0.00     0.010 A 
ATOM     40  C   UNL A   1      39.668  28.008  29.707  1.00  0.00     0.010 A 
ATOM     41  C   UNL A   1      40.302  28.347  28.535  1.00  0.00    -0.014 A 
BRANCH  41  42
ATOM     42  C   UNL A   1      41.717  28.009  28.480  1.00  0.00     0.031 A 
ATOM     43  C   UNL A   1      41.957  26.833  27.616  1.00  0.00     0.074 A 
ATOM     44  C   UNL A   1      42.713  28.807  28.940  1.00  0.00     0.049 A 
ATOM     45  N   UNL A   1      42.062  25.610  28.012  1.00  0.00    -0.248 NA
ATOM     46  C   UNL A   1      41.768  26.966  26.160  1.00  0.00     0.031 C 
ATOM     47  C   UNL A   1      42.629  30.143  29.546  1.00  0.00     0.029 A 
ATOM     48  N   UNL A   1      44.058  28.600  28.904  1.00  0.00    -0.354 N 
ATOM     49  C   UNL A   1      42.307  24.877  26.863  1.00  0.00     0.074 A 
ATOM     50  C   UNL A   1      41.810  25.685  25.784  1.00  0.00     0.031 C 
ATOM     51  C   UNL A   1      43.866  30.695  29.628  1.00  0.00     0.029 A 
ATOM     52  C   UNL A   1      44.853  29.705  29.232  1.00  0.00     0.049 A 
ATOM     53  H   UNL A   1      44.448  27.730  28.662  1.00  0.00     0.167 HD
ATOM     54  C   UNL A   1      43.201  23.851  26.892  1.00  0.00     0.034 A 
ATOM     55  C   UNL A   1      46.220  29.781  29.202  1.00  0.00     0.034 A 
ATOM     56  C   UNL A   1      43.523  23.504  28.267  1.00  0.00     0.049 A 
ATOM     57  C   UNL A   1      46.707  28.379  29.292  1.00  0.00     0.074 A 
ATOM     58  C   UNL A   1      42.780  23.122  29.369  1.00  0.00     0.029 A 
ATOM     59  N   UNL A   1      44.720  23.967  28.777  1.00  0.00    -0.354 N 
ATOM     60  N   UNL A   1      46.524  27.638  30.350  1.00  0.00    -0.248 NA
ATOM     61  C   UNL A   1      46.884  27.648  28.047  1.00  0.00     0.031 C 
ATOM     62  C   UNL A   1      43.346  23.845  30.463  1.00  0.00     0.029 A 
ATOM     63  C   UNL A   1      44.474  24.530  30.007  1.00  0.00     0.049 A 
ATOM     64  H   UNL A   1      45.598  23.904  28.336  1.00  0.00     0.167 HD
ATOM     65  C   UNL A   1      46.106  26.410  29.859  1.00  0.00     0.074 A 
ATOM     66  C   UNL A   1      46.422  26.452  28.429  1.00  0.00     0.031 C 
ATOM     67  C   UNL A   1      45.266  25.607  30.580  1.00  0.00     0.034 A 
BRANCH  54  68
ATOM     68  C   UNL A   1      44.105  23.460  25.740  1.00  0.00     0.023 A 
ATOM     69  C   UNL A   1      44.061  22.111  25.344  1.00  0.00     0.031 A 
ATOM     70  C   UNL A   1      45.177  24.216  25.213  1.00  0.00     0.131 A 
ATOM     71  C   UNL A   1      45.102  21.543  24.595  1.00  0.00     0.055 A 
ATOM     72  C   UNL A   1      46.178  23.659  24.412  1.00  0.00     0.041 A 
ATOM     73  F   UNL A   1      45.376  25.507  25.496  1.00  0.00    -0.206 F 
ATOM     74  C   UNL A   1      46.167  22.307  24.129  1.00  0.00     0.022 A 
BRANCH  71  75
ATOM     75  S   UNL A   1      45.125  19.745  24.403  1.00  0.00     0.124 S 
ATOM     76  O   UNL A   1      44.278  19.325  25.513  1.00  0.00    -0.237 OA
ATOM     77  O   UNL A   1      44.564  19.581  23.066  1.00  0.00    -0.237 OA
ATOM     78  O   UNL A   1      46.541  19.410  24.531  1.00  0.00    -0.744 OA
ENDBRANCH  71  75
ENDBRANCH  54  68
BRANCH  55  79
ATOM     79  C   UNL A   1      47.097  30.908  28.740  1.00  0.00     0.023 A 
ATOM     80  C   UNL A   1      48.097  31.515  29.547  1.00  0.00     0.031 A 
ATOM     81  C   UNL A   1      47.144  31.212  27.362  1.00  0.00     0.131 A 
ATOM     82  C   UNL A   1      49.079  32.364  28.967  1.00  0.00     0.055 A 
ATOM     83  C   UNL A   1      48.122  32.037  26.796  1.00  0.00     0.041 A 
ATOM     84  F   UNL A   1      46.290  30.642  26.499  1.00  0.00    -0.206 F 
ATOM     85  C   UNL A   1      49.101  32.607  27.593  1.00  0.00     0.022 A 
BRANCH  82  86
ATOM     86  S   UNL A   1      50.410  33.118  29.974  1.00  0.00     0.124 S 
ATOM     87  O   UNL A   1      49.701  33.514  31.185  1.00  0.00    -0.237 OA
ATOM     88  O   UNL A   1      51.366  32.025  30.111  1.00  0.00    -0.237 OA
ATOM     89  O   UNL A   1      50.879  34.233  29.149  1.00  0.00    -0.744 OA
ENDBRANCH  82  86
ENDBRANCH  55  79
BRANCH  67  90
ATOM     90  C   UNL A   1      45.020  25.953  32.042  1.00  0.00     0.023 A 
ATOM     91  C   UNL A   1      43.880  26.621  32.556  1.00  0.00     0.031 A 
ATOM     92  C   UNL A   1      45.968  25.487  32.971  1.00  0.00     0.131 A 
ATOM     93  C   UNL A   1      43.740  26.813  33.948  1.00  0.00     0.055 A 
ATOM     94  C   UNL A   1      45.812  25.656  34.345  1.00  0.00     0.041 A 
ATOM     95  F   UNL A   1      47.060  24.827  32.553  1.00  0.00    -0.206 F 
ATOM     96  C   UNL A   1      44.702  26.327  34.840  1.00  0.00     0.022 A 
BRANCH  93  97
ATOM     97  S   UNL A   1      42.321  27.734  34.637  1.00  0.00     0.124 S 
ATOM     98  O   UNL A   1      42.809  28.198  35.930  1.00  0.00    -0.237 OA
ATOM     99  O   UNL A   1      42.095  28.769  33.631  1.00  0.00    -0.237 OA
ATOM    100  O   UNL A   1      41.264  26.723  34.714  1.00  0.00    -0.744 OA
ENDBRANCH  93  97
ENDBRANCH  67  90
ENDBRANCH  41  42
ENDBRANCH  33  36
ENDBRANCH  31  32
ENDBRANCH  30  31
ENDBRANCH   1  30
TORSDOF 21
ENDMDL
MODEL 2
REMARK VINA RESULT:     -12.8      2.152      3.031
REMARK SMILES COC(=O)c1sc(SCC(=O)NCCCCNC(=O)c2ccc(-c3c4nc(c(-c5cc(S(=O)(=O)[O-])ccc5F)c5ccc([nH]5)c(-c5cc(S(=O)(=O)[O-])ccc5F)c5nc(c(-c6cc(S(=O)(=O)[O-])ccc6F)c6ccc3[nH]6)C=C5)C=C4)cc2)c(NC(=O)c2ccccc2)c1O
REMARK SMILES IDX 14 1 13 2 12 3 10 4 11 5 9 7 8 8 7 9 5 10 6 11 93 12 83 13
REMARK SMILES IDX 3 14 4 15 2 16 1 17 94 18 84 20 85 21 86 23 87 24 88 25
REMARK SMILES IDX 92 26 89 27 91 28 90 29 15 30 16 31 17 32 18 33 19 35 20 36
REMARK SMILES IDX 21 37 82 38 22 39 81 40 23 41 24 42 25 43 75 44 26 45 80 46
REMARK SMILES IDX 74 47 76 48 27 49 79 50 73 51 72 52 28 54 60 55 40 56 59 57
REMARK SMILES IDX 41 58 44 59 58 60 77 61 42 62 43 63 57 65 78 66 45 67 29 68
REMARK SMILES IDX 30 69 38 70 31 71 37 72 39 73 36 74 32 75 33 76 34 77 35 78
REMARK SMILES IDX 61 79 62 80 70 81 63 82 69 83 71 84 68 85 64 86 65 87 66 88
REMARK SMILES IDX 67 89 46 90 47 91 55 92 48 93 54 94 56 95 53 96 49 97 50 98
REMARK SMILES IDX 51 99 52 100
REMARK H PARENT 12 6 94 19 84 22 17 34 76 53 44 64
REMARK Flexibility Score: inf
ROOT
ATOM      1  C   UNL A   1      33.799  27.775  26.346  1.00  0.00     0.023 C 
ENDROOT
BRANCH   1   2
ATOM      2  C   UNL A   1      32.413  27.558  25.733  1.00  0.00     0.116 C 
BRANCH   2   3
ATOM      3  N   UNL A   1      32.108  28.413  24.613  1.00  0.00    -0.355 N 
ATOM      4  C   UNL A   1      32.432  28.290  23.282  1.00  0.00     0.230 C 
ATOM      5  O   UNL A   1      31.866  29.084  22.524  1.00  0.00    -0.274 OA
ATOM      6  H   UNL A   1      31.583  29.216  24.836  1.00  0.00     0.163 HD
BRANCH   4   7
ATOM      7  C   UNL A   1      33.518  27.030  22.720  1.00  0.00     0.175 C 
BRANCH   7   8
ATOM      8  S   UNL A   1      33.257  24.458  22.926  1.00  0.00    -0.103 SA
BRANCH   8   9
ATOM      9  C   UNL A   1      34.307  23.567  24.199  1.00  0.00     0.089 A 
ATOM     10  C   UNL A   1      36.278  22.524  25.346  1.00  0.00     0.157 A 
ATOM     11  S   UNL A   1      36.026  23.532  23.977  1.00  0.00    -0.116 S 
ATOM     12  C   UNL A   1      35.086  22.289  25.994  1.00  0.00     0.166 A 
ATOM     13  C   UNL A   1      33.958  22.889  25.370  1.00  0.00     0.109 A 
BRANCH  10  14
ATOM     14  C   UNL A   1      37.610  22.052  25.674  1.00  0.00     0.352 C 
ATOM     15  O   UNL A   1      38.620  22.728  25.815  1.00  0.00    -0.245 OA
BRANCH  14  16
ATOM     16  O   UNL A   1      37.576  20.688  25.820  1.00  0.00    -0.465 OA
ATOM     17  C   UNL A   1      37.795  19.927  24.629  1.00  0.00     0.282 C 
ENDBRANCH  14  16
ENDBRANCH  10  14
BRANCH  12  18
ATOM     18  O   UNL A   1      34.958  21.519  27.101  1.00  0.00    -0.504 OA
ATOM     19  H   UNL A   1      34.768  20.605  27.016  1.00  0.00     0.293 HD
ENDBRANCH  12  18
BRANCH  13  20
ATOM     20  N   UNL A   1      32.696  22.690  25.919  1.00  0.00    -0.317 N 
ATOM     21  C   UNL A   1      31.813  21.717  25.563  1.00  0.00     0.255 C 
ATOM     22  H   UNL A   1      32.415  23.309  26.631  1.00  0.00     0.170 HD
ATOM     23  O   UNL A   1      30.618  21.764  25.812  1.00  0.00    -0.269 OA
BRANCH  21  24
ATOM     24  C   UNL A   1      32.402  20.629  24.790  1.00  0.00     0.040 A 
ATOM     25  C   UNL A   1      32.910  19.183  25.714  1.00  0.00     0.014 A 
ATOM     26  C   UNL A   1      32.151  20.521  22.966  1.00  0.00     0.014 A 
ATOM     27  C   UNL A   1      33.176  17.638  24.848  1.00  0.00     0.001 A 
ATOM     28  C   UNL A   1      32.393  18.933  22.141  1.00  0.00     0.001 A 
ATOM     29  C   UNL A   1      32.899  17.501  23.094  1.00  0.00     0.000 A 
ENDBRANCH  21  24
ENDBRANCH  13  20
ENDBRANCH   8   9
ENDBRANCH   7   8
ENDBRANCH   4   7
ENDBRANCH   2   3
ENDBRANCH   1   2
BRANCH   1  30
ATOM     30  C   UNL A   1      34.075  29.083  27.083  1.00  0.00     0.023 C 
BRANCH  30  31
ATOM     31  C   UNL A   1      35.523  29.328  27.471  1.00  0.00     0.116 C 
BRANCH  31  32
ATOM     32  N   UNL A   1      35.693  29.735  28.870  1.00  0.00    -0.352 N 
ATOM     33  C   UNL A   1      36.677  29.331  29.765  1.00  0.00     0.251 C 
ATOM     34  H   UNL A   1      35.029  30.373  29.218  1.00  0.00     0.163 HD
ATOM     35  O   UNL A   1      36.493  29.406  30.973  1.00  0.00    -0.269 OA
BRANCH  33  36
ATOM     36  C   UNL A   1      37.961  28.856  29.212  1.00  0.00     0.039 A 
ATOM     37  C   UNL A   1      38.629  29.435  28.138  1.00  0.00     0.014 A 
ATOM     38  C   UNL A   1      38.536  27.798  29.897  1.00  0.00     0.014 A 
ATOM     39  C   UNL A   1      39.903  28.953  27.825  1.00  0.00     0.010 A 
ATOM     40  C   UNL A   1      39.869  27.552  29.794  1.00  0.00     0.010 A 
ATOM     41  C   UNL A   1      40.521  28.012  28.674  1.00  0.00    -0.014 A 
BRANCH  41  42
ATOM     42  C   UNL A   1      41.913  27.603  28.560  1.00  0.00     0.031 A 
ATOM     43  C   UNL A   1      42.056  26.415  27.692  1.00  0.00     0.074 A 
ATOM     44  C   UNL A   1      42.966  28.352  28.973  1.00  0.00     0.049 A 
ATOM     45  N   UNL A   1      42.117  25.189  28.089  1.00  0.00    -0.248 NA
ATOM     46  C   UNL A   1      41.811  26.553  26.245  1.00  0.00     0.031 C 
ATOM     47  C   UNL A   1      42.976  29.691  29.576  1.00  0.00     0.029 A 
ATOM     48  N   UNL A   1      44.297  28.078  28.879  1.00  0.00    -0.354 N 
ATOM     49  C   UNL A   1      42.275  24.442  26.933  1.00  0.00     0.074 A 
ATOM     50  C   UNL A   1      41.773  25.271  25.873  1.00  0.00     0.031 C 
ATOM     51  C   UNL A   1      44.241  30.181  29.602  1.00  0.00     0.029 A 
ATOM     52  C   UNL A   1      45.159  29.142  29.168  1.00  0.00     0.049 A 
ATOM     53  H   UNL A   1      44.632  27.188  28.625  1.00  0.00     0.167 HD
ATOM     54  C   UNL A   1      43.117  23.372  26.928  1.00  0.00     0.034 A 
ATOM     55  C   UNL A   1      46.525  29.150  29.078  1.00  0.00     0.034 A 
ATOM     56  C   UNL A   1      43.481  23.014  28.289  1.00  0.00     0.049 A 
ATOM     57  C   UNL A   1      46.946  27.725  29.154  1.00  0.00     0.074 A 
ATOM     58  C   UNL A   1      42.768  22.672  29.425  1.00  0.00     0.029 A 
ATOM     59  N   UNL A   1      44.720  23.417  28.746  1.00  0.00    -0.354 N 
ATOM     60  N   UNL A   1      46.772  26.996  30.223  1.00  0.00    -0.248 NA
ATOM     61  C   UNL A   1      47.032  26.983  27.906  1.00  0.00     0.031 C 
ATOM     62  C   UNL A   1      43.416  23.368  30.489  1.00  0.00     0.029 A 
ATOM     63  C   UNL A   1      44.557  23.995  29.983  1.00  0.00     0.049 A 
ATOM     64  H   UNL A   1      45.574  23.309  28.267  1.00  0.00     0.167 HD
ATOM     65  C   UNL A   1      46.272  25.790  29.756  1.00  0.00     0.074 A 
ATOM     66  C   UNL A   1      46.528  25.812  28.313  1.00  0.00     0.031 C 
ATOM     67  C   UNL A   1      45.425  25.032  30.516  1.00  0.00     0.034 A 
BRANCH  54  68
ATOM     68  C   UNL A   1      43.950  22.934  25.741  1.00  0.00     0.023 A 
ATOM     69  C   UNL A   1      43.935  21.559  25.443  1.00  0.00     0.031 A 
ATOM     70  C   UNL A   1      44.947  23.690  25.082  1.00  0.00     0.131 A 
ATOM     71  C   UNL A   1      44.941  20.978  24.657  1.00  0.00     0.055 A 
ATOM     72  C   UNL A   1      45.909  23.114  24.248  1.00  0.00     0.041 A 
ATOM     73  F   UNL A   1      45.111  25.004  25.260  1.00  0.00    -0.206 F 
ATOM     74  C   UNL A   1      45.935  21.746  24.060  1.00  0.00     0.022 A 
BRANCH  71  75
ATOM     75  S   UNL A   1      45.027  19.173  24.588  1.00  0.00     0.124 S 
ATOM     76  O   UNL A   1      45.001  18.937  23.149  1.00  0.00    -0.237 OA
ATOM     77  O   UNL A   1      46.293  18.909  25.263  1.00  0.00    -0.237 OA
ATOM     78  O   UNL A   1      43.832  18.751  25.315  1.00  0.00    -0.744 OA
ENDBRANCH  71  75
ENDBRANCH  54  68
BRANCH  55  79
ATOM     79  C   UNL A   1      47.438  30.230  28.574  1.00  0.00     0.023 A 
ATOM     80  C   UNL A   1      47.037  31.242  27.661  1.00  0.00     0.031 A 
ATOM     81  C   UNL A   1      48.672  30.438  29.228  1.00  0.00     0.131 A 
ATOM     82  C   UNL A   1      47.848  32.391  27.451  1.00  0.00     0.055 A 
ATOM     83  C   UNL A   1      49.458  31.578  29.028  1.00  0.00     0.041 A 
ATOM     84  F   UNL A   1      49.114  29.579  30.158  1.00  0.00    -0.206 F 
ATOM     85  C   UNL A   1      49.044  32.565  28.148  1.00  0.00     0.022 A 
BRANCH  82  86
ATOM     86  S   UNL A   1      47.331  33.736  26.321  1.00  0.00     0.124 S 
ATOM     87  O   UNL A   1      47.175  34.866  27.230  1.00  0.00    -0.237 OA
ATOM     88  O   UNL A   1      48.442  33.809  25.380  1.00  0.00    -0.237 OA
ATOM     89  O   UNL A   1      46.079  33.241  25.744  1.00  0.00    -0.744 OA
ENDBRANCH  82  86
ENDBRANCH  55  79
BRANCH  67  90
ATOM     90  C   UNL A   1      45.261  25.393  31.985  1.00  0.00     0.023 A 
ATOM     91  C   UNL A   1      46.125  24.999  33.038  1.00  0.00     0.031 A 
ATOM     92  C   UNL A   1      44.208  26.267  32.309  1.00  0.00     0.131 A 
ATOM     93  C   UNL A   1      45.901  25.467  34.352  1.00  0.00     0.055 A 
ATOM     94  C   UNL A   1      44.006  26.747  33.602  1.00  0.00     0.041 A 
ATOM     95  F   UNL A   1      43.365  26.696  31.356  1.00  0.00    -0.206 F 
ATOM     96  C   UNL A   1      44.847  26.343  34.630  1.00  0.00     0.022 A 
BRANCH  93  97
ATOM     97  S   UNL A   1      46.952  24.921  35.742  1.00  0.00     0.124 S 
ATOM     98  O   UNL A   1      46.673  25.898  36.787  1.00  0.00    -0.237 OA
ATOM     99  O   UNL A   1      46.470  23.565  35.992  1.00  0.00    -0.237 OA
ATOM    100  O   UNL A   1      48.307  24.990  35.192  1.00  0.00    -0.744 OA
ENDBRANCH  93  97
ENDBRANCH  67  90
ENDBRANCH  41  42
ENDBRANCH  33  36
ENDBRANCH  31  32
ENDBRANCH  30  31
ENDBRANCH   1  30
TORSDOF 21
ENDMDL
MODEL 3
REMARK VINA RESULT:     -12.0      2.679      6.842
REMARK SMILES COC(=O)c1sc(SCC(=O)NCCCCNC(=O)c2ccc(-c3c4nc(c(-c5cc(S(=O)(=O)[O-])ccc5F)c5ccc([nH]5)c(-c5cc(S(=O)(=O)[O-])ccc5F)c5nc(c(-c6cc(S(=O)(=O)[O-])ccc6F)c6ccc3[nH]6)C=C5)C=C4)cc2)c(NC(=O)c2ccccc2)c1O
REMARK SMILES IDX 14 1 13 2 12 3 10 4 11 5 9 7 8 8 7 9 5 10 6 11 93 12 83 13
REMARK SMILES IDX 3 14 4 15 2 16 1 17 94 18 84 20 85 21 86 23 87 24 88 25
REMARK SMILES IDX 92 26 89 27 91 28 90 29 15 30 16 31 17 32 18 33 19 35 20 36
REMARK SMILES IDX 21 37 82 38 22 39 81 40 23 41 24 42 25 43 75 44 26 45 80 46
REMARK SMILES IDX 74 47 76 48 27 49 79 50 73 51 72 52 28 54 60 55 40 56 59 57
REMARK SMILES IDX 41 58 44 59 58 60 77 61 42 62 43 63 57 65 78 66 45 67 29 68
REMARK SMILES IDX 30 69 38 70 31 71 37 72 39 73 36 74 32 75 33 76 34 77 35 78
REMARK SMILES IDX 61 79 62 80 70 81 63 82 69 83 71 84 68 85 64 86 65 87 66 88
REMARK SMILES IDX 67 89 46 90 47 91 55 92 48 93 54 94 56 95 53 96 49 97 50 98
REMARK SMILES IDX 51 99 52 100
REMARK H PARENT 12 6 94 19 84 22 17 34 76 53 44 64
REMARK Flexibility Score: inf
ROOT
ATOM      1  C   UNL A   1      33.667  29.012  26.132  1.00  0.00     0.023 C 
ENDROOT
BRANCH   1   2
ATOM      2  C   UNL A   1      32.719  28.854  24.940  1.00  0.00     0.116 C 
BRANCH   2   3
ATOM      3  N   UNL A   1      33.355  28.438  23.714  1.00  0.00    -0.355 N 
ATOM      4  C   UNL A   1      33.496  27.187  23.162  1.00  0.00     0.230 C 
ATOM      5  O   UNL A   1      33.922  27.165  22.003  1.00  0.00    -0.274 OA
ATOM      6  H   UNL A   1      33.753  29.169  23.186  1.00  0.00     0.163 HD
BRANCH   4   7
ATOM      7  C   UNL A   1      33.019  25.743  24.040  1.00  0.00     0.175 C 
BRANCH   7   8
ATOM      8  S   UNL A   1      31.325  23.908  23.340  1.00  0.00    -0.103 SA
BRANCH   8   9
ATOM      9  C   UNL A   1      31.772  22.121  23.686  1.00  0.00     0.089 A 
ATOM     10  C   UNL A   1      32.242  19.680  23.353  1.00  0.00     0.157 A 
ATOM     11  S   UNL A   1      32.001  21.049  22.342  1.00  0.00    -0.116 S 
ATOM     12  C   UNL A   1      32.224  20.054  24.678  1.00  0.00     0.166 A 
ATOM     13  C   UNL A   1      31.978  21.438  24.888  1.00  0.00     0.109 A 
BRANCH  10  14
ATOM     14  C   UNL A   1      32.431  18.365  22.772  1.00  0.00     0.352 C 
ATOM     15  O   UNL A   1      32.213  18.027  21.616  1.00  0.00    -0.245 OA
BRANCH  14  16
ATOM     16  O   UNL A   1      32.919  17.518  23.735  1.00  0.00    -0.465 OA
ATOM     17  C   UNL A   1      34.266  17.073  23.551  1.00  0.00     0.282 C 
ENDBRANCH  14  16
ENDBRANCH  10  14
BRANCH  12  18
ATOM     18  O   UNL A   1      32.374  19.195  25.715  1.00  0.00    -0.504 OA
ATOM     19  H   UNL A   1      31.922  18.373  25.711  1.00  0.00     0.293 HD
ENDBRANCH  12  18
BRANCH  13  20
ATOM     20  N   UNL A   1      31.904  21.922  26.189  1.00  0.00    -0.317 N 
ATOM     21  C   UNL A   1      32.960  22.263  26.977  1.00  0.00     0.255 C 
ATOM     22  H   UNL A   1      31.005  22.028  26.576  1.00  0.00     0.170 HD
ATOM     23  O   UNL A   1      32.893  22.363  28.193  1.00  0.00    -0.269 OA
BRANCH  21  24
ATOM     24  C   UNL A   1      34.214  22.439  26.253  1.00  0.00     0.040 A 
ATOM     25  C   UNL A   1      34.873  24.101  26.195  1.00  0.00     0.014 A 
ATOM     26  C   UNL A   1      35.307  20.997  25.891  1.00  0.00     0.014 A 
ATOM     27  C   UNL A   1      36.597  24.347  25.778  1.00  0.00     0.001 A 
ATOM     28  C   UNL A   1      37.049  21.291  25.515  1.00  0.00     0.001 A 
ATOM     29  C   UNL A   1      37.680  22.968  25.468  1.00  0.00     0.000 A 
ENDBRANCH  21  24
ENDBRANCH  13  20
ENDBRANCH   8   9
ENDBRANCH   7   8
ENDBRANCH   4   7
ENDBRANCH   2   3
ENDBRANCH   1   2
BRANCH   1  30
ATOM     30  C   UNL A   1      33.627  30.314  26.929  1.00  0.00     0.023 C 
BRANCH  30  31
ATOM     31  C   UNL A   1      34.977  30.867  27.354  1.00  0.00     0.116 C 
BRANCH  31  32
ATOM     32  N   UNL A   1      34.907  31.735  28.534  1.00  0.00    -0.352 N 
ATOM     33  C   UNL A   1      35.721  31.714  29.661  1.00  0.00     0.251 C 
ATOM     34  H   UNL A   1      34.197  32.418  28.528  1.00  0.00     0.163 HD
ATOM     35  O   UNL A   1      35.334  32.186  30.722  1.00  0.00    -0.269 OA
BRANCH  33  36
ATOM     36  C   UNL A   1      37.078  31.148  29.523  1.00  0.00     0.039 A 
ATOM     37  C   UNL A   1      38.258  31.879  29.606  1.00  0.00     0.014 A 
ATOM     38  C   UNL A   1      37.125  29.772  29.374  1.00  0.00     0.014 A 
ATOM     39  C   UNL A   1      39.465  31.175  29.594  1.00  0.00     0.010 A 
ATOM     40  C   UNL A   1      38.258  29.083  29.673  1.00  0.00     0.010 A 
ATOM     41  C   UNL A   1      39.451  29.766  29.638  1.00  0.00    -0.014 A 
BRANCH  41  42
ATOM     42  C   UNL A   1      40.637  28.945  29.838  1.00  0.00     0.031 A 
ATOM     43  C   UNL A   1      40.797  28.570  31.259  1.00  0.00     0.074 A 
ATOM     44  C   UNL A   1      41.354  28.381  28.835  1.00  0.00     0.049 A 
ATOM     45  N   UNL A   1      41.531  29.181  32.127  1.00  0.00    -0.248 NA
ATOM     46  C   UNL A   1      39.843  27.621  31.860  1.00  0.00     0.031 C 
ATOM     47  C   UNL A   1      41.120  28.425  27.386  1.00  0.00     0.029 A 
ATOM     48  N   UNL A   1      42.448  27.574  28.918  1.00  0.00    -0.354 N 
ATOM     49  C   UNL A   1      41.386  28.457  33.298  1.00  0.00     0.074 A 
ATOM     50  C   UNL A   1      40.144  27.747  33.155  1.00  0.00     0.031 C 
ATOM     51  C   UNL A   1      41.916  27.522  26.758  1.00  0.00     0.029 A 
ATOM     52  C   UNL A   1      42.831  26.944  27.728  1.00  0.00     0.049 A 
ATOM     53  H   UNL A   1      42.939  27.442  29.760  1.00  0.00     0.167 HD
ATOM     54  C   UNL A   1      42.463  28.247  34.103  1.00  0.00     0.034 A 
ATOM     55  C   UNL A   1      43.840  26.035  27.559  1.00  0.00     0.034 A 
ATOM     56  C   UNL A   1      43.556  29.125  33.716  1.00  0.00     0.049 A 
ATOM     57  C   UNL A   1      44.773  26.248  28.697  1.00  0.00     0.074 A 
ATOM     58  C   UNL A   1      43.698  30.494  33.583  1.00  0.00     0.029 A 
ATOM     59  N   UNL A   1      44.578  28.578  32.965  1.00  0.00    -0.354 N 
ATOM     60  N   UNL A   1      45.455  27.351  28.850  1.00  0.00    -0.248 NA
ATOM     61  C   UNL A   1      44.525  25.498  29.919  1.00  0.00     0.031 C 
ATOM     62  C   UNL A   1      44.443  30.671  32.378  1.00  0.00     0.029 A 
ATOM     63  C   UNL A   1      44.826  29.415  31.902  1.00  0.00     0.049 A 
ATOM     64  H   UNL A   1      45.047  27.734  33.157  1.00  0.00     0.167 HD
ATOM     65  C   UNL A   1      45.323  27.669  30.194  1.00  0.00     0.074 A 
ATOM     66  C   UNL A   1      44.804  26.448  30.818  1.00  0.00     0.031 C 
ATOM     67  C   UNL A   1      45.344  28.968  30.619  1.00  0.00     0.034 A 
BRANCH  54  68
ATOM     68  C   UNL A   1      42.701  26.993  34.920  1.00  0.00     0.023 A 
ATOM     69  C   UNL A   1      43.556  26.032  34.350  1.00  0.00     0.031 A 
ATOM     70  C   UNL A   1      41.955  26.559  36.040  1.00  0.00     0.131 A 
ATOM     71  C   UNL A   1      43.542  24.700  34.791  1.00  0.00     0.055 A 
ATOM     72  C   UNL A   1      41.993  25.245  36.515  1.00  0.00     0.041 A 
ATOM     73  F   UNL A   1      41.087  27.338  36.692  1.00  0.00    -0.206 F 
ATOM     74  C   UNL A   1      42.760  24.296  35.868  1.00  0.00     0.022 A 
BRANCH  71  75
ATOM     75  S   UNL A   1      44.428  23.472  33.803  1.00  0.00     0.124 S 
ATOM     76  O   UNL A   1      45.582  24.241  33.352  1.00  0.00    -0.237 OA
ATOM     77  O   UNL A   1      44.692  22.430  34.790  1.00  0.00    -0.237 OA
ATOM     78  O   UNL A   1      43.465  23.117  32.763  1.00  0.00    -0.744 OA
ENDBRANCH  71  75
ENDBRANCH  54  68
BRANCH  55  79
ATOM     79  C   UNL A   1      43.866  24.788  26.723  1.00  0.00     0.023 A 
ATOM     80  C   UNL A   1      43.113  23.620  27.020  1.00  0.00     0.031 A 
ATOM     81  C   UNL A   1      44.436  24.847  25.432  1.00  0.00     0.131 A 
ATOM     82  C   UNL A   1      42.954  22.595  26.048  1.00  0.00     0.055 A 
ATOM     83  C   UNL A   1      44.262  23.841  24.476  1.00  0.00     0.041 A 
ATOM     84  F   UNL A   1      45.110  25.932  25.023  1.00  0.00    -0.206 F 
ATOM     85  C   UNL A   1      43.510  22.716  24.774  1.00  0.00     0.022 A 
BRANCH  82  86
ATOM     86  S   UNL A   1      41.946  21.103  26.385  1.00  0.00     0.124 S 
ATOM     87  O   UNL A   1      40.612  21.527  25.974  1.00  0.00    -0.237 OA
ATOM     88  O   UNL A   1      42.588  20.089  25.557  1.00  0.00    -0.237 OA
ATOM     89  O   UNL A   1      42.103  20.898  27.826  1.00  0.00    -0.744 OA
ENDBRANCH  82  86
ENDBRANCH  55  79
BRANCH  67  90
ATOM     90  C   UNL A   1      45.793  30.039  29.636  1.00  0.00     0.023 A 
ATOM     91  C   UNL A   1      44.972  30.676  28.671  1.00  0.00     0.031 A 
ATOM     92  C   UNL A   1      47.116  30.498  29.759  1.00  0.00     0.131 A 
ATOM     93  C   UNL A   1      45.496  31.712  27.867  1.00  0.00     0.055 A 
ATOM     94  C   UNL A   1      47.622  31.539  28.982  1.00  0.00     0.041 A 
ATOM     95  F   UNL A   1      47.941  29.954  30.668  1.00  0.00    -0.206 F 
ATOM     96  C   UNL A   1      46.816  32.145  28.028  1.00  0.00     0.022 A 
BRANCH  93  97
ATOM     97  S   UNL A   1      44.487  32.502  26.566  1.00  0.00     0.124 S 
ATOM     98  O   UNL A   1      43.701  33.491  27.295  1.00  0.00    -0.237 OA
ATOM     99  O   UNL A   1      45.499  33.035  25.658  1.00  0.00    -0.237 OA
ATOM    100  O   UNL A   1      43.707  31.391  26.018  1.00  0.00    -0.744 OA
ENDBRANCH  93  97
ENDBRANCH  67  90
ENDBRANCH  41  42
ENDBRANCH  33  36
ENDBRANCH  31  32
ENDBRANCH  30  31
ENDBRANCH   1  30
TORSDOF 21
ENDMDL
