MODEL 1
REMARK VINA RESULT:     -12.5      0.000      0.000
REMARK SMILES O=C(COc1ccc(Br)cc1/C=C1\C(=O)Nc2ccc(Br)cc21)NCCCCNC(=O)c1ccc(-c2c3nc(c(-c4cc(S(=O)(=O)[O-])ccc4F)c4ccc([nH]4)c(-c4cc(S(=O)(=O)[O-])ccc4F)c4nc(c(-c5cc(S(=O)(=O)[O-])ccc5F)c5ccc2[nH]5)C=C4)C=C3)cc1
REMARK SMILES IDX 26 1 25 2 24 3 1 4 2 5 3 7 4 8 5 9 6 10 11 11 7 12 10 13
REMARK SMILES IDX 8 14 9 15 12 16 13 17 14 18 23 19 15 20 16 21 17 22 22 23
REMARK SMILES IDX 18 25 20 26 19 27 21 28 27 29 28 30 29 31 30 32 31 34 32 35
REMARK SMILES IDX 33 36 94 37 34 38 93 39 35 40 36 41 37 42 87 43 38 44 92 45
REMARK SMILES IDX 86 46 88 47 39 48 91 49 85 50 84 51 40 53 72 54 52 55 71 56
REMARK SMILES IDX 53 57 56 58 70 59 89 60 54 61 55 62 69 64 90 65 57 66 41 67
REMARK SMILES IDX 42 68 50 69 43 70 49 71 51 72 48 73 44 74 45 75 46 76 47 77
REMARK SMILES IDX 73 78 74 79 82 80 75 81 81 82 83 83 80 84 76 85 77 86 78 87
REMARK SMILES IDX 79 88 58 89 59 90 67 91 60 92 66 93 68 94 65 95 61 96 62 97
REMARK SMILES IDX 63 98 64 99
REMARK H PARENT 24 6 16 24 29 33 88 52 56 63
REMARK Flexibility Score: inf
ROOT
ATOM      1  C   UNL A   1      31.448  30.396  26.129  1.00  0.00     0.023 C 
ENDROOT
BRANCH   1   2
ATOM      2  C   UNL A   1      32.459  29.594  26.945  1.00  0.00     0.116 C 
BRANCH   2   3
ATOM      3  N   UNL A   1      32.579  28.185  26.589  1.00  0.00    -0.353 N 
ATOM      4  O   UNL A   1      34.066  28.510  24.870  1.00  0.00    -0.271 OA
ATOM      5  C   UNL A   1      33.516  27.749  25.667  1.00  0.00     0.257 C 
ATOM      6  H   UNL A   1      31.981  27.528  27.013  1.00  0.00     0.163 HD
BRANCH   5   7
ATOM      7  C   UNL A   1      33.905  26.246  25.752  1.00  0.00     0.329 C 
BRANCH   7   8
ATOM      8  O   UNL A   1      34.470  25.517  24.654  1.00  0.00    -0.483 OA
BRANCH   8   9
ATOM      9  C   UNL A   1      34.145  24.180  24.553  1.00  0.00     0.127 A 
ATOM     10  C   UNL A   1      35.141  23.203  24.772  1.00  0.00     0.048 A 
ATOM     11  C   UNL A   1      32.796  23.771  24.349  1.00  0.00     0.018 A 
ATOM     12  C   UNL A   1      34.876  21.840  24.746  1.00  0.00     0.019 A 
ATOM     13  C   UNL A   1      32.573  22.380  24.390  1.00  0.00     0.027 A 
ATOM     14  C   UNL A   1      33.582  21.432  24.551  1.00  0.00     0.018 A 
ATOM     15  Br  UNL A   1      33.169  19.588  24.501  1.00  0.00    -0.051 Br
BRANCH  11  16
ATOM     16  C   UNL A   1      31.657  24.719  24.026  1.00  0.00     0.026 C 
ATOM     17  C   UNL A   1      31.535  25.611  23.005  1.00  0.00     0.050 C 
ATOM     18  C   UNL A   1      32.546  25.896  21.919  1.00  0.00     0.256 C 
ATOM     19  C   UNL A   1      30.751  26.868  23.061  1.00  0.00     0.012 A 
ATOM     20  O   UNL A   1      32.951  25.173  21.035  1.00  0.00    -0.269 OA
ATOM     21  N   UNL A   1      32.743  27.261  21.985  1.00  0.00    -0.321 N 
ATOM     22  C   UNL A   1      31.648  27.855  22.602  1.00  0.00     0.049 A 
ATOM     23  C   UNL A   1      29.424  27.211  23.237  1.00  0.00     0.026 A 
ATOM     24  H   UNL A   1      33.535  27.740  21.649  1.00  0.00     0.170 HD
ATOM     25  C   UNL A   1      31.354  29.198  22.527  1.00  0.00     0.028 A 
ATOM     26  C   UNL A   1      29.073  28.563  23.048  1.00  0.00     0.018 A 
ATOM     27  C   UNL A   1      30.033  29.555  22.761  1.00  0.00     0.018 A 
ATOM     28  Br  UNL A   1      27.247  29.072  23.042  1.00  0.00    -0.051 Br
ENDBRANCH  11  16
ENDBRANCH   8   9
ENDBRANCH   7   8
ENDBRANCH   5   7
ENDBRANCH   2   3
ENDBRANCH   1   2
BRANCH   1  29
ATOM     29  C   UNL A   1      31.215  31.829  26.594  1.00  0.00     0.023 C 
BRANCH  29  30
ATOM     30  C   UNL A   1      32.443  32.733  26.610  1.00  0.00     0.116 C 
BRANCH  30  31
ATOM     31  N   UNL A   1      32.328  33.880  27.501  1.00  0.00    -0.352 N 
ATOM     32  C   UNL A   1      33.161  34.265  28.533  1.00  0.00     0.251 C 
ATOM     33  H   UNL A   1      31.548  34.461  27.346  1.00  0.00     0.163 HD
ATOM     34  O   UNL A   1      32.856  35.220  29.242  1.00  0.00    -0.269 OA
BRANCH  32  35
ATOM     35  C   UNL A   1      34.392  33.487  28.815  1.00  0.00     0.039 A 
ATOM     36  C   UNL A   1      34.314  32.184  29.306  1.00  0.00     0.014 A 
ATOM     37  C   UNL A   1      35.640  34.097  28.653  1.00  0.00     0.014 A 
ATOM     38  C   UNL A   1      35.450  31.581  29.839  1.00  0.00     0.010 A 
ATOM     39  C   UNL A   1      36.796  33.444  29.097  1.00  0.00     0.010 A 
ATOM     40  C   UNL A   1      36.705  32.211  29.760  1.00  0.00    -0.014 A 
BRANCH  40  41
ATOM     41  C   UNL A   1      37.892  31.571  30.396  1.00  0.00     0.031 A 
ATOM     42  C   UNL A   1      38.276  31.892  31.819  1.00  0.00     0.074 A 
ATOM     43  C   UNL A   1      38.592  30.645  29.709  1.00  0.00     0.049 A 
ATOM     44  N   UNL A   1      39.253  31.399  32.539  1.00  0.00    -0.248 NA
ATOM     45  C   UNL A   1      37.465  32.895  32.529  1.00  0.00     0.031 C 
ATOM     46  C   UNL A   1      38.307  30.240  28.332  1.00  0.00     0.029 A 
ATOM     47  N   UNL A   1      39.659  29.861  30.071  1.00  0.00    -0.354 N 
ATOM     48  C   UNL A   1      39.185  32.039  33.772  1.00  0.00     0.074 A 
ATOM     49  C   UNL A   1      38.094  32.985  33.694  1.00  0.00     0.031 C 
ATOM     50  C   UNL A   1      39.135  29.243  27.988  1.00  0.00     0.029 A 
ATOM     51  C   UNL A   1      40.064  28.990  29.086  1.00  0.00     0.049 A 
ATOM     52  H   UNL A   1      40.093  29.917  30.953  1.00  0.00     0.167 HD
ATOM     53  C   UNL A   1      39.951  31.843  34.873  1.00  0.00     0.034 A 
ATOM     54  C   UNL A   1      41.073  28.095  29.056  1.00  0.00     0.034 A 
ATOM     55  C   UNL A   1      41.019  30.877  34.948  1.00  0.00     0.049 A 
ATOM     56  C   UNL A   1      41.937  27.928  30.280  1.00  0.00     0.074 A 
ATOM     57  C   UNL A   1      41.827  30.585  36.034  1.00  0.00     0.029 A 
ATOM     58  N   UNL A   1      41.428  30.048  33.913  1.00  0.00    -0.354 N 
ATOM     59  N   UNL A   1      41.827  28.511  31.450  1.00  0.00    -0.248 NA
ATOM     60  C   UNL A   1      43.060  26.986  30.184  1.00  0.00     0.031 C 
ATOM     61  C   UNL A   1      42.768  29.636  35.635  1.00  0.00     0.029 A 
ATOM     62  C   UNL A   1      42.495  29.268  34.328  1.00  0.00     0.049 A 
ATOM     63  H   UNL A   1      41.019  30.018  33.018  1.00  0.00     0.167 HD
ATOM     64  C   UNL A   1      42.850  27.986  32.237  1.00  0.00     0.074 A 
ATOM     65  C   UNL A   1      43.550  27.021  31.417  1.00  0.00     0.031 C 
ATOM     66  C   UNL A   1      43.180  28.287  33.518  1.00  0.00     0.034 A 
BRANCH  53  67
ATOM     67  C   UNL A   1      39.676  32.661  36.114  1.00  0.00     0.023 A 
ATOM     68  C   UNL A   1      38.762  32.189  37.077  1.00  0.00     0.031 A 
ATOM     69  C   UNL A   1      40.184  33.963  36.265  1.00  0.00     0.131 A 
ATOM     70  C   UNL A   1      38.347  33.030  38.117  1.00  0.00     0.055 A 
ATOM     71  C   UNL A   1      39.803  34.782  37.331  1.00  0.00     0.041 A 
ATOM     72  F   UNL A   1      41.056  34.462  35.373  1.00  0.00    -0.206 F 
ATOM     73  C   UNL A   1      38.868  34.321  38.253  1.00  0.00     0.022 A 
BRANCH  70  74
ATOM     74  S   UNL A   1      37.057  32.516  39.285  1.00  0.00     0.124 S 
ATOM     75  O   UNL A   1      37.410  31.117  39.524  1.00  0.00    -0.237 OA
ATOM     76  O   UNL A   1      37.287  33.418  40.409  1.00  0.00    -0.237 OA
ATOM     77  O   UNL A   1      35.815  32.725  38.549  1.00  0.00    -0.744 OA
ENDBRANCH  70  74
ENDBRANCH  53  67
BRANCH  54  78
ATOM     78  C   UNL A   1      41.277  27.267  27.830  1.00  0.00     0.023 A 
ATOM     79  C   UNL A   1      40.897  25.912  27.800  1.00  0.00     0.031 A 
ATOM     80  C   UNL A   1      41.953  27.786  26.713  1.00  0.00     0.131 A 
ATOM     81  C   UNL A   1      41.266  25.107  26.715  1.00  0.00     0.055 A 
ATOM     82  C   UNL A   1      42.246  26.999  25.597  1.00  0.00     0.041 A 
ATOM     83  F   UNL A   1      42.346  29.068  26.697  1.00  0.00    -0.206 F 
ATOM     84  C   UNL A   1      41.920  25.646  25.604  1.00  0.00     0.022 A 
BRANCH  81  85
ATOM     85  S   UNL A   1      41.039  23.308  26.775  1.00  0.00     0.124 S 
ATOM     86  O   UNL A   1      41.410  23.000  28.153  1.00  0.00    -0.237 OA
ATOM     87  O   UNL A   1      39.618  23.176  26.460  1.00  0.00    -0.237 OA
ATOM     88  O   UNL A   1      41.949  22.811  25.749  1.00  0.00    -0.744 OA
ENDBRANCH  81  85
ENDBRANCH  54  78
BRANCH  66  89
ATOM     89  C   UNL A   1      44.344  27.569  34.160  1.00  0.00     0.023 A 
ATOM     90  C   UNL A   1      44.154  26.295  34.729  1.00  0.00     0.031 A 
ATOM     91  C   UNL A   1      45.582  28.207  34.357  1.00  0.00     0.131 A 
ATOM     92  C   UNL A   1      45.164  25.722  35.512  1.00  0.00     0.055 A 
ATOM     93  C   UNL A   1      46.606  27.607  35.091  1.00  0.00     0.041 A 
ATOM     94  F   UNL A   1      45.808  29.427  33.845  1.00  0.00    -0.206 F 
ATOM     95  C   UNL A   1      46.394  26.366  35.686  1.00  0.00     0.022 A 
BRANCH  92  96
ATOM     96  S   UNL A   1      44.886  24.172  36.413  1.00  0.00     0.124 S 
ATOM     97  O   UNL A   1      44.765  24.642  37.792  1.00  0.00    -0.237 OA
ATOM     98  O   UNL A   1      43.649  23.684  35.810  1.00  0.00    -0.237 OA
ATOM     99  O   UNL A   1      46.078  23.380  36.129  1.00  0.00    -0.744 OA
ENDBRANCH  92  96
ENDBRANCH  66  89
ENDBRANCH  40  41
ENDBRANCH  32  35
ENDBRANCH  30  31
ENDBRANCH  29  30
ENDBRANCH   1  29
TORSDOF 17
ENDMDL
MODEL 2
REMARK VINA RESULT:     -12.3      1.981      2.351
REMARK SMILES O=C(COc1ccc(Br)cc1/C=C1\C(=O)Nc2ccc(Br)cc21)NCCCCNC(=O)c1ccc(-c2c3nc(c(-c4cc(S(=O)(=O)[O-])ccc4F)c4ccc([nH]4)c(-c4cc(S(=O)(=O)[O-])ccc4F)c4nc(c(-c5cc(S(=O)(=O)[O-])ccc5F)c5ccc2[nH]5)C=C4)C=C3)cc1
REMARK SMILES IDX 26 1 25 2 24 3 1 4 2 5 3 7 4 8 5 9 6 10 11 11 7 12 10 13
REMARK SMILES IDX 8 14 9 15 12 16 13 17 14 18 23 19 15 20 16 21 17 22 22 23
REMARK SMILES IDX 18 25 20 26 19 27 21 28 27 29 28 30 29 31 30 32 31 34 32 35
REMARK SMILES IDX 33 36 94 37 34 38 93 39 35 40 36 41 37 42 87 43 38 44 92 45
REMARK SMILES IDX 86 46 88 47 39 48 91 49 85 50 84 51 40 53 72 54 52 55 71 56
REMARK SMILES IDX 53 57 56 58 70 59 89 60 54 61 55 62 69 64 90 65 57 66 41 67
REMARK SMILES IDX 42 68 50 69 43 70 49 71 51 72 48 73 44 74 45 75 46 76 47 77
REMARK SMILES IDX 73 78 74 79 82 80 75 81 81 82 83 83 80 84 76 85 77 86 78 87
REMARK SMILES IDX 79 88 58 89 59 90 67 91 60 92 66 93 68 94 65 95 61 96 62 97
REMARK SMILES IDX 63 98 64 99
REMARK H PARENT 24 6 16 24 29 33 88 52 56 63
REMARK Flexibility Score: inf
ROOT
ATOM      1  C   UNL A   1      31.972  27.384  26.562  1.00  0.00     0.023 C 
ENDROOT
BRANCH   1   2
ATOM      2  C   UNL A   1      30.865  26.333  26.530  1.00  0.00     0.116 C 
BRANCH   2   3
ATOM      3  N   UNL A   1      31.296  24.957  26.753  1.00  0.00    -0.353 N 
ATOM      4  O   UNL A   1      29.191  24.115  27.115  1.00  0.00    -0.271 OA
ATOM      5  C   UNL A   1      30.382  23.923  26.870  1.00  0.00     0.257 C 
ATOM      6  H   UNL A   1      32.258  24.759  26.823  1.00  0.00     0.163 HD
BRANCH   5   7
ATOM      7  C   UNL A   1      30.931  22.497  26.584  1.00  0.00     0.329 C 
BRANCH   7   8
ATOM      8  O   UNL A   1      31.248  22.026  25.267  1.00  0.00    -0.483 OA
BRANCH   8   9
ATOM      9  C   UNL A   1      32.516  22.290  24.792  1.00  0.00     0.127 A 
ATOM     10  C   UNL A   1      33.566  21.388  25.072  1.00  0.00     0.048 A 
ATOM     11  C   UNL A   1      32.753  23.394  23.924  1.00  0.00     0.018 A 
ATOM     12  C   UNL A   1      34.853  21.556  24.578  1.00  0.00     0.019 A 
ATOM     13  C   UNL A   1      34.061  23.484  23.404  1.00  0.00     0.027 A 
ATOM     14  C   UNL A   1      35.096  22.614  23.741  1.00  0.00     0.018 A 
ATOM     15  Br  UNL A   1      36.832  22.890  23.046  1.00  0.00    -0.051 Br
BRANCH  11  16
ATOM     16  C   UNL A   1      31.731  24.470  23.612  1.00  0.00     0.026 C 
ATOM     17  C   UNL A   1      31.747  25.427  22.645  1.00  0.00     0.050 C 
ATOM     18  C   UNL A   1      32.834  25.669  21.623  1.00  0.00     0.256 C 
ATOM     19  C   UNL A   1      31.090  26.752  22.747  1.00  0.00     0.012 A 
ATOM     20  O   UNL A   1      33.207  24.961  20.714  1.00  0.00    -0.269 OA
ATOM     21  N   UNL A   1      33.161  27.001  21.783  1.00  0.00    -0.321 N 
ATOM     22  C   UNL A   1      32.101  27.667  22.388  1.00  0.00     0.049 A 
ATOM     23  C   UNL A   1      29.796  27.217  22.887  1.00  0.00     0.026 A 
ATOM     24  H   UNL A   1      34.011  27.416  21.511  1.00  0.00     0.170 HD
ATOM     25  C   UNL A   1      31.946  29.035  22.384  1.00  0.00     0.028 A 
ATOM     26  C   UNL A   1      29.590  28.606  22.767  1.00  0.00     0.018 A 
ATOM     27  C   UNL A   1      30.657  29.511  22.584  1.00  0.00     0.018 A 
ATOM     28  Br  UNL A   1      27.827  29.298  22.716  1.00  0.00    -0.051 Br
ENDBRANCH  11  16
ENDBRANCH   8   9
ENDBRANCH   7   8
ENDBRANCH   5   7
ENDBRANCH   2   3
ENDBRANCH   1   2
BRANCH   1  29
ATOM     29  C   UNL A   1      31.583  28.765  26.045  1.00  0.00     0.023 C 
BRANCH  29  30
ATOM     30  C   UNL A   1      32.722  29.769  25.903  1.00  0.00     0.116 C 
BRANCH  30  31
ATOM     31  N   UNL A   1      32.413  31.097  26.416  1.00  0.00    -0.352 N 
ATOM     32  C   UNL A   1      33.165  31.903  27.249  1.00  0.00     0.251 C 
ATOM     33  H   UNL A   1      31.549  31.471  26.130  1.00  0.00     0.163 HD
ATOM     34  O   UNL A   1      32.702  32.965  27.654  1.00  0.00    -0.269 OA
BRANCH  32  35
ATOM     35  C   UNL A   1      34.506  31.453  27.694  1.00  0.00     0.039 A 
ATOM     36  C   UNL A   1      34.758  30.104  27.945  1.00  0.00     0.014 A 
ATOM     37  C   UNL A   1      35.503  32.404  27.932  1.00  0.00     0.014 A 
ATOM     38  C   UNL A   1      35.909  29.737  28.637  1.00  0.00     0.010 A 
ATOM     39  C   UNL A   1      36.705  32.015  28.535  1.00  0.00     0.010 A 
ATOM     40  C   UNL A   1      36.892  30.691  28.959  1.00  0.00    -0.014 A 
BRANCH  40  41
ATOM     41  C   UNL A   1      38.084  30.280  29.755  1.00  0.00     0.031 A 
ATOM     42  C   UNL A   1      38.272  30.761  31.172  1.00  0.00     0.074 A 
ATOM     43  C   UNL A   1      38.970  29.416  29.220  1.00  0.00     0.049 A 
ATOM     44  N   UNL A   1      39.228  30.472  32.020  1.00  0.00    -0.248 NA
ATOM     45  C   UNL A   1      37.262  31.687  31.713  1.00  0.00     0.031 C 
ATOM     46  C   UNL A   1      38.887  28.870  27.865  1.00  0.00     0.029 A 
ATOM     47  N   UNL A   1      40.092  28.825  29.747  1.00  0.00    -0.354 N 
ATOM     48  C   UNL A   1      38.947  31.188  33.179  1.00  0.00     0.074 A 
ATOM     49  C   UNL A   1      37.751  31.955  32.917  1.00  0.00     0.031 C 
ATOM     50  C   UNL A   1      39.874  27.981  27.689  1.00  0.00     0.029 A 
ATOM     51  C   UNL A   1      40.712  27.950  28.885  1.00  0.00     0.049 A 
ATOM     52  H   UNL A   1      40.422  29.011  30.656  1.00  0.00     0.167 HD
ATOM     53  C   UNL A   1      39.616  31.190  34.358  1.00  0.00     0.034 A 
ATOM     54  C   UNL A   1      41.832  27.211  29.028  1.00  0.00     0.034 A 
ATOM     55  C   UNL A   1      40.793  30.398  34.616  1.00  0.00     0.049 A 
ATOM     56  C   UNL A   1      42.580  27.265  30.335  1.00  0.00     0.074 A 
ATOM     57  C   UNL A   1      41.518  30.309  35.792  1.00  0.00     0.029 A 
ATOM     58  N   UNL A   1      41.415  29.560  33.702  1.00  0.00    -0.354 N 
ATOM     59  N   UNL A   1      42.272  27.914  31.433  1.00  0.00    -0.248 NA
ATOM     60  C   UNL A   1      43.826  26.492  30.427  1.00  0.00     0.031 C 
ATOM     61  C   UNL A   1      42.615  29.480  35.568  1.00  0.00     0.029 A 
ATOM     62  C   UNL A   1      42.531  28.978  34.279  1.00  0.00     0.049 A 
ATOM     63  H   UNL A   1      41.108  29.403  32.780  1.00  0.00     0.167 HD
ATOM     64  C   UNL A   1      43.271  27.605  32.353  1.00  0.00     0.074 A 
ATOM     65  C   UNL A   1      44.177  26.691  31.691  1.00  0.00     0.031 C 
ATOM     66  C   UNL A   1      43.423  28.048  33.627  1.00  0.00     0.034 A 
BRANCH  53  67
ATOM     67  C   UNL A   1      39.105  32.050  35.490  1.00  0.00     0.023 A 
ATOM     68  C   UNL A   1      39.591  33.363  35.648  1.00  0.00     0.031 A 
ATOM     69  C   UNL A   1      38.273  31.526  36.495  1.00  0.00     0.131 A 
ATOM     70  C   UNL A   1      39.283  34.088  36.807  1.00  0.00     0.055 A 
ATOM     71  C   UNL A   1      37.930  32.270  37.627  1.00  0.00     0.041 A 
ATOM     72  F   UNL A   1      37.786  30.279  36.395  1.00  0.00    -0.206 F 
ATOM     73  C   UNL A   1      38.449  33.551  37.793  1.00  0.00     0.022 A 
BRANCH  70  74
ATOM     74  S   UNL A   1      40.014  35.718  37.119  1.00  0.00     0.124 S 
ATOM     75  O   UNL A   1      39.658  36.444  35.901  1.00  0.00    -0.237 OA
ATOM     76  O   UNL A   1      39.311  36.141  38.326  1.00  0.00    -0.237 OA
ATOM     77  O   UNL A   1      41.437  35.439  37.281  1.00  0.00    -0.744 OA
ENDBRANCH  70  74
ENDBRANCH  53  67
BRANCH  54  78
ATOM     78  C   UNL A   1      42.272  26.330  27.905  1.00  0.00     0.023 A 
ATOM     79  C   UNL A   1      41.767  25.023  27.769  1.00  0.00     0.031 A 
ATOM     80  C   UNL A   1      43.282  26.741  27.020  1.00  0.00     0.131 A 
ATOM     81  C   UNL A   1      42.329  24.152  26.827  1.00  0.00     0.055 A 
ATOM     82  C   UNL A   1      43.783  25.895  26.028  1.00  0.00     0.041 A 
ATOM     83  F   UNL A   1      43.805  27.973  27.115  1.00  0.00    -0.206 F 
ATOM     84  C   UNL A   1      43.319  24.586  25.942  1.00  0.00     0.022 A 
BRANCH  81  85
ATOM     85  S   UNL A   1      41.896  22.390  26.820  1.00  0.00     0.124 S 
ATOM     86  O   UNL A   1      42.740  21.865  27.888  1.00  0.00    -0.237 OA
ATOM     87  O   UNL A   1      40.465  22.435  27.110  1.00  0.00    -0.237 OA
ATOM     88  O   UNL A   1      42.241  21.956  25.470  1.00  0.00    -0.744 OA
ENDBRANCH  81  85
ENDBRANCH  54  78
BRANCH  66  89
ATOM     89  C   UNL A   1      44.603  27.557  34.434  1.00  0.00     0.023 A 
ATOM     90  C   UNL A   1      44.518  26.334  35.128  1.00  0.00     0.031 A 
ATOM     91  C   UNL A   1      45.731  28.367  34.652  1.00  0.00     0.131 A 
ATOM     92  C   UNL A   1      45.516  25.981  36.045  1.00  0.00     0.055 A 
ATOM     93  C   UNL A   1      46.750  27.985  35.526  1.00  0.00     0.041 A 
ATOM     94  F   UNL A   1      45.853  29.548  34.024  1.00  0.00    -0.206 F 
ATOM     95  C   UNL A   1      46.637  26.795  36.240  1.00  0.00     0.022 A 
BRANCH  92  96
ATOM     96  S   UNL A   1      45.347  24.509  37.092  1.00  0.00     0.124 S 
ATOM     97  O   UNL A   1      44.688  25.054  38.277  1.00  0.00    -0.237 OA
ATOM     98  O   UNL A   1      44.518  23.637  36.264  1.00  0.00    -0.237 OA
ATOM     99  O   UNL A   1      46.721  24.061  37.296  1.00  0.00    -0.744 OA
ENDBRANCH  92  96
ENDBRANCH  66  89
ENDBRANCH  40  41
ENDBRANCH  32  35
ENDBRANCH  30  31
ENDBRANCH  29  30
ENDBRANCH   1  29
TORSDOF 17
ENDMDL
MODEL 3
REMARK VINA RESULT:     -11.9      2.293      2.846
REMARK SMILES O=C(COc1ccc(Br)cc1/C=C1\C(=O)Nc2ccc(Br)cc21)NCCCCNC(=O)c1ccc(-c2c3nc(c(-c4cc(S(=O)(=O)[O-])ccc4F)c4ccc([nH]4)c(-c4cc(S(=O)(=O)[O-])ccc4F)c4nc(c(-c5cc(S(=O)(=O)[O-])ccc5F)c5ccc2[nH]5)C=C4)C=C3)cc1
REMARK SMILES IDX 26 1 25 2 24 3 1 4 2 5 3 7 4 8 5 9 6 10 11 11 7 12 10 13
REMARK SMILES IDX 8 14 9 15 12 16 13 17 14 18 23 19 15 20 16 21 17 22 22 23
REMARK SMILES IDX 18 25 20 26 19 27 21 28 27 29 28 30 29 31 30 32 31 34 32 35
REMARK SMILES IDX 33 36 94 37 34 38 93 39 35 40 36 41 37 42 87 43 38 44 92 45
REMARK SMILES IDX 86 46 88 47 39 48 91 49 85 50 84 51 40 53 72 54 52 55 71 56
REMARK SMILES IDX 53 57 56 58 70 59 89 60 54 61 55 62 69 64 90 65 57 66 41 67
REMARK SMILES IDX 42 68 50 69 43 70 49 71 51 72 48 73 44 74 45 75 46 76 47 77
REMARK SMILES IDX 73 78 74 79 82 80 75 81 81 82 83 83 80 84 76 85 77 86 78 87
REMARK SMILES IDX 79 88 58 89 59 90 67 91 60 92 66 93 68 94 65 95 61 96 62 97
REMARK SMILES IDX 63 98 64 99
REMARK H PARENT 24 6 16 24 29 33 88 52 56 63
REMARK Flexibility Score: inf
ROOT
ATOM      1  C   UNL A   1      31.740  27.752  27.076  1.00  0.00     0.023 C 
ENDROOT
BRANCH   1   2
ATOM      2  C   UNL A   1      30.835  26.668  26.498  1.00  0.00     0.116 C 
BRANCH   2   3
ATOM      3  N   UNL A   1      31.205  25.296  26.826  1.00  0.00    -0.353 N 
ATOM      4  O   UNL A   1      29.056  24.495  26.914  1.00  0.00    -0.271 OA
ATOM      5  C   UNL A   1      30.266  24.279  26.847  1.00  0.00     0.257 C 
ATOM      6  H   UNL A   1      32.144  25.089  27.038  1.00  0.00     0.163 HD
BRANCH   5   7
ATOM      7  C   UNL A   1      30.824  22.836  26.690  1.00  0.00     0.329 C 
BRANCH   7   8
ATOM      8  O   UNL A   1      31.134  22.247  25.421  1.00  0.00    -0.483 OA
BRANCH   8   9
ATOM      9  C   UNL A   1      32.396  22.474  24.912  1.00  0.00     0.127 A 
ATOM     10  C   UNL A   1      33.440  21.570  25.207  1.00  0.00     0.048 A 
ATOM     11  C   UNL A   1      32.631  23.540  23.997  1.00  0.00     0.018 A 
ATOM     12  C   UNL A   1      34.719  21.701  24.683  1.00  0.00     0.019 A 
ATOM     13  C   UNL A   1      33.929  23.592  23.449  1.00  0.00     0.027 A 
ATOM     14  C   UNL A   1      34.960  22.722  23.801  1.00  0.00     0.018 A 
ATOM     15  Br  UNL A   1      36.685  22.947  23.063  1.00  0.00    -0.051 Br
BRANCH  11  16
ATOM     16  C   UNL A   1      31.617  24.617  23.662  1.00  0.00     0.026 C 
ATOM     17  C   UNL A   1      31.678  25.606  22.729  1.00  0.00     0.050 C 
ATOM     18  C   UNL A   1      32.818  25.890  21.779  1.00  0.00     0.256 C 
ATOM     19  C   UNL A   1      31.002  26.921  22.835  1.00  0.00     0.012 A 
ATOM     20  O   UNL A   1      33.249  25.216  20.869  1.00  0.00    -0.269 OA
ATOM     21  N   UNL A   1      33.122  27.219  21.999  1.00  0.00    -0.321 N 
ATOM     22  C   UNL A   1      32.023  27.856  22.565  1.00  0.00     0.049 A 
ATOM     23  C   UNL A   1      29.698  27.371  22.917  1.00  0.00     0.026 A 
ATOM     24  H   UNL A   1      33.982  27.649  21.789  1.00  0.00     0.170 HD
ATOM     25  C   UNL A   1      31.854  29.222  22.596  1.00  0.00     0.028 A 
ATOM     26  C   UNL A   1      29.485  28.761  22.830  1.00  0.00     0.018 A 
ATOM     27  C   UNL A   1      30.551  29.680  22.737  1.00  0.00     0.018 A 
ATOM     28  Br  UNL A   1      27.720  29.439  22.701  1.00  0.00    -0.051 Br
ENDBRANCH  11  16
ENDBRANCH   8   9
ENDBRANCH   7   8
ENDBRANCH   5   7
ENDBRANCH   2   3
ENDBRANCH   1   2
BRANCH   1  29
ATOM     29  C   UNL A   1      31.782  29.061  26.296  1.00  0.00     0.023 C 
BRANCH  29  30
ATOM     30  C   UNL A   1      33.092  29.839  26.366  1.00  0.00     0.116 C 
BRANCH  30  31
ATOM     31  N   UNL A   1      32.967  31.166  26.953  1.00  0.00    -0.352 N 
ATOM     32  C   UNL A   1      33.878  31.866  27.720  1.00  0.00     0.251 C 
ATOM     33  H   UNL A   1      32.115  31.628  26.780  1.00  0.00     0.163 HD
ATOM     34  O   UNL A   1      33.564  32.947  28.210  1.00  0.00    -0.269 OA
BRANCH  32  35
ATOM     35  C   UNL A   1      35.212  31.280  27.996  1.00  0.00     0.039 A 
ATOM     36  C   UNL A   1      35.346  29.926  28.304  1.00  0.00     0.014 A 
ATOM     37  C   UNL A   1      36.335  32.113  28.015  1.00  0.00     0.014 A 
ATOM     38  C   UNL A   1      36.542  29.459  28.844  1.00  0.00     0.010 A 
ATOM     39  C   UNL A   1      37.564  31.613  28.461  1.00  0.00     0.010 A 
ATOM     40  C   UNL A   1      37.663  30.301  28.949  1.00  0.00    -0.014 A 
BRANCH  40  41
ATOM     41  C   UNL A   1      38.910  29.791  29.588  1.00  0.00     0.031 A 
ATOM     42  C   UNL A   1      39.328  30.268  30.957  1.00  0.00     0.074 A 
ATOM     43  C   UNL A   1      39.636  28.845  28.960  1.00  0.00     0.049 A 
ATOM     44  N   UNL A   1      40.359  29.901  31.676  1.00  0.00    -0.248 NA
ATOM     45  C   UNL A   1      38.487  31.287  31.606  1.00  0.00     0.031 C 
ATOM     46  C   UNL A   1      39.323  28.295  27.641  1.00  0.00     0.029 A 
ATOM     47  N   UNL A   1      40.761  28.160  29.347  1.00  0.00    -0.354 N 
ATOM     48  C   UNL A   1      40.301  30.652  32.846  1.00  0.00     0.074 A 
ATOM     49  C   UNL A   1      39.154  31.523  32.728  1.00  0.00     0.031 C 
ATOM     50  C   UNL A   1      40.195  27.318  27.355  1.00  0.00     0.029 A 
ATOM     51  C   UNL A   1      41.180  27.222  28.430  1.00  0.00     0.049 A 
ATOM     52  H   UNL A   1      41.225  28.324  30.200  1.00  0.00     0.167 HD
ATOM     53  C   UNL A   1      41.120  30.605  33.926  1.00  0.00     0.034 A 
ATOM     54  C   UNL A   1      42.238  26.386  28.439  1.00  0.00     0.034 A 
ATOM     55  C   UNL A   1      42.245  29.711  34.044  1.00  0.00     0.049 A 
ATOM     56  C   UNL A   1      43.156  26.385  29.634  1.00  0.00     0.074 A 
ATOM     57  C   UNL A   1      43.111  29.569  35.115  1.00  0.00     0.029 A 
ATOM     58  N   UNL A   1      42.662  28.811  33.074  1.00  0.00    -0.354 N 
ATOM     59  N   UNL A   1      43.058  27.070  30.749  1.00  0.00    -0.248 NA
ATOM     60  C   UNL A   1      44.329  25.502  29.577  1.00  0.00     0.031 C 
ATOM     61  C   UNL A   1      44.090  28.640  34.765  1.00  0.00     0.029 A 
ATOM     62  C   UNL A   1      43.790  28.135  33.511  1.00  0.00     0.049 A 
ATOM     63  H   UNL A   1      42.222  28.673  32.204  1.00  0.00     0.167 HD
ATOM     64  C   UNL A   1      44.139  26.681  31.535  1.00  0.00     0.074 A 
ATOM     65  C   UNL A   1      44.863  25.682  30.779  1.00  0.00     0.031 C 
ATOM     66  C   UNL A   1      44.500  27.121  32.767  1.00  0.00     0.034 A 
BRANCH  53  67
ATOM     67  C   UNL A   1      40.844  31.520  35.096  1.00  0.00     0.023 A 
ATOM     68  C   UNL A   1      39.740  31.274  35.935  1.00  0.00     0.031 A 
ATOM     69  C   UNL A   1      41.565  32.713  35.283  1.00  0.00     0.131 A 
ATOM     70  C   UNL A   1      39.359  32.228  36.887  1.00  0.00     0.055 A 
ATOM     71  C   UNL A   1      41.210  33.640  36.265  1.00  0.00     0.041 A 
ATOM     72  F   UNL A   1      42.625  32.997  34.508  1.00  0.00    -0.206 F 
ATOM     73  C   UNL A   1      40.093  33.406  37.061  1.00  0.00     0.022 A 
BRANCH  70  74
ATOM     74  S   UNL A   1      37.854  32.020  37.879  1.00  0.00     0.124 S 
ATOM     75  O   UNL A   1      37.012  33.104  37.376  1.00  0.00    -0.237 OA
ATOM     76  O   UNL A   1      37.427  30.675  37.506  1.00  0.00    -0.237 OA
ATOM     77  O   UNL A   1      38.315  32.179  39.253  1.00  0.00    -0.744 OA
ENDBRANCH  70  74
ENDBRANCH  53  67
BRANCH  54  78
ATOM     78  C   UNL A   1      42.444  25.457  27.288  1.00  0.00     0.023 A 
ATOM     79  C   UNL A   1      41.838  24.186  27.266  1.00  0.00     0.031 A 
ATOM     80  C   UNL A   1      43.332  25.781  26.250  1.00  0.00     0.131 A 
ATOM     81  C   UNL A   1      42.192  23.262  26.275  1.00  0.00     0.055 A 
ATOM     82  C   UNL A   1      43.619  24.885  25.218  1.00  0.00     0.041 A 
ATOM     83  F   UNL A   1      43.944  26.976  26.231  1.00  0.00    -0.206 F 
ATOM     84  C   UNL A   1      43.063  23.610  25.239  1.00  0.00     0.022 A 
BRANCH  81  85
ATOM     85  S   UNL A   1      41.648  21.535  26.382  1.00  0.00     0.124 S 
ATOM     86  O   UNL A   1      41.607  21.317  27.824  1.00  0.00    -0.237 OA
ATOM     87  O   UNL A   1      40.349  21.590  25.715  1.00  0.00    -0.237 OA
ATOM     88  O   UNL A   1      42.683  20.802  25.661  1.00  0.00    -0.744 OA
ENDBRANCH  81  85
ENDBRANCH  54  78
BRANCH  66  89
ATOM     89  C   UNL A   1      45.728  26.533  33.421  1.00  0.00     0.023 A 
ATOM     90  C   UNL A   1      47.009  26.879  32.946  1.00  0.00     0.031 A 
ATOM     91  C   UNL A   1      45.631  25.516  34.387  1.00  0.00     0.131 A 
ATOM     92  C   UNL A   1      48.134  26.177  33.398  1.00  0.00     0.055 A 
ATOM     93  C   UNL A   1      46.761  24.858  34.875  1.00  0.00     0.041 A 
ATOM     94  F   UNL A   1      44.432  25.141  34.863  1.00  0.00    -0.206 F 
ATOM     95  C   UNL A   1      48.018  25.176  34.368  1.00  0.00     0.022 A 
BRANCH  92  96
ATOM     96  S   UNL A   1      49.771  26.466  32.672  1.00  0.00     0.124 S 
ATOM     97  O   UNL A   1      49.603  27.783  32.060  1.00  0.00    -0.237 OA
ATOM     98  O   UNL A   1      50.639  26.432  33.846  1.00  0.00    -0.237 OA
ATOM     99  O   UNL A   1      49.941  25.362  31.733  1.00  0.00    -0.744 OA
ENDBRANCH  92  96
ENDBRANCH  66  89
ENDBRANCH  40  41
ENDBRANCH  32  35
ENDBRANCH  30  31
ENDBRANCH  29  30
ENDBRANCH   1  29
TORSDOF 17
ENDMDL
