MODEL 1
REMARK VINA RESULT:     -12.0      0.000      0.000
REMARK SMILES Cc1cc(SCC(=O)NCCCCNC(=O)c2ccc(-c3c4nc(c(-c5cc(S(=O)(=O)[O-])ccc5F)c5ccc([nH]5)c(-c5cc(S(=O)(=O)[O-])ccc5F)c5nc(c(-c6cc(S(=O)(=O)[O-])ccc6F)c6ccc3[nH]6)C=C5)C=C4)cc2)c2cc(C(F)(F)F)ccc2n1
REMARK SMILES IDX 11 1 10 2 9 3 7 4 8 5 6 7 5 8 4 9 1 10 2 11 3 12 90 13 89 14
REMARK SMILES IDX 80 15 88 16 81 17 87 18 82 19 83 20 84 21 85 22 86 23 12 24
REMARK SMILES IDX 13 25 14 26 15 27 16 29 17 30 18 31 79 32 19 33 78 34 20 35
REMARK SMILES IDX 21 36 22 37 72 38 23 39 77 40 71 41 73 42 24 43 76 44 70 45
REMARK SMILES IDX 69 46 25 48 57 49 37 50 56 51 38 52 41 53 55 54 74 55 39 56
REMARK SMILES IDX 40 57 54 59 75 60 42 61 26 62 27 63 35 64 28 65 34 66 36 67
REMARK SMILES IDX 33 68 29 69 30 70 31 71 32 72 58 73 59 74 67 75 60 76 66 77
REMARK SMILES IDX 68 78 65 79 61 80 62 81 63 82 64 83 43 84 44 85 52 86 45 87
REMARK SMILES IDX 51 88 53 89 50 90 46 91 47 92 48 93 49 94
REMARK H PARENT 9 6 14 28 73 47 41 58
REMARK Flexibility Score: inf
ROOT
ATOM      1  C   UNL A   1      31.538  27.930  27.074  1.00  0.00     0.023 C 
ENDROOT
BRANCH   1   2
ATOM      2  C   UNL A   1      31.632  26.726  26.136  1.00  0.00     0.116 C 
BRANCH   2   3
ATOM      3  N   UNL A   1      30.714  25.675  26.529  1.00  0.00    -0.355 N 
ATOM      4  C   UNL A   1      30.941  24.347  26.721  1.00  0.00     0.230 C 
ATOM      5  O   UNL A   1      29.978  23.631  27.012  1.00  0.00    -0.274 OA
ATOM      6  H   UNL A   1      29.785  25.965  26.679  1.00  0.00     0.163 HD
BRANCH   4   7
ATOM      7  C   UNL A   1      32.343  23.769  26.678  1.00  0.00     0.174 C 
BRANCH   7   8
ATOM      8  S   UNL A   1      32.824  23.010  25.094  1.00  0.00    -0.115 SA
BRANCH   8   9
ATOM      9  C   UNL A   1      34.549  22.508  25.265  1.00  0.00     0.019 A 
ATOM     10  C   UNL A   1      37.962  23.927  26.071  1.00  0.00     0.067 C 
ATOM     11  C   UNL A   1      36.860  22.980  25.703  1.00  0.00     0.039 A 
ATOM     12  C   UNL A   1      35.556  23.426  25.562  1.00  0.00     0.039 A 
ATOM     13  N   UNL A   1      37.214  21.694  25.496  1.00  0.00    -0.253 NA
ATOM     14  C   UNL A   1      36.267  20.805  25.175  1.00  0.00     0.072 A 
ATOM     15  C   UNL A   1      34.903  21.142  25.050  1.00  0.00     0.014 A 
ATOM     16  C   UNL A   1      36.668  19.494  24.954  1.00  0.00     0.029 A 
ATOM     17  C   UNL A   1      33.993  20.100  24.711  1.00  0.00     0.024 A 
ATOM     18  C   UNL A   1      35.766  18.486  24.610  1.00  0.00     0.015 A 
ATOM     19  C   UNL A   1      34.410  18.778  24.485  1.00  0.00     0.056 A 
BRANCH  19  20
ATOM     20  C   UNL A   1      33.403  17.717  24.117  1.00  0.00     0.416 C 
ATOM     21  F   UNL A   1      33.262  16.771  25.085  1.00  0.00    -0.166 F 
ATOM     22  F   UNL A   1      32.157  18.231  23.915  1.00  0.00    -0.166 F 
ATOM     23  F   UNL A   1      33.712  17.043  22.975  1.00  0.00    -0.166 F 
ENDBRANCH  19  20
ENDBRANCH   8   9
ENDBRANCH   7   8
ENDBRANCH   4   7
ENDBRANCH   2   3
ENDBRANCH   1   2
BRANCH   1  24
ATOM     24  C   UNL A   1      31.695  29.293  26.389  1.00  0.00     0.023 C 
BRANCH  24  25
ATOM     25  C   UNL A   1      33.088  29.911  26.460  1.00  0.00     0.116 C 
BRANCH  25  26
ATOM     26  N   UNL A   1      33.069  31.311  26.853  1.00  0.00    -0.352 N 
ATOM     27  C   UNL A   1      33.959  31.998  27.642  1.00  0.00     0.251 C 
ATOM     28  H   UNL A   1      32.314  31.838  26.505  1.00  0.00     0.163 HD
ATOM     29  O   UNL A   1      33.711  33.155  27.975  1.00  0.00    -0.269 OA
BRANCH  27  30
ATOM     30  C   UNL A   1      35.192  31.332  28.118  1.00  0.00     0.039 A 
ATOM     31  C   UNL A   1      36.400  32.033  28.077  1.00  0.00     0.014 A 
ATOM     32  C   UNL A   1      35.154  30.028  28.619  1.00  0.00     0.014 A 
ATOM     33  C   UNL A   1      37.557  31.456  28.607  1.00  0.00     0.010 A 
ATOM     34  C   UNL A   1      36.294  29.478  29.203  1.00  0.00     0.010 A 
ATOM     35  C   UNL A   1      37.505  30.189  29.210  1.00  0.00    -0.014 A 
BRANCH  35  36
ATOM     36  C   UNL A   1      38.699  29.586  29.860  1.00  0.00     0.031 A 
ATOM     37  C   UNL A   1      39.154  30.086  31.204  1.00  0.00     0.074 A 
ATOM     38  C   UNL A   1      39.417  28.650  29.208  1.00  0.00     0.049 A 
ATOM     39  N   UNL A   1      40.241  29.794  31.873  1.00  0.00    -0.248 NA
ATOM     40  C   UNL A   1      38.283  31.067  31.866  1.00  0.00     0.031 C 
ATOM     41  C   UNL A   1      39.091  28.100  27.890  1.00  0.00     0.029 A 
ATOM     42  N   UNL A   1      40.581  28.008  29.555  1.00  0.00    -0.354 N 
ATOM     43  C   UNL A   1      40.191  30.566  33.030  1.00  0.00     0.074 A 
ATOM     44  C   UNL A   1      38.996  31.377  32.938  1.00  0.00     0.031 C 
ATOM     45  C   UNL A   1      40.025  27.198  27.547  1.00  0.00     0.029 A 
ATOM     46  C   UNL A   1      41.042  27.140  28.592  1.00  0.00     0.049 A 
ATOM     47  H   UNL A   1      41.042  28.156  30.413  1.00  0.00     0.167 HD
ATOM     48  C   UNL A   1      41.052  30.582  34.077  1.00  0.00     0.034 A 
ATOM     49  C   UNL A   1      42.167  26.398  28.548  1.00  0.00     0.034 A 
ATOM     50  C   UNL A   1      42.235  29.759  34.157  1.00  0.00     0.049 A 
ATOM     51  C   UNL A   1      43.131  26.461  29.706  1.00  0.00     0.074 A 
ATOM     52  C   UNL A   1      43.155  29.667  35.189  1.00  0.00     0.029 A 
ATOM     53  N   UNL A   1      42.666  28.887  33.166  1.00  0.00    -0.354 N 
ATOM     54  N   UNL A   1      43.056  27.176  30.805  1.00  0.00    -0.248 NA
ATOM     55  C   UNL A   1      44.327  25.611  29.621  1.00  0.00     0.031 C 
ATOM     56  C   UNL A   1      44.170  28.787  34.796  1.00  0.00     0.029 A 
ATOM     57  C   UNL A   1      43.850  28.274  33.550  1.00  0.00     0.049 A 
ATOM     58  H   UNL A   1      42.199  28.727  32.313  1.00  0.00     0.167 HD
ATOM     59  C   UNL A   1      44.178  26.835  31.555  1.00  0.00     0.074 A 
ATOM     60  C   UNL A   1      44.908  25.846  30.789  1.00  0.00     0.031 C 
ATOM     61  C   UNL A   1      44.567  27.291  32.773  1.00  0.00     0.034 A 
BRANCH  48  62
ATOM     62  C   UNL A   1      40.751  31.538  35.205  1.00  0.00     0.023 A 
ATOM     63  C   UNL A   1      39.677  31.322  36.086  1.00  0.00     0.031 A 
ATOM     64  C   UNL A   1      41.525  32.699  35.383  1.00  0.00     0.131 A 
ATOM     65  C   UNL A   1      39.356  32.289  37.051  1.00  0.00     0.055 A 
ATOM     66  C   UNL A   1      41.250  33.617  36.400  1.00  0.00     0.041 A 
ATOM     67  F   UNL A   1      42.551  32.971  34.562  1.00  0.00    -0.206 F 
ATOM     68  C   UNL A   1      40.150  33.423  37.231  1.00  0.00     0.022 A 
BRANCH  65  69
ATOM     69  S   UNL A   1      37.800  32.114  37.965  1.00  0.00     0.124 S 
ATOM     70  O   UNL A   1      38.230  32.395  39.334  1.00  0.00    -0.237 OA
ATOM     71  O   UNL A   1      36.953  33.125  37.343  1.00  0.00    -0.237 OA
ATOM     72  O   UNL A   1      37.408  30.728  37.714  1.00  0.00    -0.744 OA
ENDBRANCH  65  69
ENDBRANCH  48  62
BRANCH  49  73
ATOM     73  C   UNL A   1      42.463  25.544  27.362  1.00  0.00     0.023 A 
ATOM     74  C   UNL A   1      42.069  24.198  27.327  1.00  0.00     0.031 A 
ATOM     75  C   UNL A   1      43.189  26.048  26.268  1.00  0.00     0.131 A 
ATOM     76  C   UNL A   1      42.444  23.386  26.245  1.00  0.00     0.055 A 
ATOM     77  C   UNL A   1      43.514  25.250  25.169  1.00  0.00     0.041 A 
ATOM     78  F   UNL A   1      43.587  27.330  26.249  1.00  0.00    -0.206 F 
ATOM     79  C   UNL A   1      43.154  23.906  25.160  1.00  0.00     0.022 A 
BRANCH  76  80
ATOM     80  S   UNL A   1      42.067  21.614  26.319  1.00  0.00     0.124 S 
ATOM     81  O   UNL A   1      40.647  21.598  25.987  1.00  0.00    -0.237 OA
ATOM     82  O   UNL A   1      42.969  21.070  25.309  1.00  0.00    -0.237 OA
ATOM     83  O   UNL A   1      42.390  21.255  27.698  1.00  0.00    -0.744 OA
ENDBRANCH  76  80
ENDBRANCH  49  73
BRANCH  61  84
ATOM     84  C   UNL A   1      45.807  26.677  33.372  1.00  0.00     0.023 A 
ATOM     85  C   UNL A   1      45.757  25.502  34.141  1.00  0.00     0.031 A 
ATOM     86  C   UNL A   1      47.059  27.283  33.167  1.00  0.00     0.131 A 
ATOM     87  C   UNL A   1      46.932  24.994  34.716  1.00  0.00     0.055 A 
ATOM     88  C   UNL A   1      48.232  26.745  33.699  1.00  0.00     0.041 A 
ATOM     89  F   UNL A   1      47.163  28.408  32.442  1.00  0.00    -0.206 F 
ATOM     90  C   UNL A   1      48.170  25.600  34.487  1.00  0.00     0.022 A 
BRANCH  87  91
ATOM     91  S   UNL A   1      46.813  23.566  35.828  1.00  0.00     0.124 S 
ATOM     92  O   UNL A   1      47.680  23.967  36.931  1.00  0.00    -0.237 OA
ATOM     93  O   UNL A   1      45.385  23.519  36.125  1.00  0.00    -0.237 OA
ATOM     94  O   UNL A   1      47.312  22.456  35.017  1.00  0.00    -0.744 OA
ENDBRANCH  87  91
ENDBRANCH  61  84
ENDBRANCH  35  36
ENDBRANCH  27  30
ENDBRANCH  25  26
ENDBRANCH  24  25
ENDBRANCH   1  24
TORSDOF 17
ENDMDL
MODEL 2
REMARK VINA RESULT:     -12.0      3.108      8.537
REMARK SMILES Cc1cc(SCC(=O)NCCCCNC(=O)c2ccc(-c3c4nc(c(-c5cc(S(=O)(=O)[O-])ccc5F)c5ccc([nH]5)c(-c5cc(S(=O)(=O)[O-])ccc5F)c5nc(c(-c6cc(S(=O)(=O)[O-])ccc6F)c6ccc3[nH]6)C=C5)C=C4)cc2)c2cc(C(F)(F)F)ccc2n1
REMARK SMILES IDX 11 1 10 2 9 3 7 4 8 5 6 7 5 8 4 9 1 10 2 11 3 12 90 13 89 14
REMARK SMILES IDX 80 15 88 16 81 17 87 18 82 19 83 20 84 21 85 22 86 23 12 24
REMARK SMILES IDX 13 25 14 26 15 27 16 29 17 30 18 31 79 32 19 33 78 34 20 35
REMARK SMILES IDX 21 36 22 37 72 38 23 39 77 40 71 41 73 42 24 43 76 44 70 45
REMARK SMILES IDX 69 46 25 48 57 49 37 50 56 51 38 52 41 53 55 54 74 55 39 56
REMARK SMILES IDX 40 57 54 59 75 60 42 61 26 62 27 63 35 64 28 65 34 66 36 67
REMARK SMILES IDX 33 68 29 69 30 70 31 71 32 72 58 73 59 74 67 75 60 76 66 77
REMARK SMILES IDX 68 78 65 79 61 80 62 81 63 82 64 83 43 84 44 85 52 86 45 87
REMARK SMILES IDX 51 88 53 89 50 90 46 91 47 92 48 93 49 94
REMARK H PARENT 9 6 14 28 73 47 41 58
REMARK Flexibility Score: inf
ROOT
ATOM      1  C   UNL A   1      32.067  30.126  26.454  1.00  0.00     0.023 C 
ENDROOT
BRANCH   1   2
ATOM      2  C   UNL A   1      31.604  29.583  25.102  1.00  0.00     0.116 C 
BRANCH   2   3
ATOM      3  N   UNL A   1      32.713  29.437  24.180  1.00  0.00    -0.355 N 
ATOM      4  C   UNL A   1      33.551  28.382  23.988  1.00  0.00     0.230 C 
ATOM      5  O   UNL A   1      34.464  28.511  23.166  1.00  0.00    -0.274 OA
ATOM      6  H   UNL A   1      32.888  30.218  23.607  1.00  0.00     0.163 HD
BRANCH   4   7
ATOM      7  C   UNL A   1      33.325  27.053  24.681  1.00  0.00     0.174 C 
BRANCH   7   8
ATOM      8  S   UNL A   1      32.326  25.848  23.750  1.00  0.00    -0.115 SA
BRANCH   8   9
ATOM      9  C   UNL A   1      32.064  24.438  24.845  1.00  0.00     0.019 A 
ATOM     10  C   UNL A   1      29.452  22.932  27.130  1.00  0.00     0.067 C 
ATOM     11  C   UNL A   1      30.727  23.164  26.377  1.00  0.00     0.039 A 
ATOM     12  C   UNL A   1      30.882  24.278  25.568  1.00  0.00     0.039 A 
ATOM     13  N   UNL A   1      31.705  22.252  26.551  1.00  0.00    -0.253 NA
ATOM     14  C   UNL A   1      32.861  22.407  25.893  1.00  0.00     0.072 A 
ATOM     15  C   UNL A   1      33.108  23.479  25.011  1.00  0.00     0.014 A 
ATOM     16  C   UNL A   1      33.851  21.458  26.108  1.00  0.00     0.029 A 
ATOM     17  C   UNL A   1      34.378  23.525  24.366  1.00  0.00     0.024 A 
ATOM     18  C   UNL A   1      35.096  21.523  25.478  1.00  0.00     0.015 A 
ATOM     19  C   UNL A   1      35.375  22.563  24.594  1.00  0.00     0.056 A 
BRANCH  19  20
ATOM     20  C   UNL A   1      36.706  22.669  23.892  1.00  0.00     0.416 C 
ATOM     21  F   UNL A   1      36.578  22.752  22.540  1.00  0.00    -0.166 F 
ATOM     22  F   UNL A   1      37.406  23.776  24.269  1.00  0.00    -0.166 F 
ATOM     23  F   UNL A   1      37.533  21.612  24.127  1.00  0.00    -0.166 F 
ENDBRANCH  19  20
ENDBRANCH   8   9
ENDBRANCH   7   8
ENDBRANCH   4   7
ENDBRANCH   2   3
ENDBRANCH   1   2
BRANCH   1  24
ATOM     24  C   UNL A   1      31.795  31.618  26.676  1.00  0.00     0.023 C 
BRANCH  24  25
ATOM     25  C   UNL A   1      32.928  32.407  27.325  1.00  0.00     0.116 C 
BRANCH  25  26
ATOM     26  N   UNL A   1      32.561  33.779  27.634  1.00  0.00    -0.352 N 
ATOM     27  C   UNL A   1      33.097  34.626  28.575  1.00  0.00     0.251 C 
ATOM     28  H   UNL A   1      31.827  34.153  27.095  1.00  0.00     0.163 HD
ATOM     29  O   UNL A   1      32.569  35.715  28.785  1.00  0.00    -0.269 OA
BRANCH  27  30
ATOM     30  C   UNL A   1      34.281  34.205  29.357  1.00  0.00     0.039 A 
ATOM     31  C   UNL A   1      34.088  33.557  30.580  1.00  0.00     0.014 A 
ATOM     32  C   UNL A   1      35.574  34.432  28.880  1.00  0.00     0.014 A 
ATOM     33  C   UNL A   1      35.190  33.070  31.289  1.00  0.00     0.010 A 
ATOM     34  C   UNL A   1      36.666  33.893  29.556  1.00  0.00     0.010 A 
ATOM     35  C   UNL A   1      36.485  33.199  30.764  1.00  0.00    -0.014 A 
BRANCH  35  36
ATOM     36  C   UNL A   1      37.667  32.615  31.452  1.00  0.00     0.031 A 
ATOM     37  C   UNL A   1      38.400  31.457  30.832  1.00  0.00     0.074 A 
ATOM     38  C   UNL A   1      38.029  33.071  32.667  1.00  0.00     0.049 A 
ATOM     39  N   UNL A   1      39.359  30.720  31.330  1.00  0.00    -0.248 NA
ATOM     40  C   UNL A   1      37.972  31.060  29.483  1.00  0.00     0.031 C 
ATOM     41  C   UNL A   1      37.384  34.173  33.384  1.00  0.00     0.029 A 
ATOM     42  N   UNL A   1      39.018  32.653  33.525  1.00  0.00    -0.354 N 
ATOM     43  C   UNL A   1      39.643  29.762  30.361  1.00  0.00     0.074 A 
ATOM     44  C   UNL A   1      38.712  29.982  29.274  1.00  0.00     0.031 C 
ATOM     45  C   UNL A   1      37.999  34.350  34.565  1.00  0.00     0.029 A 
ATOM     46  C   UNL A   1      39.048  33.346  34.714  1.00  0.00     0.049 A 
ATOM     47  H   UNL A   1      39.645  31.926  33.310  1.00  0.00     0.167 HD
ATOM     48  C   UNL A   1      40.601  28.803  30.370  1.00  0.00     0.034 A 
ATOM     49  C   UNL A   1      39.818  33.177  35.807  1.00  0.00     0.034 A 
ATOM     50  C   UNL A   1      41.528  28.603  31.458  1.00  0.00     0.049 A 
ATOM     51  C   UNL A   1      40.851  32.078  35.812  1.00  0.00     0.074 A 
ATOM     52  C   UNL A   1      42.562  27.687  31.554  1.00  0.00     0.029 A 
ATOM     53  N   UNL A   1      41.532  29.329  32.643  1.00  0.00    -0.354 N 
ATOM     54  N   UNL A   1      41.124  31.198  34.877  1.00  0.00    -0.248 NA
ATOM     55  C   UNL A   1      41.683  31.955  37.016  1.00  0.00     0.031 C 
ATOM     56  C   UNL A   1      43.151  27.819  32.818  1.00  0.00     0.029 A 
ATOM     57  C   UNL A   1      42.532  28.864  33.483  1.00  0.00     0.049 A 
ATOM     58  H   UNL A   1      40.914  30.065  32.855  1.00  0.00     0.167 HD
ATOM     59  C   UNL A   1      42.183  30.440  35.368  1.00  0.00     0.074 A 
ATOM     60  C   UNL A   1      42.503  30.970  36.677  1.00  0.00     0.031 C 
ATOM     61  C   UNL A   1      42.838  29.403  34.788  1.00  0.00     0.034 A 
BRANCH  48  62
ATOM     62  C   UNL A   1      40.672  27.886  29.173  1.00  0.00     0.023 A 
ATOM     63  C   UNL A   1      41.610  28.089  28.145  1.00  0.00     0.031 A 
ATOM     64  C   UNL A   1      39.771  26.814  29.039  1.00  0.00     0.131 A 
ATOM     65  C   UNL A   1      41.572  27.287  26.995  1.00  0.00     0.055 A 
ATOM     66  C   UNL A   1      39.794  25.967  27.928  1.00  0.00     0.041 A 
ATOM     67  F   UNL A   1      38.841  26.581  29.978  1.00  0.00    -0.206 F 
ATOM     68  C   UNL A   1      40.688  26.212  26.889  1.00  0.00     0.022 A 
BRANCH  65  69
ATOM     69  S   UNL A   1      42.595  27.765  25.575  1.00  0.00     0.124 S 
ATOM     70  O   UNL A   1      41.873  28.931  25.071  1.00  0.00    -0.237 OA
ATOM     71  O   UNL A   1      43.888  28.034  26.194  1.00  0.00    -0.237 OA
ATOM     72  O   UNL A   1      42.549  26.589  24.708  1.00  0.00    -0.744 OA
ENDBRANCH  65  69
ENDBRANCH  48  62
BRANCH  49  73
ATOM     73  C   UNL A   1      39.637  34.051  37.002  1.00  0.00     0.023 A 
ATOM     74  C   UNL A   1      39.035  33.557  38.170  1.00  0.00     0.031 A 
ATOM     75  C   UNL A   1      40.017  35.404  36.977  1.00  0.00     0.131 A 
ATOM     76  C   UNL A   1      38.784  34.421  39.248  1.00  0.00     0.055 A 
ATOM     77  C   UNL A   1      39.814  36.247  38.071  1.00  0.00     0.041 A 
ATOM     78  F   UNL A   1      40.601  35.926  35.887  1.00  0.00    -0.206 F 
ATOM     79  C   UNL A   1      39.180  35.760  39.211  1.00  0.00     0.022 A 
BRANCH  76  80
ATOM     80  S   UNL A   1      37.849  33.789  40.667  1.00  0.00     0.124 S 
ATOM     81  O   UNL A   1      37.498  35.020  41.365  1.00  0.00    -0.237 OA
ATOM     82  O   UNL A   1      36.750  33.084  40.015  1.00  0.00    -0.237 OA
ATOM     83  O   UNL A   1      38.813  32.933  41.355  1.00  0.00    -0.744 OA
ENDBRANCH  76  80
ENDBRANCH  49  73
BRANCH  61  84
ATOM     84  C   UNL A   1      44.004  28.818  35.543  1.00  0.00     0.023 A 
ATOM     85  C   UNL A   1      43.861  27.697  36.380  1.00  0.00     0.031 A 
ATOM     86  C   UNL A   1      45.280  29.396  35.422  1.00  0.00     0.131 A 
ATOM     87  C   UNL A   1      44.966  27.217  37.098  1.00  0.00     0.055 A 
ATOM     88  C   UNL A   1      46.387  28.882  36.099  1.00  0.00     0.041 A 
ATOM     89  F   UNL A   1      45.472  30.468  34.637  1.00  0.00    -0.206 F 
ATOM     90  C   UNL A   1      46.230  27.793  36.952  1.00  0.00     0.022 A 
BRANCH  87  91
ATOM     91  S   UNL A   1      44.716  25.869  38.285  1.00  0.00     0.124 S 
ATOM     92  O   UNL A   1      43.771  25.012  37.578  1.00  0.00    -0.237 OA
ATOM     93  O   UNL A   1      46.066  25.336  38.442  1.00  0.00    -0.237 OA
ATOM     94  O   UNL A   1      44.180  26.545  39.466  1.00  0.00    -0.744 OA
ENDBRANCH  87  91
ENDBRANCH  61  84
ENDBRANCH  35  36
ENDBRANCH  27  30
ENDBRANCH  25  26
ENDBRANCH  24  25
ENDBRANCH   1  24
TORSDOF 17
ENDMDL
MODEL 3
REMARK VINA RESULT:     -11.7      3.146      4.159
REMARK SMILES Cc1cc(SCC(=O)NCCCCNC(=O)c2ccc(-c3c4nc(c(-c5cc(S(=O)(=O)[O-])ccc5F)c5ccc([nH]5)c(-c5cc(S(=O)(=O)[O-])ccc5F)c5nc(c(-c6cc(S(=O)(=O)[O-])ccc6F)c6ccc3[nH]6)C=C5)C=C4)cc2)c2cc(C(F)(F)F)ccc2n1
REMARK SMILES IDX 11 1 10 2 9 3 7 4 8 5 6 7 5 8 4 9 1 10 2 11 3 12 90 13 89 14
REMARK SMILES IDX 80 15 88 16 81 17 87 18 82 19 83 20 84 21 85 22 86 23 12 24
REMARK SMILES IDX 13 25 14 26 15 27 16 29 17 30 18 31 79 32 19 33 78 34 20 35
REMARK SMILES IDX 21 36 22 37 72 38 23 39 77 40 71 41 73 42 24 43 76 44 70 45
REMARK SMILES IDX 69 46 25 48 57 49 37 50 56 51 38 52 41 53 55 54 74 55 39 56
REMARK SMILES IDX 40 57 54 59 75 60 42 61 26 62 27 63 35 64 28 65 34 66 36 67
REMARK SMILES IDX 33 68 29 69 30 70 31 71 32 72 58 73 59 74 67 75 60 76 66 77
REMARK SMILES IDX 68 78 65 79 61 80 62 81 63 82 64 83 43 84 44 85 52 86 45 87
REMARK SMILES IDX 51 88 53 89 50 90 46 91 47 92 48 93 49 94
REMARK H PARENT 9 6 14 28 73 47 41 58
REMARK Flexibility Score: inf
ROOT
ATOM      1  C   UNL A   1      32.018  30.380  26.610  1.00  0.00     0.023 C 
ENDROOT
BRANCH   1   2
ATOM      2  C   UNL A   1      31.469  29.875  25.275  1.00  0.00     0.116 C 
BRANCH   2   3
ATOM      3  N   UNL A   1      32.533  29.645  24.317  1.00  0.00    -0.355 N 
ATOM      4  C   UNL A   1      33.092  28.476  23.902  1.00  0.00     0.230 C 
ATOM      5  O   UNL A   1      34.030  28.536  23.101  1.00  0.00    -0.274 OA
ATOM      6  H   UNL A   1      32.908  30.457  23.905  1.00  0.00     0.163 HD
BRANCH   4   7
ATOM      7  C   UNL A   1      32.529  27.133  24.326  1.00  0.00     0.174 C 
BRANCH   7   8
ATOM      8  S   UNL A   1      33.365  26.349  25.740  1.00  0.00    -0.115 SA
BRANCH   8   9
ATOM      9  C   UNL A   1      32.671  24.691  25.897  1.00  0.00     0.019 A 
ATOM     10  C   UNL A   1      29.572  22.901  27.127  1.00  0.00     0.067 C 
ATOM     11  C   UNL A   1      30.930  23.175  26.553  1.00  0.00     0.039 A 
ATOM     12  C   UNL A   1      31.423  24.468  26.480  1.00  0.00     0.039 A 
ATOM     13  N   UNL A   1      31.640  22.104  26.145  1.00  0.00    -0.253 NA
ATOM     14  C   UNL A   1      32.855  22.294  25.616  1.00  0.00     0.072 A 
ATOM     15  C   UNL A   1      33.434  23.570  25.452  1.00  0.00     0.014 A 
ATOM     16  C   UNL A   1      33.564  21.167  25.220  1.00  0.00     0.029 A 
ATOM     17  C   UNL A   1      34.731  23.637  24.868  1.00  0.00     0.024 A 
ATOM     18  C   UNL A   1      34.840  21.248  24.660  1.00  0.00     0.015 A 
ATOM     19  C   UNL A   1      35.442  22.491  24.475  1.00  0.00     0.056 A 
BRANCH  19  20
ATOM     20  C   UNL A   1      36.818  22.621  23.872  1.00  0.00     0.416 C 
ATOM     21  F   UNL A   1      37.590  21.522  24.089  1.00  0.00    -0.166 F 
ATOM     22  F   UNL A   1      36.779  22.788  22.520  1.00  0.00    -0.166 F 
ATOM     23  F   UNL A   1      37.527  23.680  24.354  1.00  0.00    -0.166 F 
ENDBRANCH  19  20
ENDBRANCH   8   9
ENDBRANCH   7   8
ENDBRANCH   4   7
ENDBRANCH   2   3
ENDBRANCH   1   2
BRANCH   1  24
ATOM     24  C   UNL A   1      31.808  31.877  26.867  1.00  0.00     0.023 C 
BRANCH  24  25
ATOM     25  C   UNL A   1      33.053  32.657  27.276  1.00  0.00     0.116 C 
BRANCH  25  26
ATOM     26  N   UNL A   1      32.751  33.986  27.784  1.00  0.00    -0.352 N 
ATOM     27  C   UNL A   1      33.284  34.638  28.870  1.00  0.00     0.251 C 
ATOM     28  H   UNL A   1      32.069  34.487  27.279  1.00  0.00     0.163 HD
ATOM     29  O   UNL A   1      32.810  35.713  29.227  1.00  0.00    -0.269 OA
BRANCH  27  30
ATOM     30  C   UNL A   1      34.398  34.023  29.626  1.00  0.00     0.039 A 
ATOM     31  C   UNL A   1      34.102  33.181  30.701  1.00  0.00     0.014 A 
ATOM     32  C   UNL A   1      35.727  34.261  29.267  1.00  0.00     0.014 A 
ATOM     33  C   UNL A   1      35.135  32.518  31.369  1.00  0.00     0.010 A 
ATOM     34  C   UNL A   1      36.750  33.554  29.893  1.00  0.00     0.010 A 
ATOM     35  C   UNL A   1      36.465  32.669  30.945  1.00  0.00    -0.014 A 
BRANCH  35  36
ATOM     36  C   UNL A   1      37.576  31.910  31.580  1.00  0.00     0.031 A 
ATOM     37  C   UNL A   1      38.054  32.290  32.954  1.00  0.00     0.074 A 
ATOM     38  C   UNL A   1      38.205  30.938  30.891  1.00  0.00     0.049 A 
ATOM     39  N   UNL A   1      39.090  31.853  33.623  1.00  0.00    -0.248 NA
ATOM     40  C   UNL A   1      37.277  33.323  33.654  1.00  0.00     0.031 C 
ATOM     41  C   UNL A   1      37.850  30.493  29.541  1.00  0.00     0.029 A 
ATOM     42  N   UNL A   1      39.288  30.160  31.221  1.00  0.00    -0.354 N 
ATOM     43  C   UNL A   1      39.098  32.565  34.818  1.00  0.00     0.074 A 
ATOM     44  C   UNL A   1      37.997  33.502  34.752  1.00  0.00     0.031 C 
ATOM     45  C   UNL A   1      38.691  29.515  29.165  1.00  0.00     0.029 A 
ATOM     46  C   UNL A   1      39.674  29.297  30.220  1.00  0.00     0.049 A 
ATOM     47  H   UNL A   1      39.744  30.215  32.091  1.00  0.00     0.167 HD
ATOM     48  C   UNL A   1      39.935  32.437  35.878  1.00  0.00     0.034 A 
ATOM     49  C   UNL A   1      40.716  28.444  30.154  1.00  0.00     0.034 A 
ATOM     50  C   UNL A   1      41.024  31.491  35.932  1.00  0.00     0.049 A 
ATOM     51  C   UNL A   1      41.658  28.346  31.328  1.00  0.00     0.074 A 
ATOM     52  C   UNL A   1      41.908  31.250  36.970  1.00  0.00     0.029 A 
ATOM     53  N   UNL A   1      41.381  30.629  34.902  1.00  0.00    -0.354 N 
ATOM     54  N   UNL A   1      41.636  29.008  32.461  1.00  0.00    -0.248 NA
ATOM     55  C   UNL A   1      42.759  27.380  31.215  1.00  0.00     0.031 C 
ATOM     56  C   UNL A   1      42.833  30.289  36.547  1.00  0.00     0.029 A 
ATOM     57  C   UNL A   1      42.485  29.876  35.271  1.00  0.00     0.049 A 
ATOM     58  H   UNL A   1      40.917  30.563  34.036  1.00  0.00     0.167 HD
ATOM     59  C   UNL A   1      42.701  28.513  33.209  1.00  0.00     0.074 A 
ATOM     60  C   UNL A   1      43.339  27.493  32.402  1.00  0.00     0.031 C 
ATOM     61  C   UNL A   1      43.111  28.863  34.454  1.00  0.00     0.034 A 
BRANCH  48  62
ATOM     62  C   UNL A   1      39.714  33.362  37.049  1.00  0.00     0.023 A 
ATOM     63  C   UNL A   1      40.476  34.531  37.218  1.00  0.00     0.031 A 
ATOM     64  C   UNL A   1      38.752  33.056  38.030  1.00  0.00     0.131 A 
ATOM     65  C   UNL A   1      40.323  35.306  38.377  1.00  0.00     0.055 A 
ATOM     66  C   UNL A   1      38.547  33.879  39.140  1.00  0.00     0.041 A 
ATOM     67  F   UNL A   1      38.007  31.944  37.934  1.00  0.00    -0.206 F 
ATOM     68  C   UNL A   1      39.346  35.003  39.328  1.00  0.00     0.022 A 
BRANCH  65  69
ATOM     69  S   UNL A   1      41.520  36.631  38.695  1.00  0.00     0.124 S 
ATOM     70  O   UNL A   1      42.331  36.044  39.761  1.00  0.00    -0.237 OA
ATOM     71  O   UNL A   1      42.177  36.780  37.402  1.00  0.00    -0.237 OA
ATOM     72  O   UNL A   1      40.685  37.757  39.107  1.00  0.00    -0.744 OA
ENDBRANCH  65  69
ENDBRANCH  48  62
BRANCH  49  73
ATOM     73  C   UNL A   1      40.945  27.625  28.929  1.00  0.00     0.023 A 
ATOM     74  C   UNL A   1      41.958  27.960  28.017  1.00  0.00     0.031 A 
ATOM     75  C   UNL A   1      40.123  26.524  28.626  1.00  0.00     0.131 A 
ATOM     76  C   UNL A   1      42.094  27.236  26.822  1.00  0.00     0.055 A 
ATOM     77  C   UNL A   1      40.295  25.774  27.462  1.00  0.00     0.041 A 
ATOM     78  F   UNL A   1      39.141  26.158  29.466  1.00  0.00    -0.206 F 
ATOM     79  C   UNL A   1      41.277  26.138  26.544  1.00  0.00     0.022 A 
BRANCH  76  80
ATOM     80  S   UNL A   1      43.298  27.808  25.593  1.00  0.00     0.124 S 
ATOM     81  O   UNL A   1      42.487  27.856  24.382  1.00  0.00    -0.237 OA
ATOM     82  O   UNL A   1      43.705  29.096  26.146  1.00  0.00    -0.237 OA
ATOM     83  O   UNL A   1      44.326  26.769  25.616  1.00  0.00    -0.744 OA
ENDBRANCH  76  80
ENDBRANCH  49  73
BRANCH  61  84
ATOM     84  C   UNL A   1      44.268  28.093  35.038  1.00  0.00     0.023 A 
ATOM     85  C   UNL A   1      44.092  26.837  35.645  1.00  0.00     0.031 A 
ATOM     86  C   UNL A   1      45.566  28.628  34.985  1.00  0.00     0.131 A 
ATOM     87  C   UNL A   1      45.192  26.179  36.216  1.00  0.00     0.055 A 
ATOM     88  C   UNL A   1      46.665  27.945  35.508  1.00  0.00     0.041 A 
ATOM     89  F   UNL A   1      45.789  29.824  34.417  1.00  0.00    -0.206 F 
ATOM     90  C   UNL A   1      46.479  26.718  36.138  1.00  0.00     0.022 A 
BRANCH  87  91
ATOM     91  S   UNL A   1      44.910  24.635  37.126  1.00  0.00     0.124 S 
ATOM     92  O   UNL A   1      44.560  25.126  38.455  1.00  0.00    -0.237 OA
ATOM     93  O   UNL A   1      43.827  24.018  36.368  1.00  0.00    -0.237 OA
ATOM     94  O   UNL A   1      46.196  23.944  37.038  1.00  0.00    -0.744 OA
ENDBRANCH  87  91
ENDBRANCH  61  84
ENDBRANCH  35  36
ENDBRANCH  27  30
ENDBRANCH  25  26
ENDBRANCH  24  25
ENDBRANCH   1  24
TORSDOF 17
ENDMDL
