MODEL 1
REMARK VINA RESULT:     -10.6      0.000      0.000
REMARK SMILES O=C(NCCCCNC(=O)c1nc2c(F)cccc2s1)c1ccc(-c2c3nc(c(-c4cc(S(=O)(=O)[O-])ccc4F)c4ccc([nH]4)c(-c4cc(S(=O)(=O)[O-])ccc4F)c4nc(c(-c5cc(S(=O)(=O)[O-])ccc5F)c5ccc2[nH]5)C=C4)C=C3)cc1
REMARK SMILES IDX 4 1 3 2 1 3 2 4 21 6 22 7 83 8 23 9 82 10 24 11 25 12 26 13
REMARK SMILES IDX 76 14 27 15 81 16 75 17 77 18 28 19 80 20 74 21 73 22 29 24
REMARK SMILES IDX 61 25 41 26 60 27 42 28 45 29 59 30 78 31 43 32 44 33 58 35
REMARK SMILES IDX 79 36 46 37 30 38 31 39 39 40 32 41 38 42 40 43 37 44 33 45
REMARK SMILES IDX 34 46 35 47 36 48 62 49 63 50 71 51 64 52 70 53 72 54 69 55
REMARK SMILES IDX 65 56 66 57 67 58 68 59 47 60 48 61 56 62 49 63 55 64 57 65
REMARK SMILES IDX 54 66 50 67 51 68 52 69 53 70 5 71 6 72 7 73 8 74 9 75 10 77
REMARK SMILES IDX 11 78 12 79 20 80 13 81 19 82 14 83 18 84 15 85 16 86 17 87
REMARK H PARENT 3 5 77 23 45 34 8 76
REMARK Flexibility Score: inf
ROOT
ATOM      1  C   UNL A   1      35.296  33.719  31.218  1.00  0.00     0.116 C 
ENDROOT
BRANCH   1   2
ATOM      2  N   UNL A   1      35.432  33.832  29.778  1.00  0.00    -0.352 N 
ATOM      3  O   UNL A   1      35.861  33.377  27.650  1.00  0.00    -0.269 OA
ATOM      4  C   UNL A   1      36.112  33.112  28.828  1.00  0.00     0.251 C 
ATOM      5  H   UNL A   1      34.925  34.587  29.401  1.00  0.00     0.163 HD
BRANCH   4   6
ATOM      6  C   UNL A   1      37.177  32.122  29.138  1.00  0.00     0.039 A 
ATOM      7  C   UNL A   1      38.411  32.439  29.702  1.00  0.00     0.014 A 
ATOM      8  C   UNL A   1      36.915  30.783  28.795  1.00  0.00     0.014 A 
ATOM      9  C   UNL A   1      39.416  31.485  29.771  1.00  0.00     0.010 A 
ATOM     10  C   UNL A   1      37.905  29.808  28.907  1.00  0.00     0.010 A 
ATOM     11  C   UNL A   1      39.173  30.177  29.346  1.00  0.00    -0.014 A 
BRANCH  11  12
ATOM     12  C   UNL A   1      40.279  29.234  29.472  1.00  0.00     0.031 A 
ATOM     13  C   UNL A   1      40.648  28.849  30.863  1.00  0.00     0.074 A 
ATOM     14  C   UNL A   1      40.905  28.659  28.430  1.00  0.00     0.049 A 
ATOM     15  N   UNL A   1      41.751  29.071  31.504  1.00  0.00    -0.248 NA
ATOM     16  C   UNL A   1      39.601  28.201  31.665  1.00  0.00     0.031 C 
ATOM     17  C   UNL A   1      40.490  28.625  27.026  1.00  0.00     0.029 A 
ATOM     18  N   UNL A   1      42.023  27.881  28.448  1.00  0.00    -0.354 N 
ATOM     19  C   UNL A   1      41.602  28.457  32.748  1.00  0.00     0.074 A 
ATOM     20  C   UNL A   1      40.221  28.044  32.834  1.00  0.00     0.031 C 
ATOM     21  C   UNL A   1      41.216  27.688  26.377  1.00  0.00     0.029 A 
ATOM     22  C   UNL A   1      42.233  27.171  27.280  1.00  0.00     0.049 A 
ATOM     23  H   UNL A   1      42.627  27.827  29.223  1.00  0.00     0.167 HD
ATOM     24  C   UNL A   1      42.646  28.183  33.579  1.00  0.00     0.034 A 
ATOM     25  C   UNL A   1      43.117  26.160  27.106  1.00  0.00     0.034 A 
ATOM     26  C   UNL A   1      43.845  28.870  33.201  1.00  0.00     0.049 A 
ATOM     27  C   UNL A   1      44.138  26.232  28.178  1.00  0.00     0.074 A 
ATOM     28  C   UNL A   1      44.245  30.189  33.152  1.00  0.00     0.029 A 
ATOM     29  N   UNL A   1      44.788  28.164  32.498  1.00  0.00    -0.354 N 
ATOM     30  N   UNL A   1      45.045  27.162  28.282  1.00  0.00    -0.248 NA
ATOM     31  C   UNL A   1      43.928  25.432  29.376  1.00  0.00     0.031 C 
ATOM     32  C   UNL A   1      45.154  30.265  32.059  1.00  0.00     0.029 A 
ATOM     33  C   UNL A   1      45.260  28.985  31.508  1.00  0.00     0.049 A 
ATOM     34  H   UNL A   1      45.072  27.237  32.674  1.00  0.00     0.167 HD
ATOM     35  C   UNL A   1      45.219  27.338  29.646  1.00  0.00     0.074 A 
ATOM     36  C   UNL A   1      44.610  26.163  30.259  1.00  0.00     0.031 C 
ATOM     37  C   UNL A   1      45.593  28.543  30.168  1.00  0.00     0.034 A 
BRANCH  24  38
ATOM     38  C   UNL A   1      42.644  27.071  34.595  1.00  0.00     0.023 A 
ATOM     39  C   UNL A   1      43.443  25.923  34.440  1.00  0.00     0.031 A 
ATOM     40  C   UNL A   1      42.003  27.218  35.841  1.00  0.00     0.131 A 
ATOM     41  C   UNL A   1      43.538  24.956  35.447  1.00  0.00     0.055 A 
ATOM     42  C   UNL A   1      42.158  26.285  36.877  1.00  0.00     0.041 A 
ATOM     43  F   UNL A   1      41.245  28.293  36.106  1.00  0.00    -0.206 F 
ATOM     44  C   UNL A   1      42.920  25.140  36.679  1.00  0.00     0.022 A 
BRANCH  41  45
ATOM     45  S   UNL A   1      44.470  23.427  35.157  1.00  0.00     0.124 S 
ATOM     46  O   UNL A   1      43.465  22.581  34.523  1.00  0.00    -0.237 OA
ATOM     47  O   UNL A   1      45.546  23.897  34.288  1.00  0.00    -0.237 OA
ATOM     48  O   UNL A   1      44.888  23.027  36.497  1.00  0.00    -0.744 OA
ENDBRANCH  41  45
ENDBRANCH  24  38
BRANCH  25  49
ATOM     49  C   UNL A   1      42.878  24.921  26.333  1.00  0.00     0.023 A 
ATOM     50  C   UNL A   1      41.854  24.036  26.722  1.00  0.00     0.031 A 
ATOM     51  C   UNL A   1      43.817  24.451  25.401  1.00  0.00     0.131 A 
ATOM     52  C   UNL A   1      41.811  22.729  26.224  1.00  0.00     0.055 A 
ATOM     53  C   UNL A   1      43.770  23.146  24.897  1.00  0.00     0.041 A 
ATOM     54  F   UNL A   1      44.836  25.231  25.010  1.00  0.00    -0.206 F 
ATOM     55  C   UNL A   1      42.768  22.274  25.317  1.00  0.00     0.022 A 
BRANCH  52  56
ATOM     56  S   UNL A   1      40.519  21.588  26.789  1.00  0.00     0.124 S 
ATOM     57  O   UNL A   1      40.852  20.356  26.078  1.00  0.00    -0.237 OA
ATOM     58  O   UNL A   1      40.749  21.566  28.229  1.00  0.00    -0.237 OA
ATOM     59  O   UNL A   1      39.285  22.235  26.349  1.00  0.00    -0.744 OA
ENDBRANCH  52  56
ENDBRANCH  25  49
BRANCH  37  60
ATOM     60  C   UNL A   1      46.118  29.609  29.236  1.00  0.00     0.023 A 
ATOM     61  C   UNL A   1      45.176  30.374  28.523  1.00  0.00     0.031 A 
ATOM     62  C   UNL A   1      47.471  29.733  28.871  1.00  0.00     0.131 A 
ATOM     63  C   UNL A   1      45.590  31.201  27.472  1.00  0.00     0.055 A 
ATOM     64  C   UNL A   1      47.886  30.610  27.865  1.00  0.00     0.041 A 
ATOM     65  F   UNL A   1      48.414  28.949  29.411  1.00  0.00    -0.206 F 
ATOM     66  C   UNL A   1      46.943  31.340  27.149  1.00  0.00     0.022 A 
BRANCH  63  67
ATOM     67  S   UNL A   1      44.371  32.013  26.404  1.00  0.00     0.124 S 
ATOM     68  O   UNL A   1      43.421  30.935  26.141  1.00  0.00    -0.237 OA
ATOM     69  O   UNL A   1      43.878  33.086  27.263  1.00  0.00    -0.237 OA
ATOM     70  O   UNL A   1      45.148  32.452  25.249  1.00  0.00    -0.744 OA
ENDBRANCH  63  67
ENDBRANCH  37  60
ENDBRANCH  11  12
ENDBRANCH   4   6
ENDBRANCH   1   2
BRANCH   1  71
ATOM     71  C   UNL A   1      35.415  32.307  31.793  1.00  0.00     0.023 C 
BRANCH  71  72
ATOM     72  C   UNL A   1      36.346  32.155  32.994  1.00  0.00     0.023 C 
BRANCH  72  73
ATOM     73  C   UNL A   1      37.333  30.998  32.923  1.00  0.00     0.116 C 
BRANCH  73  74
ATOM     74  N   UNL A   1      37.615  30.389  34.213  1.00  0.00    -0.350 N 
ATOM     75  C   UNL A   1      38.658  30.681  35.080  1.00  0.00     0.280 C 
ATOM     76  H   UNL A   1      36.991  29.687  34.506  1.00  0.00     0.163 HD
ATOM     77  O   UNL A   1      38.715  30.071  36.140  1.00  0.00    -0.267 OA
BRANCH  75  78
ATOM     78  C   UNL A   1      39.628  31.685  34.663  1.00  0.00     0.182 A 
ATOM     79  N   UNL A   1      40.404  31.541  33.610  1.00  0.00    -0.228 NA
ATOM     80  S   UNL A   1      39.781  33.162  35.517  1.00  0.00    -0.109 S 
ATOM     81  C   UNL A   1      41.042  32.744  33.340  1.00  0.00     0.118 A 
ATOM     82  C   UNL A   1      40.774  33.773  34.248  1.00  0.00     0.058 A 
ATOM     83  C   UNL A   1      41.886  33.033  32.246  1.00  0.00     0.150 A 
ATOM     84  C   UNL A   1      41.274  35.074  34.072  1.00  0.00     0.021 A 
ATOM     85  F   UNL A   1      42.200  32.081  31.354  1.00  0.00    -0.205 F 
ATOM     86  C   UNL A   1      42.388  34.321  32.055  1.00  0.00     0.041 A 
ATOM     87  C   UNL A   1      42.073  35.335  32.954  1.00  0.00     0.005 A 
ENDBRANCH  75  78
ENDBRANCH  73  74
ENDBRANCH  72  73
ENDBRANCH  71  72
ENDBRANCH   1  71
TORSDOF 14
ENDMDL
MODEL 2
REMARK VINA RESULT:     -10.4      3.127     10.088
REMARK SMILES O=C(NCCCCNC(=O)c1nc2c(F)cccc2s1)c1ccc(-c2c3nc(c(-c4cc(S(=O)(=O)[O-])ccc4F)c4ccc([nH]4)c(-c4cc(S(=O)(=O)[O-])ccc4F)c4nc(c(-c5cc(S(=O)(=O)[O-])ccc5F)c5ccc2[nH]5)C=C4)C=C3)cc1
REMARK SMILES IDX 4 1 3 2 1 3 2 4 21 6 22 7 83 8 23 9 82 10 24 11 25 12 26 13
REMARK SMILES IDX 76 14 27 15 81 16 75 17 77 18 28 19 80 20 74 21 73 22 29 24
REMARK SMILES IDX 61 25 41 26 60 27 42 28 45 29 59 30 78 31 43 32 44 33 58 35
REMARK SMILES IDX 79 36 46 37 30 38 31 39 39 40 32 41 38 42 40 43 37 44 33 45
REMARK SMILES IDX 34 46 35 47 36 48 62 49 63 50 71 51 64 52 70 53 72 54 69 55
REMARK SMILES IDX 65 56 66 57 67 58 68 59 47 60 48 61 56 62 49 63 55 64 57 65
REMARK SMILES IDX 54 66 50 67 51 68 52 69 53 70 5 71 6 72 7 73 8 74 9 75 10 77
REMARK SMILES IDX 11 78 12 79 20 80 13 81 19 82 14 83 18 84 15 85 16 86 17 87
REMARK H PARENT 3 5 77 23 45 34 8 76
REMARK Flexibility Score: inf
ROOT
ATOM      1  C   UNL A   1      43.258  23.262  24.590  1.00  0.00     0.116 C 
ENDROOT
BRANCH   1   2
ATOM      2  N   UNL A   1      42.409  22.359  25.344  1.00  0.00    -0.352 N 
ATOM      3  O   UNL A   1      40.770  21.547  26.600  1.00  0.00    -0.269 OA
ATOM      4  C   UNL A   1      41.431  22.541  26.291  1.00  0.00     0.251 C 
ATOM      5  H   UNL A   1      42.567  21.411  25.131  1.00  0.00     0.163 HD
BRANCH   4   6
ATOM      6  C   UNL A   1      41.197  23.820  27.010  1.00  0.00     0.039 A 
ATOM      7  C   UNL A   1      40.217  24.750  26.668  1.00  0.00     0.014 A 
ATOM      8  C   UNL A   1      42.059  24.111  28.083  1.00  0.00     0.014 A 
ATOM      9  C   UNL A   1      40.201  26.002  27.267  1.00  0.00     0.010 A 
ATOM     10  C   UNL A   1      42.017  25.348  28.722  1.00  0.00     0.010 A 
ATOM     11  C   UNL A   1      41.119  26.312  28.273  1.00  0.00    -0.014 A 
BRANCH  11  12
ATOM     12  C   UNL A   1      41.018  27.644  28.860  1.00  0.00     0.031 A 
ATOM     13  C   UNL A   1      41.995  28.650  28.359  1.00  0.00     0.074 A 
ATOM     14  C   UNL A   1      40.070  28.012  29.742  1.00  0.00     0.049 A 
ATOM     15  N   UNL A   1      42.940  29.259  29.002  1.00  0.00    -0.248 NA
ATOM     16  C   UNL A   1      41.953  28.947  26.920  1.00  0.00     0.031 C 
ATOM     17  C   UNL A   1      38.838  27.306  30.098  1.00  0.00     0.029 A 
ATOM     18  N   UNL A   1      39.980  29.179  30.438  1.00  0.00    -0.354 N 
ATOM     19  C   UNL A   1      43.523  30.135  28.087  1.00  0.00     0.074 A 
ATOM     20  C   UNL A   1      42.957  29.814  26.799  1.00  0.00     0.031 C 
ATOM     21  C   UNL A   1      38.025  28.156  30.764  1.00  0.00     0.029 A 
ATOM     22  C   UNL A   1      38.737  29.401  31.004  1.00  0.00     0.049 A 
ATOM     23  H   UNL A   1      40.730  29.809  30.529  1.00  0.00     0.167 HD
ATOM     24  C   UNL A   1      44.325  31.176  28.452  1.00  0.00     0.034 A 
ATOM     25  C   UNL A   1      38.299  30.564  31.541  1.00  0.00     0.034 A 
ATOM     26  C   UNL A   1      44.762  31.082  29.812  1.00  0.00     0.049 A 
ATOM     27  C   UNL A   1      39.473  31.411  31.860  1.00  0.00     0.074 A 
ATOM     28  C   UNL A   1      45.574  30.225  30.524  1.00  0.00     0.029 A 
ATOM     29  N   UNL A   1      44.099  31.837  30.747  1.00  0.00    -0.354 N 
ATOM     30  N   UNL A   1      40.336  31.165  32.805  1.00  0.00    -0.248 NA
ATOM     31  C   UNL A   1      39.900  32.387  30.868  1.00  0.00     0.031 C 
ATOM     32  C   UNL A   1      45.031  30.201  31.840  1.00  0.00     0.029 A 
ATOM     33  C   UNL A   1      43.922  31.051  31.856  1.00  0.00     0.049 A 
ATOM     34  H   UNL A   1      43.804  32.770  30.639  1.00  0.00     0.167 HD
ATOM     35  C   UNL A   1      41.547  31.625  32.310  1.00  0.00     0.074 A 
ATOM     36  C   UNL A   1      41.193  32.480  31.182  1.00  0.00     0.031 C 
ATOM     37  C   UNL A   1      42.732  31.058  32.682  1.00  0.00     0.034 A 
BRANCH  24  38
ATOM     38  C   UNL A   1      44.496  32.431  27.636  1.00  0.00     0.023 A 
ATOM     39  C   UNL A   1      43.824  33.624  27.959  1.00  0.00     0.031 A 
ATOM     40  C   UNL A   1      45.490  32.528  26.641  1.00  0.00     0.131 A 
ATOM     41  C   UNL A   1      44.087  34.820  27.282  1.00  0.00     0.055 A 
ATOM     42  C   UNL A   1      45.804  33.742  26.014  1.00  0.00     0.041 A 
ATOM     43  F   UNL A   1      46.214  31.458  26.281  1.00  0.00    -0.206 F 
ATOM     44  C   UNL A   1      45.094  34.895  26.325  1.00  0.00     0.022 A 
BRANCH  41  45
ATOM     45  S   UNL A   1      43.106  36.303  27.635  1.00  0.00     0.124 S 
ATOM     46  O   UNL A   1      41.784  35.905  27.164  1.00  0.00    -0.237 OA
ATOM     47  O   UNL A   1      43.256  36.419  29.084  1.00  0.00    -0.237 OA
ATOM     48  O   UNL A   1      43.775  37.344  26.860  1.00  0.00    -0.744 OA
ENDBRANCH  41  45
ENDBRANCH  24  38
BRANCH  25  49
ATOM     49  C   UNL A   1      36.940  31.130  31.397  1.00  0.00     0.023 A 
ATOM     50  C   UNL A   1      36.414  31.375  30.114  1.00  0.00     0.031 A 
ATOM     51  C   UNL A   1      36.268  31.699  32.490  1.00  0.00     0.131 A 
ATOM     52  C   UNL A   1      35.289  32.191  29.947  1.00  0.00     0.055 A 
ATOM     53  C   UNL A   1      35.138  32.509  32.323  1.00  0.00     0.041 A 
ATOM     54  F   UNL A   1      36.732  31.531  33.737  1.00  0.00    -0.206 F 
ATOM     55  C   UNL A   1      34.650  32.767  31.045  1.00  0.00     0.022 A 
BRANCH  52  56
ATOM     56  S   UNL A   1      34.668  32.544  28.279  1.00  0.00     0.124 S 
ATOM     57  O   UNL A   1      33.646  33.558  28.531  1.00  0.00    -0.237 OA
ATOM     58  O   UNL A   1      35.872  33.018  27.606  1.00  0.00    -0.237 OA
ATOM     59  O   UNL A   1      34.153  31.253  27.833  1.00  0.00    -0.744 OA
ENDBRANCH  52  56
ENDBRANCH  25  49
BRANCH  37  60
ATOM     60  C   UNL A   1      42.751  30.128  33.872  1.00  0.00     0.023 A 
ATOM     61  C   UNL A   1      43.220  30.641  35.095  1.00  0.00     0.031 A 
ATOM     62  C   UNL A   1      42.543  28.739  33.782  1.00  0.00     0.131 A 
ATOM     63  C   UNL A   1      43.493  29.778  36.163  1.00  0.00     0.055 A 
ATOM     64  C   UNL A   1      42.753  27.890  34.873  1.00  0.00     0.041 A 
ATOM     65  F   UNL A   1      42.220  28.155  32.621  1.00  0.00    -0.206 F 
ATOM     66  C   UNL A   1      43.244  28.406  36.068  1.00  0.00     0.022 A 
BRANCH  63  67
ATOM     67  S   UNL A   1      44.307  30.395  37.660  1.00  0.00     0.124 S 
ATOM     68  O   UNL A   1      43.230  31.125  38.323  1.00  0.00    -0.237 OA
ATOM     69  O   UNL A   1      44.720  29.157  38.317  1.00  0.00    -0.237 OA
ATOM     70  O   UNL A   1      45.400  31.221  37.155  1.00  0.00    -0.744 OA
ENDBRANCH  63  67
ENDBRANCH  37  60
ENDBRANCH  11  12
ENDBRANCH   4   6
ENDBRANCH   1   2
BRANCH   1  71
ATOM     71  C   UNL A   1      44.332  23.997  25.393  1.00  0.00     0.023 C 
BRANCH  71  72
ATOM     72  C   UNL A   1      44.347  25.518  25.246  1.00  0.00     0.023 C 
BRANCH  72  73
ATOM     73  C   UNL A   1      45.437  26.246  26.018  1.00  0.00     0.116 C 
BRANCH  73  74
ATOM     74  N   UNL A   1      46.665  25.481  26.158  1.00  0.00    -0.350 N 
ATOM     75  C   UNL A   1      47.239  25.002  27.327  1.00  0.00     0.280 C 
ATOM     76  H   UNL A   1      47.148  25.280  25.324  1.00  0.00     0.163 HD
ATOM     77  O   UNL A   1      48.273  24.353  27.237  1.00  0.00    -0.267 OA
BRANCH  75  78
ATOM     78  C   UNL A   1      46.579  25.316  28.586  1.00  0.00     0.182 A 
ATOM     79  N   UNL A   1      45.629  24.569  29.107  1.00  0.00    -0.228 NA
ATOM     80  S   UNL A   1      47.048  26.685  29.504  1.00  0.00    -0.109 S 
ATOM     81  C   UNL A   1      45.366  24.992  30.402  1.00  0.00     0.118 A 
ATOM     82  C   UNL A   1      46.096  26.109  30.819  1.00  0.00     0.058 A 
ATOM     83  C   UNL A   1      44.483  24.398  31.329  1.00  0.00     0.150 A 
ATOM     84  C   UNL A   1      46.010  26.613  32.128  1.00  0.00     0.021 A 
ATOM     85  F   UNL A   1      43.737  23.339  30.981  1.00  0.00    -0.205 F 
ATOM     86  C   UNL A   1      44.387  24.884  32.633  1.00  0.00     0.041 A 
ATOM     87  C   UNL A   1      45.155  25.974  33.032  1.00  0.00     0.005 A 
ENDBRANCH  75  78
ENDBRANCH  73  74
ENDBRANCH  72  73
ENDBRANCH  71  72
ENDBRANCH   1  71
TORSDOF 14
ENDMDL
MODEL 3
REMARK VINA RESULT:     -10.4      3.408      5.947
REMARK SMILES O=C(NCCCCNC(=O)c1nc2c(F)cccc2s1)c1ccc(-c2c3nc(c(-c4cc(S(=O)(=O)[O-])ccc4F)c4ccc([nH]4)c(-c4cc(S(=O)(=O)[O-])ccc4F)c4nc(c(-c5cc(S(=O)(=O)[O-])ccc5F)c5ccc2[nH]5)C=C4)C=C3)cc1
REMARK SMILES IDX 4 1 3 2 1 3 2 4 21 6 22 7 83 8 23 9 82 10 24 11 25 12 26 13
REMARK SMILES IDX 76 14 27 15 81 16 75 17 77 18 28 19 80 20 74 21 73 22 29 24
REMARK SMILES IDX 61 25 41 26 60 27 42 28 45 29 59 30 78 31 43 32 44 33 58 35
REMARK SMILES IDX 79 36 46 37 30 38 31 39 39 40 32 41 38 42 40 43 37 44 33 45
REMARK SMILES IDX 34 46 35 47 36 48 62 49 63 50 71 51 64 52 70 53 72 54 69 55
REMARK SMILES IDX 65 56 66 57 67 58 68 59 47 60 48 61 56 62 49 63 55 64 57 65
REMARK SMILES IDX 54 66 50 67 51 68 52 69 53 70 5 71 6 72 7 73 8 74 9 75 10 77
REMARK SMILES IDX 11 78 12 79 20 80 13 81 19 82 14 83 18 84 15 85 16 86 17 87
REMARK H PARENT 3 5 77 23 45 34 8 76
REMARK Flexibility Score: inf
ROOT
ATOM      1  C   UNL A   1      33.625  30.450  27.082  1.00  0.00     0.116 C 
ENDROOT
BRANCH   1   2
ATOM      2  N   UNL A   1      33.812  31.401  28.162  1.00  0.00    -0.352 N 
ATOM      3  O   UNL A   1      34.738  32.796  29.617  1.00  0.00    -0.269 OA
ATOM      4  C   UNL A   1      34.905  31.824  28.877  1.00  0.00     0.251 C 
ATOM      5  H   UNL A   1      32.975  31.837  28.442  1.00  0.00     0.163 HD
BRANCH   4   6
ATOM      6  C   UNL A   1      36.221  31.133  28.874  1.00  0.00     0.039 A 
ATOM      7  C   UNL A   1      36.394  29.765  28.671  1.00  0.00     0.014 A 
ATOM      8  C   UNL A   1      37.353  31.925  29.136  1.00  0.00     0.014 A 
ATOM      9  C   UNL A   1      37.632  29.177  28.883  1.00  0.00     0.010 A 
ATOM     10  C   UNL A   1      38.610  31.347  29.304  1.00  0.00     0.010 A 
ATOM     11  C   UNL A   1      38.734  29.963  29.229  1.00  0.00    -0.014 A 
BRANCH  11  12
ATOM     12  C   UNL A   1      40.001  29.264  29.415  1.00  0.00     0.031 A 
ATOM     13  C   UNL A   1      40.322  28.864  30.813  1.00  0.00     0.074 A 
ATOM     14  C   UNL A   1      40.824  28.909  28.411  1.00  0.00     0.049 A 
ATOM     15  N   UNL A   1      41.293  29.263  31.572  1.00  0.00    -0.248 NA
ATOM     16  C   UNL A   1      39.373  27.955  31.472  1.00  0.00     0.031 C 
ATOM     17  C   UNL A   1      40.548  28.893  26.974  1.00  0.00     0.029 A 
ATOM     18  N   UNL A   1      42.076  28.381  28.500  1.00  0.00    -0.354 N 
ATOM     19  C   UNL A   1      41.172  28.542  32.761  1.00  0.00     0.074 A 
ATOM     20  C   UNL A   1      39.909  27.846  32.687  1.00  0.00     0.031 C 
ATOM     21  C   UNL A   1      41.511  28.176  26.352  1.00  0.00     0.029 A 
ATOM     22  C   UNL A   1      42.533  27.817  27.323  1.00  0.00     0.049 A 
ATOM     23  H   UNL A   1      42.608  28.398  29.328  1.00  0.00     0.167 HD
ATOM     24  C   UNL A   1      42.175  28.432  33.677  1.00  0.00     0.034 A 
ATOM     25  C   UNL A   1      43.624  27.028  27.184  1.00  0.00     0.034 A 
ATOM     26  C   UNL A   1      43.227  29.379  33.457  1.00  0.00     0.049 A 
ATOM     27  C   UNL A   1      44.510  27.233  28.355  1.00  0.00     0.074 A 
ATOM     28  C   UNL A   1      43.339  30.752  33.518  1.00  0.00     0.029 A 
ATOM     29  N   UNL A   1      44.356  28.937  32.815  1.00  0.00    -0.354 N 
ATOM     30  N   UNL A   1      45.185  28.321  28.599  1.00  0.00    -0.248 NA
ATOM     31  C   UNL A   1      44.373  26.321  29.482  1.00  0.00     0.031 C 
ATOM     32  C   UNL A   1      44.302  31.094  32.527  1.00  0.00     0.029 A 
ATOM     33  C   UNL A   1      44.726  29.908  31.922  1.00  0.00     0.049 A 
ATOM     34  H   UNL A   1      44.816  28.079  32.969  1.00  0.00     0.167 HD
ATOM     35  C   UNL A   1      45.198  28.429  29.980  1.00  0.00     0.074 A 
ATOM     36  C   UNL A   1      44.804  27.111  30.466  1.00  0.00     0.031 C 
ATOM     37  C   UNL A   1      45.260  29.644  30.601  1.00  0.00     0.034 A 
BRANCH  24  38
ATOM     38  C   UNL A   1      42.322  27.272  34.626  1.00  0.00     0.023 A 
ATOM     39  C   UNL A   1      43.092  26.140  34.301  1.00  0.00     0.031 A 
ATOM     40  C   UNL A   1      41.871  27.354  35.959  1.00  0.00     0.131 A 
ATOM     41  C   UNL A   1      43.335  25.126  35.235  1.00  0.00     0.055 A 
ATOM     42  C   UNL A   1      42.177  26.374  36.914  1.00  0.00     0.041 A 
ATOM     43  F   UNL A   1      41.159  28.408  36.384  1.00  0.00    -0.206 F 
ATOM     44  C   UNL A   1      42.904  25.247  36.552  1.00  0.00     0.022 A 
BRANCH  41  45
ATOM     45  S   UNL A   1      44.216  23.621  34.738  1.00  0.00     0.124 S 
ATOM     46  O   UNL A   1      45.450  24.167  34.184  1.00  0.00    -0.237 OA
ATOM     47  O   UNL A   1      44.347  22.921  36.013  1.00  0.00    -0.237 OA
ATOM     48  O   UNL A   1      43.307  22.997  33.781  1.00  0.00    -0.744 OA
ENDBRANCH  41  45
ENDBRANCH  24  38
BRANCH  25  49
ATOM     49  C   UNL A   1      43.723  25.826  26.327  1.00  0.00     0.023 A 
ATOM     50  C   UNL A   1      42.909  24.707  26.588  1.00  0.00     0.031 A 
ATOM     51  C   UNL A   1      44.800  25.648  25.443  1.00  0.00     0.131 A 
ATOM     52  C   UNL A   1      43.197  23.464  26.014  1.00  0.00     0.055 A 
ATOM     53  C   UNL A   1      45.084  24.406  24.864  1.00  0.00     0.041 A 
ATOM     54  F   UNL A   1      45.634  26.664  25.174  1.00  0.00    -0.206 F 
ATOM     55  C   UNL A   1      44.286  23.303  25.157  1.00  0.00     0.022 A 
BRANCH  52  56
ATOM     56  S   UNL A   1      42.170  22.023  26.415  1.00  0.00     0.124 S 
ATOM     57  O   UNL A   1      40.818  22.520  26.167  1.00  0.00    -0.237 OA
ATOM     58  O   UNL A   1      42.661  21.032  25.465  1.00  0.00    -0.237 OA
ATOM     59  O   UNL A   1      42.481  21.771  27.820  1.00  0.00    -0.744 OA
ENDBRANCH  52  56
ENDBRANCH  25  49
BRANCH  37  60
ATOM     60  C   UNL A   1      45.623  30.860  29.783  1.00  0.00     0.023 A 
ATOM     61  C   UNL A   1      44.784  31.197  28.704  1.00  0.00     0.031 A 
ATOM     62  C   UNL A   1      46.851  31.539  29.891  1.00  0.00     0.131 A 
ATOM     63  C   UNL A   1      45.190  32.154  27.767  1.00  0.00     0.055 A 
ATOM     64  C   UNL A   1      47.222  32.541  28.990  1.00  0.00     0.041 A 
ATOM     65  F   UNL A   1      47.760  31.192  30.812  1.00  0.00    -0.206 F 
ATOM     66  C   UNL A   1      46.396  32.844  27.912  1.00  0.00     0.022 A 
BRANCH  63  67
ATOM     67  S   UNL A   1      44.226  32.431  26.257  1.00  0.00     0.124 S 
ATOM     68  O   UNL A   1      43.502  33.660  26.571  1.00  0.00    -0.237 OA
ATOM     69  O   UNL A   1      45.272  32.562  25.245  1.00  0.00    -0.237 OA
ATOM     70  O   UNL A   1      43.398  31.234  26.140  1.00  0.00    -0.744 OA
ENDBRANCH  63  67
ENDBRANCH  37  60
ENDBRANCH  11  12
ENDBRANCH   4   6
ENDBRANCH   1   2
BRANCH   1  71
ATOM     71  C   UNL A   1      32.561  29.376  27.313  1.00  0.00     0.023 C 
BRANCH  71  72
ATOM     72  C   UNL A   1      32.913  27.975  26.815  1.00  0.00     0.023 C 
BRANCH  72  73
ATOM     73  C   UNL A   1      31.829  27.267  26.015  1.00  0.00     0.116 C 
BRANCH  73  74
ATOM     74  N   UNL A   1      31.284  26.094  26.677  1.00  0.00    -0.350 N 
ATOM     75  C   UNL A   1      31.754  24.789  26.617  1.00  0.00     0.280 C 
ATOM     76  H   UNL A   1      30.486  26.242  27.234  1.00  0.00     0.163 HD
ATOM     77  O   UNL A   1      31.169  23.935  27.269  1.00  0.00    -0.267 OA
BRANCH  75  78
ATOM     78  C   UNL A   1      32.907  24.521  25.768  1.00  0.00     0.182 A 
ATOM     79  N   UNL A   1      34.147  24.547  26.209  1.00  0.00    -0.228 NA
ATOM     80  S   UNL A   1      32.702  24.100  24.120  1.00  0.00    -0.109 S 
ATOM     81  C   UNL A   1      34.993  24.029  25.239  1.00  0.00     0.118 A 
ATOM     82  C   UNL A   1      34.368  23.671  24.040  1.00  0.00     0.058 A 
ATOM     83  C   UNL A   1      36.381  23.801  25.353  1.00  0.00     0.150 A 
ATOM     84  C   UNL A   1      35.068  23.054  22.988  1.00  0.00     0.021 A 
ATOM     85  F   UNL A   1      37.041  24.146  26.469  1.00  0.00    -0.205 F 
ATOM     86  C   UNL A   1      37.089  23.188  24.320  1.00  0.00     0.041 A 
ATOM     87  C   UNL A   1      36.434  22.806  23.153  1.00  0.00     0.005 A 
ENDBRANCH  75  78
ENDBRANCH  73  74
ENDBRANCH  72  73
ENDBRANCH  71  72
ENDBRANCH   1  71
TORSDOF 14
ENDMDL
