MODEL 1
REMARK VINA RESULT:     -12.8      0.000      0.000
REMARK SMILES CC(C)C(=O)Nc1ccc2c([C@H](C(=O)NCCCCNC(=O)c3ccc(-c4c5nc(c(-c6cc(S(=O)(=O)[O-])ccc6F)c6ccc([nH]6)c(-c6cc(S(=O)(=O)[O-])ccc6F)c6nc(c(-c7cc(S(=O)(=O)[O-])ccc7F)c7ccc4[nH]7)C=C6)C=C5)cc3)[NH+]3CC[NH+](CC(=O)N(C)C)CC3)c[nH]c2c1
REMARK SMILES IDX 17 1 16 2 15 3 13 4 14 5 12 7 11 8 7 9 8 10 101 11 9 12
REMARK SMILES IDX 100 13 10 14 99 15 98 16 6 18 4 19 5 20 2 22 1 23 3 24 86 25
REMARK SMILES IDX 87 26 97 27 88 29 96 30 89 31 90 33 91 34 92 35 93 36 94 37
REMARK SMILES IDX 95 38 18 39 19 40 20 41 21 42 22 44 23 45 24 46 85 47 25 48
REMARK SMILES IDX 84 49 26 50 27 51 28 52 78 53 29 54 83 55 77 56 79 57 30 58
REMARK SMILES IDX 82 59 76 60 75 61 31 63 63 64 43 65 62 66 44 67 47 68 61 69
REMARK SMILES IDX 80 70 45 71 46 72 60 74 81 75 48 76 32 77 33 78 41 79 34 80
REMARK SMILES IDX 40 81 42 82 39 83 35 84 36 85 37 86 38 87 64 88 65 89 73 90
REMARK SMILES IDX 66 91 72 92 74 93 71 94 67 95 68 96 69 97 70 98 49 99 50 100
REMARK SMILES IDX 58 101 51 102 57 103 59 104 56 105 52 106 53 107 54 108
REMARK SMILES IDX 55 109
REMARK H PARENT 15 6 99 17 6 21 86 28 89 32 20 43 79 62 47 73
REMARK Flexibility Score: inf
ROOT
ATOM      1  C   UNL A   1      35.983  23.708  24.309  1.00  0.00     0.023 C 
ENDROOT
BRANCH   1   2
ATOM      2  C   UNL A   1      35.255  24.514  25.418  1.00  0.00     0.116 C 
BRANCH   2   3
ATOM      3  N   UNL A   1      33.854  24.172  25.673  1.00  0.00    -0.351 N 
ATOM      4  C   UNL A   1      32.844  23.587  24.940  1.00  0.00     0.283 C 
ATOM      5  O   UNL A   1      31.837  23.300  25.605  1.00  0.00    -0.268 OA
ATOM      6  H   UNL A   1      33.566  24.417  26.582  1.00  0.00     0.163 HD
BRANCH   4   7
ATOM      7  C   UNL A   1      32.921  23.332  23.393  1.00  0.00     0.308 C 
BRANCH   7   8
ATOM      8  C   UNL A   1      32.369  21.993  22.905  1.00  0.00     0.044 A 
ATOM      9  C   UNL A   1      32.469  18.150  24.606  1.00  0.00     0.043 A 
ATOM     10  C   UNL A   1      33.023  19.161  25.377  1.00  0.00     0.027 A 
ATOM     11  C   UNL A   1      32.112  18.377  23.272  1.00  0.00     0.052 A 
ATOM     12  C   UNL A   1      33.028  20.476  24.924  1.00  0.00     0.013 A 
ATOM     13  C   UNL A   1      32.106  19.710  22.837  1.00  0.00     0.048 A 
ATOM     14  C   UNL A   1      32.505  20.769  23.650  1.00  0.00     0.009 A 
ATOM     15  N   UNL A   1      31.751  20.259  21.627  1.00  0.00    -0.361 N 
ATOM     16  C   UNL A   1      31.874  21.624  21.666  1.00  0.00     0.094 A 
ATOM     17  H   UNL A   1      31.453  19.745  20.842  1.00  0.00     0.166 HD
BRANCH   9  18
ATOM     18  N   UNL A   1      32.241  16.887  25.154  1.00  0.00    -0.326 N 
ATOM     19  C   UNL A   1      32.989  15.749  25.020  1.00  0.00     0.226 C 
ATOM     20  O   UNL A   1      32.512  14.698  25.467  1.00  0.00    -0.274 OA
ATOM     21  H   UNL A   1      31.435  16.803  25.712  1.00  0.00     0.169 HD
BRANCH  19  22
ATOM     22  C   UNL A   1      34.421  15.741  24.447  1.00  0.00     0.072 C 
ATOM     23  C   UNL A   1      34.606  16.465  23.119  1.00  0.00     0.018 C 
ATOM     24  C   UNL A   1      35.507  16.096  25.463  1.00  0.00     0.018 C 
ENDBRANCH  19  22
ENDBRANCH   9  18
ENDBRANCH   7   8
BRANCH   7  25
ATOM     25  N   UNL A   1      32.145  24.273  22.538  1.00  0.00    -0.312 N 
ATOM     26  C   UNL A   1      31.013  24.965  23.163  1.00  0.00     0.325 C 
ATOM     27  C   UNL A   1      32.918  25.194  21.731  1.00  0.00     0.325 C 
ATOM     28  H   UNL A   1      31.737  23.589  21.902  1.00  0.00     0.349 HD
ATOM     29  C   UNL A   1      31.375  26.229  23.977  1.00  0.00     0.325 C 
ATOM     30  C   UNL A   1      33.410  26.331  22.603  1.00  0.00     0.325 C 
ATOM     31  N   UNL A   1      32.488  27.051  23.475  1.00  0.00    -0.318 N 
ATOM     32  H   UNL A   1      33.039  27.262  24.308  1.00  0.00     0.348 HD
BRANCH  31  33
ATOM     33  C   UNL A   1      32.089  28.369  22.972  1.00  0.00     0.364 C 
BRANCH  33  34
ATOM     34  C   UNL A   1      31.348  29.173  24.042  1.00  0.00     0.277 C 
ATOM     35  O   UNL A   1      30.156  29.455  23.880  1.00  0.00    -0.268 OA
ATOM     36  N   UNL A   1      32.080  29.686  25.113  1.00  0.00    -0.344 N 
ATOM     37  C   UNL A   1      33.369  29.202  25.595  1.00  0.00     0.146 C 
ATOM     38  C   UNL A   1      31.481  30.766  25.872  1.00  0.00     0.146 C 
ENDBRANCH  33  34
ENDBRANCH  31  33
ENDBRANCH   7  25
ENDBRANCH   4   7
ENDBRANCH   2   3
ENDBRANCH   1   2
BRANCH   1  39
ATOM     39  C   UNL A   1      36.181  22.218  24.558  1.00  0.00     0.023 C 
BRANCH  39  40
ATOM     40  C   UNL A   1      36.651  21.923  25.966  1.00  0.00     0.116 C 
BRANCH  40  41
ATOM     41  N   UNL A   1      37.639  20.844  25.987  1.00  0.00    -0.352 N 
ATOM     42  C   UNL A   1      39.003  20.908  26.092  1.00  0.00     0.251 C 
ATOM     43  H   UNL A   1      37.267  19.935  25.915  1.00  0.00     0.163 HD
ATOM     44  O   UNL A   1      39.687  19.928  25.805  1.00  0.00    -0.269 OA
BRANCH  42  45
ATOM     45  C   UNL A   1      39.619  22.162  26.548  1.00  0.00     0.039 A 
ATOM     46  C   UNL A   1      40.619  22.134  27.519  1.00  0.00     0.014 A 
ATOM     47  C   UNL A   1      39.214  23.369  25.973  1.00  0.00     0.014 A 
ATOM     48  C   UNL A   1      41.257  23.323  27.865  1.00  0.00     0.010 A 
ATOM     49  C   UNL A   1      39.943  24.517  26.213  1.00  0.00     0.010 A 
ATOM     50  C   UNL A   1      40.950  24.513  27.185  1.00  0.00    -0.014 A 
BRANCH  50  51
ATOM     51  C   UNL A   1      41.627  25.791  27.500  1.00  0.00     0.031 A 
ATOM     52  C   UNL A   1      40.897  26.825  28.314  1.00  0.00     0.074 A 
ATOM     53  C   UNL A   1      42.846  26.041  26.986  1.00  0.00     0.049 A 
ATOM     54  N   UNL A   1      41.255  28.045  28.615  1.00  0.00    -0.248 NA
ATOM     55  C   UNL A   1      39.562  26.454  28.815  1.00  0.00     0.031 C 
ATOM     56  C   UNL A   1      43.608  25.128  26.131  1.00  0.00     0.029 A 
ATOM     57  N   UNL A   1      43.655  27.140  27.101  1.00  0.00    -0.354 N 
ATOM     58  C   UNL A   1      40.184  28.589  29.315  1.00  0.00     0.074 A 
ATOM     59  C   UNL A   1      39.131  27.599  29.316  1.00  0.00     0.031 C 
ATOM     60  C   UNL A   1      44.792  25.687  25.835  1.00  0.00     0.029 A 
ATOM     61  C   UNL A   1      44.849  27.018  26.428  1.00  0.00     0.049 A 
ATOM     62  H   UNL A   1      43.406  27.941  27.615  1.00  0.00     0.167 HD
ATOM     63  C   UNL A   1      40.102  29.792  29.932  1.00  0.00     0.034 A 
ATOM     64  C   UNL A   1      45.867  27.890  26.300  1.00  0.00     0.034 A 
ATOM     65  C   UNL A   1      41.181  30.747  29.936  1.00  0.00     0.049 A 
ATOM     66  C   UNL A   1      45.753  29.226  26.990  1.00  0.00     0.074 A 
ATOM     67  C   UNL A   1      41.247  31.969  30.578  1.00  0.00     0.029 A 
ATOM     68  N   UNL A   1      42.384  30.585  29.259  1.00  0.00    -0.354 N 
ATOM     69  N   UNL A   1      44.758  29.705  27.705  1.00  0.00    -0.248 NA
ATOM     70  C   UNL A   1      46.899  30.132  26.869  1.00  0.00     0.031 C 
ATOM     71  C   UNL A   1      42.455  32.580  30.226  1.00  0.00     0.029 A 
ATOM     72  C   UNL A   1      43.185  31.700  29.439  1.00  0.00     0.049 A 
ATOM     73  H   UNL A   1      42.631  29.793  28.728  1.00  0.00     0.167 HD
ATOM     74  C   UNL A   1      45.176  30.958  28.144  1.00  0.00     0.074 A 
ATOM     75  C   UNL A   1      46.518  31.148  27.628  1.00  0.00     0.031 C 
ATOM     76  C   UNL A   1      44.517  31.869  28.906  1.00  0.00     0.034 A 
BRANCH  63  77
ATOM     77  C   UNL A   1      38.804  30.135  30.624  1.00  0.00     0.023 A 
ATOM     78  C   UNL A   1      37.817  30.922  30.002  1.00  0.00     0.031 A 
ATOM     79  C   UNL A   1      38.563  29.703  31.939  1.00  0.00     0.131 A 
ATOM     80  C   UNL A   1      36.682  31.324  30.722  1.00  0.00     0.055 A 
ATOM     81  C   UNL A   1      37.387  30.028  32.619  1.00  0.00     0.041 A 
ATOM     82  F   UNL A   1      39.476  28.971  32.597  1.00  0.00    -0.206 F 
ATOM     83  C   UNL A   1      36.445  30.858  32.017  1.00  0.00     0.022 A 
BRANCH  80  84
ATOM     84  S   UNL A   1      35.603  32.592  30.001  1.00  0.00     0.124 S 
ATOM     85  O   UNL A   1      35.482  32.125  28.622  1.00  0.00    -0.237 OA
ATOM     86  O   UNL A   1      34.401  32.486  30.820  1.00  0.00    -0.237 OA
ATOM     87  O   UNL A   1      36.367  33.827  30.169  1.00  0.00    -0.744 OA
ENDBRANCH  80  84
ENDBRANCH  63  77
BRANCH  64  88
ATOM     88  C   UNL A   1      47.071  27.536  25.497  1.00  0.00     0.023 A 
ATOM     89  C   UNL A   1      47.178  27.910  24.148  1.00  0.00     0.031 A 
ATOM     90  C   UNL A   1      48.123  26.788  26.056  1.00  0.00     0.131 A 
ATOM     91  C   UNL A   1      48.283  27.492  23.390  1.00  0.00     0.055 A 
ATOM     92  C   UNL A   1      49.249  26.425  25.314  1.00  0.00     0.041 A 
ATOM     93  F   UNL A   1      48.078  26.409  27.343  1.00  0.00    -0.206 F 
ATOM     94  C   UNL A   1      49.326  26.766  23.967  1.00  0.00     0.022 A 
BRANCH  91  95
ATOM     95  S   UNL A   1      48.291  27.833  21.608  1.00  0.00     0.124 S 
ATOM     96  O   UNL A   1      49.320  28.862  21.508  1.00  0.00    -0.237 OA
ATOM     97  O   UNL A   1      48.630  26.529  21.051  1.00  0.00    -0.237 OA
ATOM     98  O   UNL A   1      46.926  28.287  21.344  1.00  0.00    -0.744 OA
ENDBRANCH  91  95
ENDBRANCH  64  88
BRANCH  76  99
ATOM     99  C   UNL A   1      45.264  33.130  29.264  1.00  0.00     0.023 A 
ATOM    100  C   UNL A   1      45.190  34.285  28.466  1.00  0.00     0.031 A 
ATOM    101  C   UNL A   1      46.063  33.172  30.420  1.00  0.00     0.131 A 
ATOM    102  C   UNL A   1      45.951  35.413  28.803  1.00  0.00     0.055 A 
ATOM    103  C   UNL A   1      46.761  34.322  30.789  1.00  0.00     0.041 A 
ATOM    104  F   UNL A   1      46.172  32.096  31.215  1.00  0.00    -0.206 F 
ATOM    105  C   UNL A   1      46.720  35.446  29.971  1.00  0.00     0.022 A 
BRANCH 102 106
ATOM    106  S   UNL A   1      46.009  36.801  27.637  1.00  0.00     0.124 S 
ATOM    107  O   UNL A   1      46.720  37.814  28.409  1.00  0.00    -0.237 OA
ATOM    108  O   UNL A   1      46.738  36.230  26.509  1.00  0.00    -0.237 OA
ATOM    109  O   UNL A   1      44.599  37.091  27.381  1.00  0.00    -0.744 OA
ENDBRANCH 102 106
ENDBRANCH  76  99
ENDBRANCH  50  51
ENDBRANCH  42  45
ENDBRANCH  40  41
ENDBRANCH  39  40
ENDBRANCH   1  39
TORSDOF 20
ENDMDL
MODEL 2
REMARK VINA RESULT:     -12.5      4.693     10.729
REMARK SMILES CC(C)C(=O)Nc1ccc2c([C@H](C(=O)NCCCCNC(=O)c3ccc(-c4c5nc(c(-c6cc(S(=O)(=O)[O-])ccc6F)c6ccc([nH]6)c(-c6cc(S(=O)(=O)[O-])ccc6F)c6nc(c(-c7cc(S(=O)(=O)[O-])ccc7F)c7ccc4[nH]7)C=C6)C=C5)cc3)[NH+]3CC[NH+](CC(=O)N(C)C)CC3)c[nH]c2c1
REMARK SMILES IDX 17 1 16 2 15 3 13 4 14 5 12 7 11 8 7 9 8 10 101 11 9 12
REMARK SMILES IDX 100 13 10 14 99 15 98 16 6 18 4 19 5 20 2 22 1 23 3 24 86 25
REMARK SMILES IDX 87 26 97 27 88 29 96 30 89 31 90 33 91 34 92 35 93 36 94 37
REMARK SMILES IDX 95 38 18 39 19 40 20 41 21 42 22 44 23 45 24 46 85 47 25 48
REMARK SMILES IDX 84 49 26 50 27 51 28 52 78 53 29 54 83 55 77 56 79 57 30 58
REMARK SMILES IDX 82 59 76 60 75 61 31 63 63 64 43 65 62 66 44 67 47 68 61 69
REMARK SMILES IDX 80 70 45 71 46 72 60 74 81 75 48 76 32 77 33 78 41 79 34 80
REMARK SMILES IDX 40 81 42 82 39 83 35 84 36 85 37 86 38 87 64 88 65 89 73 90
REMARK SMILES IDX 66 91 72 92 74 93 71 94 67 95 68 96 69 97 70 98 49 99 50 100
REMARK SMILES IDX 58 101 51 102 57 103 59 104 56 105 52 106 53 107 54 108
REMARK SMILES IDX 55 109
REMARK H PARENT 15 6 99 17 6 21 86 28 89 32 20 43 79 62 47 73
REMARK Flexibility Score: inf
ROOT
ATOM      1  C   UNL A   1      31.459  28.889  27.209  1.00  0.00     0.023 C 
ENDROOT
BRANCH   1   2
ATOM      2  C   UNL A   1      32.187  27.519  27.241  1.00  0.00     0.116 C 
BRANCH   2   3
ATOM      3  N   UNL A   1      31.349  26.321  27.155  1.00  0.00    -0.351 N 
ATOM      4  C   UNL A   1      31.335  25.196  26.358  1.00  0.00     0.283 C 
ATOM      5  O   UNL A   1      30.556  24.312  26.745  1.00  0.00    -0.268 OA
ATOM      6  H   UNL A   1      30.625  26.319  27.822  1.00  0.00     0.163 HD
BRANCH   4   7
ATOM      7  C   UNL A   1      32.190  25.040  25.051  1.00  0.00     0.308 C 
BRANCH   7   8
ATOM      8  C   UNL A   1      32.671  26.340  24.405  1.00  0.00     0.044 A 
ATOM      9  C   UNL A   1      30.661  29.203  22.074  1.00  0.00     0.043 A 
ATOM     10  C   UNL A   1      29.877  28.166  22.557  1.00  0.00     0.027 A 
ATOM     11  C   UNL A   1      32.056  29.159  22.180  1.00  0.00     0.052 A 
ATOM     12  C   UNL A   1      30.431  27.171  23.355  1.00  0.00     0.013 A 
ATOM     13  C   UNL A   1      32.596  28.161  23.004  1.00  0.00     0.048 A 
ATOM     14  C   UNL A   1      31.810  27.199  23.635  1.00  0.00     0.009 A 
ATOM     15  N   UNL A   1      33.898  27.894  23.358  1.00  0.00    -0.361 N 
ATOM     16  C   UNL A   1      33.952  26.829  24.219  1.00  0.00     0.094 A 
ATOM     17  H   UNL A   1      34.682  28.396  23.037  1.00  0.00     0.166 HD
BRANCH   9  18
ATOM     18  N   UNL A   1      30.070  30.322  21.486  1.00  0.00    -0.326 N 
ATOM     19  C   UNL A   1      29.135  31.172  22.013  1.00  0.00     0.226 C 
ATOM     20  O   UNL A   1      28.634  32.010  21.253  1.00  0.00    -0.274 OA
ATOM     21  H   UNL A   1      30.364  30.529  20.570  1.00  0.00     0.169 HD
BRANCH  19  22
ATOM     22  C   UNL A   1      28.770  31.202  23.511  1.00  0.00     0.072 C 
ATOM     23  C   UNL A   1      29.600  32.146  24.375  1.00  0.00     0.018 C 
ATOM     24  C   UNL A   1      27.272  31.319  23.792  1.00  0.00     0.018 C 
ENDBRANCH  19  22
ENDBRANCH   9  18
ENDBRANCH   7   8
BRANCH   7  25
ATOM     25  N   UNL A   1      33.484  24.318  25.202  1.00  0.00    -0.312 N 
ATOM     26  C   UNL A   1      33.685  23.556  26.438  1.00  0.00     0.325 C 
ATOM     27  C   UNL A   1      33.929  23.551  24.056  1.00  0.00     0.325 C 
ATOM     28  H   UNL A   1      34.097  25.130  25.271  1.00  0.00     0.349 HD
ATOM     29  C   UNL A   1      33.058  22.143  26.456  1.00  0.00     0.325 C 
ATOM     30  C   UNL A   1      33.161  22.246  24.003  1.00  0.00     0.325 C 
ATOM     31  N   UNL A   1      33.051  21.398  25.185  1.00  0.00    -0.318 N 
ATOM     32  H   UNL A   1      32.112  21.005  25.130  1.00  0.00     0.348 HD
BRANCH  31  33
ATOM     33  C   UNL A   1      33.928  20.223  25.167  1.00  0.00     0.364 C 
BRANCH  33  34
ATOM     34  C   UNL A   1      33.130  18.937  24.945  1.00  0.00     0.277 C 
ATOM     35  O   UNL A   1      31.896  18.964  24.999  1.00  0.00    -0.268 OA
ATOM     36  N   UNL A   1      33.828  17.735  24.825  1.00  0.00    -0.344 N 
ATOM     37  C   UNL A   1      35.226  17.578  24.441  1.00  0.00     0.146 C 
ATOM     38  C   UNL A   1      33.083  16.509  25.035  1.00  0.00     0.146 C 
ENDBRANCH  33  34
ENDBRANCH  31  33
ENDBRANCH   7  25
ENDBRANCH   4   7
ENDBRANCH   2   3
ENDBRANCH   1   2
BRANCH   1  39
ATOM     39  C   UNL A   1      31.958  29.912  26.196  1.00  0.00     0.023 C 
BRANCH  39  40
ATOM     40  C   UNL A   1      33.264  30.552  26.615  1.00  0.00     0.116 C 
BRANCH  40  41
ATOM     41  N   UNL A   1      33.094  31.977  26.907  1.00  0.00    -0.352 N 
ATOM     42  C   UNL A   1      33.741  32.766  27.819  1.00  0.00     0.251 C 
ATOM     43  H   UNL A   1      32.411  32.435  26.366  1.00  0.00     0.163 HD
ATOM     44  O   UNL A   1      33.274  33.862  28.123  1.00  0.00    -0.269 OA
BRANCH  42  45
ATOM     45  C   UNL A   1      34.992  32.277  28.416  1.00  0.00     0.039 A 
ATOM     46  C   UNL A   1      36.180  32.980  28.219  1.00  0.00     0.014 A 
ATOM     47  C   UNL A   1      34.965  31.127  29.208  1.00  0.00     0.014 A 
ATOM     48  C   UNL A   1      37.333  32.554  28.875  1.00  0.00     0.010 A 
ATOM     49  C   UNL A   1      36.070  30.794  29.966  1.00  0.00     0.010 A 
ATOM     50  C   UNL A   1      37.275  31.483  29.782  1.00  0.00    -0.014 A 
BRANCH  50  51
ATOM     51  C   UNL A   1      38.469  31.020  30.523  1.00  0.00     0.031 A 
ATOM     52  C   UNL A   1      39.359  29.977  29.900  1.00  0.00     0.074 A 
ATOM     53  C   UNL A   1      38.694  31.473  31.770  1.00  0.00     0.049 A 
ATOM     54  N   UNL A   1      40.388  29.356  30.411  1.00  0.00    -0.248 NA
ATOM     55  C   UNL A   1      39.013  29.539  28.537  1.00  0.00     0.031 C 
ATOM     56  C   UNL A   1      37.853  32.436  32.486  1.00  0.00     0.029 A 
ATOM     57  N   UNL A   1      39.693  31.180  32.660  1.00  0.00    -0.354 N 
ATOM     58  C   UNL A   1      40.792  28.441  29.444  1.00  0.00     0.074 A 
ATOM     59  C   UNL A   1      39.845  28.528  28.357  1.00  0.00     0.031 C 
ATOM     60  C   UNL A   1      38.397  32.686  33.688  1.00  0.00     0.029 A 
ATOM     61  C   UNL A   1      39.587  31.861  33.851  1.00  0.00     0.049 A 
ATOM     62  H   UNL A   1      40.417  30.543  32.466  1.00  0.00     0.167 HD
ATOM     63  C   UNL A   1      41.877  27.631  29.450  1.00  0.00     0.034 A 
ATOM     64  C   UNL A   1      40.362  31.812  34.952  1.00  0.00     0.034 A 
ATOM     65  C   UNL A   1      42.819  27.589  30.540  1.00  0.00     0.049 A 
ATOM     66  C   UNL A   1      41.562  30.898  34.939  1.00  0.00     0.074 A 
ATOM     67  C   UNL A   1      43.990  26.861  30.638  1.00  0.00     0.029 A 
ATOM     68  N   UNL A   1      42.691  28.303  31.725  1.00  0.00    -0.354 N 
ATOM     69  N   UNL A   1      41.971  30.085  33.991  1.00  0.00    -0.248 NA
ATOM     70  C   UNL A   1      42.409  30.905  36.136  1.00  0.00     0.031 C 
ATOM     71  C   UNL A   1      44.529  27.075  31.910  1.00  0.00     0.029 A 
ATOM     72  C   UNL A   1      43.744  28.008  32.574  1.00  0.00     0.049 A 
ATOM     73  H   UNL A   1      41.959  28.929  31.931  1.00  0.00     0.167 HD
ATOM     74  C   UNL A   1      43.145  29.507  34.468  1.00  0.00     0.074 A 
ATOM     75  C   UNL A   1      43.383  30.081  35.778  1.00  0.00     0.031 C 
ATOM     76  C   UNL A   1      43.955  28.589  33.880  1.00  0.00     0.034 A 
BRANCH  63  77
ATOM     77  C   UNL A   1      42.078  26.725  28.258  1.00  0.00     0.023 A 
ATOM     78  C   UNL A   1      41.567  25.414  28.228  1.00  0.00     0.031 A 
ATOM     79  C   UNL A   1      42.824  27.161  27.150  1.00  0.00     0.131 A 
ATOM     80  C   UNL A   1      41.881  24.561  27.159  1.00  0.00     0.055 A 
ATOM     81  C   UNL A   1      43.055  26.339  26.046  1.00  0.00     0.041 A 
ATOM     82  F   UNL A   1      43.361  28.392  27.129  1.00  0.00    -0.206 F 
ATOM     83  C   UNL A   1      42.598  25.024  26.053  1.00  0.00     0.022 A 
BRANCH  80  84
ATOM     84  S   UNL A   1      41.481  22.799  27.311  1.00  0.00     0.124 S 
ATOM     85  O   UNL A   1      41.969  22.275  26.038  1.00  0.00    -0.237 OA
ATOM     86  O   UNL A   1      42.235  22.404  28.496  1.00  0.00    -0.237 OA
ATOM     87  O   UNL A   1      40.027  22.789  27.464  1.00  0.00    -0.744 OA
ENDBRANCH  80  84
ENDBRANCH  63  77
BRANCH  64  88
ATOM     88  C   UNL A   1      40.036  32.642  36.146  1.00  0.00     0.023 A 
ATOM     89  C   UNL A   1      39.086  32.217  37.087  1.00  0.00     0.031 A 
ATOM     90  C   UNL A   1      40.646  33.894  36.348  1.00  0.00     0.131 A 
ATOM     91  C   UNL A   1      38.734  33.055  38.156  1.00  0.00     0.055 A 
ATOM     92  C   UNL A   1      40.337  34.698  37.447  1.00  0.00     0.041 A 
ATOM     93  F   UNL A   1      41.568  34.348  35.484  1.00  0.00    -0.206 F 
ATOM     94  C   UNL A   1      39.364  34.285  38.351  1.00  0.00     0.022 A 
BRANCH  91  95
ATOM     95  S   UNL A   1      37.369  32.552  39.240  1.00  0.00     0.124 S 
ATOM     96  O   UNL A   1      37.537  33.458  40.370  1.00  0.00    -0.237 OA
ATOM     97  O   UNL A   1      36.206  32.790  38.393  1.00  0.00    -0.237 OA
ATOM     98  O   UNL A   1      37.658  31.146  39.519  1.00  0.00    -0.744 OA
ENDBRANCH  91  95
ENDBRANCH  64  88
BRANCH  76  99
ATOM     99  C   UNL A   1      45.198  28.191  34.635  1.00  0.00     0.023 A 
ATOM    100  C   UNL A   1      46.411  28.883  34.482  1.00  0.00     0.031 A 
ATOM    101  C   UNL A   1      45.166  27.098  35.520  1.00  0.00     0.131 A 
ATOM    102  C   UNL A   1      47.557  28.437  35.155  1.00  0.00     0.055 A 
ATOM    103  C   UNL A   1      46.292  26.704  36.243  1.00  0.00     0.041 A 
ATOM    104  F   UNL A   1      44.034  26.399  35.702  1.00  0.00    -0.206 F 
ATOM    105  C   UNL A   1      47.500  27.366  36.051  1.00  0.00     0.022 A 
BRANCH 102 106
ATOM    106  S   UNL A   1      49.150  29.211  34.763  1.00  0.00     0.124 S 
ATOM    107  O   UNL A   1      49.042  30.492  35.453  1.00  0.00    -0.237 OA
ATOM    108  O   UNL A   1      50.105  28.261  35.327  1.00  0.00    -0.237 OA
ATOM    109  O   UNL A   1      49.143  29.288  33.304  1.00  0.00    -0.744 OA
ENDBRANCH 102 106
ENDBRANCH  76  99
ENDBRANCH  50  51
ENDBRANCH  42  45
ENDBRANCH  40  41
ENDBRANCH  39  40
ENDBRANCH   1  39
TORSDOF 20
ENDMDL
MODEL 3
REMARK VINA RESULT:     -12.4      1.397      7.232
REMARK SMILES CC(C)C(=O)Nc1ccc2c([C@H](C(=O)NCCCCNC(=O)c3ccc(-c4c5nc(c(-c6cc(S(=O)(=O)[O-])ccc6F)c6ccc([nH]6)c(-c6cc(S(=O)(=O)[O-])ccc6F)c6nc(c(-c7cc(S(=O)(=O)[O-])ccc7F)c7ccc4[nH]7)C=C6)C=C5)cc3)[NH+]3CC[NH+](CC(=O)N(C)C)CC3)c[nH]c2c1
REMARK SMILES IDX 17 1 16 2 15 3 13 4 14 5 12 7 11 8 7 9 8 10 101 11 9 12
REMARK SMILES IDX 100 13 10 14 99 15 98 16 6 18 4 19 5 20 2 22 1 23 3 24 86 25
REMARK SMILES IDX 87 26 97 27 88 29 96 30 89 31 90 33 91 34 92 35 93 36 94 37
REMARK SMILES IDX 95 38 18 39 19 40 20 41 21 42 22 44 23 45 24 46 85 47 25 48
REMARK SMILES IDX 84 49 26 50 27 51 28 52 78 53 29 54 83 55 77 56 79 57 30 58
REMARK SMILES IDX 82 59 76 60 75 61 31 63 63 64 43 65 62 66 44 67 47 68 61 69
REMARK SMILES IDX 80 70 45 71 46 72 60 74 81 75 48 76 32 77 33 78 41 79 34 80
REMARK SMILES IDX 40 81 42 82 39 83 35 84 36 85 37 86 38 87 64 88 65 89 73 90
REMARK SMILES IDX 66 91 72 92 74 93 71 94 67 95 68 96 69 97 70 98 49 99 50 100
REMARK SMILES IDX 58 101 51 102 57 103 59 104 56 105 52 106 53 107 54 108
REMARK SMILES IDX 55 109
REMARK H PARENT 15 6 99 17 6 21 86 28 89 32 20 43 79 62 47 73
REMARK Flexibility Score: inf
ROOT
ATOM      1  C   UNL A   1      36.199  21.761  24.134  1.00  0.00     0.023 C 
ENDROOT
BRANCH   1   2
ATOM      2  C   UNL A   1      36.084  23.156  24.806  1.00  0.00     0.116 C 
BRANCH   2   3
ATOM      3  N   UNL A   1      35.158  23.272  25.934  1.00  0.00    -0.351 N 
ATOM      4  C   UNL A   1      33.787  23.342  26.068  1.00  0.00     0.283 C 
ATOM      5  O   UNL A   1      33.387  23.240  27.238  1.00  0.00    -0.268 OA
ATOM      6  H   UNL A   1      35.623  23.309  26.801  1.00  0.00     0.163 HD
BRANCH   4   7
ATOM      7  C   UNL A   1      32.802  23.568  24.867  1.00  0.00     0.308 C 
BRANCH   7   8
ATOM      8  C   UNL A   1      32.448  22.328  24.047  1.00  0.00     0.044 A 
ATOM      9  C   UNL A   1      32.494  18.238  25.018  1.00  0.00     0.043 A 
ATOM     10  C   UNL A   1      32.819  19.103  26.052  1.00  0.00     0.027 A 
ATOM     11  C   UNL A   1      32.382  18.701  23.702  1.00  0.00     0.052 A 
ATOM     12  C   UNL A   1      32.818  20.479  25.852  1.00  0.00     0.013 A 
ATOM     13  C   UNL A   1      32.364  20.092  23.520  1.00  0.00     0.048 A 
ATOM     14  C   UNL A   1      32.527  20.990  24.573  1.00  0.00     0.009 A 
ATOM     15  N   UNL A   1      32.207  20.847  22.382  1.00  0.00    -0.361 N 
ATOM     16  C   UNL A   1      32.224  22.183  22.689  1.00  0.00     0.094 A 
ATOM     17  H   UNL A   1      32.100  20.482  21.475  1.00  0.00     0.166 HD
BRANCH   9  18
ATOM     18  N   UNL A   1      32.256  16.887  25.274  1.00  0.00    -0.326 N 
ATOM     19  C   UNL A   1      33.003  15.801  24.905  1.00  0.00     0.226 C 
ATOM     20  O   UNL A   1      32.518  14.681  25.106  1.00  0.00    -0.274 OA
ATOM     21  H   UNL A   1      31.442  16.687  25.791  1.00  0.00     0.169 HD
BRANCH  19  22
ATOM     22  C   UNL A   1      34.442  15.911  24.362  1.00  0.00     0.072 C 
ATOM     23  C   UNL A   1      34.587  16.591  23.005  1.00  0.00     0.018 C 
ATOM     24  C   UNL A   1      35.463  16.418  25.381  1.00  0.00     0.018 C 
ENDBRANCH  19  22
ENDBRANCH   9  18
ENDBRANCH   7   8
BRANCH   7  25
ATOM     25  N   UNL A   1      31.440  24.055  25.224  1.00  0.00    -0.312 N 
ATOM     26  C   UNL A   1      31.358  25.224  26.105  1.00  0.00     0.325 C 
ATOM     27  C   UNL A   1      30.494  24.173  24.134  1.00  0.00     0.325 C 
ATOM     28  H   UNL A   1      31.145  23.259  25.789  1.00  0.00     0.349 HD
ATOM     29  C   UNL A   1      31.507  26.594  25.403  1.00  0.00     0.325 C 
ATOM     30  C   UNL A   1      30.786  25.440  23.357  1.00  0.00     0.325 C 
ATOM     31  N   UNL A   1      30.947  26.716  24.047  1.00  0.00    -0.318 N 
ATOM     32  H   UNL A   1      31.672  27.201  23.518  1.00  0.00     0.348 HD
BRANCH  31  33
ATOM     33  C   UNL A   1      29.784  27.604  23.949  1.00  0.00     0.364 C 
BRANCH  33  34
ATOM     34  C   UNL A   1      29.929  28.584  22.783  1.00  0.00     0.277 C 
ATOM     35  O   UNL A   1      31.014  28.690  22.203  1.00  0.00    -0.268 OA
ATOM     36  N   UNL A   1      28.861  29.434  22.495  1.00  0.00    -0.344 N 
ATOM     37  C   UNL A   1      27.464  29.228  22.859  1.00  0.00     0.146 C 
ATOM     38  C   UNL A   1      29.145  30.611  21.696  1.00  0.00     0.146 C 
ENDBRANCH  33  34
ENDBRANCH  31  33
ENDBRANCH   7  25
ENDBRANCH   4   7
ENDBRANCH   2   3
ENDBRANCH   1   2
BRANCH   1  39
ATOM     39  C   UNL A   1      37.370  20.885  24.561  1.00  0.00     0.023 C 
BRANCH  39  40
ATOM     40  C   UNL A   1      38.303  21.593  25.521  1.00  0.00     0.116 C 
BRANCH  40  41
ATOM     41  N   UNL A   1      39.224  20.655  26.164  1.00  0.00    -0.352 N 
ATOM     42  C   UNL A   1      40.414  20.893  26.798  1.00  0.00     0.251 C 
ATOM     43  H   UNL A   1      38.946  19.710  26.136  1.00  0.00     0.163 HD
ATOM     44  O   UNL A   1      41.186  19.962  27.024  1.00  0.00    -0.269 OA
BRANCH  42  45
ATOM     45  C   UNL A   1      40.740  22.269  27.197  1.00  0.00     0.039 A 
ATOM     46  C   UNL A   1      41.577  22.499  28.288  1.00  0.00     0.014 A 
ATOM     47  C   UNL A   1      40.233  23.334  26.448  1.00  0.00     0.014 A 
ATOM     48  C   UNL A   1      41.952  23.807  28.587  1.00  0.00     0.010 A 
ATOM     49  C   UNL A   1      40.719  24.609  26.659  1.00  0.00     0.010 A 
ATOM     50  C   UNL A   1      41.557  24.864  27.750  1.00  0.00    -0.014 A 
BRANCH  50  51
ATOM     51  C   UNL A   1      41.959  26.263  28.015  1.00  0.00     0.031 A 
ATOM     52  C   UNL A   1      43.345  26.712  27.635  1.00  0.00     0.074 A 
ATOM     53  C   UNL A   1      41.114  27.086  28.664  1.00  0.00     0.049 A 
ATOM     54  N   UNL A   1      43.939  27.852  27.869  1.00  0.00    -0.248 NA
ATOM     55  C   UNL A   1      44.194  25.727  26.942  1.00  0.00     0.031 C 
ATOM     56  C   UNL A   1      39.773  26.725  29.131  1.00  0.00     0.029 A 
ATOM     57  N   UNL A   1      41.258  28.392  29.049  1.00  0.00    -0.354 N 
ATOM     58  C   UNL A   1      45.231  27.710  27.376  1.00  0.00     0.074 A 
ATOM     59  C   UNL A   1      45.361  26.348  26.913  1.00  0.00     0.031 C 
ATOM     60  C   UNL A   1      39.202  27.798  29.701  1.00  0.00     0.029 A 
ATOM     61  C   UNL A   1      40.154  28.902  29.693  1.00  0.00     0.049 A 
ATOM     62  H   UNL A   1      42.074  28.916  28.881  1.00  0.00     0.167 HD
ATOM     63  C   UNL A   1      46.208  28.644  27.286  1.00  0.00     0.034 A 
ATOM     64  C   UNL A   1      39.944  30.122  30.224  1.00  0.00     0.034 A 
ATOM     65  C   UNL A   1      46.036  30.004  27.732  1.00  0.00     0.049 A 
ATOM     66  C   UNL A   1      41.046  31.145  30.117  1.00  0.00     0.074 A 
ATOM     67  C   UNL A   1      46.923  31.060  27.636  1.00  0.00     0.029 A 
ATOM     68  N   UNL A   1      44.899  30.492  28.365  1.00  0.00    -0.354 N 
ATOM     69  N   UNL A   1      42.244  31.018  29.589  1.00  0.00    -0.248 NA
ATOM     70  C   UNL A   1      40.766  32.477  30.664  1.00  0.00     0.031 C 
ATOM     71  C   UNL A   1      46.355  32.164  28.280  1.00  0.00     0.029 A 
ATOM     72  C   UNL A   1      45.076  31.825  28.697  1.00  0.00     0.049 A 
ATOM     73  H   UNL A   1      44.087  29.967  28.551  1.00  0.00     0.167 HD
ATOM     74  C   UNL A   1      42.848  32.267  29.714  1.00  0.00     0.074 A 
ATOM     75  C   UNL A   1      41.874  33.132  30.349  1.00  0.00     0.031 C 
ATOM     76  C   UNL A   1      44.090  32.665  29.338  1.00  0.00     0.034 A 
BRANCH  63  77
ATOM     77  C   UNL A   1      47.534  28.214  26.705  1.00  0.00     0.023 A 
ATOM     78  C   UNL A   1      47.729  28.085  25.318  1.00  0.00     0.031 A 
ATOM     79  C   UNL A   1      48.609  27.889  27.550  1.00  0.00     0.131 A 
ATOM     80  C   UNL A   1      48.934  27.563  24.823  1.00  0.00     0.055 A 
ATOM     81  C   UNL A   1      49.839  27.458  27.047  1.00  0.00     0.041 A 
ATOM     82  F   UNL A   1      48.478  27.965  28.884  1.00  0.00    -0.206 F 
ATOM     83  C   UNL A   1      50.001  27.276  25.676  1.00  0.00     0.022 A 
BRANCH  80  84
ATOM     84  S   UNL A   1      49.026  27.112  23.068  1.00  0.00     0.124 S 
ATOM     85  O   UNL A   1      48.323  25.831  23.057  1.00  0.00    -0.237 OA
ATOM     86  O   UNL A   1      48.338  28.223  22.420  1.00  0.00    -0.237 OA
ATOM     87  O   UNL A   1      50.462  27.029  22.810  1.00  0.00    -0.744 OA
ENDBRANCH  80  84
ENDBRANCH  63  77
BRANCH  64  88
ATOM     88  C   UNL A   1      38.653  30.444  30.896  1.00  0.00     0.023 A 
ATOM     89  C   UNL A   1      37.622  31.101  30.208  1.00  0.00     0.031 A 
ATOM     90  C   UNL A   1      38.442  30.128  32.250  1.00  0.00     0.131 A 
ATOM     91  C   UNL A   1      36.449  31.469  30.886  1.00  0.00     0.055 A 
ATOM     92  C   UNL A   1      37.249  30.443  32.906  1.00  0.00     0.041 A 
ATOM     93  F   UNL A   1      39.391  29.493  32.957  1.00  0.00    -0.206 F 
ATOM     94  C   UNL A   1      36.250  31.130  32.225  1.00  0.00     0.022 A 
BRANCH  91  95
ATOM     95  S   UNL A   1      35.224  32.482  30.012  1.00  0.00     0.124 S 
ATOM     96  O   UNL A   1      34.825  31.595  28.926  1.00  0.00    -0.237 OA
ATOM     97  O   UNL A   1      34.227  32.715  31.051  1.00  0.00    -0.237 OA
ATOM     98  O   UNL A   1      35.987  33.662  29.607  1.00  0.00    -0.744 OA
ENDBRANCH  91  95
ENDBRANCH  64  88
BRANCH  76  99
ATOM     99  C   UNL A   1      44.440  34.115  29.561  1.00  0.00     0.023 A 
ATOM    100  C   UNL A   1      44.225  35.090  28.572  1.00  0.00     0.031 A 
ATOM    101  C   UNL A   1      45.001  34.524  30.785  1.00  0.00     0.131 A 
ATOM    102  C   UNL A   1      44.626  36.414  28.801  1.00  0.00     0.055 A 
ATOM    103  C   UNL A   1      45.330  35.856  31.033  1.00  0.00     0.041 A 
ATOM    104  F   UNL A   1      45.231  33.634  31.763  1.00  0.00    -0.206 F 
ATOM    105  C   UNL A   1      45.157  36.807  30.033  1.00  0.00     0.022 A 
BRANCH 102 106
ATOM    106  S   UNL A   1      44.542  37.596  27.428  1.00  0.00     0.124 S 
ATOM    107  O   UNL A   1      43.246  37.281  26.838  1.00  0.00    -0.237 OA
ATOM    108  O   UNL A   1      44.636  38.880  28.116  1.00  0.00    -0.237 OA
ATOM    109  O   UNL A   1      45.700  37.248  26.606  1.00  0.00    -0.744 OA
ENDBRANCH 102 106
ENDBRANCH  76  99
ENDBRANCH  50  51
ENDBRANCH  42  45
ENDBRANCH  40  41
ENDBRANCH  39  40
ENDBRANCH   1  39
TORSDOF 20
ENDMDL
