MODEL 1
REMARK VINA RESULT:     -12.6      0.000      0.000
REMARK SMILES O=C(NCCCCNC(=O)[C@H]1CCCN(C(=O)c2cc(Br)ccc2Cl)C1)c1ccc(-c2c3nc(c(-c4cc(S(=O)(=O)[O-])ccc4F)c4ccc([nH]4)c(-c4cc(S(=O)(=O)[O-])ccc4F)c4nc(c(-c5cc(S(=O)(=O)[O-])ccc5F)c5ccc2[nH]5)C=C4)C=C3)cc1
REMARK SMILES IDX 5 1 4 2 3 3 1 4 2 5 27 7 28 8 89 9 29 10 88 11 30 12 31 13
REMARK SMILES IDX 32 14 82 15 33 16 87 17 81 18 83 19 34 20 86 21 80 22 79 23
REMARK SMILES IDX 35 25 67 26 47 27 66 28 48 29 51 30 65 31 84 32 49 33 50 34
REMARK SMILES IDX 64 36 85 37 52 38 36 39 37 40 45 41 38 42 44 43 46 44 43 45
REMARK SMILES IDX 39 46 40 47 41 48 42 49 68 50 69 51 77 52 70 53 76 54 78 55
REMARK SMILES IDX 75 56 71 57 72 58 73 59 74 60 53 61 54 62 62 63 55 64 61 65
REMARK SMILES IDX 63 66 60 67 56 68 57 69 58 70 59 71 6 72 7 73 8 74 9 75
REMARK SMILES IDX 10 77 11 78 12 79 26 80 13 81 15 82 14 83 16 84 17 85 18 86
REMARK SMILES IDX 19 87 24 88 20 89 23 90 25 91 21 92 22 93
REMARK H PARENT 3 6 83 24 51 35 8 76
REMARK Flexibility Score: inf
ROOT
ATOM      1  C   UNL A   1      31.695  31.683  26.754  1.00  0.00     0.023 C 
ENDROOT
BRANCH   1   2
ATOM      2  C   UNL A   1      32.887  32.465  27.289  1.00  0.00     0.116 C 
BRANCH   2   3
ATOM      3  N   UNL A   1      32.544  33.824  27.679  1.00  0.00    -0.352 N 
ATOM      4  O   UNL A   1      32.632  35.691  28.939  1.00  0.00    -0.269 OA
ATOM      5  C   UNL A   1      33.125  34.609  28.646  1.00  0.00     0.251 C 
ATOM      6  H   UNL A   1      31.798  34.235  27.186  1.00  0.00     0.163 HD
BRANCH   5   7
ATOM      7  C   UNL A   1      34.331  34.117  29.342  1.00  0.00     0.039 A 
ATOM      8  C   UNL A   1      35.606  34.402  28.843  1.00  0.00     0.014 A 
ATOM      9  C   UNL A   1      34.176  33.346  30.496  1.00  0.00     0.014 A 
ATOM     10  C   UNL A   1      36.722  33.818  29.430  1.00  0.00     0.010 A 
ATOM     11  C   UNL A   1      35.304  32.816  31.124  1.00  0.00     0.010 A 
ATOM     12  C   UNL A   1      36.583  33.029  30.581  1.00  0.00    -0.014 A 
BRANCH  12  13
ATOM     13  C   UNL A   1      37.781  32.466  31.247  1.00  0.00     0.031 A 
ATOM     14  C   UNL A   1      38.520  31.309  30.642  1.00  0.00     0.074 A 
ATOM     15  C   UNL A   1      38.173  32.988  32.425  1.00  0.00     0.049 A 
ATOM     16  N   UNL A   1      39.515  30.616  31.130  1.00  0.00    -0.248 NA
ATOM     17  C   UNL A   1      38.066  30.864  29.317  1.00  0.00     0.031 C 
ATOM     18  C   UNL A   1      37.526  34.115  33.101  1.00  0.00     0.029 A 
ATOM     19  N   UNL A   1      39.192  32.631  33.269  1.00  0.00    -0.354 N 
ATOM     20  C   UNL A   1      39.797  29.636  30.185  1.00  0.00     0.074 A 
ATOM     21  C   UNL A   1      38.841  29.809  29.109  1.00  0.00     0.031 C 
ATOM     22  C   UNL A   1      38.160  34.353  34.258  1.00  0.00     0.029 A 
ATOM     23  C   UNL A   1      39.211  33.357  34.435  1.00  0.00     0.049 A 
ATOM     24  H   UNL A   1      39.845  31.924  33.061  1.00  0.00     0.167 HD
ATOM     25  C   UNL A   1      40.766  28.686  30.217  1.00  0.00     0.034 A 
ATOM     26  C   UNL A   1      39.955  33.209  35.547  1.00  0.00     0.034 A 
ATOM     27  C   UNL A   1      41.701  28.534  31.308  1.00  0.00     0.049 A 
ATOM     28  C   UNL A   1      40.985  32.117  35.590  1.00  0.00     0.074 A 
ATOM     29  C   UNL A   1      42.752  27.642  31.430  1.00  0.00     0.029 A 
ATOM     30  N   UNL A   1      41.683  29.284  32.480  1.00  0.00    -0.354 N 
ATOM     31  N   UNL A   1      41.260  31.210  34.681  1.00  0.00    -0.248 NA
ATOM     32  C   UNL A   1      41.809  32.030  36.802  1.00  0.00     0.031 C 
ATOM     33  C   UNL A   1      43.321  27.802  32.698  1.00  0.00     0.029 A 
ATOM     34  C   UNL A   1      42.678  28.848  33.342  1.00  0.00     0.049 A 
ATOM     35  H   UNL A   1      41.056  30.018  32.670  1.00  0.00     0.167 HD
ATOM     36  C   UNL A   1      42.305  30.457  35.202  1.00  0.00     0.074 A 
ATOM     37  C   UNL A   1      42.612  31.017  36.503  1.00  0.00     0.031 C 
ATOM     38  C   UNL A   1      42.960  29.406  34.646  1.00  0.00     0.034 A 
BRANCH  25  39
ATOM     39  C   UNL A   1      40.817  27.711  29.063  1.00  0.00     0.023 A 
ATOM     40  C   UNL A   1      41.757  27.836  28.025  1.00  0.00     0.031 A 
ATOM     41  C   UNL A   1      39.876  26.669  28.971  1.00  0.00     0.131 A 
ATOM     42  C   UNL A   1      41.675  27.001  26.900  1.00  0.00     0.055 A 
ATOM     43  C   UNL A   1      39.856  25.784  27.890  1.00  0.00     0.041 A 
ATOM     44  F   UNL A   1      38.940  26.507  29.920  1.00  0.00    -0.206 F 
ATOM     45  C   UNL A   1      40.747  25.960  26.836  1.00  0.00     0.022 A 
BRANCH  42  46
ATOM     46  S   UNL A   1      42.680  27.410  25.444  1.00  0.00     0.124 S 
ATOM     47  O   UNL A   1      43.989  27.657  26.047  1.00  0.00    -0.237 OA
ATOM     48  O   UNL A   1      42.567  26.203  24.635  1.00  0.00    -0.237 OA
ATOM     49  O   UNL A   1      42.024  28.596  24.897  1.00  0.00    -0.744 OA
ENDBRANCH  42  46
ENDBRANCH  25  39
BRANCH  26  50
ATOM     50  C   UNL A   1      39.695  34.089  36.718  1.00  0.00     0.023 A 
ATOM     51  C   UNL A   1      39.122  33.588  37.895  1.00  0.00     0.031 A 
ATOM     52  C   UNL A   1      40.065  35.447  36.683  1.00  0.00     0.131 A 
ATOM     53  C   UNL A   1      38.922  34.445  38.988  1.00  0.00     0.055 A 
ATOM     54  C   UNL A   1      39.901  36.284  37.786  1.00  0.00     0.041 A 
ATOM     55  F   UNL A   1      40.631  35.968  35.582  1.00  0.00    -0.206 F 
ATOM     56  C   UNL A   1      39.321  35.784  38.948  1.00  0.00     0.022 A 
BRANCH  53  57
ATOM     57  S   UNL A   1      38.103  33.789  40.467  1.00  0.00     0.124 S 
ATOM     58  O   UNL A   1      37.908  34.998  41.259  1.00  0.00    -0.237 OA
ATOM     59  O   UNL A   1      36.898  33.188  39.907  1.00  0.00    -0.237 OA
ATOM     60  O   UNL A   1      39.077  32.841  41.004  1.00  0.00    -0.744 OA
ENDBRANCH  53  57
ENDBRANCH  26  50
BRANCH  38  61
ATOM     61  C   UNL A   1      44.108  28.823  35.429  1.00  0.00     0.023 A 
ATOM     62  C   UNL A   1      43.927  27.773  36.344  1.00  0.00     0.031 A 
ATOM     63  C   UNL A   1      45.409  29.323  35.238  1.00  0.00     0.131 A 
ATOM     64  C   UNL A   1      45.026  27.276  37.059  1.00  0.00     0.055 A 
ATOM     65  C   UNL A   1      46.505  28.793  35.917  1.00  0.00     0.041 A 
ATOM     66  F   UNL A   1      45.635  30.329  34.377  1.00  0.00    -0.206 F 
ATOM     67  C   UNL A   1      46.316  27.767  36.839  1.00  0.00     0.022 A 
BRANCH  64  68
ATOM     68  S   UNL A   1      44.746  26.005  38.323  1.00  0.00     0.124 S 
ATOM     69  O   UNL A   1      44.554  24.808  37.511  1.00  0.00    -0.237 OA
ATOM     70  O   UNL A   1      45.979  26.058  39.102  1.00  0.00    -0.237 OA
ATOM     71  O   UNL A   1      43.553  26.476  39.025  1.00  0.00    -0.744 OA
ENDBRANCH  64  68
ENDBRANCH  38  61
ENDBRANCH  12  13
ENDBRANCH   5   7
ENDBRANCH   2   3
ENDBRANCH   1   2
BRANCH   1  72
ATOM     72  C   UNL A   1      31.905  30.174  26.649  1.00  0.00     0.023 C 
BRANCH  72  73
ATOM     73  C   UNL A   1      32.646  29.714  25.393  1.00  0.00     0.116 C 
BRANCH  73  74
ATOM     74  N   UNL A   1      31.790  29.737  24.221  1.00  0.00    -0.356 N 
ATOM     75  C   UNL A   1      31.338  28.737  23.415  1.00  0.00     0.224 C 
ATOM     76  H   UNL A   1      31.483  30.636  23.962  1.00  0.00     0.163 HD
ATOM     77  O   UNL A   1      30.644  29.055  22.447  1.00  0.00    -0.275 OA
BRANCH  75  78
ATOM     78  C   UNL A   1      31.629  27.268  23.695  1.00  0.00     0.098 C 
ATOM     79  C   UNL A   1      30.716  26.660  24.774  1.00  0.00     0.017 C 
ATOM     80  C   UNL A   1      31.702  26.481  22.381  1.00  0.00     0.133 C 
ATOM     81  C   UNL A   1      30.808  25.139  24.855  1.00  0.00     0.022 C 
ATOM     82  N   UNL A   1      31.751  25.040  22.624  1.00  0.00    -0.338 N 
ATOM     83  C   UNL A   1      30.677  24.525  23.469  1.00  0.00     0.120 C 
BRANCH  82  84
ATOM     84  C   UNL A   1      32.836  24.305  22.161  1.00  0.00     0.255 C 
ATOM     85  O   UNL A   1      33.321  24.403  21.037  1.00  0.00    -0.269 OA
BRANCH  84  86
ATOM     86  C   UNL A   1      33.510  23.396  23.101  1.00  0.00     0.059 A 
ATOM     87  C   UNL A   1      34.567  23.925  23.853  1.00  0.00     0.031 A 
ATOM     88  C   UNL A   1      33.119  22.062  23.253  1.00  0.00     0.053 A 
ATOM     89  C   UNL A   1      35.206  23.117  24.789  1.00  0.00     0.018 A 
ATOM     90  C   UNL A   1      33.764  21.266  24.203  1.00  0.00     0.022 A 
ATOM     91  Cl  UNL A   1      31.843  21.359  22.331  1.00  0.00    -0.083 Cl
ATOM     92  Br  UNL A   1      36.621  23.820  25.825  1.00  0.00    -0.051 Br
ATOM     93  C   UNL A   1      34.804  21.794  24.975  1.00  0.00     0.017 A 
ENDBRANCH  84  86
ENDBRANCH  82  84
ENDBRANCH  75  78
ENDBRANCH  73  74
ENDBRANCH  72  73
ENDBRANCH   1  72
TORSDOF 16
ENDMDL
MODEL 2
REMARK VINA RESULT:     -12.4      1.726      2.053
REMARK SMILES O=C(NCCCCNC(=O)[C@H]1CCCN(C(=O)c2cc(Br)ccc2Cl)C1)c1ccc(-c2c3nc(c(-c4cc(S(=O)(=O)[O-])ccc4F)c4ccc([nH]4)c(-c4cc(S(=O)(=O)[O-])ccc4F)c4nc(c(-c5cc(S(=O)(=O)[O-])ccc5F)c5ccc2[nH]5)C=C4)C=C3)cc1
REMARK SMILES IDX 5 1 4 2 3 3 1 4 2 5 27 7 28 8 89 9 29 10 88 11 30 12 31 13
REMARK SMILES IDX 32 14 82 15 33 16 87 17 81 18 83 19 34 20 86 21 80 22 79 23
REMARK SMILES IDX 35 25 67 26 47 27 66 28 48 29 51 30 65 31 84 32 49 33 50 34
REMARK SMILES IDX 64 36 85 37 52 38 36 39 37 40 45 41 38 42 44 43 46 44 43 45
REMARK SMILES IDX 39 46 40 47 41 48 42 49 68 50 69 51 77 52 70 53 76 54 78 55
REMARK SMILES IDX 75 56 71 57 72 58 73 59 74 60 53 61 54 62 62 63 55 64 61 65
REMARK SMILES IDX 63 66 60 67 56 68 57 69 58 70 59 71 6 72 7 73 8 74 9 75
REMARK SMILES IDX 10 77 11 78 12 79 26 80 13 81 15 82 14 83 16 84 17 85 18 86
REMARK SMILES IDX 19 87 24 88 20 89 23 90 25 91 21 92 22 93
REMARK H PARENT 3 6 83 24 51 35 8 76
REMARK Flexibility Score: inf
ROOT
ATOM      1  C   UNL A   1      31.635  31.486  26.489  1.00  0.00     0.023 C 
ENDROOT
BRANCH   1   2
ATOM      2  C   UNL A   1      32.853  32.184  27.080  1.00  0.00     0.116 C 
BRANCH   2   3
ATOM      3  N   UNL A   1      32.574  33.546  27.508  1.00  0.00    -0.352 N 
ATOM      4  O   UNL A   1      32.768  35.380  28.804  1.00  0.00    -0.269 OA
ATOM      5  C   UNL A   1      33.211  34.287  28.474  1.00  0.00     0.251 C 
ATOM      6  H   UNL A   1      31.831  33.996  27.045  1.00  0.00     0.163 HD
BRANCH   5   7
ATOM      7  C   UNL A   1      34.417  33.735  29.124  1.00  0.00     0.039 A 
ATOM      8  C   UNL A   1      35.686  34.222  28.799  1.00  0.00     0.014 A 
ATOM      9  C   UNL A   1      34.268  32.704  30.055  1.00  0.00     0.014 A 
ATOM     10  C   UNL A   1      36.817  33.599  29.316  1.00  0.00     0.010 A 
ATOM     11  C   UNL A   1      35.403  32.125  30.624  1.00  0.00     0.010 A 
ATOM     12  C   UNL A   1      36.685  32.553  30.241  1.00  0.00    -0.014 A 
BRANCH  12  13
ATOM     13  C   UNL A   1      37.890  31.939  30.845  1.00  0.00     0.031 A 
ATOM     14  C   UNL A   1      38.671  30.894  30.102  1.00  0.00     0.074 A 
ATOM     15  C   UNL A   1      38.252  32.306  32.089  1.00  0.00     0.049 A 
ATOM     16  N   UNL A   1      39.679  30.169  30.509  1.00  0.00    -0.248 NA
ATOM     17  C   UNL A   1      38.248  30.620  28.722  1.00  0.00     0.031 C 
ATOM     18  C   UNL A   1      37.563  33.314  32.900  1.00  0.00     0.029 A 
ATOM     19  N   UNL A   1      39.269  31.866  32.894  1.00  0.00    -0.354 N 
ATOM     20  C   UNL A   1      40.003  29.334  29.446  1.00  0.00     0.074 A 
ATOM     21  C   UNL A   1      39.056  29.625  28.387  1.00  0.00     0.031 C 
ATOM     22  C   UNL A   1      38.174  33.410  34.089  1.00  0.00     0.029 A 
ATOM     23  C   UNL A   1      39.252  32.429  34.148  1.00  0.00     0.049 A 
ATOM     24  H   UNL A   1      39.946  31.213  32.604  1.00  0.00     0.167 HD
ATOM     25  C   UNL A   1      40.999  28.415  29.365  1.00  0.00     0.034 A 
ATOM     26  C   UNL A   1      39.985  32.152  35.242  1.00  0.00     0.034 A 
ATOM     27  C   UNL A   1      41.923  28.143  30.442  1.00  0.00     0.049 A 
ATOM     28  C   UNL A   1      41.046  31.093  35.155  1.00  0.00     0.074 A 
ATOM     29  C   UNL A   1      42.998  27.272  30.459  1.00  0.00     0.029 A 
ATOM     30  N   UNL A   1      41.868  28.727  31.703  1.00  0.00    -0.354 N 
ATOM     31  N   UNL A   1      41.360  30.326  34.136  1.00  0.00    -0.248 NA
ATOM     32  C   UNL A   1      41.856  30.865  36.357  1.00  0.00     0.031 C 
ATOM     33  C   UNL A   1      43.546  27.275  31.748  1.00  0.00     0.029 A 
ATOM     34  C   UNL A   1      42.865  28.206  32.515  1.00  0.00     0.049 A 
ATOM     35  H   UNL A   1      41.217  29.411  31.980  1.00  0.00     0.167 HD
ATOM     36  C   UNL A   1      42.420  29.538  34.569  1.00  0.00     0.074 A 
ATOM     37  C   UNL A   1      42.693  29.924  35.939  1.00  0.00     0.031 C 
ATOM     38  C   UNL A   1      43.112  28.590  33.887  1.00  0.00     0.034 A 
BRANCH  25  39
ATOM     39  C   UNL A   1      41.093  27.607  28.091  1.00  0.00     0.023 A 
ATOM     40  C   UNL A   1      40.689  26.262  28.032  1.00  0.00     0.031 A 
ATOM     41  C   UNL A   1      41.647  28.176  26.930  1.00  0.00     0.131 A 
ATOM     42  C   UNL A   1      40.931  25.506  26.875  1.00  0.00     0.055 A 
ATOM     43  C   UNL A   1      41.803  27.442  25.750  1.00  0.00     0.041 A 
ATOM     44  F   UNL A   1      42.070  29.449  26.926  1.00  0.00    -0.206 F 
ATOM     45  C   UNL A   1      41.463  26.093  25.724  1.00  0.00     0.022 A 
BRANCH  42  46
ATOM     46  S   UNL A   1      40.708  23.707  26.954  1.00  0.00     0.124 S 
ATOM     47  O   UNL A   1      41.075  23.423  28.341  1.00  0.00    -0.237 OA
ATOM     48  O   UNL A   1      39.297  23.549  26.622  1.00  0.00    -0.237 OA
ATOM     49  O   UNL A   1      41.648  23.200  25.956  1.00  0.00    -0.744 OA
ENDBRANCH  42  46
ENDBRANCH  25  39
BRANCH  26  50
ATOM     50  C   UNL A   1      39.685  32.858  36.516  1.00  0.00     0.023 A 
ATOM     51  C   UNL A   1      38.737  32.359  37.422  1.00  0.00     0.031 A 
ATOM     52  C   UNL A   1      40.384  34.030  36.862  1.00  0.00     0.131 A 
ATOM     53  C   UNL A   1      38.505  33.040  38.627  1.00  0.00     0.055 A 
ATOM     54  C   UNL A   1      40.179  34.678  38.080  1.00  0.00     0.041 A 
ATOM     55  F   UNL A   1      41.311  34.536  36.034  1.00  0.00    -0.206 F 
ATOM     56  C   UNL A   1      39.229  34.185  38.969  1.00  0.00     0.022 A 
BRANCH  53  57
ATOM     57  S   UNL A   1      37.216  32.418  39.740  1.00  0.00     0.124 S 
ATOM     58  O   UNL A   1      37.834  31.204  40.262  1.00  0.00    -0.237 OA
ATOM     59  O   UNL A   1      37.070  33.521  40.684  1.00  0.00    -0.237 OA
ATOM     60  O   UNL A   1      36.073  32.206  38.854  1.00  0.00    -0.744 OA
ENDBRANCH  53  57
ENDBRANCH  26  50
BRANCH  38  61
ATOM     61  C   UNL A   1      44.267  27.938  34.604  1.00  0.00     0.023 A 
ATOM     62  C   UNL A   1      44.123  26.724  35.296  1.00  0.00     0.031 A 
ATOM     63  C   UNL A   1      45.537  28.541  34.576  1.00  0.00     0.131 A 
ATOM     64  C   UNL A   1      45.225  26.166  35.960  1.00  0.00     0.055 A 
ATOM     65  C   UNL A   1      46.640  27.958  35.198  1.00  0.00     0.041 A 
ATOM     66  F   UNL A   1      45.727  29.704  33.931  1.00  0.00    -0.206 F 
ATOM     67  C   UNL A   1      46.486  26.767  35.900  1.00  0.00     0.022 A 
BRANCH  64  68
ATOM     68  S   UNL A   1      44.984  24.664  36.948  1.00  0.00     0.124 S 
ATOM     69  O   UNL A   1      46.360  24.264  37.229  1.00  0.00    -0.237 OA
ATOM     70  O   UNL A   1      44.217  25.157  38.088  1.00  0.00    -0.237 OA
ATOM     71  O   UNL A   1      44.252  23.775  36.048  1.00  0.00    -0.744 OA
ENDBRANCH  64  68
ENDBRANCH  38  61
ENDBRANCH  12  13
ENDBRANCH   5   7
ENDBRANCH   2   3
ENDBRANCH   1   2
BRANCH   1  72
ATOM     72  C   UNL A   1      31.804  29.989  26.241  1.00  0.00     0.023 C 
BRANCH  72  73
ATOM     73  C   UNL A   1      32.545  29.631  24.952  1.00  0.00     0.116 C 
BRANCH  73  74
ATOM     74  N   UNL A   1      31.649  29.569  23.812  1.00  0.00    -0.356 N 
ATOM     75  C   UNL A   1      31.122  28.511  23.136  1.00  0.00     0.224 C 
ATOM     76  H   UNL A   1      31.374  30.449  23.466  1.00  0.00     0.163 HD
ATOM     77  O   UNL A   1      30.408  28.756  22.161  1.00  0.00    -0.275 OA
BRANCH  75  78
ATOM     78  C   UNL A   1      31.355  27.069  23.567  1.00  0.00     0.098 C 
ATOM     79  C   UNL A   1      30.257  26.524  24.496  1.00  0.00     0.017 C 
ATOM     80  C   UNL A   1      31.671  26.194  22.347  1.00  0.00     0.133 C 
ATOM     81  C   UNL A   1      30.331  25.014  24.699  1.00  0.00     0.022 C 
ATOM     82  N   UNL A   1      31.674  24.774  22.695  1.00  0.00    -0.338 N 
ATOM     83  C   UNL A   1      30.462  24.305  23.359  1.00  0.00     0.120 C 
BRANCH  82  84
ATOM     84  C   UNL A   1      32.827  24.023  22.494  1.00  0.00     0.255 C 
ATOM     85  O   UNL A   1      33.580  24.140  21.532  1.00  0.00    -0.269 OA
BRANCH  84  86
ATOM     86  C   UNL A   1      33.225  23.070  23.541  1.00  0.00     0.059 A 
ATOM     87  C   UNL A   1      32.812  21.740  23.384  1.00  0.00     0.031 A 
ATOM     88  C   UNL A   1      33.987  23.458  24.647  1.00  0.00     0.053 A 
ATOM     89  C   UNL A   1      33.203  20.792  24.324  1.00  0.00     0.018 A 
ATOM     90  C   UNL A   1      34.380  22.493  25.578  1.00  0.00     0.022 A 
ATOM     91  Cl  UNL A   1      34.495  25.087  24.897  1.00  0.00    -0.083 Cl
ATOM     92  Br  UNL A   1      32.672  18.990  24.117  1.00  0.00    -0.051 Br
ATOM     93  C   UNL A   1      33.993  21.159  25.415  1.00  0.00     0.017 A 
ENDBRANCH  84  86
ENDBRANCH  82  84
ENDBRANCH  75  78
ENDBRANCH  73  74
ENDBRANCH  72  73
ENDBRANCH   1  72
TORSDOF 16
ENDMDL
MODEL 3
REMARK VINA RESULT:     -12.2      5.890     11.669
REMARK SMILES O=C(NCCCCNC(=O)[C@H]1CCCN(C(=O)c2cc(Br)ccc2Cl)C1)c1ccc(-c2c3nc(c(-c4cc(S(=O)(=O)[O-])ccc4F)c4ccc([nH]4)c(-c4cc(S(=O)(=O)[O-])ccc4F)c4nc(c(-c5cc(S(=O)(=O)[O-])ccc5F)c5ccc2[nH]5)C=C4)C=C3)cc1
REMARK SMILES IDX 5 1 4 2 3 3 1 4 2 5 27 7 28 8 89 9 29 10 88 11 30 12 31 13
REMARK SMILES IDX 32 14 82 15 33 16 87 17 81 18 83 19 34 20 86 21 80 22 79 23
REMARK SMILES IDX 35 25 67 26 47 27 66 28 48 29 51 30 65 31 84 32 49 33 50 34
REMARK SMILES IDX 64 36 85 37 52 38 36 39 37 40 45 41 38 42 44 43 46 44 43 45
REMARK SMILES IDX 39 46 40 47 41 48 42 49 68 50 69 51 77 52 70 53 76 54 78 55
REMARK SMILES IDX 75 56 71 57 72 58 73 59 74 60 53 61 54 62 62 63 55 64 61 65
REMARK SMILES IDX 63 66 60 67 56 68 57 69 58 70 59 71 6 72 7 73 8 74 9 75
REMARK SMILES IDX 10 77 11 78 12 79 26 80 13 81 15 82 14 83 16 84 17 85 18 86
REMARK SMILES IDX 19 87 24 88 20 89 23 90 25 91 21 92 22 93
REMARK H PARENT 3 6 83 24 51 35 8 76
REMARK Flexibility Score: inf
ROOT
ATOM      1  C   UNL A   1      38.073  20.044  24.953  1.00  0.00     0.023 C 
ENDROOT
BRANCH   1   2
ATOM      2  C   UNL A   1      39.145  20.317  26.000  1.00  0.00     0.116 C 
BRANCH   2   3
ATOM      3  N   UNL A   1      40.241  19.363  25.951  1.00  0.00    -0.352 N 
ATOM      4  O   UNL A   1      42.394  18.697  25.878  1.00  0.00    -0.269 OA
ATOM      5  C   UNL A   1      41.590  19.600  26.070  1.00  0.00     0.251 C 
ATOM      6  H   UNL A   1      39.984  18.422  25.814  1.00  0.00     0.163 HD
BRANCH   5   7
ATOM      7  C   UNL A   1      42.052  20.962  26.407  1.00  0.00     0.039 A 
ATOM      8  C   UNL A   1      42.242  21.917  25.403  1.00  0.00     0.014 A 
ATOM      9  C   UNL A   1      42.314  21.274  27.743  1.00  0.00     0.014 A 
ATOM     10  C   UNL A   1      42.806  23.147  25.720  1.00  0.00     0.010 A 
ATOM     11  C   UNL A   1      42.817  22.535  28.067  1.00  0.00     0.010 A 
ATOM     12  C   UNL A   1      43.088  23.471  27.055  1.00  0.00    -0.014 A 
BRANCH  12  13
ATOM     13  C   UNL A   1      43.623  24.809  27.399  1.00  0.00     0.031 A 
ATOM     14  C   UNL A   1      42.716  25.884  27.922  1.00  0.00     0.074 A 
ATOM     15  C   UNL A   1      44.931  25.056  27.199  1.00  0.00     0.049 A 
ATOM     16  N   UNL A   1      42.979  27.140  28.170  1.00  0.00    -0.248 NA
ATOM     17  C   UNL A   1      41.324  25.495  28.184  1.00  0.00     0.031 C 
ATOM     18  C   UNL A   1      45.902  24.081  26.696  1.00  0.00     0.029 A 
ATOM     19  N   UNL A   1      45.665  26.200  27.374  1.00  0.00    -0.354 N 
ATOM     20  C   UNL A   1      41.782  27.703  28.599  1.00  0.00     0.074 A 
ATOM     21  C   UNL A   1      40.785  26.652  28.542  1.00  0.00     0.031 C 
ATOM     22  C   UNL A   1      47.102  24.670  26.596  1.00  0.00     0.029 A 
ATOM     23  C   UNL A   1      46.971  26.075  26.965  1.00  0.00     0.049 A 
ATOM     24  H   UNL A   1      45.294  27.029  27.754  1.00  0.00     0.167 HD
ATOM     25  C   UNL A   1      41.544  28.977  29.002  1.00  0.00     0.034 A 
ATOM     26  C   UNL A   1      47.944  26.998  26.849  1.00  0.00     0.034 A 
ATOM     27  C   UNL A   1      42.557  30.006  29.040  1.00  0.00     0.049 A 
ATOM     28  C   UNL A   1      47.650  28.416  27.246  1.00  0.00     0.074 A 
ATOM     29  C   UNL A   1      42.446  31.315  29.474  1.00  0.00     0.029 A 
ATOM     30  N   UNL A   1      43.870  29.844  28.609  1.00  0.00    -0.354 N 
ATOM     31  N   UNL A   1      46.521  28.932  27.672  1.00  0.00    -0.248 NA
ATOM     32  C   UNL A   1      48.758  29.374  27.153  1.00  0.00     0.031 C 
ATOM     33  C   UNL A   1      43.664  31.963  29.238  1.00  0.00     0.029 A 
ATOM     34  C   UNL A   1      44.564  31.039  28.730  1.00  0.00     0.049 A 
ATOM     35  H   UNL A   1      44.252  29.004  28.267  1.00  0.00     0.167 HD
ATOM     36  C   UNL A   1      46.788  30.273  27.920  1.00  0.00     0.074 A 
ATOM     37  C   UNL A   1      48.185  30.485  27.598  1.00  0.00     0.031 C 
ATOM     38  C   UNL A   1      45.954  31.238  28.386  1.00  0.00     0.034 A 
BRANCH  25  39
ATOM     39  C   UNL A   1      40.122  29.330  29.375  1.00  0.00     0.023 A 
ATOM     40  C   UNL A   1      39.723  29.495  30.714  1.00  0.00     0.031 A 
ATOM     41  C   UNL A   1      39.136  29.453  28.379  1.00  0.00     0.131 A 
ATOM     42  C   UNL A   1      38.367  29.675  31.025  1.00  0.00     0.055 A 
ATOM     43  C   UNL A   1      37.800  29.722  28.691  1.00  0.00     0.041 A 
ATOM     44  F   UNL A   1      39.447  29.289  27.084  1.00  0.00    -0.206 F 
ATOM     45  C   UNL A   1      37.405  29.814  30.022  1.00  0.00     0.022 A 
BRANCH  42  46
ATOM     46  S   UNL A   1      37.854  29.544  32.761  1.00  0.00     0.124 S 
ATOM     47  O   UNL A   1      39.078  29.928  33.463  1.00  0.00    -0.237 OA
ATOM     48  O   UNL A   1      36.750  30.494  32.836  1.00  0.00    -0.237 OA
ATOM     49  O   UNL A   1      37.481  28.138  32.904  1.00  0.00    -0.744 OA
ENDBRANCH  42  46
ENDBRANCH  25  39
BRANCH  26  50
ATOM     50  C   UNL A   1      49.259  26.600  26.277  1.00  0.00     0.023 A 
ATOM     51  C   UNL A   1      49.669  27.043  25.012  1.00  0.00     0.031 A 
ATOM     52  C   UNL A   1      50.145  25.799  27.022  1.00  0.00     0.131 A 
ATOM     53  C   UNL A   1      50.930  26.669  24.522  1.00  0.00     0.055 A 
ATOM     54  C   UNL A   1      51.413  25.465  26.547  1.00  0.00     0.041 A 
ATOM     55  F   UNL A   1      49.802  25.364  28.245  1.00  0.00    -0.206 F 
ATOM     56  C   UNL A   1      51.810  25.898  25.285  1.00  0.00     0.022 A 
BRANCH  53  57
ATOM     57  S   UNL A   1      51.399  27.188  22.849  1.00  0.00     0.124 S 
ATOM     58  O   UNL A   1      52.589  26.379  22.610  1.00  0.00    -0.237 OA
ATOM     59  O   UNL A   1      50.215  26.831  22.075  1.00  0.00    -0.237 OA
ATOM     60  O   UNL A   1      51.637  28.623  22.991  1.00  0.00    -0.744 OA
ENDBRANCH  53  57
ENDBRANCH  26  50
BRANCH  38  61
ATOM     61  C   UNL A   1      46.550  32.603  28.620  1.00  0.00     0.023 A 
ATOM     62  C   UNL A   1      46.672  33.547  27.587  1.00  0.00     0.031 A 
ATOM     63  C   UNL A   1      46.985  32.964  29.907  1.00  0.00     0.131 A 
ATOM     64  C   UNL A   1      47.247  34.798  27.853  1.00  0.00     0.055 A 
ATOM     65  C   UNL A   1      47.513  34.227  30.176  1.00  0.00     0.041 A 
ATOM     66  F   UNL A   1      46.894  32.096  30.928  1.00  0.00    -0.206 F 
ATOM     67  C   UNL A   1      47.653  35.150  29.144  1.00  0.00     0.022 A 
BRANCH  64  68
ATOM     68  S   UNL A   1      47.507  35.953  26.478  1.00  0.00     0.124 S 
ATOM     69  O   UNL A   1      48.612  36.768  26.973  1.00  0.00    -0.237 OA
ATOM     70  O   UNL A   1      47.820  35.057  25.369  1.00  0.00    -0.237 OA
ATOM     71  O   UNL A   1      46.225  36.648  26.366  1.00  0.00    -0.744 OA
ENDBRANCH  64  68
ENDBRANCH  38  61
ENDBRANCH  12  13
ENDBRANCH   5   7
ENDBRANCH   2   3
ENDBRANCH   1   2
BRANCH   1  72
ATOM     72  C   UNL A   1      37.141  21.218  24.660  1.00  0.00     0.023 C 
BRANCH  72  73
ATOM     73  C   UNL A   1      36.171  21.566  25.790  1.00  0.00     0.116 C 
BRANCH  73  74
ATOM     74  N   UNL A   1      35.015  20.689  25.800  1.00  0.00    -0.356 N 
ATOM     75  C   UNL A   1      33.713  20.910  25.467  1.00  0.00     0.224 C 
ATOM     76  H   UNL A   1      35.205  19.771  26.102  1.00  0.00     0.163 HD
ATOM     77  O   UNL A   1      32.921  19.977  25.614  1.00  0.00    -0.275 OA
BRANCH  75  78
ATOM     78  C   UNL A   1      33.230  22.237  24.895  1.00  0.00     0.098 C 
ATOM     79  C   UNL A   1      33.132  22.240  23.360  1.00  0.00     0.017 C 
ATOM     80  C   UNL A   1      31.969  22.706  25.632  1.00  0.00     0.133 C 
ATOM     81  C   UNL A   1      32.388  23.451  22.805  1.00  0.00     0.022 C 
ATOM     82  N   UNL A   1      31.355  23.850  24.962  1.00  0.00    -0.338 N 
ATOM     83  C   UNL A   1      31.072  23.649  23.543  1.00  0.00     0.120 C 
BRANCH  82  84
ATOM     84  C   UNL A   1      31.199  25.046  25.653  1.00  0.00     0.255 C 
ATOM     85  O   UNL A   1      30.772  25.142  26.800  1.00  0.00    -0.269 OA
BRANCH  84  86
ATOM     86  C   UNL A   1      31.649  26.287  25.004  1.00  0.00     0.059 A 
ATOM     87  C   UNL A   1      30.659  27.128  24.479  1.00  0.00     0.031 A 
ATOM     88  C   UNL A   1      33.002  26.629  24.914  1.00  0.00     0.053 A 
ATOM     89  C   UNL A   1      31.032  28.335  23.896  1.00  0.00     0.018 A 
ATOM     90  C   UNL A   1      33.361  27.849  24.334  1.00  0.00     0.022 A 
ATOM     91  Cl  UNL A   1      34.257  25.615  25.521  1.00  0.00    -0.083 Cl
ATOM     92  Br  UNL A   1      29.708  29.490  23.200  1.00  0.00    -0.051 Br
ATOM     93  C   UNL A   1      32.376  28.704  23.830  1.00  0.00     0.017 A 
ENDBRANCH  84  86
ENDBRANCH  82  84
ENDBRANCH  75  78
ENDBRANCH  73  74
ENDBRANCH  72  73
ENDBRANCH   1  72
TORSDOF 16
ENDMDL
