MODEL 1
REMARK VINA RESULT:     -12.4      0.000      0.000
REMARK SMILES C=C1c2ccccc2C(=O)N1[C@](C)(C(=O)NCCCCNC(=O)c1ccc(-c2c3nc(c(-c4cc(S(=O)(=O)[O-])ccc4F)c4ccc([nH]4)c(-c4cc(S(=O)(=O)[O-])ccc4F)c4nc(c(-c5cc(S(=O)(=O)[O-])ccc5F)c5ccc2[nH]5)C=C4)C=C3)cc1)C(F)(F)F
REMARK SMILES IDX 19 1 18 2 17 3 16 4 14 5 15 6 12 8 13 9 11 10 1 11 2 12 3 13
REMARK SMILES IDX 4 14 8 15 9 16 5 17 7 18 10 19 6 20 87 21 88 22 89 23 90 24
REMARK SMILES IDX 20 25 21 26 22 27 23 29 24 30 25 31 86 32 26 33 85 34 27 35
REMARK SMILES IDX 28 36 29 37 79 38 30 39 84 40 78 41 80 42 31 43 83 44 77 45
REMARK SMILES IDX 76 46 32 48 64 49 44 50 63 51 45 52 48 53 62 54 81 55 46 56
REMARK SMILES IDX 47 57 61 59 82 60 49 61 33 62 34 63 42 64 35 65 41 66 43 67
REMARK SMILES IDX 40 68 36 69 37 70 38 71 39 72 65 73 66 74 74 75 67 76 73 77
REMARK SMILES IDX 75 78 72 79 68 80 69 81 70 82 71 83 50 84 51 85 59 86 52 87
REMARK SMILES IDX 58 88 60 89 57 90 53 91 54 92 55 93 56 94
REMARK H PARENT 16 7 21 28 80 47 48 58
REMARK Flexibility Score: inf
ROOT
ATOM      1  C   UNL A   1      32.617  30.702  26.372  1.00  0.00     0.023 C 
ENDROOT
BRANCH   1   2
ATOM      2  C   UNL A   1      31.738  29.529  26.797  1.00  0.00     0.023 C 
BRANCH   2   3
ATOM      3  C   UNL A   1      32.466  28.224  27.091  1.00  0.00     0.116 C 
BRANCH   3   4
ATOM      4  N   UNL A   1      31.623  27.045  27.124  1.00  0.00    -0.354 N 
ATOM      5  C   UNL A   1      31.623  25.931  26.329  1.00  0.00     0.255 C 
ATOM      6  O   UNL A   1      31.255  24.901  26.914  1.00  0.00    -0.272 OA
ATOM      7  H   UNL A   1      30.940  27.045  27.834  1.00  0.00     0.163 HD
BRANCH   5   8
ATOM      8  C   UNL A   1      32.107  25.870  24.844  1.00  0.00     0.219 C 
ATOM      9  C   UNL A   1      32.043  24.475  24.187  1.00  0.00     0.056 C 
BRANCH   8  10
ATOM     10  N   UNL A   1      31.333  26.883  24.048  1.00  0.00    -0.285 N 
ATOM     11  C   UNL A   1      32.976  28.225  22.741  1.00  0.00     0.038 C 
ATOM     12  C   UNL A   1      31.763  27.907  23.198  1.00  0.00     0.046 C 
ATOM     13  C   UNL A   1      30.567  28.655  22.773  1.00  0.00     0.010 A 
ATOM     14  C   UNL A   1      30.370  29.785  21.992  1.00  0.00     0.011 A 
ATOM     15  C   UNL A   1      29.464  28.029  23.330  1.00  0.00     0.049 A 
ATOM     16  C   UNL A   1      29.935  26.872  24.074  1.00  0.00     0.260 C 
ATOM     17  C   UNL A   1      29.062  30.261  21.810  1.00  0.00     0.001 A 
ATOM     18  C   UNL A   1      28.161  28.475  23.178  1.00  0.00     0.014 A 
ATOM     19  O   UNL A   1      29.160  26.070  24.565  1.00  0.00    -0.269 OA
ATOM     20  C   UNL A   1      27.965  29.615  22.406  1.00  0.00     0.001 A 
ENDBRANCH   8  10
BRANCH   8  21
ATOM     21  C   UNL A   1      33.629  26.116  25.045  1.00  0.00     0.420 C 
ATOM     22  F   UNL A   1      34.103  25.441  26.127  1.00  0.00    -0.168 F 
ATOM     23  F   UNL A   1      34.348  25.635  23.990  1.00  0.00    -0.168 F 
ATOM     24  F   UNL A   1      33.994  27.408  25.195  1.00  0.00    -0.168 F 
ENDBRANCH   8  21
ENDBRANCH   5   8
ENDBRANCH   3   4
ENDBRANCH   2   3
ENDBRANCH   1   2
BRANCH   1  25
ATOM     25  C   UNL A   1      33.262  31.511  27.496  1.00  0.00     0.116 C 
BRANCH  25  26
ATOM     26  N   UNL A   1      32.781  32.883  27.595  1.00  0.00    -0.352 N 
ATOM     27  C   UNL A   1      33.225  33.923  28.382  1.00  0.00     0.251 C 
ATOM     28  H   UNL A   1      32.021  33.101  27.008  1.00  0.00     0.163 HD
ATOM     29  O   UNL A   1      32.635  34.999  28.373  1.00  0.00    -0.269 OA
BRANCH  27  30
ATOM     30  C   UNL A   1      34.383  33.718  29.275  1.00  0.00     0.039 A 
ATOM     31  C   UNL A   1      34.213  32.964  30.439  1.00  0.00     0.014 A 
ATOM     32  C   UNL A   1      35.645  34.203  28.927  1.00  0.00     0.014 A 
ATOM     33  C   UNL A   1      35.331  32.587  31.185  1.00  0.00     0.010 A 
ATOM     34  C   UNL A   1      36.765  33.759  29.625  1.00  0.00     0.010 A 
ATOM     35  C   UNL A   1      36.621  32.922  30.743  1.00  0.00    -0.014 A 
BRANCH  35  36
ATOM     36  C   UNL A   1      37.838  32.369  31.394  1.00  0.00     0.031 A 
ATOM     37  C   UNL A   1      38.570  31.216  30.768  1.00  0.00     0.074 A 
ATOM     38  C   UNL A   1      38.217  32.834  32.602  1.00  0.00     0.049 A 
ATOM     39  N   UNL A   1      39.548  30.494  31.251  1.00  0.00    -0.248 NA
ATOM     40  C   UNL A   1      38.114  30.801  29.434  1.00  0.00     0.031 C 
ATOM     41  C   UNL A   1      37.565  33.925  33.333  1.00  0.00     0.029 A 
ATOM     42  N   UNL A   1      39.229  32.438  33.439  1.00  0.00    -0.354 N 
ATOM     43  C   UNL A   1      39.815  29.527  30.289  1.00  0.00     0.074 A 
ATOM     44  C   UNL A   1      38.852  29.723  29.224  1.00  0.00     0.031 C 
ATOM     45  C   UNL A   1      38.206  34.122  34.497  1.00  0.00     0.029 A 
ATOM     46  C   UNL A   1      39.276  33.138  34.623  1.00  0.00     0.049 A 
ATOM     47  H   UNL A   1      39.863  31.718  33.215  1.00  0.00     0.167 HD
ATOM     48  C   UNL A   1      40.784  28.578  30.285  1.00  0.00     0.034 A 
ATOM     49  C   UNL A   1      40.074  32.992  35.699  1.00  0.00     0.034 A 
ATOM     50  C   UNL A   1      41.742  28.405  31.349  1.00  0.00     0.049 A 
ATOM     51  C   UNL A   1      41.113  31.901  35.694  1.00  0.00     0.074 A 
ATOM     52  C   UNL A   1      42.805  27.519  31.419  1.00  0.00     0.029 A 
ATOM     53  N   UNL A   1      41.750  29.126  32.536  1.00  0.00    -0.354 N 
ATOM     54  N   UNL A   1      41.376  31.017  34.760  1.00  0.00    -0.248 NA
ATOM     55  C   UNL A   1      41.958  31.786  36.890  1.00  0.00     0.031 C 
ATOM     56  C   UNL A   1      43.416  27.664  32.669  1.00  0.00     0.029 A 
ATOM     57  C   UNL A   1      42.776  28.683  33.357  1.00  0.00     0.049 A 
ATOM     58  H   UNL A   1      41.118  29.846  32.762  1.00  0.00     0.167 HD
ATOM     59  C   UNL A   1      42.435  30.256  35.248  1.00  0.00     0.074 A 
ATOM     60  C   UNL A   1      42.766  30.790  36.553  1.00  0.00     0.031 C 
ATOM     61  C   UNL A   1      43.080  29.215  34.664  1.00  0.00     0.034 A 
BRANCH  48  62
ATOM     62  C   UNL A   1      40.828  27.647  29.098  1.00  0.00     0.023 A 
ATOM     63  C   UNL A   1      41.767  27.817  28.066  1.00  0.00     0.031 A 
ATOM     64  C   UNL A   1      39.891  26.607  28.969  1.00  0.00     0.131 A 
ATOM     65  C   UNL A   1      41.693  27.024  26.912  1.00  0.00     0.055 A 
ATOM     66  C   UNL A   1      39.876  25.765  27.856  1.00  0.00     0.041 A 
ATOM     67  F   UNL A   1      38.958  26.406  29.914  1.00  0.00    -0.206 F 
ATOM     68  C   UNL A   1      40.768  25.982  26.810  1.00  0.00     0.022 A 
BRANCH  65  69
ATOM     69  S   UNL A   1      42.717  27.476  25.485  1.00  0.00     0.124 S 
ATOM     70  O   UNL A   1      42.673  26.250  24.692  1.00  0.00    -0.237 OA
ATOM     71  O   UNL A   1      42.001  28.621  24.934  1.00  0.00    -0.237 OA
ATOM     72  O   UNL A   1      44.017  27.779  26.079  1.00  0.00    -0.744 OA
ENDBRANCH  65  69
ENDBRANCH  48  62
BRANCH  49  73
ATOM     73  C   UNL A   1      39.916  33.881  36.884  1.00  0.00     0.023 A 
ATOM     74  C   UNL A   1      39.274  33.423  38.045  1.00  0.00     0.031 A 
ATOM     75  C   UNL A   1      40.372  35.211  36.860  1.00  0.00     0.131 A 
ATOM     76  C   UNL A   1      39.073  34.299  39.123  1.00  0.00     0.055 A 
ATOM     77  C   UNL A   1      40.209  36.065  37.951  1.00  0.00     0.041 A 
ATOM     78  F   UNL A   1      40.998  35.695  35.774  1.00  0.00    -0.206 F 
ATOM     79  C   UNL A   1      39.545  35.612  39.088  1.00  0.00     0.022 A 
BRANCH  76  80
ATOM     80  S   UNL A   1      38.124  33.710  40.552  1.00  0.00     0.124 S 
ATOM     81  O   UNL A   1      39.096  32.854  41.223  1.00  0.00    -0.237 OA
ATOM     82  O   UNL A   1      37.792  34.959  41.230  1.00  0.00    -0.237 OA
ATOM     83  O   UNL A   1      36.992  33.013  39.945  1.00  0.00    -0.744 OA
ENDBRANCH  76  80
ENDBRANCH  49  73
BRANCH  61  84
ATOM     84  C   UNL A   1      44.232  28.615  35.427  1.00  0.00     0.023 A 
ATOM     85  C   UNL A   1      44.039  27.591  36.372  1.00  0.00     0.031 A 
ATOM     86  C   UNL A   1      45.541  29.080  35.208  1.00  0.00     0.131 A 
ATOM     87  C   UNL A   1      45.134  27.094  37.093  1.00  0.00     0.055 A 
ATOM     88  C   UNL A   1      46.633  28.547  35.894  1.00  0.00     0.041 A 
ATOM     89  F   UNL A   1      45.778  30.057  34.319  1.00  0.00    -0.206 F 
ATOM     90  C   UNL A   1      46.431  27.554  36.849  1.00  0.00     0.022 A 
BRANCH  87  91
ATOM     91  S   UNL A   1      44.837  25.872  38.399  1.00  0.00     0.124 S 
ATOM     92  O   UNL A   1      44.017  24.881  37.707  1.00  0.00    -0.237 OA
ATOM     93  O   UNL A   1      46.188  25.448  38.749  1.00  0.00    -0.237 OA
ATOM     94  O   UNL A   1      44.141  26.637  39.434  1.00  0.00    -0.744 OA
ENDBRANCH  87  91
ENDBRANCH  61  84
ENDBRANCH  35  36
ENDBRANCH  27  30
ENDBRANCH  25  26
ENDBRANCH   1  25
TORSDOF 16
ENDMDL
MODEL 2
REMARK VINA RESULT:     -12.4      5.512     10.630
REMARK SMILES C=C1c2ccccc2C(=O)N1[C@](C)(C(=O)NCCCCNC(=O)c1ccc(-c2c3nc(c(-c4cc(S(=O)(=O)[O-])ccc4F)c4ccc([nH]4)c(-c4cc(S(=O)(=O)[O-])ccc4F)c4nc(c(-c5cc(S(=O)(=O)[O-])ccc5F)c5ccc2[nH]5)C=C4)C=C3)cc1)C(F)(F)F
REMARK SMILES IDX 19 1 18 2 17 3 16 4 14 5 15 6 12 8 13 9 11 10 1 11 2 12 3 13
REMARK SMILES IDX 4 14 8 15 9 16 5 17 7 18 10 19 6 20 87 21 88 22 89 23 90 24
REMARK SMILES IDX 20 25 21 26 22 27 23 29 24 30 25 31 86 32 26 33 85 34 27 35
REMARK SMILES IDX 28 36 29 37 79 38 30 39 84 40 78 41 80 42 31 43 83 44 77 45
REMARK SMILES IDX 76 46 32 48 64 49 44 50 63 51 45 52 48 53 62 54 81 55 46 56
REMARK SMILES IDX 47 57 61 59 82 60 49 61 33 62 34 63 42 64 35 65 41 66 43 67
REMARK SMILES IDX 40 68 36 69 37 70 38 71 39 72 65 73 66 74 74 75 67 76 73 77
REMARK SMILES IDX 75 78 72 79 68 80 69 81 70 82 71 83 50 84 51 85 59 86 52 87
REMARK SMILES IDX 58 88 60 89 57 90 53 91 54 92 55 93 56 94
REMARK H PARENT 16 7 21 28 80 47 48 58
REMARK Flexibility Score: inf
ROOT
ATOM      1  C   UNL A   1      36.397  22.588  23.796  1.00  0.00     0.023 C 
ENDROOT
BRANCH   1   2
ATOM      2  C   UNL A   1      34.921  22.643  23.408  1.00  0.00     0.023 C 
BRANCH   2   3
ATOM      3  C   UNL A   1      34.173  23.903  23.819  1.00  0.00     0.116 C 
BRANCH   3   4
ATOM      4  N   UNL A   1      34.065  24.918  22.788  1.00  0.00    -0.354 N 
ATOM      5  C   UNL A   1      33.407  26.118  22.790  1.00  0.00     0.255 C 
ATOM      6  O   UNL A   1      33.949  26.984  22.086  1.00  0.00    -0.272 OA
ATOM      7  H   UNL A   1      34.541  24.709  21.952  1.00  0.00     0.163 HD
BRANCH   5   8
ATOM      8  C   UNL A   1      32.140  26.463  23.637  1.00  0.00     0.219 C 
ATOM      9  C   UNL A   1      31.459  25.260  24.324  1.00  0.00     0.056 C 
BRANCH   8  10
ATOM     10  N   UNL A   1      32.508  27.524  24.635  1.00  0.00    -0.285 N 
ATOM     11  C   UNL A   1      30.821  29.347  24.449  1.00  0.00     0.038 C 
ATOM     12  C   UNL A   1      31.934  28.770  24.907  1.00  0.00     0.046 C 
ATOM     13  C   UNL A   1      32.777  29.431  25.919  1.00  0.00     0.010 A 
ATOM     14  C   UNL A   1      32.745  30.677  26.526  1.00  0.00     0.011 A 
ATOM     15  C   UNL A   1      33.787  28.546  26.261  1.00  0.00     0.049 A 
ATOM     16  C   UNL A   1      33.580  27.319  25.509  1.00  0.00     0.260 C 
ATOM     17  C   UNL A   1      33.750  31.003  27.451  1.00  0.00     0.001 A 
ATOM     18  C   UNL A   1      34.797  28.837  27.163  1.00  0.00     0.014 A 
ATOM     19  O   UNL A   1      34.258  26.326  25.710  1.00  0.00    -0.269 OA
ATOM     20  C   UNL A   1      34.774  30.092  27.762  1.00  0.00     0.001 A 
ENDBRANCH   8  10
BRANCH   8  21
ATOM     21  C   UNL A   1      31.152  26.849  22.500  1.00  0.00     0.420 C 
ATOM     22  F   UNL A   1      31.184  25.945  21.484  1.00  0.00    -0.168 F 
ATOM     23  F   UNL A   1      29.862  26.832  22.943  1.00  0.00    -0.168 F 
ATOM     24  F   UNL A   1      31.347  28.068  21.951  1.00  0.00    -0.168 F 
ENDBRANCH   8  21
ENDBRANCH   5   8
ENDBRANCH   3   4
ENDBRANCH   2   3
ENDBRANCH   1   2
BRANCH   1  25
ATOM     25  C   UNL A   1      36.708  22.137  25.222  1.00  0.00     0.116 C 
BRANCH  25  26
ATOM     26  N   UNL A   1      37.730  21.102  25.312  1.00  0.00    -0.352 N 
ATOM     27  C   UNL A   1      38.990  21.147  25.866  1.00  0.00     0.251 C 
ATOM     28  H   UNL A   1      37.481  20.236  24.914  1.00  0.00     0.163 HD
ATOM     29  O   UNL A   1      39.739  20.178  25.776  1.00  0.00    -0.269 OA
BRANCH  27  30
ATOM     30  C   UNL A   1      39.455  22.386  26.520  1.00  0.00     0.039 A 
ATOM     31  C   UNL A   1      40.430  22.299  27.517  1.00  0.00     0.014 A 
ATOM     32  C   UNL A   1      38.986  23.632  26.099  1.00  0.00     0.014 A 
ATOM     33  C   UNL A   1      41.028  23.465  27.999  1.00  0.00     0.010 A 
ATOM     34  C   UNL A   1      39.639  24.787  26.521  1.00  0.00     0.010 A 
ATOM     35  C   UNL A   1      40.686  24.712  27.452  1.00  0.00    -0.014 A 
BRANCH  35  36
ATOM     36  C   UNL A   1      41.441  25.948  27.792  1.00  0.00     0.031 A 
ATOM     37  C   UNL A   1      40.787  27.033  28.600  1.00  0.00     0.074 A 
ATOM     38  C   UNL A   1      42.674  26.137  27.280  1.00  0.00     0.049 A 
ATOM     39  N   UNL A   1      41.212  28.240  28.866  1.00  0.00    -0.248 NA
ATOM     40  C   UNL A   1      39.459  26.725  29.151  1.00  0.00     0.031 C 
ATOM     41  C   UNL A   1      43.404  25.176  26.448  1.00  0.00     0.029 A 
ATOM     42  N   UNL A   1      43.526  27.210  27.365  1.00  0.00    -0.354 N 
ATOM     43  C   UNL A   1      40.200  28.845  29.601  1.00  0.00     0.074 A 
ATOM     44  C   UNL A   1      39.116  27.887  29.684  1.00  0.00     0.031 C 
ATOM     45  C   UNL A   1      44.598  25.693  26.119  1.00  0.00     0.029 A 
ATOM     46  C   UNL A   1      44.699  27.042  26.665  1.00  0.00     0.049 A 
ATOM     47  H   UNL A   1      43.319  28.023  27.879  1.00  0.00     0.167 HD
ATOM     48  C   UNL A   1      40.182  30.076  30.170  1.00  0.00     0.034 A 
ATOM     49  C   UNL A   1      45.730  27.887  26.465  1.00  0.00     0.034 A 
ATOM     50  C   UNL A   1      41.276  31.013  30.089  1.00  0.00     0.049 A 
ATOM     51  C   UNL A   1      45.671  29.267  27.066  1.00  0.00     0.074 A 
ATOM     52  C   UNL A   1      41.391  32.260  30.681  1.00  0.00     0.029 A 
ATOM     53  N   UNL A   1      42.442  30.812  29.360  1.00  0.00    -0.354 N 
ATOM     54  N   UNL A   1      44.720  29.811  27.790  1.00  0.00    -0.248 NA
ATOM     55  C   UNL A   1      46.821  30.147  26.820  1.00  0.00     0.031 C 
ATOM     56  C   UNL A   1      42.597  32.835  30.264  1.00  0.00     0.029 A 
ATOM     57  C   UNL A   1      43.265  31.923  29.461  1.00  0.00     0.049 A 
ATOM     58  H   UNL A   1      42.652  29.999  28.847  1.00  0.00     0.167 HD
ATOM     59  C   UNL A   1      45.171  31.089  28.105  1.00  0.00     0.074 A 
ATOM     60  C   UNL A   1      46.479  31.232  27.500  1.00  0.00     0.031 C 
ATOM     61  C   UNL A   1      44.559  32.056  28.836  1.00  0.00     0.034 A 
BRANCH  48  62
ATOM     62  C   UNL A   1      38.928  30.474  30.909  1.00  0.00     0.023 A 
ATOM     63  C   UNL A   1      37.950  31.287  30.311  1.00  0.00     0.031 A 
ATOM     64  C   UNL A   1      38.729  30.079  32.244  1.00  0.00     0.131 A 
ATOM     65  C   UNL A   1      36.866  31.753  31.069  1.00  0.00     0.055 A 
ATOM     66  C   UNL A   1      37.603  30.477  32.967  1.00  0.00     0.041 A 
ATOM     67  F   UNL A   1      39.637  29.318  32.875  1.00  0.00    -0.206 F 
ATOM     68  C   UNL A   1      36.673  31.334  32.387  1.00  0.00     0.022 A 
BRANCH  65  69
ATOM     69  S   UNL A   1      35.803  33.038  30.356  1.00  0.00     0.124 S 
ATOM     70  O   UNL A   1      34.472  32.477  30.582  1.00  0.00    -0.237 OA
ATOM     71  O   UNL A   1      36.146  34.210  31.152  1.00  0.00    -0.237 OA
ATOM     72  O   UNL A   1      36.218  33.089  28.956  1.00  0.00    -0.744 OA
ENDBRANCH  65  69
ENDBRANCH  48  62
BRANCH  49  73
ATOM     73  C   UNL A   1      46.899  27.470  25.642  1.00  0.00     0.023 A 
ATOM     74  C   UNL A   1      47.021  27.880  24.305  1.00  0.00     0.031 A 
ATOM     75  C   UNL A   1      47.895  26.627  26.169  1.00  0.00     0.131 A 
ATOM     76  C   UNL A   1      48.094  27.417  23.527  1.00  0.00     0.055 A 
ATOM     77  C   UNL A   1      48.984  26.206  25.404  1.00  0.00     0.041 A 
ATOM     78  F   UNL A   1      47.828  26.213  27.445  1.00  0.00    -0.206 F 
ATOM     79  C   UNL A   1      49.081  26.593  24.070  1.00  0.00     0.022 A 
BRANCH  76  80
ATOM     80  S   UNL A   1      48.144  27.861  21.770  1.00  0.00     0.124 S 
ATOM     81  O   UNL A   1      49.290  28.762  21.723  1.00  0.00    -0.237 OA
ATOM     82  O   UNL A   1      48.323  26.561  21.133  1.00  0.00    -0.237 OA
ATOM     83  O   UNL A   1      46.845  28.491  21.541  1.00  0.00    -0.744 OA
ENDBRANCH  76  80
ENDBRANCH  49  73
BRANCH  61  84
ATOM     84  C   UNL A   1      45.326  33.336  29.046  1.00  0.00     0.023 A 
ATOM     85  C   UNL A   1      45.153  34.447  28.201  1.00  0.00     0.031 A 
ATOM     86  C   UNL A   1      46.245  33.442  30.106  1.00  0.00     0.131 A 
ATOM     87  C   UNL A   1      45.920  35.603  28.406  1.00  0.00     0.055 A 
ATOM     88  C   UNL A   1      46.970  34.611  30.333  1.00  0.00     0.041 A 
ATOM     89  F   UNL A   1      46.446  32.409  30.938  1.00  0.00    -0.206 F 
ATOM     90  C   UNL A   1      46.816  35.698  29.475  1.00  0.00     0.022 A 
BRANCH  87  91
ATOM     91  S   UNL A   1      45.776  36.967  27.221  1.00  0.00     0.124 S 
ATOM     92  O   UNL A   1      46.209  38.110  28.021  1.00  0.00    -0.237 OA
ATOM     93  O   UNL A   1      46.683  36.557  26.154  1.00  0.00    -0.237 OA
ATOM     94  O   UNL A   1      44.358  36.963  26.863  1.00  0.00    -0.744 OA
ENDBRANCH  87  91
ENDBRANCH  61  84
ENDBRANCH  35  36
ENDBRANCH  27  30
ENDBRANCH  25  26
ENDBRANCH   1  25
TORSDOF 16
ENDMDL
MODEL 3
REMARK VINA RESULT:     -12.4      1.998      2.581
REMARK SMILES C=C1c2ccccc2C(=O)N1[C@](C)(C(=O)NCCCCNC(=O)c1ccc(-c2c3nc(c(-c4cc(S(=O)(=O)[O-])ccc4F)c4ccc([nH]4)c(-c4cc(S(=O)(=O)[O-])ccc4F)c4nc(c(-c5cc(S(=O)(=O)[O-])ccc5F)c5ccc2[nH]5)C=C4)C=C3)cc1)C(F)(F)F
REMARK SMILES IDX 19 1 18 2 17 3 16 4 14 5 15 6 12 8 13 9 11 10 1 11 2 12 3 13
REMARK SMILES IDX 4 14 8 15 9 16 5 17 7 18 10 19 6 20 87 21 88 22 89 23 90 24
REMARK SMILES IDX 20 25 21 26 22 27 23 29 24 30 25 31 86 32 26 33 85 34 27 35
REMARK SMILES IDX 28 36 29 37 79 38 30 39 84 40 78 41 80 42 31 43 83 44 77 45
REMARK SMILES IDX 76 46 32 48 64 49 44 50 63 51 45 52 48 53 62 54 81 55 46 56
REMARK SMILES IDX 47 57 61 59 82 60 49 61 33 62 34 63 42 64 35 65 41 66 43 67
REMARK SMILES IDX 40 68 36 69 37 70 38 71 39 72 65 73 66 74 74 75 67 76 73 77
REMARK SMILES IDX 75 78 72 79 68 80 69 81 70 82 71 83 50 84 51 85 59 86 52 87
REMARK SMILES IDX 58 88 60 89 57 90 53 91 54 92 55 93 56 94
REMARK H PARENT 16 7 21 28 80 47 48 58
REMARK Flexibility Score: inf
ROOT
ATOM      1  C   UNL A   1      31.593  29.378  26.068  1.00  0.00     0.023 C 
ENDROOT
BRANCH   1   2
ATOM      2  C   UNL A   1      31.402  28.261  27.090  1.00  0.00     0.023 C 
BRANCH   2   3
ATOM      3  C   UNL A   1      32.232  27.004  26.864  1.00  0.00     0.116 C 
BRANCH   3   4
ATOM      4  N   UNL A   1      31.467  25.780  26.727  1.00  0.00    -0.354 N 
ATOM      5  C   UNL A   1      31.573  24.765  25.816  1.00  0.00     0.255 C 
ATOM      6  O   UNL A   1      31.249  23.655  26.265  1.00  0.00    -0.272 OA
ATOM      7  H   UNL A   1      30.756  25.660  27.398  1.00  0.00     0.163 HD
BRANCH   5   8
ATOM      8  C   UNL A   1      32.123  24.900  24.358  1.00  0.00     0.219 C 
ATOM      9  C   UNL A   1      31.947  23.651  23.469  1.00  0.00     0.056 C 
BRANCH   8  10
ATOM     10  N   UNL A   1      31.499  26.112  23.725  1.00  0.00    -0.285 N 
ATOM     11  C   UNL A   1      33.265  27.249  22.384  1.00  0.00     0.038 C 
ATOM     12  C   UNL A   1      32.051  27.118  22.925  1.00  0.00     0.046 C 
ATOM     13  C   UNL A   1      30.993  28.112  22.677  1.00  0.00     0.010 A 
ATOM     14  C   UNL A   1      30.958  29.329  22.013  1.00  0.00     0.011 A 
ATOM     15  C   UNL A   1      29.836  27.648  23.281  1.00  0.00     0.049 A 
ATOM     16  C   UNL A   1      30.131  26.356  23.880  1.00  0.00     0.260 C 
ATOM     17  C   UNL A   1      29.756  30.055  21.995  1.00  0.00     0.001 A 
ATOM     18  C   UNL A   1      28.636  28.340  23.289  1.00  0.00     0.014 A 
ATOM     19  O   UNL A   1      29.256  25.667  24.374  1.00  0.00    -0.269 OA
ATOM     20  C   UNL A   1      28.604  29.567  22.636  1.00  0.00     0.001 A 
ENDBRANCH   8  10
BRANCH   8  21
ATOM     21  C   UNL A   1      33.650  24.938  24.647  1.00  0.00     0.420 C 
ATOM     22  F   UNL A   1      34.372  24.582  23.551  1.00  0.00    -0.168 F 
ATOM     23  F   UNL A   1      34.063  26.204  24.942  1.00  0.00    -0.168 F 
ATOM     24  F   UNL A   1      34.067  24.157  25.667  1.00  0.00    -0.168 F 
ENDBRANCH   8  21
ENDBRANCH   5   8
ENDBRANCH   3   4
ENDBRANCH   2   3
ENDBRANCH   1   2
BRANCH   1  25
ATOM     25  C   UNL A   1      32.866  30.211  26.202  1.00  0.00     0.116 C 
BRANCH  25  26
ATOM     26  N   UNL A   1      32.659  31.528  26.793  1.00  0.00    -0.352 N 
ATOM     27  C   UNL A   1      33.488  32.278  27.598  1.00  0.00     0.251 C 
ATOM     28  H   UNL A   1      31.792  31.946  26.584  1.00  0.00     0.163 HD
ATOM     29  O   UNL A   1      33.098  33.347  28.059  1.00  0.00    -0.269 OA
BRANCH  27  30
ATOM     30  C   UNL A   1      34.827  31.763  27.946  1.00  0.00     0.039 A 
ATOM     31  C   UNL A   1      35.901  32.656  28.001  1.00  0.00     0.014 A 
ATOM     32  C   UNL A   1      35.006  30.422  28.291  1.00  0.00     0.014 A 
ATOM     33  C   UNL A   1      37.123  32.231  28.526  1.00  0.00     0.010 A 
ATOM     34  C   UNL A   1      36.199  30.023  28.888  1.00  0.00     0.010 A 
ATOM     35  C   UNL A   1      37.258  30.931  29.039  1.00  0.00    -0.014 A 
BRANCH  35  36
ATOM     36  C   UNL A   1      38.472  30.509  29.786  1.00  0.00     0.031 A 
ATOM     37  C   UNL A   1      39.397  29.479  29.201  1.00  0.00     0.074 A 
ATOM     38  C   UNL A   1      38.680  30.971  31.035  1.00  0.00     0.049 A 
ATOM     39  N   UNL A   1      40.411  28.866  29.753  1.00  0.00    -0.248 NA
ATOM     40  C   UNL A   1      39.117  29.061  27.820  1.00  0.00     0.031 C 
ATOM     41  C   UNL A   1      37.834  31.945  31.731  1.00  0.00     0.029 A 
ATOM     42  N   UNL A   1      39.656  30.671  31.953  1.00  0.00    -0.354 N 
ATOM     43  C   UNL A   1      40.883  27.975  28.795  1.00  0.00     0.074 A 
ATOM     44  C   UNL A   1      40.002  28.091  27.651  1.00  0.00     0.031 C 
ATOM     45  C   UNL A   1      38.338  32.175  32.954  1.00  0.00     0.029 A 
ATOM     46  C   UNL A   1      39.509  31.327  33.153  1.00  0.00     0.049 A 
ATOM     47  H   UNL A   1      40.393  30.045  31.770  1.00  0.00     0.167 HD
ATOM     48  C   UNL A   1      41.960  27.153  28.857  1.00  0.00     0.034 A 
ATOM     49  C   UNL A   1      40.220  31.240  34.295  1.00  0.00     0.034 A 
ATOM     50  C   UNL A   1      42.834  27.061  30.000  1.00  0.00     0.049 A 
ATOM     51  C   UNL A   1      41.385  30.287  34.359  1.00  0.00     0.074 A 
ATOM     52  C   UNL A   1      43.990  26.310  30.146  1.00  0.00     0.029 A 
ATOM     53  N   UNL A   1      42.645  27.732  31.202  1.00  0.00    -0.354 N 
ATOM     54  N   UNL A   1      41.839  29.478  33.430  1.00  0.00    -0.248 NA
ATOM     55  C   UNL A   1      42.127  30.232  35.624  1.00  0.00     0.031 C 
ATOM     56  C   UNL A   1      44.464  26.483  31.452  1.00  0.00     0.029 A 
ATOM     57  C   UNL A   1      43.641  27.389  32.103  1.00  0.00     0.049 A 
ATOM     58  H   UNL A   1      41.909  28.360  31.387  1.00  0.00     0.167 HD
ATOM     59  C   UNL A   1      42.937  28.836  33.994  1.00  0.00     0.074 A 
ATOM     60  C   UNL A   1      43.081  29.357  35.338  1.00  0.00     0.031 C 
ATOM     61  C   UNL A   1      43.759  27.904  33.446  1.00  0.00     0.034 A 
BRANCH  48  62
ATOM     62  C   UNL A   1      42.228  26.280  27.655  1.00  0.00     0.023 A 
ATOM     63  C   UNL A   1      41.736  24.966  27.578  1.00  0.00     0.031 A 
ATOM     64  C   UNL A   1      43.025  26.748  26.596  1.00  0.00     0.131 A 
ATOM     65  C   UNL A   1      42.118  24.136  26.515  1.00  0.00     0.055 A 
ATOM     66  C   UNL A   1      43.333  25.942  25.497  1.00  0.00     0.041 A 
ATOM     67  F   UNL A   1      43.539  27.988  26.622  1.00  0.00    -0.206 F 
ATOM     68  C   UNL A   1      42.894  24.622  25.461  1.00  0.00     0.022 A 
BRANCH  65  69
ATOM     69  S   UNL A   1      41.717  22.369  26.612  1.00  0.00     0.124 S 
ATOM     70  O   UNL A   1      42.422  21.975  27.831  1.00  0.00    -0.237 OA
ATOM     71  O   UNL A   1      40.262  22.379  26.690  1.00  0.00    -0.237 OA
ATOM     72  O   UNL A   1      42.274  21.823  25.376  1.00  0.00    -0.744 OA
ENDBRANCH  65  69
ENDBRANCH  48  62
BRANCH  49  73
ATOM     73  C   UNL A   1      39.846  32.058  35.482  1.00  0.00     0.023 A 
ATOM     74  C   UNL A   1      38.955  31.560  36.446  1.00  0.00     0.031 A 
ATOM     75  C   UNL A   1      40.345  33.361  35.654  1.00  0.00     0.131 A 
ATOM     76  C   UNL A   1      38.561  32.374  37.520  1.00  0.00     0.055 A 
ATOM     77  C   UNL A   1      39.985  34.151  36.747  1.00  0.00     0.041 A 
ATOM     78  F   UNL A   1      41.206  33.881  34.763  1.00  0.00    -0.206 F 
ATOM     79  C   UNL A   1      39.078  33.660  37.682  1.00  0.00     0.022 A 
BRANCH  76  80
ATOM     80  S   UNL A   1      37.308  31.744  38.670  1.00  0.00     0.124 S 
ATOM     81  O   UNL A   1      38.019  31.796  39.942  1.00  0.00    -0.237 OA
ATOM     82  O   UNL A   1      36.227  32.708  38.498  1.00  0.00    -0.237 OA
ATOM     83  O   UNL A   1      37.028  30.401  38.165  1.00  0.00    -0.744 OA
ENDBRANCH  76  80
ENDBRANCH  49  73
BRANCH  61  84
ATOM     84  C   UNL A   1      44.905  27.423  34.297  1.00  0.00     0.023 A 
ATOM     85  C   UNL A   1      44.786  26.292  35.124  1.00  0.00     0.031 A 
ATOM     86  C   UNL A   1      46.131  28.111  34.283  1.00  0.00     0.131 A 
ATOM     87  C   UNL A   1      45.863  25.906  35.935  1.00  0.00     0.055 A 
ATOM     88  C   UNL A   1      47.215  27.694  35.055  1.00  0.00     0.041 A 
ATOM     89  F   UNL A   1      46.294  29.197  33.512  1.00  0.00    -0.206 F 
ATOM     90  C   UNL A   1      47.082  26.590  35.894  1.00  0.00     0.022 A 
BRANCH  87  91
ATOM     91  S   UNL A   1      45.636  24.528  37.091  1.00  0.00     0.124 S 
ATOM     92  O   UNL A   1      44.325  24.823  37.662  1.00  0.00    -0.237 OA
ATOM     93  O   UNL A   1      45.701  23.365  36.212  1.00  0.00    -0.237 OA
ATOM     94  O   UNL A   1      46.760  24.666  38.016  1.00  0.00    -0.744 OA
ENDBRANCH  87  91
ENDBRANCH  61  84
ENDBRANCH  35  36
ENDBRANCH  27  30
ENDBRANCH  25  26
ENDBRANCH   1  25
TORSDOF 16
ENDMDL
