MODEL 1
REMARK VINA RESULT:     -12.5      0.000      0.000
REMARK SMILES CS(=O)(=O)c1ccc(N2N=C(C(=O)NCCCCNC(=O)c3ccc(-c4c5nc(c(-c6cc(S(=O)(=O)[O-])ccc6F)c6ccc([nH]6)c(-c6cc(S(=O)(=O)[O-])ccc6F)c6nc(c(-c7cc(S(=O)(=O)[O-])ccc7F)c7ccc4[nH]7)C=C6)C=C5)cc3)C[C@H]2c2ccco2)cc1
REMARK SMILES IDX 17 1 16 2 15 3 14 4 12 5 13 6 11 8 9 9 10 10 86 11 85 12
REMARK SMILES IDX 8 13 5 14 6 15 93 16 7 17 92 18 2 19 1 20 3 21 4 22 87 23
REMARK SMILES IDX 88 24 91 25 89 26 90 27 18 28 19 29 20 30 21 32 22 33 23 34
REMARK SMILES IDX 84 35 24 36 83 37 25 38 26 39 27 40 77 41 28 42 82 43 76 44
REMARK SMILES IDX 78 45 29 46 81 47 75 48 74 49 30 51 62 52 42 53 61 54 43 55
REMARK SMILES IDX 46 56 60 57 79 58 44 59 45 60 59 62 80 63 47 64 31 65 32 66
REMARK SMILES IDX 40 67 33 68 39 69 41 70 38 71 34 72 35 73 36 74 37 75 63 76
REMARK SMILES IDX 64 77 72 78 65 79 71 80 73 81 70 82 66 83 67 84 68 85 69 86
REMARK SMILES IDX 48 87 49 88 57 89 50 90 56 91 58 92 55 93 51 94 52 95 53 96
REMARK SMILES IDX 54 97
REMARK H PARENT 14 7 19 31 78 50 46 61
REMARK Flexibility Score: inf
ROOT
ATOM      1  C   UNL A   1      31.750  28.398  26.470  1.00  0.00     0.023 C 
ENDROOT
BRANCH   1   2
ATOM      2  C   UNL A   1      32.102  26.962  26.088  1.00  0.00     0.023 C 
BRANCH   2   3
ATOM      3  C   UNL A   1      30.971  25.969  26.324  1.00  0.00     0.116 C 
BRANCH   3   4
ATOM      4  N   UNL A   1      30.260  25.673  25.095  1.00  0.00    -0.351 N 
ATOM      5  C   UNL A   1      30.539  24.915  23.985  1.00  0.00     0.267 C 
ATOM      6  O   UNL A   1      29.733  24.939  23.057  1.00  0.00    -0.268 OA
ATOM      7  H   UNL A   1      29.382  26.114  25.046  1.00  0.00     0.163 HD
BRANCH   5   8
ATOM      8  C   UNL A   1      31.760  24.017  23.859  1.00  0.00     0.128 C 
ATOM      9  N   UNL A   1      32.975  22.282  24.105  1.00  0.00    -0.254 N 
ATOM     10  N   UNL A   1      31.698  22.750  24.143  1.00  0.00    -0.171 NA
ATOM     11  C   UNL A   1      33.945  23.243  23.576  1.00  0.00     0.180 C 
ATOM     12  C   UNL A   1      33.102  24.511  23.448  1.00  0.00     0.099 C 
BRANCH   9  13
ATOM     13  C   UNL A   1      33.220  20.918  24.154  1.00  0.00     0.060 A 
ATOM     14  C   UNL A   1      33.791  18.172  24.243  1.00  0.00     0.067 A 
ATOM     15  C   UNL A   1      32.644  18.620  23.583  1.00  0.00     0.022 A 
ATOM     16  C   UNL A   1      34.634  19.074  24.889  1.00  0.00     0.022 A 
ATOM     17  C   UNL A   1      32.357  19.989  23.556  1.00  0.00     0.029 A 
ATOM     18  C   UNL A   1      34.344  20.436  24.836  1.00  0.00     0.029 A 
BRANCH  14  19
ATOM     19  S   UNL A   1      34.189  16.444  24.253  1.00  0.00     0.175 S 
ATOM     20  C   UNL A   1      32.812  15.666  25.058  1.00  0.00     0.163 C 
ATOM     21  O   UNL A   1      35.337  16.262  25.121  1.00  0.00    -0.224 OA
ATOM     22  O   UNL A   1      34.211  16.002  22.872  1.00  0.00    -0.224 OA
ENDBRANCH  14  19
ENDBRANCH   9  13
BRANCH  11  23
ATOM     23  C   UNL A   1      35.210  23.471  24.356  1.00  0.00     0.128 A 
ATOM     24  C   UNL A   1      35.459  23.982  25.616  1.00  0.00     0.048 A 
ATOM     25  O   UNL A   1      36.397  23.109  23.778  1.00  0.00    -0.467 OA
ATOM     26  C   UNL A   1      36.863  23.948  25.801  1.00  0.00     0.042 A 
ATOM     27  C   UNL A   1      37.385  23.391  24.659  1.00  0.00     0.195 A 
ENDBRANCH  11  23
ENDBRANCH   5   8
ENDBRANCH   3   4
ENDBRANCH   2   3
ENDBRANCH   1   2
BRANCH   1  28
ATOM     28  C   UNL A   1      32.793  29.437  26.076  1.00  0.00     0.116 C 
BRANCH  28  29
ATOM     29  N   UNL A   1      32.386  30.803  26.384  1.00  0.00    -0.352 N 
ATOM     30  C   UNL A   1      33.062  31.741  27.131  1.00  0.00     0.251 C 
ATOM     31  H   UNL A   1      31.522  31.091  26.012  1.00  0.00     0.163 HD
ATOM     32  O   UNL A   1      32.535  32.809  27.416  1.00  0.00    -0.269 OA
BRANCH  30  33
ATOM     33  C   UNL A   1      34.418  31.404  27.611  1.00  0.00     0.039 A 
ATOM     34  C   UNL A   1      35.356  32.424  27.776  1.00  0.00     0.014 A 
ATOM     35  C   UNL A   1      34.706  30.095  28.004  1.00  0.00     0.014 A 
ATOM     36  C   UNL A   1      36.562  32.144  28.422  1.00  0.00     0.010 A 
ATOM     37  C   UNL A   1      35.868  29.840  28.720  1.00  0.00     0.010 A 
ATOM     38  C   UNL A   1      36.805  30.863  28.944  1.00  0.00    -0.014 A 
BRANCH  38  39
ATOM     39  C   UNL A   1      38.032  30.550  29.723  1.00  0.00     0.031 A 
ATOM     40  C   UNL A   1      39.040  29.591  29.152  1.00  0.00     0.074 A 
ATOM     41  C   UNL A   1      38.196  31.051  30.964  1.00  0.00     0.049 A 
ATOM     42  N   UNL A   1      40.083  29.048  29.723  1.00  0.00    -0.248 NA
ATOM     43  C   UNL A   1      38.821  29.162  27.762  1.00  0.00     0.031 C 
ATOM     44  C   UNL A   1      37.283  31.980  31.633  1.00  0.00     0.029 A 
ATOM     45  N   UNL A   1      39.184  30.835  31.895  1.00  0.00    -0.354 N 
ATOM     46  C   UNL A   1      40.642  28.209  28.765  1.00  0.00     0.074 A 
ATOM     47  C   UNL A   1      39.777  28.261  27.606  1.00  0.00     0.031 C 
ATOM     48  C   UNL A   1      37.761  32.264  32.856  1.00  0.00     0.029 A 
ATOM     49  C   UNL A   1      38.977  31.492  33.088  1.00  0.00     0.049 A 
ATOM     50  H   UNL A   1      39.967  30.262  31.726  1.00  0.00     0.167 HD
ATOM     51  C   UNL A   1      41.786  27.487  28.835  1.00  0.00     0.034 A 
ATOM     52  C   UNL A   1      39.674  31.454  34.242  1.00  0.00     0.034 A 
ATOM     53  C   UNL A   1      42.638  27.448  29.997  1.00  0.00     0.049 A 
ATOM     54  C   UNL A   1      40.901  30.577  34.324  1.00  0.00     0.074 A 
ATOM     55  C   UNL A   1      43.826  26.763  30.171  1.00  0.00     0.029 A 
ATOM     56  N   UNL A   1      42.391  28.122  31.185  1.00  0.00    -0.354 N 
ATOM     57  N   UNL A   1      41.428  29.804  33.401  1.00  0.00    -0.248 NA
ATOM     58  C   UNL A   1      41.633  30.569  35.598  1.00  0.00     0.031 C 
ATOM     59  C   UNL A   1      44.262  26.965  31.483  1.00  0.00     0.029 A 
ATOM     60  C   UNL A   1      43.392  27.847  32.103  1.00  0.00     0.049 A 
ATOM     61  H   UNL A   1      41.618  28.709  31.352  1.00  0.00     0.167 HD
ATOM     62  C   UNL A   1      42.576  29.260  33.972  1.00  0.00     0.074 A 
ATOM     63  C   UNL A   1      42.668  29.794  35.314  1.00  0.00     0.031 C 
ATOM     64  C   UNL A   1      43.479  28.401  33.433  1.00  0.00     0.034 A 
BRANCH  51  65
ATOM     65  C   UNL A   1      42.167  26.673  27.623  1.00  0.00     0.023 A 
ATOM     66  C   UNL A   1      41.775  25.330  27.492  1.00  0.00     0.031 A 
ATOM     67  C   UNL A   1      42.949  27.233  26.597  1.00  0.00     0.131 A 
ATOM     68  C   UNL A   1      42.225  24.571  26.403  1.00  0.00     0.055 A 
ATOM     69  C   UNL A   1      43.320  26.497  25.470  1.00  0.00     0.041 A 
ATOM     70  F   UNL A   1      43.375  28.504  26.678  1.00  0.00    -0.206 F 
ATOM     71  C   UNL A   1      42.971  25.154  25.375  1.00  0.00     0.022 A 
BRANCH  68  72
ATOM     72  S   UNL A   1      41.949  22.780  26.426  1.00  0.00     0.124 S 
ATOM     73  O   UNL A   1      42.562  22.371  25.164  1.00  0.00    -0.237 OA
ATOM     74  O   UNL A   1      42.649  22.368  27.638  1.00  0.00    -0.237 OA
ATOM     75  O   UNL A   1      40.493  22.658  26.472  1.00  0.00    -0.744 OA
ENDBRANCH  68  72
ENDBRANCH  51  65
BRANCH  52  76
ATOM     76  C   UNL A   1      39.228  32.239  35.433  1.00  0.00     0.023 A 
ATOM     77  C   UNL A   1      39.629  33.573  35.607  1.00  0.00     0.031 A 
ATOM     78  C   UNL A   1      38.465  31.646  36.455  1.00  0.00     0.131 A 
ATOM     79  C   UNL A   1      39.331  34.246  36.802  1.00  0.00     0.055 A 
ATOM     80  C   UNL A   1      38.109  32.343  37.612  1.00  0.00     0.041 A 
ATOM     81  F   UNL A   1      38.052  30.373  36.345  1.00  0.00    -0.206 F 
ATOM     82  C   UNL A   1      38.560  33.646  37.799  1.00  0.00     0.022 A 
BRANCH  79  83
ATOM     83  S   UNL A   1      40.084  35.871  37.091  1.00  0.00     0.124 S 
ATOM     84  O   UNL A   1      39.728  36.581  35.866  1.00  0.00    -0.237 OA
ATOM     85  O   UNL A   1      39.404  36.307  38.306  1.00  0.00    -0.237 OA
ATOM     86  O   UNL A   1      41.503  35.565  37.247  1.00  0.00    -0.744 OA
ENDBRANCH  79  83
ENDBRANCH  52  76
BRANCH  64  87
ATOM     87  C   UNL A   1      44.689  28.049  34.262  1.00  0.00     0.023 A 
ATOM     88  C   UNL A   1      44.717  26.924  35.104  1.00  0.00     0.031 A 
ATOM     89  C   UNL A   1      45.847  28.844  34.179  1.00  0.00     0.131 A 
ATOM     90  C   UNL A   1      45.869  26.647  35.857  1.00  0.00     0.055 A 
ATOM     91  C   UNL A   1      47.008  28.529  34.884  1.00  0.00     0.041 A 
ATOM     92  F   UNL A   1      45.873  29.932  33.393  1.00  0.00    -0.206 F 
ATOM     93  C   UNL A   1      47.021  27.429  35.736  1.00  0.00     0.022 A 
BRANCH  90  94
ATOM     94  S   UNL A   1      45.825  25.282  37.050  1.00  0.00     0.124 S 
ATOM     95  O   UNL A   1      45.344  24.176  36.228  1.00  0.00    -0.237 OA
ATOM     96  O   UNL A   1      47.218  25.196  37.480  1.00  0.00    -0.237 OA
ATOM     97  O   UNL A   1      44.891  25.748  38.072  1.00  0.00    -0.744 OA
ENDBRANCH  90  94
ENDBRANCH  64  87
ENDBRANCH  38  39
ENDBRANCH  30  33
ENDBRANCH  28  29
ENDBRANCH   1  28
TORSDOF 17
ENDMDL
MODEL 2
REMARK VINA RESULT:     -12.5      1.270      2.127
REMARK SMILES CS(=O)(=O)c1ccc(N2N=C(C(=O)NCCCCNC(=O)c3ccc(-c4c5nc(c(-c6cc(S(=O)(=O)[O-])ccc6F)c6ccc([nH]6)c(-c6cc(S(=O)(=O)[O-])ccc6F)c6nc(c(-c7cc(S(=O)(=O)[O-])ccc7F)c7ccc4[nH]7)C=C6)C=C5)cc3)C[C@H]2c2ccco2)cc1
REMARK SMILES IDX 17 1 16 2 15 3 14 4 12 5 13 6 11 8 9 9 10 10 86 11 85 12
REMARK SMILES IDX 8 13 5 14 6 15 93 16 7 17 92 18 2 19 1 20 3 21 4 22 87 23
REMARK SMILES IDX 88 24 91 25 89 26 90 27 18 28 19 29 20 30 21 32 22 33 23 34
REMARK SMILES IDX 84 35 24 36 83 37 25 38 26 39 27 40 77 41 28 42 82 43 76 44
REMARK SMILES IDX 78 45 29 46 81 47 75 48 74 49 30 51 62 52 42 53 61 54 43 55
REMARK SMILES IDX 46 56 60 57 79 58 44 59 45 60 59 62 80 63 47 64 31 65 32 66
REMARK SMILES IDX 40 67 33 68 39 69 41 70 38 71 34 72 35 73 36 74 37 75 63 76
REMARK SMILES IDX 64 77 72 78 65 79 71 80 73 81 70 82 66 83 67 84 68 85 69 86
REMARK SMILES IDX 48 87 49 88 57 89 50 90 56 91 58 92 55 93 51 94 52 95 53 96
REMARK SMILES IDX 54 97
REMARK H PARENT 14 7 19 31 78 50 46 61
REMARK Flexibility Score: inf
ROOT
ATOM      1  C   UNL A   1      31.479  29.765  25.303  1.00  0.00     0.023 C 
ENDROOT
BRANCH   1   2
ATOM      2  C   UNL A   1      32.294  28.895  24.349  1.00  0.00     0.023 C 
BRANCH   2   3
ATOM      3  C   UNL A   1      31.450  28.152  23.321  1.00  0.00     0.116 C 
BRANCH   3   4
ATOM      4  N   UNL A   1      32.276  27.545  22.296  1.00  0.00    -0.351 N 
ATOM      5  C   UNL A   1      32.958  26.358  22.191  1.00  0.00     0.267 C 
ATOM      6  O   UNL A   1      33.647  26.178  21.190  1.00  0.00    -0.268 OA
ATOM      7  H   UNL A   1      32.368  28.110  21.496  1.00  0.00     0.163 HD
BRANCH   5   8
ATOM      8  C   UNL A   1      32.872  25.241  23.220  1.00  0.00     0.128 C 
ATOM      9  N   UNL A   1      32.744  23.250  23.974  1.00  0.00    -0.254 N 
ATOM     10  N   UNL A   1      33.067  24.000  22.886  1.00  0.00    -0.171 NA
ATOM     11  C   UNL A   1      32.497  24.036  25.185  1.00  0.00     0.180 C 
ATOM     12  C   UNL A   1      32.529  25.467  24.649  1.00  0.00     0.099 C 
BRANCH   9  13
ATOM     13  C   UNL A   1      33.049  21.897  24.007  1.00  0.00     0.060 A 
ATOM     14  C   UNL A   1      33.591  19.146  24.079  1.00  0.00     0.067 A 
ATOM     15  C   UNL A   1      34.436  20.036  24.746  1.00  0.00     0.022 A 
ATOM     16  C   UNL A   1      32.503  19.616  23.347  1.00  0.00     0.022 A 
ATOM     17  C   UNL A   1      34.169  21.408  24.692  1.00  0.00     0.029 A 
ATOM     18  C   UNL A   1      32.240  20.984  23.321  1.00  0.00     0.029 A 
BRANCH  14  19
ATOM     19  S   UNL A   1      33.895  17.401  24.169  1.00  0.00     0.175 S 
ATOM     20  C   UNL A   1      32.786  16.811  25.424  1.00  0.00     0.163 C 
ATOM     21  O   UNL A   1      35.240  17.213  24.678  1.00  0.00    -0.224 OA
ATOM     22  O   UNL A   1      33.483  16.829  22.901  1.00  0.00    -0.224 OA
ENDBRANCH  14  19
ENDBRANCH   9  13
BRANCH  11  23
ATOM     23  C   UNL A   1      31.250  23.746  25.974  1.00  0.00     0.128 A 
ATOM     24  C   UNL A   1      30.736  22.590  26.530  1.00  0.00     0.048 A 
ATOM     25  O   UNL A   1      30.410  24.790  26.255  1.00  0.00    -0.467 OA
ATOM     26  C   UNL A   1      29.518  22.946  27.159  1.00  0.00     0.042 A 
ATOM     27  C   UNL A   1      29.375  24.299  26.978  1.00  0.00     0.195 A 
ENDBRANCH  11  23
ENDBRANCH   5   8
ENDBRANCH   3   4
ENDBRANCH   2   3
ENDBRANCH   1   2
BRANCH   1  28
ATOM     28  C   UNL A   1      32.260  30.316  26.490  1.00  0.00     0.116 C 
BRANCH  28  29
ATOM     29  N   UNL A   1      32.020  31.734  26.726  1.00  0.00    -0.352 N 
ATOM     30  C   UNL A   1      32.825  32.632  27.391  1.00  0.00     0.251 C 
ATOM     31  H   UNL A   1      31.178  32.096  26.365  1.00  0.00     0.163 HD
ATOM     32  O   UNL A   1      32.430  33.767  27.626  1.00  0.00    -0.269 OA
BRANCH  30  33
ATOM     33  C   UNL A   1      34.152  32.173  27.845  1.00  0.00     0.039 A 
ATOM     34  C   UNL A   1      35.205  33.087  27.910  1.00  0.00     0.014 A 
ATOM     35  C   UNL A   1      34.309  30.866  28.314  1.00  0.00     0.014 A 
ATOM     36  C   UNL A   1      36.397  32.712  28.532  1.00  0.00     0.010 A 
ATOM     37  C   UNL A   1      35.464  30.525  29.006  1.00  0.00     0.010 A 
ATOM     38  C   UNL A   1      36.517  31.447  29.130  1.00  0.00    -0.014 A 
BRANCH  38  39
ATOM     39  C   UNL A   1      37.733  31.045  29.885  1.00  0.00     0.031 A 
ATOM     40  C   UNL A   1      38.673  30.038  29.283  1.00  0.00     0.074 A 
ATOM     41  C   UNL A   1      37.943  31.510  31.132  1.00  0.00     0.049 A 
ATOM     42  N   UNL A   1      39.688  29.421  29.829  1.00  0.00    -0.248 NA
ATOM     43  C   UNL A   1      38.410  29.650  27.888  1.00  0.00     0.031 C 
ATOM     44  C   UNL A   1      37.097  32.480  31.832  1.00  0.00     0.029 A 
ATOM     45  N   UNL A   1      38.928  31.217  32.045  1.00  0.00    -0.354 N 
ATOM     46  C   UNL A   1      40.182  28.568  28.847  1.00  0.00     0.074 A 
ATOM     47  C   UNL A   1      39.307  28.695  27.701  1.00  0.00     0.031 C 
ATOM     48  C   UNL A   1      37.607  32.711  33.053  1.00  0.00     0.029 A 
ATOM     49  C   UNL A   1      38.777  31.863  33.253  1.00  0.00     0.049 A 
ATOM     50  H   UNL A   1      39.672  30.601  31.855  1.00  0.00     0.167 HD
ATOM     51  C   UNL A   1      41.281  27.777  28.888  1.00  0.00     0.034 A 
ATOM     52  C   UNL A   1      39.485  31.760  34.397  1.00  0.00     0.034 A 
ATOM     53  C   UNL A   1      42.144  27.664  30.036  1.00  0.00     0.049 A 
ATOM     54  C   UNL A   1      40.658  30.808  34.445  1.00  0.00     0.074 A 
ATOM     55  C   UNL A   1      43.290  26.904  30.181  1.00  0.00     0.029 A 
ATOM     56  N   UNL A   1      41.954  28.328  31.241  1.00  0.00    -0.354 N 
ATOM     57  N   UNL A   1      41.124  30.022  33.500  1.00  0.00    -0.248 NA
ATOM     58  C   UNL A   1      41.404  30.731  35.708  1.00  0.00     0.031 C 
ATOM     59  C   UNL A   1      43.754  27.053  31.490  1.00  0.00     0.029 A 
ATOM     60  C   UNL A   1      42.948  27.975  32.139  1.00  0.00     0.049 A 
ATOM     61  H   UNL A   1      41.221  28.958  31.429  1.00  0.00     0.167 HD
ATOM     62  C   UNL A   1      42.244  29.398  34.045  1.00  0.00     0.074 A 
ATOM     63  C   UNL A   1      42.386  29.899  35.395  1.00  0.00     0.031 C 
ATOM     64  C   UNL A   1      43.086  28.497  33.478  1.00  0.00     0.034 A 
BRANCH  51  65
ATOM     65  C   UNL A   1      41.596  26.964  27.655  1.00  0.00     0.023 A 
ATOM     66  C   UNL A   1      41.294  25.594  27.586  1.00  0.00     0.031 A 
ATOM     67  C   UNL A   1      42.225  27.556  26.545  1.00  0.00     0.131 A 
ATOM     68  C   UNL A   1      41.686  24.845  26.469  1.00  0.00     0.055 A 
ATOM     69  C   UNL A   1      42.532  26.823  25.398  1.00  0.00     0.041 A 
ATOM     70  F   UNL A   1      42.560  28.856  26.562  1.00  0.00    -0.206 F 
ATOM     71  C   UNL A   1      42.277  25.456  25.360  1.00  0.00     0.022 A 
BRANCH  68  72
ATOM     72  S   UNL A   1      41.549  23.039  26.549  1.00  0.00     0.124 S 
ATOM     73  O   UNL A   1      42.165  22.755  27.843  1.00  0.00    -0.237 OA
ATOM     74  O   UNL A   1      40.108  22.828  26.468  1.00  0.00    -0.237 OA
ATOM     75  O   UNL A   1      42.314  22.585  25.389  1.00  0.00    -0.744 OA
ENDBRANCH  68  72
ENDBRANCH  51  65
BRANCH  52  76
ATOM     76  C   UNL A   1      39.104  32.547  35.608  1.00  0.00     0.023 A 
ATOM     77  C   UNL A   1      39.518  33.879  35.760  1.00  0.00     0.031 A 
ATOM     78  C   UNL A   1      38.391  31.958  36.668  1.00  0.00     0.131 A 
ATOM     79  C   UNL A   1      39.284  34.554  36.969  1.00  0.00     0.055 A 
ATOM     80  C   UNL A   1      38.097  32.656  37.840  1.00  0.00     0.041 A 
ATOM     81  F   UNL A   1      37.968  30.687  36.580  1.00  0.00    -0.206 F 
ATOM     82  C   UNL A   1      38.563  33.958  38.004  1.00  0.00     0.022 A 
BRANCH  79  83
ATOM     83  S   UNL A   1      40.057  36.176  37.218  1.00  0.00     0.124 S 
ATOM     84  O   UNL A   1      39.244  36.726  38.298  1.00  0.00    -0.237 OA
ATOM     85  O   UNL A   1      41.425  35.809  37.566  1.00  0.00    -0.237 OA
ATOM     86  O   UNL A   1      39.898  36.831  35.922  1.00  0.00    -0.744 OA
ENDBRANCH  79  83
ENDBRANCH  52  76
BRANCH  64  87
ATOM     87  C   UNL A   1      44.283  28.056  34.283  1.00  0.00     0.023 A 
ATOM     88  C   UNL A   1      44.234  26.953  35.152  1.00  0.00     0.031 A 
ATOM     89  C   UNL A   1      45.504  28.741  34.149  1.00  0.00     0.131 A 
ATOM     90  C   UNL A   1      45.378  26.590  35.881  1.00  0.00     0.055 A 
ATOM     91  C   UNL A   1      46.653  28.338  34.830  1.00  0.00     0.041 A 
ATOM     92  F   UNL A   1      45.605  29.803  33.334  1.00  0.00    -0.206 F 
ATOM     93  C   UNL A   1      46.591  27.262  35.710  1.00  0.00     0.022 A 
BRANCH  90  94
ATOM     94  S   UNL A   1      45.245  25.262  37.109  1.00  0.00     0.124 S 
ATOM     95  O   UNL A   1      45.719  25.922  38.322  1.00  0.00    -0.237 OA
ATOM     96  O   UNL A   1      43.822  24.942  37.073  1.00  0.00    -0.237 OA
ATOM     97  O   UNL A   1      46.126  24.220  36.586  1.00  0.00    -0.744 OA
ENDBRANCH  90  94
ENDBRANCH  64  87
ENDBRANCH  38  39
ENDBRANCH  30  33
ENDBRANCH  28  29
ENDBRANCH   1  28
TORSDOF 17
ENDMDL
MODEL 3
REMARK VINA RESULT:     -12.4      1.448      1.678
REMARK SMILES CS(=O)(=O)c1ccc(N2N=C(C(=O)NCCCCNC(=O)c3ccc(-c4c5nc(c(-c6cc(S(=O)(=O)[O-])ccc6F)c6ccc([nH]6)c(-c6cc(S(=O)(=O)[O-])ccc6F)c6nc(c(-c7cc(S(=O)(=O)[O-])ccc7F)c7ccc4[nH]7)C=C6)C=C5)cc3)C[C@H]2c2ccco2)cc1
REMARK SMILES IDX 17 1 16 2 15 3 14 4 12 5 13 6 11 8 9 9 10 10 86 11 85 12
REMARK SMILES IDX 8 13 5 14 6 15 93 16 7 17 92 18 2 19 1 20 3 21 4 22 87 23
REMARK SMILES IDX 88 24 91 25 89 26 90 27 18 28 19 29 20 30 21 32 22 33 23 34
REMARK SMILES IDX 84 35 24 36 83 37 25 38 26 39 27 40 77 41 28 42 82 43 76 44
REMARK SMILES IDX 78 45 29 46 81 47 75 48 74 49 30 51 62 52 42 53 61 54 43 55
REMARK SMILES IDX 46 56 60 57 79 58 44 59 45 60 59 62 80 63 47 64 31 65 32 66
REMARK SMILES IDX 40 67 33 68 39 69 41 70 38 71 34 72 35 73 36 74 37 75 63 76
REMARK SMILES IDX 64 77 72 78 65 79 71 80 73 81 70 82 66 83 67 84 68 85 69 86
REMARK SMILES IDX 48 87 49 88 57 89 50 90 56 91 58 92 55 93 51 94 52 95 53 96
REMARK SMILES IDX 54 97
REMARK H PARENT 14 7 19 31 78 50 46 61
REMARK Flexibility Score: inf
ROOT
ATOM      1  C   UNL A   1      32.227  28.645  26.780  1.00  0.00     0.023 C 
ENDROOT
BRANCH   1   2
ATOM      2  C   UNL A   1      32.430  27.248  26.199  1.00  0.00     0.023 C 
BRANCH   2   3
ATOM      3  C   UNL A   1      31.306  26.274  26.533  1.00  0.00     0.116 C 
BRANCH   3   4
ATOM      4  N   UNL A   1      30.455  26.032  25.384  1.00  0.00    -0.351 N 
ATOM      5  C   UNL A   1      30.553  25.238  24.268  1.00  0.00     0.267 C 
ATOM      6  O   UNL A   1      29.667  25.328  23.421  1.00  0.00    -0.268 OA
ATOM      7  H   UNL A   1      29.622  26.555  25.409  1.00  0.00     0.163 HD
BRANCH   5   8
ATOM      8  C   UNL A   1      31.666  24.227  24.046  1.00  0.00     0.128 C 
ATOM      9  N   UNL A   1      32.727  22.384  24.204  1.00  0.00    -0.254 N 
ATOM     10  N   UNL A   1      31.509  22.973  24.349  1.00  0.00    -0.171 NA
ATOM     11  C   UNL A   1      33.734  23.245  23.579  1.00  0.00     0.180 C 
ATOM     12  C   UNL A   1      33.007  24.588  23.511  1.00  0.00     0.099 C 
BRANCH   9  13
ATOM     13  C   UNL A   1      32.844  21.002  24.248  1.00  0.00     0.060 A 
ATOM     14  C   UNL A   1      33.152  18.216  24.366  1.00  0.00     0.067 A 
ATOM     15  C   UNL A   1      32.532  18.798  23.258  1.00  0.00     0.022 A 
ATOM     16  C   UNL A   1      33.585  19.005  25.430  1.00  0.00     0.022 A 
ATOM     17  C   UNL A   1      32.368  20.187  23.213  1.00  0.00     0.029 A 
ATOM     18  C   UNL A   1      33.431  20.387  25.360  1.00  0.00     0.029 A 
BRANCH  14  19
ATOM     19  S   UNL A   1      33.402  16.461  24.422  1.00  0.00     0.175 S 
ATOM     20  C   UNL A   1      34.938  16.248  25.285  1.00  0.00     0.163 C 
ATOM     21  O   UNL A   1      33.619  16.004  23.062  1.00  0.00    -0.224 OA
ATOM     22  O   UNL A   1      32.344  15.904  25.243  1.00  0.00    -0.224 OA
ENDBRANCH  14  19
ENDBRANCH   9  13
BRANCH  11  23
ATOM     23  C   UNL A   1      35.079  23.353  24.242  1.00  0.00     0.128 A 
ATOM     24  C   UNL A   1      35.543  24.091  25.315  1.00  0.00     0.048 A 
ATOM     25  O   UNL A   1      36.100  22.584  23.753  1.00  0.00    -0.467 OA
ATOM     26  C   UNL A   1      36.914  23.769  25.470  1.00  0.00     0.042 A 
ATOM     27  C   UNL A   1      37.198  22.834  24.506  1.00  0.00     0.195 A 
ENDBRANCH  11  23
ENDBRANCH   5   8
ENDBRANCH   3   4
ENDBRANCH   2   3
ENDBRANCH   1   2
BRANCH   1  28
ATOM     28  C   UNL A   1      33.220  29.691  26.289  1.00  0.00     0.116 C 
BRANCH  28  29
ATOM     29  N   UNL A   1      32.908  31.039  26.748  1.00  0.00    -0.352 N 
ATOM     30  C   UNL A   1      33.663  31.855  27.559  1.00  0.00     0.251 C 
ATOM     31  H   UNL A   1      32.050  31.413  26.440  1.00  0.00     0.163 HD
ATOM     32  O   UNL A   1      33.211  32.917  27.970  1.00  0.00    -0.269 OA
BRANCH  30  33
ATOM     33  C   UNL A   1      35.010  31.394  27.950  1.00  0.00     0.039 A 
ATOM     34  C   UNL A   1      36.070  32.302  27.943  1.00  0.00     0.014 A 
ATOM     35  C   UNL A   1      35.183  30.095  28.432  1.00  0.00     0.014 A 
ATOM     36  C   UNL A   1      37.292  31.928  28.507  1.00  0.00     0.010 A 
ATOM     37  C   UNL A   1      36.371  29.757  29.068  1.00  0.00     0.010 A 
ATOM     38  C   UNL A   1      37.435  30.672  29.120  1.00  0.00    -0.014 A 
BRANCH  38  39
ATOM     39  C   UNL A   1      38.686  30.274  29.816  1.00  0.00     0.031 A 
ATOM     40  C   UNL A   1      39.569  29.225  29.199  1.00  0.00     0.074 A 
ATOM     41  C   UNL A   1      38.981  30.783  31.029  1.00  0.00     0.049 A 
ATOM     42  N   UNL A   1      40.604  28.608  29.707  1.00  0.00    -0.248 NA
ATOM     43  C   UNL A   1      39.215  28.789  27.839  1.00  0.00     0.031 C 
ATOM     44  C   UNL A   1      38.197  31.797  31.738  1.00  0.00     0.029 A 
ATOM     45  N   UNL A   1      40.014  30.504  31.892  1.00  0.00    -0.354 N 
ATOM     46  C   UNL A   1      41.021  27.708  28.733  1.00  0.00     0.074 A 
ATOM     47  C   UNL A   1      40.081  27.809  27.637  1.00  0.00     0.031 C 
ATOM     48  C   UNL A   1      38.785  32.064  32.916  1.00  0.00     0.029 A 
ATOM     49  C   UNL A   1      39.949  31.199  33.080  1.00  0.00     0.049 A 
ATOM     50  H   UNL A   1      40.733  29.866  31.682  1.00  0.00     0.167 HD
ATOM     51  C   UNL A   1      42.105  26.896  28.739  1.00  0.00     0.034 A 
ATOM     52  C   UNL A   1      40.722  31.126  34.183  1.00  0.00     0.034 A 
ATOM     53  C   UNL A   1      43.035  26.809  29.838  1.00  0.00     0.049 A 
ATOM     54  C   UNL A   1      41.878  30.151  34.198  1.00  0.00     0.074 A 
ATOM     55  C   UNL A   1      44.173  26.031  29.943  1.00  0.00     0.029 A 
ATOM     56  N   UNL A   1      42.930  27.523  31.023  1.00  0.00    -0.354 N 
ATOM     57  N   UNL A   1      42.271  29.320  33.260  1.00  0.00    -0.248 NA
ATOM     58  C   UNL A   1      42.698  30.108  35.417  1.00  0.00     0.031 C 
ATOM     59  C   UNL A   1      44.718  26.221  31.215  1.00  0.00     0.029 A 
ATOM     60  C   UNL A   1      43.970  27.183  31.874  1.00  0.00     0.049 A 
ATOM     61  H   UNL A   1      42.222  28.175  31.230  1.00  0.00     0.167 HD
ATOM     62  C   UNL A   1      43.410  28.694  33.761  1.00  0.00     0.074 A 
ATOM     63  C   UNL A   1      43.643  29.244  35.078  1.00  0.00     0.031 C 
ATOM     64  C   UNL A   1      44.199  27.754  33.180  1.00  0.00     0.034 A 
BRANCH  51  65
ATOM     65  C   UNL A   1      42.330  26.029  27.523  1.00  0.00     0.023 A 
ATOM     66  C   UNL A   1      41.838  24.715  27.462  1.00  0.00     0.031 A 
ATOM     67  C   UNL A   1      43.060  26.511  26.423  1.00  0.00     0.131 A 
ATOM     68  C   UNL A   1      42.145  23.902  26.362  1.00  0.00     0.055 A 
ATOM     69  C   UNL A   1      43.287  25.726  25.291  1.00  0.00     0.041 A 
ATOM     70  F   UNL A   1      43.576  27.751  26.433  1.00  0.00    -0.206 F 
ATOM     71  C   UNL A   1      42.841  24.408  25.262  1.00  0.00     0.022 A 
BRANCH  68  72
ATOM     72  S   UNL A   1      41.752  22.135  26.458  1.00  0.00     0.124 S 
ATOM     73  O   UNL A   1      42.622  21.583  25.422  1.00  0.00    -0.237 OA
ATOM     74  O   UNL A   1      42.110  21.806  27.833  1.00  0.00    -0.237 OA
ATOM     75  O   UNL A   1      40.323  22.085  26.154  1.00  0.00    -0.744 OA
ENDBRANCH  68  72
ENDBRANCH  51  65
BRANCH  52  76
ATOM     76  C   UNL A   1      40.430  31.967  35.382  1.00  0.00     0.023 A 
ATOM     77  C   UNL A   1      39.383  31.637  36.255  1.00  0.00     0.031 A 
ATOM     78  C   UNL A   1      41.137  33.159  35.627  1.00  0.00     0.131 A 
ATOM     79  C   UNL A   1      39.023  32.519  37.286  1.00  0.00     0.055 A 
ATOM     80  C   UNL A   1      40.822  33.998  36.698  1.00  0.00     0.041 A 
ATOM     81  F   UNL A   1      42.149  33.528  34.826  1.00  0.00    -0.206 F 
ATOM     82  C   UNL A   1      39.745  33.689  37.524  1.00  0.00     0.022 A 
BRANCH  79  83
ATOM     83  S   UNL A   1      37.510  32.179  38.227  1.00  0.00     0.124 S 
ATOM     84  O   UNL A   1      37.918  32.542  39.581  1.00  0.00    -0.237 OA
ATOM     85  O   UNL A   1      36.549  33.069  37.587  1.00  0.00    -0.237 OA
ATOM     86  O   UNL A   1      37.284  30.753  38.004  1.00  0.00    -0.744 OA
ENDBRANCH  79  83
ENDBRANCH  52  76
BRANCH  64  87
ATOM     87  C   UNL A   1      45.434  27.319  33.929  1.00  0.00     0.023 A 
ATOM     88  C   UNL A   1      45.436  26.204  34.784  1.00  0.00     0.031 A 
ATOM     89  C   UNL A   1      46.640  28.023  33.754  1.00  0.00     0.131 A 
ATOM     90  C   UNL A   1      46.613  25.847  35.460  1.00  0.00     0.055 A 
ATOM     91  C   UNL A   1      47.820  27.627  34.382  1.00  0.00     0.041 A 
ATOM     92  F   UNL A   1      46.693  29.097  32.951  1.00  0.00    -0.206 F 
ATOM     93  C   UNL A   1      47.810  26.538  35.249  1.00  0.00     0.022 A 
BRANCH  90  94
ATOM     94  S   UNL A   1      46.550  24.502  36.675  1.00  0.00     0.124 S 
ATOM     95  O   UNL A   1      45.191  24.625  37.193  1.00  0.00    -0.237 OA
ATOM     96  O   UNL A   1      46.815  23.325  35.852  1.00  0.00    -0.237 OA
ATOM     97  O   UNL A   1      47.608  24.844  37.622  1.00  0.00    -0.744 OA
ENDBRANCH  90  94
ENDBRANCH  64  87
ENDBRANCH  38  39
ENDBRANCH  30  33
ENDBRANCH  28  29
ENDBRANCH   1  28
TORSDOF 17
ENDMDL
