MODEL 1
REMARK VINA RESULT:     -12.0      0.000      0.000
REMARK SMILES CCC(CC)COc1cc2c(cc1Cl)C=C(C(=O)NCCCCNC(=O)c1ccc(-c3c4nc(c(-c5cc(S(=O)(=O)[O-])ccc5F)c5ccc([nH]5)c(-c5cc(S(=O)(=O)[O-])ccc5F)c5nc(c(-c6cc(S(=O)(=O)[O-])ccc6F)c6ccc3[nH]6)C=C5)C=C4)cc1)[C@@H](C(F)(F)F)O2
REMARK SMILES IDX 21 1 20 2 19 3 17 4 18 5 16 7 8 8 9 9 13 10 10 11 12 12
REMARK SMILES IDX 14 13 11 14 95 15 15 16 90 17 7 18 6 19 3 20 2 21 1 22 4 23
REMARK SMILES IDX 5 24 91 25 92 26 93 27 94 28 22 29 23 30 24 31 25 32 26 34
REMARK SMILES IDX 27 35 28 36 89 37 29 38 88 39 30 40 31 41 32 42 82 43 33 44
REMARK SMILES IDX 87 45 81 46 83 47 34 48 86 49 80 50 79 51 35 53 67 54 47 55
REMARK SMILES IDX 66 56 48 57 51 58 65 59 84 60 49 61 50 62 64 64 85 65 52 66
REMARK SMILES IDX 36 67 37 68 45 69 38 70 44 71 46 72 43 73 39 74 40 75 41 76
REMARK SMILES IDX 42 77 68 78 69 79 77 80 70 81 76 82 78 83 75 84 71 85 72 86
REMARK SMILES IDX 73 87 74 88 53 89 54 90 62 91 55 92 61 93 63 94 60 95 56 96
REMARK SMILES IDX 57 97 58 98 59 99
REMARK H PARENT 19 6 24 33 83 52 51 63
REMARK Flexibility Score: inf
ROOT
ATOM      1  C   UNL A   1      33.150  29.646  26.558  1.00  0.00     0.023 C 
ENDROOT
BRANCH   1   2
ATOM      2  C   UNL A   1      33.159  29.695  25.034  1.00  0.00     0.116 C 
BRANCH   2   3
ATOM      3  N   UNL A   1      31.820  29.597  24.486  1.00  0.00    -0.352 N 
ATOM      4  C   UNL A   1      30.999  28.594  24.099  1.00  0.00     0.251 C 
ATOM      5  O   UNL A   1      29.873  28.935  23.725  1.00  0.00    -0.270 OA
ATOM      6  H   UNL A   1      31.404  30.481  24.367  1.00  0.00     0.163 HD
BRANCH   4   7
ATOM      7  C   UNL A   1      31.368  27.153  24.080  1.00  0.00     0.067 C 
ATOM      8  C   UNL A   1      31.786  22.310  25.281  1.00  0.00     0.141 A 
ATOM      9  C   UNL A   1      31.445  22.974  24.103  1.00  0.00     0.095 A 
ATOM     10  C   UNL A   1      32.178  23.041  26.414  1.00  0.00     0.083 A 
ATOM     11  C   UNL A   1      31.401  24.363  24.104  1.00  0.00     0.131 A 
ATOM     12  C   UNL A   1      32.034  24.429  26.434  1.00  0.00     0.036 A 
ATOM     13  Cl  UNL A   1      32.800  22.269  27.827  1.00  0.00    -0.080 Cl
ATOM     14  C   UNL A   1      31.614  25.090  25.282  1.00  0.00     0.019 A 
ATOM     15  O   UNL A   1      31.142  24.995  22.914  1.00  0.00    -0.475 OA
ATOM     16  C   UNL A   1      31.358  26.525  25.271  1.00  0.00     0.025 C 
ATOM     17  C   UNL A   1      31.692  26.350  22.850  1.00  0.00     0.314 C 
BRANCH   8  18
ATOM     18  O   UNL A   1      31.748  20.941  25.319  1.00  0.00    -0.492 OA
BRANCH  18  19
ATOM     19  C   UNL A   1      32.210  20.342  24.085  1.00  0.00     0.233 C 
BRANCH  19  20
ATOM     20  C   UNL A   1      32.908  18.982  24.338  1.00  0.00     0.026 C 
BRANCH  20  21
ATOM     21  C   UNL A   1      32.928  18.111  23.059  1.00  0.00     0.003 C 
ATOM     22  C   UNL A   1      33.942  16.979  23.134  1.00  0.00     0.004 C 
ENDBRANCH  20  21
BRANCH  20  23
ATOM     23  C   UNL A   1      34.316  19.163  24.945  1.00  0.00     0.003 C 
ATOM     24  C   UNL A   1      34.952  20.529  24.737  1.00  0.00     0.004 C 
ENDBRANCH  20  23
ENDBRANCH  19  20
ENDBRANCH  18  19
ENDBRANCH   8  18
BRANCH  17  25
ATOM     25  C   UNL A   1      33.214  26.315  22.563  1.00  0.00     0.429 C 
ATOM     26  F   UNL A   1      33.537  25.207  21.850  1.00  0.00    -0.167 F 
ATOM     27  F   UNL A   1      33.624  27.381  21.833  1.00  0.00    -0.167 F 
ATOM     28  F   UNL A   1      33.972  26.305  23.683  1.00  0.00    -0.167 F 
ENDBRANCH  17  25
ENDBRANCH   4   7
ENDBRANCH   2   3
ENDBRANCH   1   2
BRANCH   1  29
ATOM     29  C   UNL A   1      32.555  30.888  27.219  1.00  0.00     0.023 C 
BRANCH  29  30
ATOM     30  C   UNL A   1      33.558  31.985  27.558  1.00  0.00     0.116 C 
BRANCH  30  31
ATOM     31  N   UNL A   1      32.972  33.315  27.685  1.00  0.00    -0.352 N 
ATOM     32  C   UNL A   1      33.308  34.291  28.599  1.00  0.00     0.251 C 
ATOM     33  H   UNL A   1      32.257  33.540  27.048  1.00  0.00     0.163 HD
ATOM     34  O   UNL A   1      32.697  35.354  28.643  1.00  0.00    -0.269 OA
BRANCH  32  35
ATOM     35  C   UNL A   1      34.387  33.988  29.558  1.00  0.00     0.039 A 
ATOM     36  C   UNL A   1      35.703  34.321  29.234  1.00  0.00     0.014 A 
ATOM     37  C   UNL A   1      34.096  33.214  30.683  1.00  0.00     0.014 A 
ATOM     38  C   UNL A   1      36.741  33.714  29.927  1.00  0.00     0.010 A 
ATOM     39  C   UNL A   1      35.146  32.676  31.430  1.00  0.00     0.010 A 
ATOM     40  C   UNL A   1      36.474  32.866  31.016  1.00  0.00    -0.014 A 
BRANCH  40  41
ATOM     41  C   UNL A   1      37.600  32.166  31.686  1.00  0.00     0.031 A 
ATOM     42  C   UNL A   1      38.342  31.054  30.993  1.00  0.00     0.074 A 
ATOM     43  C   UNL A   1      37.997  32.588  32.901  1.00  0.00     0.049 A 
ATOM     44  N   UNL A   1      39.366  30.360  31.417  1.00  0.00    -0.248 NA
ATOM     45  C   UNL A   1      37.875  30.667  29.650  1.00  0.00     0.031 C 
ATOM     46  C   UNL A   1      37.358  33.669  33.654  1.00  0.00     0.029 A 
ATOM     47  N   UNL A   1      39.035  32.191  33.702  1.00  0.00    -0.354 N 
ATOM     48  C   UNL A   1      39.652  29.442  30.412  1.00  0.00     0.074 A 
ATOM     49  C   UNL A   1      38.676  29.649  29.365  1.00  0.00     0.031 C 
ATOM     50  C   UNL A   1      38.053  33.888  34.776  1.00  0.00     0.029 A 
ATOM     51  C   UNL A   1      39.140  32.917  34.866  1.00  0.00     0.049 A 
ATOM     52  H   UNL A   1      39.648  31.456  33.468  1.00  0.00     0.167 HD
ATOM     53  C   UNL A   1      40.646  28.524  30.364  1.00  0.00     0.034 A 
ATOM     54  C   UNL A   1      40.002  32.809  35.896  1.00  0.00     0.034 A 
ATOM     55  C   UNL A   1      41.627  28.350  31.406  1.00  0.00     0.049 A 
ATOM     56  C   UNL A   1      41.086  31.767  35.828  1.00  0.00     0.074 A 
ATOM     57  C   UNL A   1      42.687  27.461  31.440  1.00  0.00     0.029 A 
ATOM     58  N   UNL A   1      41.679  29.078  32.586  1.00  0.00    -0.354 N 
ATOM     59  N   UNL A   1      41.357  30.925  34.858  1.00  0.00    -0.248 NA
ATOM     60  C   UNL A   1      41.980  31.653  36.988  1.00  0.00     0.031 C 
ATOM     61  C   UNL A   1      43.346  27.615  32.661  1.00  0.00     0.029 A 
ATOM     62  C   UNL A   1      42.739  28.644  33.364  1.00  0.00     0.049 A 
ATOM     63  H   UNL A   1      41.054  29.798  32.833  1.00  0.00     0.167 HD
ATOM     64  C   UNL A   1      42.458  30.190  35.284  1.00  0.00     0.074 A 
ATOM     65  C   UNL A   1      42.822  30.708  36.588  1.00  0.00     0.031 C 
ATOM     66  C   UNL A   1      43.101  29.173  34.658  1.00  0.00     0.034 A 
BRANCH  53  67
ATOM     67  C   UNL A   1      40.752  27.629  29.153  1.00  0.00     0.023 A 
ATOM     68  C   UNL A   1      41.667  27.934  28.128  1.00  0.00     0.031 A 
ATOM     69  C   UNL A   1      39.865  26.555  28.956  1.00  0.00     0.131 A 
ATOM     70  C   UNL A   1      41.652  27.195  26.938  1.00  0.00     0.055 A 
ATOM     71  C   UNL A   1      39.880  25.800  27.782  1.00  0.00     0.041 A 
ATOM     72  F   UNL A   1      38.976  26.223  29.905  1.00  0.00    -0.206 F 
ATOM     73  C   UNL A   1      40.768  26.127  26.761  1.00  0.00     0.022 A 
BRANCH  70  74
ATOM     74  S   UNL A   1      42.738  27.626  25.551  1.00  0.00     0.124 S 
ATOM     75  O   UNL A   1      42.612  26.449  24.695  1.00  0.00    -0.237 OA
ATOM     76  O   UNL A   1      42.111  28.841  25.037  1.00  0.00    -0.237 OA
ATOM     77  O   UNL A   1      44.046  27.805  26.171  1.00  0.00    -0.744 OA
ENDBRANCH  70  74
ENDBRANCH  53  67
BRANCH  54  78
ATOM     78  C   UNL A   1      39.876  33.756  37.043  1.00  0.00     0.023 A 
ATOM     79  C   UNL A   1      39.298  33.342  38.256  1.00  0.00     0.031 A 
ATOM     80  C   UNL A   1      40.199  35.114  36.892  1.00  0.00     0.131 A 
ATOM     81  C   UNL A   1      38.979  34.291  39.235  1.00  0.00     0.055 A 
ATOM     82  C   UNL A   1      39.951  36.044  37.903  1.00  0.00     0.041 A 
ATOM     83  F   UNL A   1      40.740  35.558  35.748  1.00  0.00    -0.206 F 
ATOM     84  C   UNL A   1      39.316  35.637  39.073  1.00  0.00     0.022 A 
BRANCH  81  85
ATOM     85  S   UNL A   1      37.969  33.835  40.673  1.00  0.00     0.124 S 
ATOM     86  O   UNL A   1      36.972  32.952  40.076  1.00  0.00    -0.237 OA
ATOM     87  O   UNL A   1      38.954  33.185  41.536  1.00  0.00    -0.237 OA
ATOM     88  O   UNL A   1      37.469  35.115  41.163  1.00  0.00    -0.744 OA
ENDBRANCH  81  85
ENDBRANCH  54  78
BRANCH  66  89
ATOM     89  C   UNL A   1      44.272  28.526  35.354  1.00  0.00     0.023 A 
ATOM     90  C   UNL A   1      44.052  27.536  36.331  1.00  0.00     0.031 A 
ATOM     91  C   UNL A   1      45.584  28.994  35.161  1.00  0.00     0.131 A 
ATOM     92  C   UNL A   1      45.122  27.074  37.106  1.00  0.00     0.055 A 
ATOM     93  C   UNL A   1      46.653  28.499  35.908  1.00  0.00     0.041 A 
ATOM     94  F   UNL A   1      45.840  29.944  34.248  1.00  0.00    -0.206 F 
ATOM     95  C   UNL A   1      46.422  27.546  36.895  1.00  0.00     0.022 A 
BRANCH  92  96
ATOM     96  S   UNL A   1      44.855  25.912  38.474  1.00  0.00     0.124 S 
ATOM     97  O   UNL A   1      44.355  24.733  37.773  1.00  0.00    -0.237 OA
ATOM     98  O   UNL A   1      46.198  25.782  39.034  1.00  0.00    -0.237 OA
ATOM     99  O   UNL A   1      43.883  26.589  39.326  1.00  0.00    -0.744 OA
ENDBRANCH  92  96
ENDBRANCH  66  89
ENDBRANCH  40  41
ENDBRANCH  32  35
ENDBRANCH  30  31
ENDBRANCH  29  30
ENDBRANCH   1  29
TORSDOF 20
ENDMDL
MODEL 2
REMARK VINA RESULT:     -11.9      5.735      9.169
REMARK SMILES CCC(CC)COc1cc2c(cc1Cl)C=C(C(=O)NCCCCNC(=O)c1ccc(-c3c4nc(c(-c5cc(S(=O)(=O)[O-])ccc5F)c5ccc([nH]5)c(-c5cc(S(=O)(=O)[O-])ccc5F)c5nc(c(-c6cc(S(=O)(=O)[O-])ccc6F)c6ccc3[nH]6)C=C5)C=C4)cc1)[C@@H](C(F)(F)F)O2
REMARK SMILES IDX 21 1 20 2 19 3 17 4 18 5 16 7 8 8 9 9 13 10 10 11 12 12
REMARK SMILES IDX 14 13 11 14 95 15 15 16 90 17 7 18 6 19 3 20 2 21 1 22 4 23
REMARK SMILES IDX 5 24 91 25 92 26 93 27 94 28 22 29 23 30 24 31 25 32 26 34
REMARK SMILES IDX 27 35 28 36 89 37 29 38 88 39 30 40 31 41 32 42 82 43 33 44
REMARK SMILES IDX 87 45 81 46 83 47 34 48 86 49 80 50 79 51 35 53 67 54 47 55
REMARK SMILES IDX 66 56 48 57 51 58 65 59 84 60 49 61 50 62 64 64 85 65 52 66
REMARK SMILES IDX 36 67 37 68 45 69 38 70 44 71 46 72 43 73 39 74 40 75 41 76
REMARK SMILES IDX 42 77 68 78 69 79 77 80 70 81 76 82 78 83 75 84 71 85 72 86
REMARK SMILES IDX 73 87 74 88 53 89 54 90 62 91 55 92 61 93 63 94 60 95 56 96
REMARK SMILES IDX 57 97 58 98 59 99
REMARK H PARENT 19 6 24 33 83 52 51 63
REMARK Flexibility Score: inf
ROOT
ATOM      1  C   UNL A   1      36.774  22.652  23.850  1.00  0.00     0.023 C 
ENDROOT
BRANCH   1   2
ATOM      2  C   UNL A   1      36.585  23.723  24.920  1.00  0.00     0.116 C 
BRANCH   2   3
ATOM      3  N   UNL A   1      35.644  23.300  25.939  1.00  0.00    -0.352 N 
ATOM      4  C   UNL A   1      34.348  23.554  26.231  1.00  0.00     0.251 C 
ATOM      5  O   UNL A   1      33.880  22.930  27.187  1.00  0.00    -0.270 OA
ATOM      6  H   UNL A   1      36.050  22.672  26.580  1.00  0.00     0.163 HD
BRANCH   4   7
ATOM      7  C   UNL A   1      33.486  24.523  25.501  1.00  0.00     0.067 C 
ATOM      8  C   UNL A   1      31.655  28.744  23.526  1.00  0.00     0.141 A 
ATOM      9  C   UNL A   1      31.900  27.475  23.003  1.00  0.00     0.095 A 
ATOM     10  C   UNL A   1      31.861  28.995  24.891  1.00  0.00     0.083 A 
ATOM     11  C   UNL A   1      32.446  26.501  23.830  1.00  0.00     0.131 A 
ATOM     12  C   UNL A   1      32.501  28.044  25.687  1.00  0.00     0.036 A 
ATOM     13  Cl  UNL A   1      31.385  30.482  25.627  1.00  0.00    -0.080 Cl
ATOM     14  C   UNL A   1      32.823  26.802  25.146  1.00  0.00     0.019 A 
ATOM     15  O   UNL A   1      32.603  25.239  23.316  1.00  0.00    -0.475 OA
ATOM     16  C   UNL A   1      33.573  25.806  25.901  1.00  0.00     0.025 C 
ATOM     17  C   UNL A   1      32.589  24.193  24.340  1.00  0.00     0.314 C 
BRANCH   8  18
ATOM     18  O   UNL A   1      31.199  29.737  22.700  1.00  0.00    -0.492 OA
BRANCH  18  19
ATOM     19  C   UNL A   1      29.879  29.458  22.176  1.00  0.00     0.233 C 
BRANCH  19  20
ATOM     20  C   UNL A   1      28.769  29.985  23.120  1.00  0.00     0.026 C 
BRANCH  20  21
ATOM     21  C   UNL A   1      28.828  31.526  23.256  1.00  0.00     0.003 C 
ATOM     22  C   UNL A   1      28.548  32.243  21.943  1.00  0.00     0.004 C 
ENDBRANCH  20  21
BRANCH  20  23
ATOM     23  C   UNL A   1      27.370  29.488  22.697  1.00  0.00     0.003 C 
ATOM     24  C   UNL A   1      26.794  28.356  23.534  1.00  0.00     0.004 C 
ENDBRANCH  20  23
ENDBRANCH  19  20
ENDBRANCH  18  19
ENDBRANCH   8  18
BRANCH  17  25
ATOM     25  C   UNL A   1      31.139  23.887  24.795  1.00  0.00     0.429 C 
ATOM     26  F   UNL A   1      30.266  24.113  23.783  1.00  0.00    -0.167 F 
ATOM     27  F   UNL A   1      30.980  22.593  25.166  1.00  0.00    -0.167 F 
ATOM     28  F   UNL A   1      30.736  24.636  25.846  1.00  0.00    -0.167 F 
ENDBRANCH  17  25
ENDBRANCH   4   7
ENDBRANCH   2   3
ENDBRANCH   1   2
BRANCH   1  29
ATOM     29  C   UNL A   1      37.081  21.263  24.403  1.00  0.00     0.023 C 
BRANCH  29  30
ATOM     30  C   UNL A   1      37.818  21.244  25.738  1.00  0.00     0.116 C 
BRANCH  30  31
ATOM     31  N   UNL A   1      39.023  20.422  25.747  1.00  0.00    -0.352 N 
ATOM     32  C   UNL A   1      40.255  20.752  26.271  1.00  0.00     0.251 C 
ATOM     33  H   UNL A   1      38.948  19.533  25.332  1.00  0.00     0.163 HD
ATOM     34  O   UNL A   1      41.212  19.993  26.162  1.00  0.00    -0.269 OA
BRANCH  32  35
ATOM     35  C   UNL A   1      40.394  22.073  26.912  1.00  0.00     0.039 A 
ATOM     36  C   UNL A   1      39.853  23.197  26.285  1.00  0.00     0.014 A 
ATOM     37  C   UNL A   1      41.217  22.200  28.033  1.00  0.00     0.014 A 
ATOM     38  C   UNL A   1      40.297  24.457  26.663  1.00  0.00     0.010 A 
ATOM     39  C   UNL A   1      41.590  23.474  28.463  1.00  0.00     0.010 A 
ATOM     40  C   UNL A   1      41.188  24.608  27.740  1.00  0.00    -0.014 A 
BRANCH  40  41
ATOM     41  C   UNL A   1      41.708  25.960  28.068  1.00  0.00     0.031 A 
ATOM     42  C   UNL A   1      43.078  26.393  27.616  1.00  0.00     0.074 A 
ATOM     43  C   UNL A   1      40.907  26.823  28.721  1.00  0.00     0.049 A 
ATOM     44  N   UNL A   1      43.673  27.545  27.788  1.00  0.00    -0.248 NA
ATOM     45  C   UNL A   1      43.886  25.408  26.877  1.00  0.00     0.031 C 
ATOM     46  C   UNL A   1      39.557  26.511  29.189  1.00  0.00     0.029 A 
ATOM     47  N   UNL A   1      41.090  28.134  29.077  1.00  0.00    -0.354 N 
ATOM     48  C   UNL A   1      44.929  27.420  27.203  1.00  0.00     0.074 A 
ATOM     49  C   UNL A   1      45.022  26.069  26.694  1.00  0.00     0.031 C 
ATOM     50  C   UNL A   1      39.012  27.614  29.716  1.00  0.00     0.029 A 
ATOM     51  C   UNL A   1      39.996  28.692  29.696  1.00  0.00     0.049 A 
ATOM     52  H   UNL A   1      41.925  28.629  28.907  1.00  0.00     0.167 HD
ATOM     53  C   UNL A   1      45.906  28.351  27.090  1.00  0.00     0.034 A 
ATOM     54  C   UNL A   1      39.805  29.927  30.202  1.00  0.00     0.034 A 
ATOM     55  C   UNL A   1      45.785  29.701  27.581  1.00  0.00     0.049 A 
ATOM     56  C   UNL A   1      40.914  30.938  30.082  1.00  0.00     0.074 A 
ATOM     57  C   UNL A   1      46.712  30.726  27.495  1.00  0.00     0.029 A 
ATOM     58  N   UNL A   1      44.677  30.220  28.234  1.00  0.00    -0.354 N 
ATOM     59  N   UNL A   1      42.085  30.809  29.503  1.00  0.00    -0.248 NA
ATOM     60  C   UNL A   1      40.683  32.259  30.682  1.00  0.00     0.031 C 
ATOM     61  C   UNL A   1      46.185  31.845  28.142  1.00  0.00     0.029 A 
ATOM     62  C   UNL A   1      44.905  31.542  28.576  1.00  0.00     0.049 A 
ATOM     63  H   UNL A   1      43.850  29.720  28.426  1.00  0.00     0.167 HD
ATOM     64  C   UNL A   1      42.727  32.034  29.659  1.00  0.00     0.074 A 
ATOM     65  C   UNL A   1      41.800  32.900  30.359  1.00  0.00     0.031 C 
ATOM     66  C   UNL A   1      43.971  32.401  29.266  1.00  0.00     0.034 A 
BRANCH  53  67
ATOM     67  C   UNL A   1      47.197  27.971  26.408  1.00  0.00     0.023 A 
ATOM     68  C   UNL A   1      47.305  28.053  25.007  1.00  0.00     0.031 A 
ATOM     69  C   UNL A   1      48.269  27.412  27.126  1.00  0.00     0.131 A 
ATOM     70  C   UNL A   1      48.446  27.552  24.365  1.00  0.00     0.055 A 
ATOM     71  C   UNL A   1      49.419  26.947  26.484  1.00  0.00     0.041 A 
ATOM     72  F   UNL A   1      48.215  27.314  28.464  1.00  0.00    -0.206 F 
ATOM     73  C   UNL A   1      49.505  27.005  25.096  1.00  0.00     0.022 A 
BRANCH  70  74
ATOM     74  S   UNL A   1      48.577  27.538  22.556  1.00  0.00     0.124 S 
ATOM     75  O   UNL A   1      49.848  28.224  22.342  1.00  0.00    -0.237 OA
ATOM     76  O   UNL A   1      48.582  26.107  22.262  1.00  0.00    -0.237 OA
ATOM     77  O   UNL A   1      47.395  28.268  22.113  1.00  0.00    -0.744 OA
ENDBRANCH  70  74
ENDBRANCH  53  67
BRANCH  54  78
ATOM     78  C   UNL A   1      38.488  30.256  30.821  1.00  0.00     0.023 A 
ATOM     79  C   UNL A   1      37.495  30.926  30.084  1.00  0.00     0.031 A 
ATOM     80  C   UNL A   1      38.261  30.033  32.188  1.00  0.00     0.131 A 
ATOM     81  C   UNL A   1      36.362  31.428  30.737  1.00  0.00     0.055 A 
ATOM     82  C   UNL A   1      37.093  30.466  32.819  1.00  0.00     0.041 A 
ATOM     83  F   UNL A   1      39.185  29.409  32.935  1.00  0.00    -0.206 F 
ATOM     84  C   UNL A   1      36.147  31.188  32.097  1.00  0.00     0.022 A 
BRANCH  81  85
ATOM     85  S   UNL A   1      35.218  32.546  29.880  1.00  0.00     0.124 S 
ATOM     86  O   UNL A   1      36.104  33.631  29.469  1.00  0.00    -0.237 OA
ATOM     87  O   UNL A   1      34.719  31.695  28.802  1.00  0.00    -0.237 OA
ATOM     88  O   UNL A   1      34.236  32.885  30.904  1.00  0.00    -0.744 OA
ENDBRANCH  81  85
ENDBRANCH  54  78
BRANCH  66  89
ATOM     89  C   UNL A   1      44.439  33.802  29.576  1.00  0.00     0.023 A 
ATOM     90  C   UNL A   1      44.372  34.802  28.588  1.00  0.00     0.031 A 
ATOM     91  C   UNL A   1      45.084  34.102  30.788  1.00  0.00     0.131 A 
ATOM     92  C   UNL A   1      44.977  36.044  28.815  1.00  0.00     0.055 A 
ATOM     93  C   UNL A   1      45.647  35.356  31.025  1.00  0.00     0.041 A 
ATOM     94  F   UNL A   1      45.180  33.177  31.756  1.00  0.00    -0.206 F 
ATOM     95  C   UNL A   1      45.608  36.329  30.030  1.00  0.00     0.022 A 
BRANCH  92  96
ATOM     96  S   UNL A   1      45.044  37.305  27.511  1.00  0.00     0.124 S 
ATOM     97  O   UNL A   1      43.652  37.359  27.073  1.00  0.00    -0.237 OA
ATOM     98  O   UNL A   1      45.513  38.479  28.242  1.00  0.00    -0.237 OA
ATOM     99  O   UNL A   1      45.982  36.756  26.538  1.00  0.00    -0.744 OA
ENDBRANCH  92  96
ENDBRANCH  66  89
ENDBRANCH  40  41
ENDBRANCH  32  35
ENDBRANCH  30  31
ENDBRANCH  29  30
ENDBRANCH   1  29
TORSDOF 20
ENDMDL
MODEL 3
REMARK VINA RESULT:     -11.9      1.306      7.709
REMARK SMILES CCC(CC)COc1cc2c(cc1Cl)C=C(C(=O)NCCCCNC(=O)c1ccc(-c3c4nc(c(-c5cc(S(=O)(=O)[O-])ccc5F)c5ccc([nH]5)c(-c5cc(S(=O)(=O)[O-])ccc5F)c5nc(c(-c6cc(S(=O)(=O)[O-])ccc6F)c6ccc3[nH]6)C=C5)C=C4)cc1)[C@@H](C(F)(F)F)O2
REMARK SMILES IDX 21 1 20 2 19 3 17 4 18 5 16 7 8 8 9 9 13 10 10 11 12 12
REMARK SMILES IDX 14 13 11 14 95 15 15 16 90 17 7 18 6 19 3 20 2 21 1 22 4 23
REMARK SMILES IDX 5 24 91 25 92 26 93 27 94 28 22 29 23 30 24 31 25 32 26 34
REMARK SMILES IDX 27 35 28 36 89 37 29 38 88 39 30 40 31 41 32 42 82 43 33 44
REMARK SMILES IDX 87 45 81 46 83 47 34 48 86 49 80 50 79 51 35 53 67 54 47 55
REMARK SMILES IDX 66 56 48 57 51 58 65 59 84 60 49 61 50 62 64 64 85 65 52 66
REMARK SMILES IDX 36 67 37 68 45 69 38 70 44 71 46 72 43 73 39 74 40 75 41 76
REMARK SMILES IDX 42 77 68 78 69 79 77 80 70 81 76 82 78 83 75 84 71 85 72 86
REMARK SMILES IDX 73 87 74 88 53 89 54 90 62 91 55 92 61 93 63 94 60 95 56 96
REMARK SMILES IDX 57 97 58 98 59 99
REMARK H PARENT 19 6 24 33 83 52 51 63
REMARK Flexibility Score: inf
ROOT
ATOM      1  C   UNL A   1      33.153  29.447  27.283  1.00  0.00     0.023 C 
ENDROOT
BRANCH   1   2
ATOM      2  C   UNL A   1      34.372  28.804  26.628  1.00  0.00     0.116 C 
BRANCH   2   3
ATOM      3  N   UNL A   1      34.274  28.822  25.181  1.00  0.00    -0.352 N 
ATOM      4  C   UNL A   1      33.731  28.024  24.234  1.00  0.00     0.251 C 
ATOM      5  O   UNL A   1      33.817  28.432  23.072  1.00  0.00    -0.270 OA
ATOM      6  H   UNL A   1      34.712  29.613  24.791  1.00  0.00     0.163 HD
BRANCH   4   7
ATOM      7  C   UNL A   1      33.074  26.715  24.500  1.00  0.00     0.067 C 
ATOM      8  C   UNL A   1      32.068  21.812  24.627  1.00  0.00     0.141 A 
ATOM      9  C   UNL A   1      32.101  22.804  25.607  1.00  0.00     0.095 A 
ATOM     10  C   UNL A   1      32.277  22.145  23.280  1.00  0.00     0.083 A 
ATOM     11  C   UNL A   1      32.445  24.099  25.239  1.00  0.00     0.131 A 
ATOM     12  C   UNL A   1      32.717  23.424  22.937  1.00  0.00     0.036 A 
ATOM     13  Cl  UNL A   1      32.048  20.997  22.011  1.00  0.00    -0.080 Cl
ATOM     14  C   UNL A   1      32.831  24.397  23.926  1.00  0.00     0.019 A 
ATOM     15  O   UNL A   1      32.392  25.073  26.205  1.00  0.00    -0.475 OA
ATOM     16  C   UNL A   1      33.373  25.721  23.643  1.00  0.00     0.025 C 
ATOM     17  C   UNL A   1      32.165  26.413  25.659  1.00  0.00     0.314 C 
BRANCH   8  18
ATOM     18  O   UNL A   1      31.817  20.515  24.990  1.00  0.00    -0.492 OA
BRANCH  18  19
ATOM     19  C   UNL A   1      32.957  19.888  25.625  1.00  0.00     0.233 C 
BRANCH  19  20
ATOM     20  C   UNL A   1      34.046  19.506  24.593  1.00  0.00     0.026 C 
BRANCH  20  21
ATOM     21  C   UNL A   1      35.312  20.381  24.758  1.00  0.00     0.003 C 
ATOM     22  C   UNL A   1      35.307  21.185  26.050  1.00  0.00     0.004 C 
ENDBRANCH  20  21
BRANCH  20  23
ATOM     23  C   UNL A   1      34.369  17.997  24.629  1.00  0.00     0.003 C 
ATOM     24  C   UNL A   1      34.051  17.226  23.357  1.00  0.00     0.004 C 
ENDBRANCH  20  23
ENDBRANCH  19  20
ENDBRANCH  18  19
ENDBRANCH   8  18
BRANCH  17  25
ATOM     25  C   UNL A   1      30.673  26.615  25.296  1.00  0.00     0.429 C 
ATOM     26  F   UNL A   1      30.401  26.070  24.085  1.00  0.00    -0.167 F 
ATOM     27  F   UNL A   1      29.842  26.020  26.186  1.00  0.00    -0.167 F 
ATOM     28  F   UNL A   1      30.304  27.915  25.242  1.00  0.00    -0.167 F 
ENDBRANCH  17  25
ENDBRANCH   4   7
ENDBRANCH   2   3
ENDBRANCH   1   2
BRANCH   1  29
ATOM     29  C   UNL A   1      32.889  30.883  26.838  1.00  0.00     0.023 C 
BRANCH  29  30
ATOM     30  C   UNL A   1      33.709  31.947  27.559  1.00  0.00     0.116 C 
BRANCH  30  31
ATOM     31  N   UNL A   1      33.034  33.233  27.700  1.00  0.00    -0.352 N 
ATOM     32  C   UNL A   1      33.332  34.239  28.593  1.00  0.00     0.251 C 
ATOM     33  H   UNL A   1      32.281  33.400  27.088  1.00  0.00     0.163 HD
ATOM     34  O   UNL A   1      32.648  35.255  28.652  1.00  0.00    -0.269 OA
BRANCH  32  35
ATOM     35  C   UNL A   1      34.465  34.024  29.512  1.00  0.00     0.039 A 
ATOM     36  C   UNL A   1      35.750  34.392  29.112  1.00  0.00     0.014 A 
ATOM     37  C   UNL A   1      34.257  33.293  30.684  1.00  0.00     0.014 A 
ATOM     38  C   UNL A   1      36.843  33.859  29.782  1.00  0.00     0.010 A 
ATOM     39  C   UNL A   1      35.361  32.832  31.404  1.00  0.00     0.010 A 
ATOM     40  C   UNL A   1      36.661  33.054  30.920  1.00  0.00    -0.014 A 
BRANCH  40  41
ATOM     41  C   UNL A   1      37.844  32.431  31.566  1.00  0.00     0.031 A 
ATOM     42  C   UNL A   1      38.280  32.846  32.946  1.00  0.00     0.074 A 
ATOM     43  C   UNL A   1      38.485  31.435  30.925  1.00  0.00     0.049 A 
ATOM     44  N   UNL A   1      39.267  32.384  33.669  1.00  0.00    -0.248 NA
ATOM     45  C   UNL A   1      37.511  33.918  33.602  1.00  0.00     0.031 C 
ATOM     46  C   UNL A   1      38.134  30.945  29.592  1.00  0.00     0.029 A 
ATOM     47  N   UNL A   1      39.534  30.641  31.308  1.00  0.00    -0.354 N 
ATOM     48  C   UNL A   1      39.256  33.119  34.850  1.00  0.00     0.074 A 
ATOM     49  C   UNL A   1      38.180  34.078  34.737  1.00  0.00     0.031 C 
ATOM     50  C   UNL A   1      38.912  29.897  29.293  1.00  0.00     0.029 A 
ATOM     51  C   UNL A   1      39.870  29.687  30.376  1.00  0.00     0.049 A 
ATOM     52  H   UNL A   1      40.004  30.744  32.168  1.00  0.00     0.167 HD
ATOM     53  C   UNL A   1      40.062  32.994  35.931  1.00  0.00     0.034 A 
ATOM     54  C   UNL A   1      40.843  28.755  30.381  1.00  0.00     0.034 A 
ATOM     55  C   UNL A   1      41.114  32.014  36.037  1.00  0.00     0.049 A 
ATOM     56  C   UNL A   1      41.739  28.649  31.586  1.00  0.00     0.074 A 
ATOM     57  C   UNL A   1      41.971  31.794  37.101  1.00  0.00     0.029 A 
ATOM     58  N   UNL A   1      41.448  31.089  35.058  1.00  0.00    -0.354 N 
ATOM     59  N   UNL A   1      41.697  29.336  32.704  1.00  0.00    -0.248 NA
ATOM     60  C   UNL A   1      42.813  27.648  31.537  1.00  0.00     0.031 C 
ATOM     61  C   UNL A   1      42.855  30.773  36.745  1.00  0.00     0.029 A 
ATOM     62  C   UNL A   1      42.511  30.311  35.485  1.00  0.00     0.049 A 
ATOM     63  H   UNL A   1      40.995  30.999  34.188  1.00  0.00     0.167 HD
ATOM     64  C   UNL A   1      42.730  28.844  33.495  1.00  0.00     0.074 A 
ATOM     65  C   UNL A   1      43.359  27.780  32.740  1.00  0.00     0.031 C 
ATOM     66  C   UNL A   1      43.126  29.245  34.729  1.00  0.00     0.034 A 
BRANCH  53  67
ATOM     67  C   UNL A   1      39.854  33.920  37.104  1.00  0.00     0.023 A 
ATOM     68  C   UNL A   1      39.202  33.457  38.262  1.00  0.00     0.031 A 
ATOM     69  C   UNL A   1      40.184  35.286  37.027  1.00  0.00     0.131 A 
ATOM     70  C   UNL A   1      38.871  34.358  39.283  1.00  0.00     0.055 A 
ATOM     71  C   UNL A   1      39.883  36.171  38.064  1.00  0.00     0.041 A 
ATOM     72  F   UNL A   1      40.810  35.775  35.945  1.00  0.00    -0.206 F 
ATOM     73  C   UNL A   1      39.212  35.710  39.192  1.00  0.00     0.022 A 
BRANCH  70  74
ATOM     74  S   UNL A   1      37.933  33.823  40.740  1.00  0.00     0.124 S 
ATOM     75  O   UNL A   1      38.916  33.004  41.445  1.00  0.00    -0.237 OA
ATOM     76  O   UNL A   1      37.607  35.095  41.379  1.00  0.00    -0.237 OA
ATOM     77  O   UNL A   1      36.802  33.090  40.181  1.00  0.00    -0.744 OA
ENDBRANCH  70  74
ENDBRANCH  53  67
BRANCH  54  78
ATOM     78  C   UNL A   1      40.966  27.836  29.212  1.00  0.00     0.023 A 
ATOM     79  C   UNL A   1      41.941  28.058  28.222  1.00  0.00     0.031 A 
ATOM     80  C   UNL A   1      40.026  26.815  28.998  1.00  0.00     0.131 A 
ATOM     81  C   UNL A   1      41.898  27.331  27.026  1.00  0.00     0.055 A 
ATOM     82  C   UNL A   1      40.036  26.040  27.837  1.00  0.00     0.041 A 
ATOM     83  F   UNL A   1      39.070  26.575  29.907  1.00  0.00    -0.206 F 
ATOM     84  C   UNL A   1      40.962  26.312  26.834  1.00  0.00     0.022 A 
BRANCH  81  85
ATOM     85  S   UNL A   1      42.948  27.798  25.621  1.00  0.00     0.124 S 
ATOM     86  O   UNL A   1      44.026  28.531  26.277  1.00  0.00    -0.237 OA
ATOM     87  O   UNL A   1      43.311  26.493  25.073  1.00  0.00    -0.237 OA
ATOM     88  O   UNL A   1      42.061  28.595  24.779  1.00  0.00    -0.744 OA
ENDBRANCH  81  85
ENDBRANCH  54  78
BRANCH  66  89
ATOM     89  C   UNL A   1      44.301  28.549  35.368  1.00  0.00     0.023 A 
ATOM     90  C   UNL A   1      44.087  27.541  36.326  1.00  0.00     0.031 A 
ATOM     91  C   UNL A   1      45.618  28.987  35.142  1.00  0.00     0.131 A 
ATOM     92  C   UNL A   1      45.170  27.030  37.053  1.00  0.00     0.055 A 
ATOM     93  C   UNL A   1      46.698  28.444  35.838  1.00  0.00     0.041 A 
ATOM     94  F   UNL A   1      45.869  29.953  34.245  1.00  0.00    -0.206 F 
ATOM     95  C   UNL A   1      46.475  27.472  36.809  1.00  0.00     0.022 A 
BRANCH  92  96
ATOM     96  S   UNL A   1      44.917  25.840  38.399  1.00  0.00     0.124 S 
ATOM     97  O   UNL A   1      46.290  25.529  38.787  1.00  0.00    -0.237 OA
ATOM     98  O   UNL A   1      44.159  26.629  39.368  1.00  0.00    -0.237 OA
ATOM     99  O   UNL A   1      44.184  24.747  37.770  1.00  0.00    -0.744 OA
ENDBRANCH  92  96
ENDBRANCH  66  89
ENDBRANCH  40  41
ENDBRANCH  32  35
ENDBRANCH  30  31
ENDBRANCH  29  30
ENDBRANCH   1  29
TORSDOF 20
ENDMDL
