MODEL 1
REMARK VINA RESULT:     -12.1      0.000      0.000
REMARK SMILES CC1(C)C(C(=O)Nc2ccc(CC(=O)NCCCCNC(=O)c3ccc(-c4c5nc(c(-c6cc(S(=O)(=O)[O-])ccc6F)c6ccc([nH]6)c(-c6cc(S(=O)(=O)[O-])ccc6F)c6nc(c(-c7cc(S(=O)(=O)[O-])ccc7F)c7ccc4[nH]7)C=C6)C=C5)cc3)cc2)C1(C)C
REMARK SMILES IDX 17 1 16 2 15 3 13 4 14 5 12 7 11 8 8 9 9 10 87 11 10 12
REMARK SMILES IDX 86 13 7 14 5 15 6 16 4 18 1 19 2 20 3 21 88 22 89 23 90 24
REMARK SMILES IDX 18 25 19 26 20 27 21 28 22 30 23 31 24 32 85 33 25 34 84 35
REMARK SMILES IDX 26 36 27 37 28 38 78 39 29 40 83 41 77 42 79 43 30 44 82 45
REMARK SMILES IDX 76 46 75 47 31 49 63 50 43 51 62 52 44 53 47 54 61 55 80 56
REMARK SMILES IDX 45 57 46 58 60 60 81 61 48 62 32 63 33 64 41 65 34 66 40 67
REMARK SMILES IDX 42 68 39 69 35 70 36 71 37 72 38 73 64 74 65 75 73 76 66 77
REMARK SMILES IDX 72 78 74 79 71 80 67 81 68 82 69 83 70 84 49 85 50 86 58 87
REMARK SMILES IDX 51 88 57 89 59 90 56 91 52 92 53 93 54 94 55 95
REMARK H PARENT 15 6 7 17 20 29 79 48 47 59
REMARK Flexibility Score: inf
ROOT
ATOM      1  C   UNL A   1      33.895  27.788  24.185  1.00  0.00     0.023 C 
ENDROOT
BRANCH   1   2
ATOM      2  C   UNL A   1      32.967  26.916  23.333  1.00  0.00     0.116 C 
BRANCH   2   3
ATOM      3  N   UNL A   1      32.046  27.720  22.553  1.00  0.00    -0.356 N 
ATOM      4  C   UNL A   1      30.710  27.926  22.740  1.00  0.00     0.224 C 
ATOM      5  O   UNL A   1      30.099  28.604  21.911  1.00  0.00    -0.275 OA
ATOM      6  H   UNL A   1      32.441  28.181  21.779  1.00  0.00     0.163 HD
BRANCH   4   7
ATOM      7  C   UNL A   1      30.012  27.401  23.978  1.00  0.00     0.135 C 
BRANCH   7   8
ATOM      8  C   UNL A   1      30.271  25.955  24.316  1.00  0.00    -0.039 A 
ATOM      9  C   UNL A   1      31.099  23.327  24.773  1.00  0.00     0.041 A 
ATOM     10  C   UNL A   1      30.944  24.196  25.853  1.00  0.00     0.026 A 
ATOM     11  C   UNL A   1      30.603  23.686  23.537  1.00  0.00     0.026 A 
ATOM     12  C   UNL A   1      30.521  25.515  25.622  1.00  0.00     0.006 A 
ATOM     13  C   UNL A   1      30.294  25.012  23.287  1.00  0.00     0.006 A 
BRANCH   9  14
ATOM     14  N   UNL A   1      31.827  22.137  24.900  1.00  0.00    -0.326 N 
ATOM     15  C   UNL A   1      32.884  21.772  24.089  1.00  0.00     0.228 C 
ATOM     16  O   UNL A   1      32.824  20.705  23.478  1.00  0.00    -0.274 OA
ATOM     17  H   UNL A   1      31.567  21.517  25.619  1.00  0.00     0.169 HD
BRANCH  15  18
ATOM     18  C   UNL A   1      34.244  22.417  24.206  1.00  0.00     0.091 C 
ATOM     19  C   UNL A   1      35.287  24.462  25.377  1.00  0.00     0.012 C 
ATOM     20  C   UNL A   1      34.916  22.989  25.462  1.00  0.00    -0.017 C 
ATOM     21  C   UNL A   1      34.573  22.672  26.895  1.00  0.00     0.012 C 
ATOM     22  C   UNL A   1      35.634  21.923  24.580  1.00  0.00    -0.017 C 
ATOM     23  C   UNL A   1      36.788  22.381  23.707  1.00  0.00     0.012 C 
ATOM     24  C   UNL A   1      35.878  20.501  25.024  1.00  0.00     0.012 C 
ENDBRANCH  15  18
ENDBRANCH   9  14
ENDBRANCH   7   8
ENDBRANCH   4   7
ENDBRANCH   2   3
ENDBRANCH   1   2
BRANCH   1  25
ATOM     25  C   UNL A   1      33.186  28.692  25.181  1.00  0.00     0.023 C 
BRANCH  25  26
ATOM     26  C   UNL A   1      34.068  29.176  26.315  1.00  0.00     0.116 C 
BRANCH  26  27
ATOM     27  N   UNL A   1      33.712  30.503  26.782  1.00  0.00    -0.352 N 
ATOM     28  C   UNL A   1      34.350  31.265  27.735  1.00  0.00     0.251 C 
ATOM     29  H   UNL A   1      32.917  30.910  26.367  1.00  0.00     0.163 HD
ATOM     30  O   UNL A   1      33.844  32.304  28.128  1.00  0.00    -0.269 OA
BRANCH  28  31
ATOM     31  C   UNL A   1      35.628  30.776  28.300  1.00  0.00     0.039 A 
ATOM     32  C   UNL A   1      35.592  29.854  29.345  1.00  0.00     0.014 A 
ATOM     33  C   UNL A   1      36.853  31.196  27.771  1.00  0.00     0.014 A 
ATOM     34  C   UNL A   1      36.788  29.326  29.834  1.00  0.00     0.010 A 
ATOM     35  C   UNL A   1      38.031  30.591  28.187  1.00  0.00     0.010 A 
ATOM     36  C   UNL A   1      38.015  29.669  29.241  1.00  0.00    -0.014 A 
BRANCH  36  37
ATOM     37  C   UNL A   1      39.290  29.105  29.754  1.00  0.00     0.031 A 
ATOM     38  C   UNL A   1      39.931  29.696  30.983  1.00  0.00     0.074 A 
ATOM     39  C   UNL A   1      39.877  28.082  29.104  1.00  0.00     0.049 A 
ATOM     40  N   UNL A   1      41.034  29.344  31.592  1.00  0.00    -0.248 NA
ATOM     41  C   UNL A   1      39.257  30.854  31.590  1.00  0.00     0.031 C 
ATOM     42  C   UNL A   1      39.377  27.464  27.874  1.00  0.00     0.029 A 
ATOM     43  N   UNL A   1      41.016  27.373  29.391  1.00  0.00    -0.354 N 
ATOM     44  C   UNL A   1      41.187  30.239  32.645  1.00  0.00     0.074 A 
ATOM     45  C   UNL A   1      40.110  31.198  32.541  1.00  0.00     0.031 C 
ATOM     46  C   UNL A   1      40.179  26.440  27.540  1.00  0.00     0.029 A 
ATOM     47  C   UNL A   1      41.272  26.355  28.502  1.00  0.00     0.049 A 
ATOM     48  H   UNL A   1      41.596  27.574  30.161  1.00  0.00     0.167 HD
ATOM     49  C   UNL A   1      42.120  30.241  33.630  1.00  0.00     0.034 A 
ATOM     50  C   UNL A   1      42.274  25.453  28.470  1.00  0.00     0.034 A 
ATOM     51  C   UNL A   1      43.184  29.271  33.721  1.00  0.00     0.049 A 
ATOM     52  C   UNL A   1      43.308  25.484  29.568  1.00  0.00     0.074 A 
ATOM     53  C   UNL A   1      44.162  29.152  34.693  1.00  0.00     0.029 A 
ATOM     54  N   UNL A   1      43.415  28.255  32.801  1.00  0.00    -0.354 N 
ATOM     55  N   UNL A   1      43.407  26.302  30.591  1.00  0.00    -0.248 NA
ATOM     56  C   UNL A   1      44.351  24.453  29.517  1.00  0.00     0.031 C 
ATOM     57  C   UNL A   1      45.025  28.115  34.322  1.00  0.00     0.029 A 
ATOM     58  C   UNL A   1      44.535  27.523  33.169  1.00  0.00     0.049 A 
ATOM     59  H   UNL A   1      42.864  28.079  32.004  1.00  0.00     0.167 HD
ATOM     60  C   UNL A   1      44.503  25.857  31.327  1.00  0.00     0.074 A 
ATOM     61  C   UNL A   1      45.011  24.687  30.641  1.00  0.00     0.031 C 
ATOM     62  C   UNL A   1      45.040  26.365  32.468  1.00  0.00     0.034 A 
BRANCH  49  63
ATOM     63  C   UNL A   1      42.036  31.341  34.664  1.00  0.00     0.023 A 
ATOM     64  C   UNL A   1      40.995  31.391  35.610  1.00  0.00     0.031 A 
ATOM     65  C   UNL A   1      42.988  32.374  34.686  1.00  0.00     0.131 A 
ATOM     66  C   UNL A   1      40.886  32.489  36.477  1.00  0.00     0.055 A 
ATOM     67  C   UNL A   1      42.926  33.417  35.612  1.00  0.00     0.041 A 
ATOM     68  F   UNL A   1      43.992  32.399  33.793  1.00  0.00    -0.206 F 
ATOM     69  C   UNL A   1      41.860  33.488  36.505  1.00  0.00     0.022 A 
BRANCH  66  70
ATOM     70  S   UNL A   1      39.368  32.673  37.453  1.00  0.00     0.124 S 
ATOM     71  O   UNL A   1      38.861  33.956  36.972  1.00  0.00    -0.237 OA
ATOM     72  O   UNL A   1      38.599  31.496  37.067  1.00  0.00    -0.237 OA
ATOM     73  O   UNL A   1      39.847  32.681  38.834  1.00  0.00    -0.744 OA
ENDBRANCH  66  70
ENDBRANCH  49  63
BRANCH  50  74
ATOM     74  C   UNL A   1      42.352  24.444  27.374  1.00  0.00     0.023 A 
ATOM     75  C   UNL A   1      41.541  23.298  27.384  1.00  0.00     0.031 A 
ATOM     76  C   UNL A   1      43.281  24.583  26.327  1.00  0.00     0.131 A 
ATOM     77  C   UNL A   1      41.712  22.309  26.401  1.00  0.00     0.055 A 
ATOM     78  C   UNL A   1      43.404  23.627  25.317  1.00  0.00     0.041 A 
ATOM     79  F   UNL A   1      44.079  25.661  26.266  1.00  0.00    -0.206 F 
ATOM     80  C   UNL A   1      42.628  22.474  25.360  1.00  0.00     0.022 A 
BRANCH  77  81
ATOM     81  S   UNL A   1      40.790  20.756  26.561  1.00  0.00     0.124 S 
ATOM     82  O   UNL A   1      40.779  20.565  28.006  1.00  0.00    -0.237 OA
ATOM     83  O   UNL A   1      39.510  21.099  25.949  1.00  0.00    -0.237 OA
ATOM     84  O   UNL A   1      41.601  19.800  25.810  1.00  0.00    -0.744 OA
ENDBRANCH  77  81
ENDBRANCH  50  74
BRANCH  62  85
ATOM     85  C   UNL A   1      46.206  25.613  33.068  1.00  0.00     0.023 A 
ATOM     86  C   UNL A   1      47.529  25.836  32.648  1.00  0.00     0.031 A 
ATOM     87  C   UNL A   1      45.983  24.622  34.041  1.00  0.00     0.131 A 
ATOM     88  C   UNL A   1      48.564  25.020  33.130  1.00  0.00     0.055 A 
ATOM     89  C   UNL A   1      47.029  23.869  34.579  1.00  0.00     0.041 A 
ATOM     90  F   UNL A   1      44.742  24.361  34.482  1.00  0.00    -0.206 F 
ATOM     91  C   UNL A   1      48.324  24.051  34.107  1.00  0.00     0.022 A 
BRANCH  88  92
ATOM     92  S   UNL A   1      50.198  25.139  32.351  1.00  0.00     0.124 S 
ATOM     93  O   UNL A   1      50.973  25.826  33.378  1.00  0.00    -0.237 OA
ATOM     94  O   UNL A   1      50.537  23.737  32.126  1.00  0.00    -0.237 OA
ATOM     95  O   UNL A   1      49.944  25.917  31.140  1.00  0.00    -0.744 OA
ENDBRANCH  88  92
ENDBRANCH  62  85
ENDBRANCH  36  37
ENDBRANCH  28  31
ENDBRANCH  26  27
ENDBRANCH  25  26
ENDBRANCH   1  25
TORSDOF 17
ENDMDL
MODEL 2
REMARK VINA RESULT:     -12.0      2.273      2.790
REMARK SMILES CC1(C)C(C(=O)Nc2ccc(CC(=O)NCCCCNC(=O)c3ccc(-c4c5nc(c(-c6cc(S(=O)(=O)[O-])ccc6F)c6ccc([nH]6)c(-c6cc(S(=O)(=O)[O-])ccc6F)c6nc(c(-c7cc(S(=O)(=O)[O-])ccc7F)c7ccc4[nH]7)C=C6)C=C5)cc3)cc2)C1(C)C
REMARK SMILES IDX 17 1 16 2 15 3 13 4 14 5 12 7 11 8 8 9 9 10 87 11 10 12
REMARK SMILES IDX 86 13 7 14 5 15 6 16 4 18 1 19 2 20 3 21 88 22 89 23 90 24
REMARK SMILES IDX 18 25 19 26 20 27 21 28 22 30 23 31 24 32 85 33 25 34 84 35
REMARK SMILES IDX 26 36 27 37 28 38 78 39 29 40 83 41 77 42 79 43 30 44 82 45
REMARK SMILES IDX 76 46 75 47 31 49 63 50 43 51 62 52 44 53 47 54 61 55 80 56
REMARK SMILES IDX 45 57 46 58 60 60 81 61 48 62 32 63 33 64 41 65 34 66 40 67
REMARK SMILES IDX 42 68 39 69 35 70 36 71 37 72 38 73 64 74 65 75 73 76 66 77
REMARK SMILES IDX 72 78 74 79 71 80 67 81 68 82 69 83 70 84 49 85 50 86 58 87
REMARK SMILES IDX 51 88 57 89 59 90 56 91 52 92 53 93 54 94 55 95
REMARK H PARENT 15 6 7 17 20 29 79 48 47 59
REMARK Flexibility Score: inf
ROOT
ATOM      1  C   UNL A   1      33.461  28.537  25.338  1.00  0.00     0.023 C 
ENDROOT
BRANCH   1   2
ATOM      2  C   UNL A   1      33.069  27.518  24.263  1.00  0.00     0.116 C 
BRANCH   2   3
ATOM      3  N   UNL A   1      32.251  28.120  23.230  1.00  0.00    -0.356 N 
ATOM      4  C   UNL A   1      30.896  28.073  23.066  1.00  0.00     0.224 C 
ATOM      5  O   UNL A   1      30.406  28.610  22.070  1.00  0.00    -0.275 OA
ATOM      6  H   UNL A   1      32.741  28.634  22.549  1.00  0.00     0.163 HD
BRANCH   4   7
ATOM      7  C   UNL A   1      30.010  27.448  24.125  1.00  0.00     0.135 C 
BRANCH   7   8
ATOM      8  C   UNL A   1      30.242  25.983  24.395  1.00  0.00    -0.039 A 
ATOM      9  C   UNL A   1      31.037  23.333  24.775  1.00  0.00     0.041 A 
ATOM     10  C   UNL A   1      30.738  24.126  25.883  1.00  0.00     0.026 A 
ATOM     11  C   UNL A   1      30.695  23.774  23.513  1.00  0.00     0.026 A 
ATOM     12  C   UNL A   1      30.331  25.456  25.690  1.00  0.00     0.006 A 
ATOM     13  C   UNL A   1      30.405  25.113  23.316  1.00  0.00     0.006 A 
BRANCH   9  14
ATOM     14  N   UNL A   1      31.757  22.139  24.913  1.00  0.00    -0.326 N 
ATOM     15  C   UNL A   1      32.810  21.759  24.103  1.00  0.00     0.228 C 
ATOM     16  O   UNL A   1      32.742  20.687  23.502  1.00  0.00    -0.274 OA
ATOM     17  H   UNL A   1      31.494  21.528  25.638  1.00  0.00     0.169 HD
BRANCH  15  18
ATOM     18  C   UNL A   1      34.174  22.396  24.211  1.00  0.00     0.091 C 
ATOM     19  C   UNL A   1      35.231  24.451  25.352  1.00  0.00     0.012 C 
ATOM     20  C   UNL A   1      34.850  22.983  25.459  1.00  0.00    -0.017 C 
ATOM     21  C   UNL A   1      34.503  22.690  26.897  1.00  0.00     0.012 C 
ATOM     22  C   UNL A   1      35.560  21.898  24.594  1.00  0.00    -0.017 C 
ATOM     23  C   UNL A   1      36.719  22.334  23.716  1.00  0.00     0.012 C 
ATOM     24  C   UNL A   1      35.793  20.481  25.060  1.00  0.00     0.012 C 
ENDBRANCH  15  18
ENDBRANCH   9  14
ENDBRANCH   7   8
ENDBRANCH   4   7
ENDBRANCH   2   3
ENDBRANCH   1   2
BRANCH   1  25
ATOM     25  C   UNL A   1      32.609  29.797  25.364  1.00  0.00     0.023 C 
BRANCH  25  26
ATOM     26  C   UNL A   1      32.265  30.282  26.758  1.00  0.00     0.116 C 
BRANCH  26  27
ATOM     27  N   UNL A   1      32.184  31.729  26.851  1.00  0.00    -0.352 N 
ATOM     28  C   UNL A   1      33.060  32.588  27.476  1.00  0.00     0.251 C 
ATOM     29  H   UNL A   1      31.408  32.148  26.414  1.00  0.00     0.163 HD
ATOM     30  O   UNL A   1      32.778  33.770  27.595  1.00  0.00    -0.269 OA
BRANCH  28  31
ATOM     31  C   UNL A   1      34.318  32.043  28.033  1.00  0.00     0.039 A 
ATOM     32  C   UNL A   1      35.411  32.895  28.183  1.00  0.00     0.014 A 
ATOM     33  C   UNL A   1      34.402  30.708  28.442  1.00  0.00     0.014 A 
ATOM     34  C   UNL A   1      36.578  32.414  28.780  1.00  0.00     0.010 A 
ATOM     35  C   UNL A   1      35.523  30.263  29.129  1.00  0.00     0.010 A 
ATOM     36  C   UNL A   1      36.634  31.102  29.281  1.00  0.00    -0.014 A 
BRANCH  36  37
ATOM     37  C   UNL A   1      37.871  30.586  29.922  1.00  0.00     0.031 A 
ATOM     38  C   UNL A   1      38.216  31.002  31.329  1.00  0.00     0.074 A 
ATOM     39  C   UNL A   1      38.689  29.766  29.234  1.00  0.00     0.049 A 
ATOM     40  N   UNL A   1      39.240  30.658  32.066  1.00  0.00    -0.248 NA
ATOM     41  C   UNL A   1      37.302  31.953  31.982  1.00  0.00     0.031 C 
ATOM     42  C   UNL A   1      38.485  29.338  27.849  1.00  0.00     0.029 A 
ATOM     43  N   UNL A   1      39.849  29.137  29.608  1.00  0.00    -0.354 N 
ATOM     44  C   UNL A   1      39.097  31.353  33.262  1.00  0.00     0.074 A 
ATOM     45  C   UNL A   1      37.934  32.200  33.119  1.00  0.00     0.031 C 
ATOM     46  C   UNL A   1      39.461  28.482  27.506  1.00  0.00     0.029 A 
ATOM     47  C   UNL A   1      40.382  28.333  28.627  1.00  0.00     0.049 A 
ATOM     48  H   UNL A   1      40.262  29.251  30.495  1.00  0.00     0.167 HD
ATOM     49  C   UNL A   1      39.846  31.268  34.390  1.00  0.00     0.034 A 
ATOM     50  C   UNL A   1      41.487  27.560  28.634  1.00  0.00     0.034 A 
ATOM     51  C   UNL A   1      41.000  30.413  34.516  1.00  0.00     0.049 A 
ATOM     52  C   UNL A   1      42.312  27.493  29.896  1.00  0.00     0.074 A 
ATOM     53  C   UNL A   1      41.811  30.216  35.621  1.00  0.00     0.029 A 
ATOM     54  N   UNL A   1      41.513  29.613  33.501  1.00  0.00    -0.354 N 
ATOM     55  N   UNL A   1      42.131  28.113  31.039  1.00  0.00    -0.248 NA
ATOM     56  C   UNL A   1      43.477  26.601  29.871  1.00  0.00     0.031 C 
ATOM     57  C   UNL A   1      42.855  29.360  35.252  1.00  0.00     0.029 A 
ATOM     58  C   UNL A   1      42.644  28.945  33.946  1.00  0.00     0.049 A 
ATOM     59  H   UNL A   1      41.130  29.533  32.599  1.00  0.00     0.167 HD
ATOM     60  C   UNL A   1      43.140  27.654  31.883  1.00  0.00     0.074 A 
ATOM     61  C   UNL A   1      43.906  26.689  31.120  1.00  0.00     0.031 C 
ATOM     62  C   UNL A   1      43.408  27.994  33.171  1.00  0.00     0.034 A 
BRANCH  49  63
ATOM     63  C   UNL A   1      39.446  32.144  35.556  1.00  0.00     0.023 A 
ATOM     64  C   UNL A   1      38.699  31.642  36.638  1.00  0.00     0.031 A 
ATOM     65  C   UNL A   1      39.786  33.507  35.574  1.00  0.00     0.131 A 
ATOM     66  C   UNL A   1      38.248  32.510  37.644  1.00  0.00     0.055 A 
ATOM     67  C   UNL A   1      39.413  34.348  36.625  1.00  0.00     0.041 A 
ATOM     68  F   UNL A   1      40.476  34.055  34.560  1.00  0.00    -0.206 F 
ATOM     69  C   UNL A   1      38.624  33.855  37.660  1.00  0.00     0.022 A 
BRANCH  66  70
ATOM     70  S   UNL A   1      37.032  31.892  38.840  1.00  0.00     0.124 S 
ATOM     71  O   UNL A   1      35.861  32.704  38.515  1.00  0.00    -0.237 OA
ATOM     72  O   UNL A   1      36.944  30.477  38.499  1.00  0.00    -0.237 OA
ATOM     73  O   UNL A   1      37.644  32.186  40.134  1.00  0.00    -0.744 OA
ENDBRANCH  66  70
ENDBRANCH  49  63
BRANCH  50  74
ATOM     74  C   UNL A   1      41.879  26.784  27.422  1.00  0.00     0.023 A 
ATOM     75  C   UNL A   1      41.687  25.394  27.356  1.00  0.00     0.031 A 
ATOM     76  C   UNL A   1      42.502  27.414  26.330  1.00  0.00     0.131 A 
ATOM     77  C   UNL A   1      42.166  24.673  26.251  1.00  0.00     0.055 A 
ATOM     78  C   UNL A   1      42.920  26.701  25.205  1.00  0.00     0.041 A 
ATOM     79  F   UNL A   1      42.705  28.741  26.338  1.00  0.00    -0.206 F 
ATOM     80  C   UNL A   1      42.767  25.319  25.169  1.00  0.00     0.022 A 
BRANCH  77  81
ATOM     81  S   UNL A   1      42.082  22.861  26.293  1.00  0.00     0.124 S 
ATOM     82  O   UNL A   1      40.649  22.635  26.444  1.00  0.00    -0.237 OA
ATOM     83  O   UNL A   1      42.655  22.501  25.001  1.00  0.00    -0.237 OA
ATOM     84  O   UNL A   1      42.896  22.510  27.454  1.00  0.00    -0.744 OA
ENDBRANCH  77  81
ENDBRANCH  50  74
BRANCH  62  85
ATOM     85  C   UNL A   1      44.549  27.267  33.846  1.00  0.00     0.023 A 
ATOM     86  C   UNL A   1      44.337  26.127  34.641  1.00  0.00     0.031 A 
ATOM     87  C   UNL A   1      45.864  27.753  33.730  1.00  0.00     0.131 A 
ATOM     88  C   UNL A   1      45.404  25.568  35.361  1.00  0.00     0.055 A 
ATOM     89  C   UNL A   1      46.936  27.140  34.382  1.00  0.00     0.041 A 
ATOM     90  F   UNL A   1      46.131  28.839  32.986  1.00  0.00    -0.206 F 
ATOM     91  C   UNL A   1      46.705  26.056  35.221  1.00  0.00     0.022 A 
BRANCH  88  92
ATOM     92  S   UNL A   1      45.040  24.292  36.599  1.00  0.00     0.124 S 
ATOM     93  O   UNL A   1      46.251  24.307  37.413  1.00  0.00    -0.237 OA
ATOM     94  O   UNL A   1      43.836  24.813  37.237  1.00  0.00    -0.237 OA
ATOM     95  O   UNL A   1      44.846  23.084  35.799  1.00  0.00    -0.744 OA
ENDBRANCH  88  92
ENDBRANCH  62  85
ENDBRANCH  36  37
ENDBRANCH  28  31
ENDBRANCH  26  27
ENDBRANCH  25  26
ENDBRANCH   1  25
TORSDOF 17
ENDMDL
MODEL 3
REMARK VINA RESULT:     -12.0      3.328      8.498
REMARK SMILES CC1(C)C(C(=O)Nc2ccc(CC(=O)NCCCCNC(=O)c3ccc(-c4c5nc(c(-c6cc(S(=O)(=O)[O-])ccc6F)c6ccc([nH]6)c(-c6cc(S(=O)(=O)[O-])ccc6F)c6nc(c(-c7cc(S(=O)(=O)[O-])ccc7F)c7ccc4[nH]7)C=C6)C=C5)cc3)cc2)C1(C)C
REMARK SMILES IDX 17 1 16 2 15 3 13 4 14 5 12 7 11 8 8 9 9 10 87 11 10 12
REMARK SMILES IDX 86 13 7 14 5 15 6 16 4 18 1 19 2 20 3 21 88 22 89 23 90 24
REMARK SMILES IDX 18 25 19 26 20 27 21 28 22 30 23 31 24 32 85 33 25 34 84 35
REMARK SMILES IDX 26 36 27 37 28 38 78 39 29 40 83 41 77 42 79 43 30 44 82 45
REMARK SMILES IDX 76 46 75 47 31 49 63 50 43 51 62 52 44 53 47 54 61 55 80 56
REMARK SMILES IDX 45 57 46 58 60 60 81 61 48 62 32 63 33 64 41 65 34 66 40 67
REMARK SMILES IDX 42 68 39 69 35 70 36 71 37 72 38 73 64 74 65 75 73 76 66 77
REMARK SMILES IDX 72 78 74 79 71 80 67 81 68 82 69 83 70 84 49 85 50 86 58 87
REMARK SMILES IDX 51 88 57 89 59 90 56 91 52 92 53 93 54 94 55 95
REMARK H PARENT 15 6 7 17 20 29 79 48 47 59
REMARK Flexibility Score: inf
ROOT
ATOM      1  C   UNL A   1      31.788  30.298  26.866  1.00  0.00     0.023 C 
ENDROOT
BRANCH   1   2
ATOM      2  C   UNL A   1      32.233  29.537  25.613  1.00  0.00     0.116 C 
BRANCH   2   3
ATOM      3  N   UNL A   1      31.516  29.982  24.435  1.00  0.00    -0.356 N 
ATOM      4  C   UNL A   1      30.527  29.350  23.737  1.00  0.00     0.224 C 
ATOM      5  O   UNL A   1      30.094  29.888  22.715  1.00  0.00    -0.275 OA
ATOM      6  H   UNL A   1      31.781  30.864  24.089  1.00  0.00     0.163 HD
BRANCH   4   7
ATOM      7  C   UNL A   1      29.920  28.061  24.251  1.00  0.00     0.135 C 
BRANCH   7   8
ATOM      8  C   UNL A   1      30.463  26.792  23.646  1.00  0.00    -0.039 A 
ATOM      9  C   UNL A   1      31.812  24.544  22.682  1.00  0.00     0.041 A 
ATOM     10  C   UNL A   1      30.846  24.391  23.677  1.00  0.00     0.026 A 
ATOM     11  C   UNL A   1      31.910  25.745  22.011  1.00  0.00     0.026 A 
ATOM     12  C   UNL A   1      30.164  25.521  24.155  1.00  0.00     0.006 A 
ATOM     13  C   UNL A   1      31.325  26.877  22.552  1.00  0.00     0.006 A 
BRANCH   9  14
ATOM     14  N   UNL A   1      32.743  23.531  22.415  1.00  0.00    -0.326 N 
ATOM     15  C   UNL A   1      33.949  23.380  23.072  1.00  0.00     0.228 C 
ATOM     16  O   UNL A   1      34.989  23.376  22.413  1.00  0.00    -0.274 OA
ATOM     17  H   UNL A   1      32.522  22.881  21.710  1.00  0.00     0.169 HD
BRANCH  15  18
ATOM     18  C   UNL A   1      34.033  22.850  24.483  1.00  0.00     0.091 C 
ATOM     19  C   UNL A   1      35.698  21.504  25.916  1.00  0.00     0.012 C 
ATOM     20  C   UNL A   1      35.239  22.871  25.433  1.00  0.00    -0.017 C 
ATOM     21  C   UNL A   1      36.446  23.769  25.341  1.00  0.00     0.012 C 
ATOM     22  C   UNL A   1      33.863  23.461  25.866  1.00  0.00    -0.017 C 
ATOM     23  C   UNL A   1      33.037  22.678  26.871  1.00  0.00     0.012 C 
ATOM     24  C   UNL A   1      33.611  24.937  26.057  1.00  0.00     0.012 C 
ENDBRANCH  15  18
ENDBRANCH   9  14
ENDBRANCH   7   8
ENDBRANCH   4   7
ENDBRANCH   2   3
ENDBRANCH   1   2
BRANCH   1  25
ATOM     25  C   UNL A   1      31.735  31.810  26.710  1.00  0.00     0.023 C 
BRANCH  25  26
ATOM     26  C   UNL A   1      32.962  32.530  27.231  1.00  0.00     0.116 C 
BRANCH  26  27
ATOM     27  N   UNL A   1      32.702  33.916  27.576  1.00  0.00    -0.352 N 
ATOM     28  C   UNL A   1      33.273  34.660  28.584  1.00  0.00     0.251 C 
ATOM     29  H   UNL A   1      32.036  34.383  27.021  1.00  0.00     0.163 HD
ATOM     30  O   UNL A   1      32.843  35.772  28.843  1.00  0.00    -0.269 OA
BRANCH  28  31
ATOM     31  C   UNL A   1      34.381  34.067  29.367  1.00  0.00     0.039 A 
ATOM     32  C   UNL A   1      34.081  33.116  30.341  1.00  0.00     0.014 A 
ATOM     33  C   UNL A   1      35.709  34.421  29.111  1.00  0.00     0.014 A 
ATOM     34  C   UNL A   1      35.121  32.491  31.032  1.00  0.00     0.010 A 
ATOM     35  C   UNL A   1      36.742  33.724  29.724  1.00  0.00     0.010 A 
ATOM     36  C   UNL A   1      36.460  32.771  30.710  1.00  0.00    -0.014 A 
BRANCH  36  37
ATOM     37  C   UNL A   1      37.571  32.105  31.438  1.00  0.00     0.031 A 
ATOM     38  C   UNL A   1      38.340  30.992  30.776  1.00  0.00     0.074 A 
ATOM     39  C   UNL A   1      37.870  32.488  32.695  1.00  0.00     0.049 A 
ATOM     40  N   UNL A   1      39.344  30.292  31.237  1.00  0.00    -0.248 NA
ATOM     41  C   UNL A   1      37.903  30.594  29.429  1.00  0.00     0.031 C 
ATOM     42  C   UNL A   1      37.160  33.517  33.457  1.00  0.00     0.029 A 
ATOM     43  N   UNL A   1      38.855  32.064  33.550  1.00  0.00    -0.354 N 
ATOM     44  C   UNL A   1      39.653  29.371  30.242  1.00  0.00     0.074 A 
ATOM     45  C   UNL A   1      38.676  29.546  29.190  1.00  0.00     0.031 C 
ATOM     46  C   UNL A   1      37.762  33.676  34.647  1.00  0.00     0.029 A 
ATOM     47  C   UNL A   1      38.870  32.734  34.751  1.00  0.00     0.049 A 
ATOM     48  H   UNL A   1      39.492  31.347  33.325  1.00  0.00     0.167 HD
ATOM     49  C   UNL A   1      40.677  28.482  30.193  1.00  0.00     0.034 A 
ATOM     50  C   UNL A   1      39.688  32.603  35.816  1.00  0.00     0.034 A 
ATOM     51  C   UNL A   1      41.646  28.325  31.250  1.00  0.00     0.049 A 
ATOM     52  C   UNL A   1      40.811  31.598  35.744  1.00  0.00     0.074 A 
ATOM     53  C   UNL A   1      42.746  27.487  31.294  1.00  0.00     0.029 A 
ATOM     54  N   UNL A   1      41.628  29.019  32.455  1.00  0.00    -0.354 N 
ATOM     55  N   UNL A   1      41.125  30.773  34.771  1.00  0.00    -0.248 NA
ATOM     56  C   UNL A   1      41.703  31.528  36.906  1.00  0.00     0.031 C 
ATOM     57  C   UNL A   1      43.347  27.618  32.551  1.00  0.00     0.029 A 
ATOM     58  C   UNL A   1      42.682  28.607  33.258  1.00  0.00     0.049 A 
ATOM     59  H   UNL A   1      40.965  29.704  32.702  1.00  0.00     0.167 HD
ATOM     60  C   UNL A   1      42.276  30.112  35.192  1.00  0.00     0.074 A 
ATOM     61  C   UNL A   1      42.610  30.656  36.492  1.00  0.00     0.031 C 
ATOM     62  C   UNL A   1      42.996  29.148  34.561  1.00  0.00     0.034 A 
BRANCH  49  63
ATOM     63  C   UNL A   1      40.775  27.603  28.967  1.00  0.00     0.023 A 
ATOM     64  C   UNL A   1      41.721  27.848  27.954  1.00  0.00     0.031 A 
ATOM     65  C   UNL A   1      39.892  26.525  28.789  1.00  0.00     0.131 A 
ATOM     66  C   UNL A   1      41.706  27.081  26.778  1.00  0.00     0.055 A 
ATOM     67  C   UNL A   1      39.942  25.709  27.657  1.00  0.00     0.041 A 
ATOM     68  F   UNL A   1      38.949  26.254  29.706  1.00  0.00    -0.206 F 
ATOM     69  C   UNL A   1      40.841  25.995  26.635  1.00  0.00     0.022 A 
BRANCH  66  70
ATOM     70  S   UNL A   1      42.720  27.627  25.376  1.00  0.00     0.124 S 
ATOM     71  O   UNL A   1      42.804  26.405  24.580  1.00  0.00    -0.237 OA
ATOM     72  O   UNL A   1      41.920  28.706  24.808  1.00  0.00    -0.237 OA
ATOM     73  O   UNL A   1      43.974  28.042  26.001  1.00  0.00    -0.744 OA
ENDBRANCH  66  70
ENDBRANCH  49  63
BRANCH  50  74
ATOM     74  C   UNL A   1      39.488  33.440  37.034  1.00  0.00     0.023 A 
ATOM     75  C   UNL A   1      38.919  32.902  38.200  1.00  0.00     0.031 A 
ATOM     76  C   UNL A   1      39.813  34.808  37.033  1.00  0.00     0.131 A 
ATOM     77  C   UNL A   1      38.639  33.737  39.293  1.00  0.00     0.055 A 
ATOM     78  C   UNL A   1      39.590  35.622  38.146  1.00  0.00     0.041 A 
ATOM     79  F   UNL A   1      40.363  35.375  35.947  1.00  0.00    -0.206 F 
ATOM     80  C   UNL A   1      38.985  35.090  39.279  1.00  0.00     0.022 A 
BRANCH  77  81
ATOM     81  S   UNL A   1      37.723  33.049  40.700  1.00  0.00     0.124 S 
ATOM     82  O   UNL A   1      38.102  33.961  41.774  1.00  0.00    -0.237 OA
ATOM     83  O   UNL A   1      36.342  33.142  40.237  1.00  0.00    -0.237 OA
ATOM     84  O   UNL A   1      38.249  31.691  40.817  1.00  0.00    -0.744 OA
ENDBRANCH  77  81
ENDBRANCH  50  74
BRANCH  62  85
ATOM     85  C   UNL A   1      44.249  28.665  35.256  1.00  0.00     0.023 A 
ATOM     86  C   UNL A   1      44.219  27.633  36.210  1.00  0.00     0.031 A 
ATOM     87  C   UNL A   1      45.486  29.283  34.995  1.00  0.00     0.131 A 
ATOM     88  C   UNL A   1      45.379  27.312  36.931  1.00  0.00     0.055 A 
ATOM     89  C   UNL A   1      46.654  28.902  35.657  1.00  0.00     0.041 A 
ATOM     90  F   UNL A   1      45.579  30.276  34.096  1.00  0.00    -0.206 F 
ATOM     91  C   UNL A   1      46.600  27.927  36.647  1.00  0.00     0.022 A 
BRANCH  88  92
ATOM     92  S   UNL A   1      45.236  26.190  38.350  1.00  0.00     0.124 S 
ATOM     93  O   UNL A   1      46.615  25.750  38.528  1.00  0.00    -0.237 OA
ATOM     94  O   UNL A   1      44.709  27.070  39.389  1.00  0.00    -0.237 OA
ATOM     95  O   UNL A   1      44.311  25.161  37.881  1.00  0.00    -0.744 OA
ENDBRANCH  88  92
ENDBRANCH  62  85
ENDBRANCH  36  37
ENDBRANCH  28  31
ENDBRANCH  26  27
ENDBRANCH  25  26
ENDBRANCH   1  25
TORSDOF 17
ENDMDL
