MODEL 1
REMARK VINA RESULT:     -12.2      0.000      0.000
REMARK SMILES CCC[C@H](Cc1ccn(-c2ccccc2)n1)C(=O)NCCCCNC(=O)c1ccc(-c2c3nc(c(-c4cc(S(=O)(=O)[O-])ccc4F)c4ccc([nH]4)c(-c4cc(S(=O)(=O)[O-])ccc4F)c4nc(c(-c5cc(S(=O)(=O)[O-])ccc5F)c5ccc2[nH]5)C=C4)C=C3)cc1
REMARK SMILES IDX 21 1 20 2 19 3 17 4 18 5 4 7 3 8 2 9 1 10 5 11 6 12 7 13
REMARK SMILES IDX 16 14 8 15 9 16 10 17 11 18 15 19 12 20 14 21 13 22 22 23
REMARK SMILES IDX 23 24 24 25 25 26 26 28 27 29 28 30 89 31 29 32 88 33 30 34
REMARK SMILES IDX 31 35 32 36 82 37 33 38 87 39 81 40 83 41 34 42 86 43 80 44
REMARK SMILES IDX 79 45 35 47 67 48 47 49 66 50 48 51 51 52 65 53 84 54 49 55
REMARK SMILES IDX 50 56 64 58 85 59 52 60 36 61 37 62 45 63 38 64 44 65 46 66
REMARK SMILES IDX 43 67 39 68 40 69 41 70 42 71 68 72 69 73 77 74 70 75 76 76
REMARK SMILES IDX 78 77 75 78 71 79 72 80 73 81 74 82 53 83 54 84 62 85 55 86
REMARK SMILES IDX 61 87 63 88 60 89 56 90 57 91 58 92 59 93
REMARK H PARENT 19 6 24 27 83 46 51 57
REMARK Flexibility Score: inf
ROOT
ATOM      1  C   UNL A   1      33.296  28.275  26.881  1.00  0.00     0.023 C 
ENDROOT
BRANCH   1   2
ATOM      2  C   UNL A   1      32.014  27.968  27.631  1.00  0.00     0.116 C 
BRANCH   2   3
ATOM      3  N   UNL A   1      31.022  27.250  26.837  1.00  0.00    -0.356 N 
ATOM      4  C   UNL A   1      30.999  26.082  26.146  1.00  0.00     0.223 C 
ATOM      5  O   UNL A   1      29.952  25.811  25.545  1.00  0.00    -0.275 OA
ATOM      6  H   UNL A   1      30.162  27.728  26.792  1.00  0.00     0.163 HD
BRANCH   4   7
ATOM      7  C   UNL A   1      32.159  25.093  26.090  1.00  0.00     0.084 C 
BRANCH   7   8
ATOM      8  C   UNL A   1      33.076  25.247  24.851  1.00  0.00     0.013 C 
BRANCH   8   9
ATOM      9  C   UNL A   1      32.528  24.658  23.542  1.00  0.00    -0.003 C 
ATOM     10  C   UNL A   1      33.491  23.734  22.828  1.00  0.00     0.004 C 
ENDBRANCH   8   9
ENDBRANCH   7   8
BRANCH   7  11
ATOM     11  C   UNL A   1      31.803  23.647  26.521  1.00  0.00     0.071 C 
BRANCH  11  12
ATOM     12  C   UNL A   1      32.720  22.488  26.234  1.00  0.00     0.064 A 
ATOM     13  C   UNL A   1      34.010  22.278  26.775  1.00  0.00     0.046 A 
ATOM     14  N   UNL A   1      32.335  21.435  25.496  1.00  0.00    -0.173 NA
ATOM     15  C   UNL A   1      34.425  21.068  26.269  1.00  0.00     0.115 A 
ATOM     16  N   UNL A   1      33.421  20.608  25.436  1.00  0.00    -0.241 N 
BRANCH  16  17
ATOM     17  C   UNL A   1      33.532  19.562  24.455  1.00  0.00     0.065 A 
ATOM     18  C   UNL A   1      32.539  19.389  23.473  1.00  0.00     0.028 A 
ATOM     19  C   UNL A   1      34.493  18.552  24.633  1.00  0.00     0.028 A 
ATOM     20  C   UNL A   1      32.438  18.180  22.775  1.00  0.00     0.002 A 
ATOM     21  C   UNL A   1      34.375  17.341  23.937  1.00  0.00     0.002 A 
ATOM     22  C   UNL A   1      33.335  17.147  23.029  1.00  0.00     0.000 A 
ENDBRANCH  16  17
ENDBRANCH  11  12
ENDBRANCH   7  11
ENDBRANCH   4   7
ENDBRANCH   2   3
ENDBRANCH   1   2
BRANCH   1  23
ATOM     23  C   UNL A   1      33.990  29.551  27.324  1.00  0.00     0.023 C 
BRANCH  23  24
ATOM     24  C   UNL A   1      35.454  29.355  27.590  1.00  0.00     0.116 C 
BRANCH  24  25
ATOM     25  N   UNL A   1      35.813  29.849  28.928  1.00  0.00    -0.352 N 
ATOM     26  C   UNL A   1      36.883  29.440  29.702  1.00  0.00     0.251 C 
ATOM     27  H   UNL A   1      35.230  30.542  29.314  1.00  0.00     0.163 HD
ATOM     28  O   UNL A   1      36.897  29.603  30.919  1.00  0.00    -0.269 OA
BRANCH  26  29
ATOM     29  C   UNL A   1      37.997  28.811  28.982  1.00  0.00     0.039 A 
ATOM     30  C   UNL A   1      38.622  29.410  27.891  1.00  0.00     0.014 A 
ATOM     31  C   UNL A   1      38.547  27.705  29.617  1.00  0.00     0.014 A 
ATOM     32  C   UNL A   1      39.879  28.936  27.522  1.00  0.00     0.010 A 
ATOM     33  C   UNL A   1      39.877  27.464  29.444  1.00  0.00     0.010 A 
ATOM     34  C   UNL A   1      40.526  27.989  28.341  1.00  0.00    -0.014 A 
BRANCH  34  35
ATOM     35  C   UNL A   1      41.931  27.626  28.175  1.00  0.00     0.031 A 
ATOM     36  C   UNL A   1      42.119  26.373  27.403  1.00  0.00     0.074 A 
ATOM     37  C   UNL A   1      42.962  28.442  28.510  1.00  0.00     0.049 A 
ATOM     38  N   UNL A   1      42.293  25.191  27.891  1.00  0.00    -0.248 NA
ATOM     39  C   UNL A   1      41.832  26.374  25.958  1.00  0.00     0.031 C 
ATOM     40  C   UNL A   1      42.918  29.825  29.008  1.00  0.00     0.029 A 
ATOM     41  N   UNL A   1      44.302  28.224  28.407  1.00  0.00    -0.354 N 
ATOM     42  C   UNL A   1      42.475  24.360  26.794  1.00  0.00     0.074 A 
ATOM     43  C   UNL A   1      41.904  25.068  25.682  1.00  0.00     0.031 C 
ATOM     44  C   UNL A   1      44.148  30.384  28.953  1.00  0.00     0.029 A 
ATOM     45  C   UNL A   1      45.104  29.350  28.612  1.00  0.00     0.049 A 
ATOM     46  H   UNL A   1      44.679  27.338  28.203  1.00  0.00     0.167 HD
ATOM     47  C   UNL A   1      43.368  23.332  26.860  1.00  0.00     0.034 A 
ATOM     48  C   UNL A   1      46.465  29.429  28.562  1.00  0.00     0.034 A 
ATOM     49  C   UNL A   1      43.761  23.101  28.240  1.00  0.00     0.049 A 
ATOM     50  C   UNL A   1      46.961  28.050  28.782  1.00  0.00     0.074 A 
ATOM     51  C   UNL A   1      43.091  22.778  29.404  1.00  0.00     0.029 A 
ATOM     52  N   UNL A   1      44.969  23.632  28.641  1.00  0.00    -0.354 N 
ATOM     53  N   UNL A   1      46.789  27.408  29.905  1.00  0.00    -0.248 NA
ATOM     54  C   UNL A   1      47.170  27.208  27.614  1.00  0.00     0.031 C 
ATOM     55  C   UNL A   1      43.716  23.565  30.420  1.00  0.00     0.029 A 
ATOM     56  C   UNL A   1      44.801  24.243  29.859  1.00  0.00     0.049 A 
ATOM     57  H   UNL A   1      45.813  23.580  28.137  1.00  0.00     0.167 HD
ATOM     58  C   UNL A   1      46.416  26.125  29.530  1.00  0.00     0.074 A 
ATOM     59  C   UNL A   1      46.775  26.032  28.114  1.00  0.00     0.031 C 
ATOM     60  C   UNL A   1      45.593  25.372  30.322  1.00  0.00     0.034 A 
BRANCH  47  61
ATOM     61  C   UNL A   1      44.221  22.842  25.705  1.00  0.00     0.023 A 
ATOM     62  C   UNL A   1      44.269  21.448  25.506  1.00  0.00     0.031 A 
ATOM     63  C   UNL A   1      45.189  23.590  24.998  1.00  0.00     0.131 A 
ATOM     64  C   UNL A   1      45.307  20.855  24.766  1.00  0.00     0.055 A 
ATOM     65  C   UNL A   1      46.184  23.000  24.212  1.00  0.00     0.041 A 
ATOM     66  F   UNL A   1      45.291  24.920  25.079  1.00  0.00    -0.206 F 
ATOM     67  C   UNL A   1      46.270  21.622  24.122  1.00  0.00     0.022 A 
BRANCH  64  68
ATOM     68  S   UNL A   1      45.473  19.054  24.821  1.00  0.00     0.124 S 
ATOM     69  O   UNL A   1      45.544  18.728  23.401  1.00  0.00    -0.237 OA
ATOM     70  O   UNL A   1      46.706  18.891  25.584  1.00  0.00    -0.237 OA
ATOM     71  O   UNL A   1      44.255  18.624  25.502  1.00  0.00    -0.744 OA
ENDBRANCH  64  68
ENDBRANCH  47  61
BRANCH  48  72
ATOM     72  C   UNL A   1      47.305  30.525  27.991  1.00  0.00     0.023 A 
ATOM     73  C   UNL A   1      46.786  31.613  27.246  1.00  0.00     0.031 A 
ATOM     74  C   UNL A   1      48.647  30.639  28.417  1.00  0.00     0.131 A 
ATOM     75  C   UNL A   1      47.598  32.744  26.971  1.00  0.00     0.055 A 
ATOM     76  C   UNL A   1      49.437  31.761  28.151  1.00  0.00     0.041 A 
ATOM     77  F   UNL A   1      49.209  29.694  29.188  1.00  0.00    -0.206 F 
ATOM     78  C   UNL A   1      48.913  32.824  27.433  1.00  0.00     0.022 A 
BRANCH  75  79
ATOM     79  S   UNL A   1      46.940  34.180  26.047  1.00  0.00     0.124 S 
ATOM     80  O   UNL A   1      47.981  34.420  25.056  1.00  0.00    -0.237 OA
ATOM     81  O   UNL A   1      45.667  33.675  25.545  1.00  0.00    -0.237 OA
ATOM     82  O   UNL A   1      46.821  35.222  27.070  1.00  0.00    -0.744 OA
ENDBRANCH  75  79
ENDBRANCH  48  72
BRANCH  60  83
ATOM     83  C   UNL A   1      45.371  25.830  31.756  1.00  0.00     0.023 A 
ATOM     84  C   UNL A   1      46.246  25.604  32.846  1.00  0.00     0.031 A 
ATOM     85  C   UNL A   1      44.234  26.624  31.992  1.00  0.00     0.131 A 
ATOM     86  C   UNL A   1      45.956  26.161  34.111  1.00  0.00     0.055 A 
ATOM     87  C   UNL A   1      43.965  27.191  33.235  1.00  0.00     0.041 A 
ATOM     88  F   UNL A   1      43.373  26.891  30.996  1.00  0.00    -0.206 F 
ATOM     89  C   UNL A   1      44.821  26.957  34.303  1.00  0.00     0.022 A 
BRANCH  86  90
ATOM     90  S   UNL A   1      47.030  25.839  35.553  1.00  0.00     0.124 S 
ATOM     91  O   UNL A   1      46.744  26.954  36.448  1.00  0.00    -0.237 OA
ATOM     92  O   UNL A   1      46.573  24.526  36.003  1.00  0.00    -0.237 OA
ATOM     93  O   UNL A   1      48.378  25.847  34.982  1.00  0.00    -0.744 OA
ENDBRANCH  86  90
ENDBRANCH  60  83
ENDBRANCH  34  35
ENDBRANCH  26  29
ENDBRANCH  24  25
ENDBRANCH  23  24
ENDBRANCH   1  23
TORSDOF 19
ENDMDL
MODEL 2
REMARK VINA RESULT:     -12.1      4.592     10.731
REMARK SMILES CCC[C@H](Cc1ccn(-c2ccccc2)n1)C(=O)NCCCCNC(=O)c1ccc(-c2c3nc(c(-c4cc(S(=O)(=O)[O-])ccc4F)c4ccc([nH]4)c(-c4cc(S(=O)(=O)[O-])ccc4F)c4nc(c(-c5cc(S(=O)(=O)[O-])ccc5F)c5ccc2[nH]5)C=C4)C=C3)cc1
REMARK SMILES IDX 21 1 20 2 19 3 17 4 18 5 4 7 3 8 2 9 1 10 5 11 6 12 7 13
REMARK SMILES IDX 16 14 8 15 9 16 10 17 11 18 15 19 12 20 14 21 13 22 22 23
REMARK SMILES IDX 23 24 24 25 25 26 26 28 27 29 28 30 89 31 29 32 88 33 30 34
REMARK SMILES IDX 31 35 32 36 82 37 33 38 87 39 81 40 83 41 34 42 86 43 80 44
REMARK SMILES IDX 79 45 35 47 67 48 47 49 66 50 48 51 51 52 65 53 84 54 49 55
REMARK SMILES IDX 50 56 64 58 85 59 52 60 36 61 37 62 45 63 38 64 44 65 46 66
REMARK SMILES IDX 43 67 39 68 40 69 41 70 42 71 68 72 69 73 77 74 70 75 76 76
REMARK SMILES IDX 78 77 75 78 71 79 72 80 73 81 74 82 53 83 54 84 62 85 55 86
REMARK SMILES IDX 61 87 63 88 60 89 56 90 57 91 58 92 59 93
REMARK H PARENT 19 6 24 27 83 46 51 57
REMARK Flexibility Score: inf
ROOT
ATOM      1  C   UNL A   1      36.495  23.370  25.842  1.00  0.00     0.023 C 
ENDROOT
BRANCH   1   2
ATOM      2  C   UNL A   1      35.736  22.088  26.128  1.00  0.00     0.116 C 
BRANCH   2   3
ATOM      3  N   UNL A   1      34.626  22.255  27.060  1.00  0.00    -0.356 N 
ATOM      4  C   UNL A   1      33.339  22.676  26.964  1.00  0.00     0.223 C 
ATOM      5  O   UNL A   1      32.686  22.716  28.015  1.00  0.00    -0.275 OA
ATOM      6  H   UNL A   1      34.867  21.998  27.980  1.00  0.00     0.163 HD
BRANCH   4   7
ATOM      7  C   UNL A   1      32.658  23.072  25.658  1.00  0.00     0.084 C 
BRANCH   7   8
ATOM      8  C   UNL A   1      32.471  21.908  24.652  1.00  0.00     0.013 C 
BRANCH   8   9
ATOM      9  C   UNL A   1      32.442  22.311  23.170  1.00  0.00    -0.003 C 
ATOM     10  C   UNL A   1      31.955  21.219  22.241  1.00  0.00     0.004 C 
ENDBRANCH   8   9
ENDBRANCH   7   8
BRANCH   7  11
ATOM     11  C   UNL A   1      33.109  24.435  25.075  1.00  0.00     0.071 C 
BRANCH  11  12
ATOM     12  C   UNL A   1      32.825  25.732  25.785  1.00  0.00     0.064 A 
ATOM     13  C   UNL A   1      31.585  26.145  26.325  1.00  0.00     0.046 A 
ATOM     14  N   UNL A   1      33.795  26.608  26.091  1.00  0.00    -0.173 NA
ATOM     15  C   UNL A   1      31.834  27.360  26.920  1.00  0.00     0.115 A 
ATOM     16  N   UNL A   1      33.167  27.657  26.703  1.00  0.00    -0.241 N 
BRANCH  16  17
ATOM     17  C   UNL A   1      33.796  28.940  26.856  1.00  0.00     0.065 A 
ATOM     18  C   UNL A   1      35.179  29.039  27.102  1.00  0.00     0.028 A 
ATOM     19  C   UNL A   1      32.996  30.083  27.022  1.00  0.00     0.028 A 
ATOM     20  C   UNL A   1      35.723  30.220  27.622  1.00  0.00     0.002 A 
ATOM     21  C   UNL A   1      33.548  31.257  27.554  1.00  0.00     0.002 A 
ATOM     22  C   UNL A   1      34.903  31.316  27.876  1.00  0.00     0.000 A 
ENDBRANCH  16  17
ENDBRANCH  11  12
ENDBRANCH   7  11
ENDBRANCH   4   7
ENDBRANCH   2   3
ENDBRANCH   1   2
BRANCH   1  23
ATOM     23  C   UNL A   1      38.000  23.194  25.726  1.00  0.00     0.023 C 
BRANCH  23  24
ATOM     24  C   UNL A   1      38.761  24.027  26.716  1.00  0.00     0.116 C 
BRANCH  24  25
ATOM     25  N   UNL A   1      40.012  24.526  26.125  1.00  0.00    -0.352 N 
ATOM     26  C   UNL A   1      40.485  25.824  26.163  1.00  0.00     0.251 C 
ATOM     27  H   UNL A   1      40.571  23.867  25.653  1.00  0.00     0.163 HD
ATOM     28  O   UNL A   1      41.307  26.234  25.348  1.00  0.00    -0.269 OA
BRANCH  26  29
ATOM     29  C   UNL A   1      39.953  26.674  27.236  1.00  0.00     0.039 A 
ATOM     30  C   UNL A   1      39.651  26.183  28.504  1.00  0.00     0.014 A 
ATOM     31  C   UNL A   1      40.014  28.038  26.980  1.00  0.00     0.014 A 
ATOM     32  C   UNL A   1      39.521  27.104  29.542  1.00  0.00     0.010 A 
ATOM     33  C   UNL A   1      40.187  28.880  28.037  1.00  0.00     0.010 A 
ATOM     34  C   UNL A   1      39.842  28.456  29.308  1.00  0.00    -0.014 A 
BRANCH  34  35
ATOM     35  C   UNL A   1      39.978  29.435  30.382  1.00  0.00     0.031 A 
ATOM     36  C   UNL A   1      38.730  30.195  30.636  1.00  0.00     0.074 A 
ATOM     37  C   UNL A   1      41.059  29.510  31.200  1.00  0.00     0.049 A 
ATOM     38  N   UNL A   1      38.431  31.359  30.164  1.00  0.00    -0.248 NA
ATOM     39  C   UNL A   1      37.586  29.505  31.258  1.00  0.00     0.031 C 
ATOM     40  C   UNL A   1      42.236  28.630  31.251  1.00  0.00     0.029 A 
ATOM     41  N   UNL A   1      41.306  30.368  32.227  1.00  0.00    -0.354 N 
ATOM     42  C   UNL A   1      37.198  31.679  30.717  1.00  0.00     0.074 A 
ATOM     43  C   UNL A   1      36.626  30.424  31.119  1.00  0.00     0.031 C 
ATOM     44  C   UNL A   1      42.947  28.862  32.377  1.00  0.00     0.029 A 
ATOM     45  C   UNL A   1      42.402  30.037  33.028  1.00  0.00     0.049 A 
ATOM     46  H   UNL A   1      40.752  31.165  32.394  1.00  0.00     0.167 HD
ATOM     47  C   UNL A   1      36.930  32.963  31.083  1.00  0.00     0.034 A 
ATOM     48  C   UNL A   1      42.872  30.702  34.122  1.00  0.00     0.034 A 
ATOM     49  C   UNL A   1      37.922  33.862  30.518  1.00  0.00     0.049 A 
ATOM     50  C   UNL A   1      42.370  32.091  33.999  1.00  0.00     0.074 A 
ATOM     51  C   UNL A   1      38.346  34.168  29.240  1.00  0.00     0.029 A 
ATOM     52  N   UNL A   1      38.940  34.271  31.355  1.00  0.00    -0.354 N 
ATOM     53  N   UNL A   1      42.740  32.894  33.039  1.00  0.00    -0.248 NA
ATOM     54  C   UNL A   1      41.089  32.407  34.611  1.00  0.00     0.031 C 
ATOM     55  C   UNL A   1      39.766  34.293  29.341  1.00  0.00     0.029 A 
ATOM     56  C   UNL A   1      40.133  34.169  30.683  1.00  0.00     0.049 A 
ATOM     57  H   UNL A   1      38.828  34.585  32.281  1.00  0.00     0.167 HD
ATOM     58  C   UNL A   1      41.571  33.516  32.623  1.00  0.00     0.074 A 
ATOM     59  C   UNL A   1      40.611  33.259  33.697  1.00  0.00     0.031 C 
ATOM     60  C   UNL A   1      41.415  33.924  31.327  1.00  0.00     0.034 A 
BRANCH  47  61
ATOM     61  C   UNL A   1      36.086  33.372  32.277  1.00  0.00     0.023 A 
ATOM     62  C   UNL A   1      34.962  34.177  32.006  1.00  0.00     0.031 A 
ATOM     63  C   UNL A   1      36.455  33.283  33.637  1.00  0.00     0.131 A 
ATOM     64  C   UNL A   1      34.356  34.942  33.017  1.00  0.00     0.055 A 
ATOM     65  C   UNL A   1      35.810  33.999  34.651  1.00  0.00     0.041 A 
ATOM     66  F   UNL A   1      37.501  32.571  34.068  1.00  0.00    -0.206 F 
ATOM     67  C   UNL A   1      34.777  34.864  34.339  1.00  0.00     0.022 A 
BRANCH  64  68
ATOM     68  S   UNL A   1      33.128  36.179  32.531  1.00  0.00     0.124 S 
ATOM     69  O   UNL A   1      33.589  36.535  31.194  1.00  0.00    -0.237 OA
ATOM     70  O   UNL A   1      31.888  35.414  32.604  1.00  0.00    -0.237 OA
ATOM     71  O   UNL A   1      33.280  37.221  33.544  1.00  0.00    -0.744 OA
ENDBRANCH  64  68
ENDBRANCH  47  61
BRANCH  48  72
ATOM     72  C   UNL A   1      43.401  30.127  35.395  1.00  0.00     0.023 A 
ATOM     73  C   UNL A   1      43.066  28.838  35.879  1.00  0.00     0.031 A 
ATOM     74  C   UNL A   1      44.483  30.776  36.031  1.00  0.00     0.131 A 
ATOM     75  C   UNL A   1      43.806  28.258  36.943  1.00  0.00     0.055 A 
ATOM     76  C   UNL A   1      45.214  30.194  37.070  1.00  0.00     0.041 A 
ATOM     77  F   UNL A   1      44.923  31.968  35.599  1.00  0.00    -0.206 F 
ATOM     78  C   UNL A   1      44.885  28.927  37.526  1.00  0.00     0.022 A 
BRANCH  75  79
ATOM     79  S   UNL A   1      43.421  26.579  37.560  1.00  0.00     0.124 S 
ATOM     80  O   UNL A   1      43.937  26.619  38.923  1.00  0.00    -0.237 OA
ATOM     81  O   UNL A   1      41.972  26.515  37.413  1.00  0.00    -0.237 OA
ATOM     82  O   UNL A   1      44.165  25.701  36.653  1.00  0.00    -0.744 OA
ENDBRANCH  75  79
ENDBRANCH  48  72
BRANCH  60  83
ATOM     83  C   UNL A   1      42.653  33.988  30.446  1.00  0.00     0.023 A 
ATOM     84  C   UNL A   1      43.090  32.980  29.552  1.00  0.00     0.031 A 
ATOM     85  C   UNL A   1      43.374  35.195  30.462  1.00  0.00     0.131 A 
ATOM     86  C   UNL A   1      44.215  33.206  28.728  1.00  0.00     0.055 A 
ATOM     87  C   UNL A   1      44.468  35.423  29.631  1.00  0.00     0.041 A 
ATOM     88  F   UNL A   1      43.002  36.198  31.275  1.00  0.00    -0.206 F 
ATOM     89  C   UNL A   1      44.898  34.426  28.764  1.00  0.00     0.022 A 
BRANCH  86  90
ATOM     90  S   UNL A   1      44.842  31.906  27.608  1.00  0.00     0.124 S 
ATOM     91  O   UNL A   1      45.253  32.646  26.422  1.00  0.00    -0.237 OA
ATOM     92  O   UNL A   1      45.918  31.305  28.391  1.00  0.00    -0.237 OA
ATOM     93  O   UNL A   1      43.680  31.037  27.411  1.00  0.00    -0.744 OA
ENDBRANCH  86  90
ENDBRANCH  60  83
ENDBRANCH  34  35
ENDBRANCH  26  29
ENDBRANCH  24  25
ENDBRANCH  23  24
ENDBRANCH   1  23
TORSDOF 19
ENDMDL
MODEL 3
REMARK VINA RESULT:     -12.1      3.232      8.630
REMARK SMILES CCC[C@H](Cc1ccn(-c2ccccc2)n1)C(=O)NCCCCNC(=O)c1ccc(-c2c3nc(c(-c4cc(S(=O)(=O)[O-])ccc4F)c4ccc([nH]4)c(-c4cc(S(=O)(=O)[O-])ccc4F)c4nc(c(-c5cc(S(=O)(=O)[O-])ccc5F)c5ccc2[nH]5)C=C4)C=C3)cc1
REMARK SMILES IDX 21 1 20 2 19 3 17 4 18 5 4 7 3 8 2 9 1 10 5 11 6 12 7 13
REMARK SMILES IDX 16 14 8 15 9 16 10 17 11 18 15 19 12 20 14 21 13 22 22 23
REMARK SMILES IDX 23 24 24 25 25 26 26 28 27 29 28 30 89 31 29 32 88 33 30 34
REMARK SMILES IDX 31 35 32 36 82 37 33 38 87 39 81 40 83 41 34 42 86 43 80 44
REMARK SMILES IDX 79 45 35 47 67 48 47 49 66 50 48 51 51 52 65 53 84 54 49 55
REMARK SMILES IDX 50 56 64 58 85 59 52 60 36 61 37 62 45 63 38 64 44 65 46 66
REMARK SMILES IDX 43 67 39 68 40 69 41 70 42 71 68 72 69 73 77 74 70 75 76 76
REMARK SMILES IDX 78 77 75 78 71 79 72 80 73 81 74 82 53 83 54 84 62 85 55 86
REMARK SMILES IDX 61 87 63 88 60 89 56 90 57 91 58 92 59 93
REMARK H PARENT 19 6 24 27 83 46 51 57
REMARK Flexibility Score: inf
ROOT
ATOM      1  C   UNL A   1      36.975  22.285  24.527  1.00  0.00     0.023 C 
ENDROOT
BRANCH   1   2
ATOM      2  C   UNL A   1      36.432  23.170  25.633  1.00  0.00     0.116 C 
BRANCH   2   3
ATOM      3  N   UNL A   1      35.603  22.463  26.603  1.00  0.00    -0.356 N 
ATOM      4  C   UNL A   1      34.399  21.835  26.569  1.00  0.00     0.223 C 
ATOM      5  O   UNL A   1      33.987  21.365  27.638  1.00  0.00    -0.275 OA
ATOM      6  H   UNL A   1      36.015  22.432  27.497  1.00  0.00     0.163 HD
BRANCH   4   7
ATOM      7  C   UNL A   1      33.556  21.658  25.311  1.00  0.00     0.084 C 
BRANCH   7   8
ATOM      8  C   UNL A   1      33.959  20.447  24.432  1.00  0.00     0.013 C 
BRANCH   8   9
ATOM      9  C   UNL A   1      33.476  19.077  24.929  1.00  0.00    -0.003 C 
ATOM     10  C   UNL A   1      34.088  17.901  24.197  1.00  0.00     0.004 C 
ENDBRANCH   8   9
ENDBRANCH   7   8
BRANCH   7  11
ATOM     11  C   UNL A   1      33.205  22.974  24.572  1.00  0.00     0.071 C 
BRANCH  11  12
ATOM     12  C   UNL A   1      32.241  23.974  25.152  1.00  0.00     0.064 A 
ATOM     13  C   UNL A   1      30.920  23.718  25.589  1.00  0.00     0.046 A 
ATOM     14  N   UNL A   1      32.600  25.237  25.432  1.00  0.00    -0.173 NA
ATOM     15  C   UNL A   1      30.464  24.916  26.089  1.00  0.00     0.115 A 
ATOM     16  N   UNL A   1      31.475  25.843  25.917  1.00  0.00    -0.241 N 
BRANCH  16  17
ATOM     17  C   UNL A   1      31.350  27.274  25.992  1.00  0.00     0.065 A 
ATOM     18  C   UNL A   1      31.205  28.045  24.822  1.00  0.00     0.028 A 
ATOM     19  C   UNL A   1      31.633  27.926  27.203  1.00  0.00     0.028 A 
ATOM     20  C   UNL A   1      31.463  29.421  24.847  1.00  0.00     0.002 A 
ATOM     21  C   UNL A   1      31.900  29.302  27.214  1.00  0.00     0.002 A 
ATOM     22  C   UNL A   1      31.840  30.042  26.034  1.00  0.00     0.000 A 
ENDBRANCH  16  17
ENDBRANCH  11  12
ENDBRANCH   7  11
ENDBRANCH   4   7
ENDBRANCH   2   3
ENDBRANCH   1   2
BRANCH   1  23
ATOM     23  C   UNL A   1      37.590  20.983  25.013  1.00  0.00     0.023 C 
BRANCH  23  24
ATOM     24  C   UNL A   1      38.900  21.186  25.717  1.00  0.00     0.116 C 
BRANCH  24  25
ATOM     25  N   UNL A   1      39.641  19.919  25.815  1.00  0.00    -0.352 N 
ATOM     26  C   UNL A   1      41.010  19.768  25.929  1.00  0.00     0.251 C 
ATOM     27  H   UNL A   1      39.107  19.092  25.798  1.00  0.00     0.163 HD
ATOM     28  O   UNL A   1      41.570  18.718  25.624  1.00  0.00    -0.269 OA
BRANCH  26  29
ATOM     29  C   UNL A   1      41.747  20.930  26.440  1.00  0.00     0.039 A 
ATOM     30  C   UNL A   1      42.016  22.053  25.661  1.00  0.00     0.014 A 
ATOM     31  C   UNL A   1      41.933  20.939  27.817  1.00  0.00     0.014 A 
ATOM     32  C   UNL A   1      42.372  23.229  26.319  1.00  0.00     0.010 A 
ATOM     33  C   UNL A   1      41.977  22.146  28.448  1.00  0.00     0.010 A 
ATOM     34  C   UNL A   1      42.301  23.280  27.725  1.00  0.00    -0.014 A 
BRANCH  34  35
ATOM     35  C   UNL A   1      42.408  24.527  28.479  1.00  0.00     0.031 A 
ATOM     36  C   UNL A   1      41.260  25.440  28.255  1.00  0.00     0.074 A 
ATOM     37  C   UNL A   1      43.344  24.750  29.434  1.00  0.00     0.049 A 
ATOM     38  N   UNL A   1      41.214  26.423  27.420  1.00  0.00    -0.248 NA
ATOM     39  C   UNL A   1      39.944  25.084  28.813  1.00  0.00     0.031 C 
ATOM     40  C   UNL A   1      44.357  23.824  29.965  1.00  0.00     0.029 A 
ATOM     41  N   UNL A   1      43.549  25.857  30.200  1.00  0.00    -0.354 N 
ATOM     42  C   UNL A   1      39.969  27.010  27.606  1.00  0.00     0.074 A 
ATOM     43  C   UNL A   1      39.163  25.999  28.231  1.00  0.00     0.031 C 
ATOM     44  C   UNL A   1      44.907  24.326  31.093  1.00  0.00     0.029 A 
ATOM     45  C   UNL A   1      44.444  25.690  31.260  1.00  0.00     0.049 A 
ATOM     46  H   UNL A   1      43.099  26.714  30.019  1.00  0.00     0.167 HD
ATOM     47  C   UNL A   1      39.838  28.364  27.528  1.00  0.00     0.034 A 
ATOM     48  C   UNL A   1      44.828  26.614  32.186  1.00  0.00     0.034 A 
ATOM     49  C   UNL A   1      41.028  28.948  26.934  1.00  0.00     0.049 A 
ATOM     50  C   UNL A   1      44.561  27.937  31.575  1.00  0.00     0.074 A 
ATOM     51  C   UNL A   1      41.689  28.804  25.730  1.00  0.00     0.029 A 
ATOM     52  N   UNL A   1      41.949  29.500  27.800  1.00  0.00    -0.354 N 
ATOM     53  N   UNL A   1      45.191  28.367  30.516  1.00  0.00    -0.248 NA
ATOM     54  C   UNL A   1      43.259  28.544  31.808  1.00  0.00     0.031 C 
ATOM     55  C   UNL A   1      43.078  28.823  26.066  1.00  0.00     0.029 A 
ATOM     56  C   UNL A   1      43.206  29.086  27.432  1.00  0.00     0.049 A 
ATOM     57  H   UNL A   1      41.740  30.094  28.556  1.00  0.00     0.167 HD
ATOM     58  C   UNL A   1      44.208  28.935  29.719  1.00  0.00     0.074 A 
ATOM     59  C   UNL A   1      43.062  29.112  30.613  1.00  0.00     0.031 C 
ATOM     60  C   UNL A   1      44.320  28.935  28.356  1.00  0.00     0.034 A 
BRANCH  47  61
ATOM     61  C   UNL A   1      38.885  29.197  28.366  1.00  0.00     0.023 A 
ATOM     62  C   UNL A   1      39.127  29.224  29.753  1.00  0.00     0.031 A 
ATOM     63  C   UNL A   1      37.632  29.707  27.959  1.00  0.00     0.131 A 
ATOM     64  C   UNL A   1      38.121  29.600  30.660  1.00  0.00     0.055 A 
ATOM     65  C   UNL A   1      36.654  30.138  28.861  1.00  0.00     0.041 A 
ATOM     66  F   UNL A   1      37.236  29.747  26.683  1.00  0.00    -0.206 F 
ATOM     67  C   UNL A   1      36.881  30.051  30.223  1.00  0.00     0.022 A 
BRANCH  64  68
ATOM     68  S   UNL A   1      38.407  29.308  32.422  1.00  0.00     0.124 S 
ATOM     69  O   UNL A   1      39.779  28.812  32.415  1.00  0.00    -0.237 OA
ATOM     70  O   UNL A   1      38.205  30.640  32.982  1.00  0.00    -0.237 OA
ATOM     71  O   UNL A   1      37.387  28.323  32.770  1.00  0.00    -0.744 OA
ENDBRANCH  64  68
ENDBRANCH  47  61
BRANCH  48  72
ATOM     72  C   UNL A   1      45.058  26.414  33.649  1.00  0.00     0.023 A 
ATOM     73  C   UNL A   1      44.056  26.578  34.636  1.00  0.00     0.031 A 
ATOM     74  C   UNL A   1      46.253  25.784  34.064  1.00  0.00     0.131 A 
ATOM     75  C   UNL A   1      44.273  26.113  35.960  1.00  0.00     0.055 A 
ATOM     76  C   UNL A   1      46.455  25.319  35.366  1.00  0.00     0.041 A 
ATOM     77  F   UNL A   1      47.234  25.519  33.186  1.00  0.00    -0.206 F 
ATOM     78  C   UNL A   1      45.461  25.474  36.320  1.00  0.00     0.022 A 
BRANCH  75  79
ATOM     79  S   UNL A   1      42.980  26.275  37.245  1.00  0.00     0.124 S 
ATOM     80  O   UNL A   1      42.154  25.098  37.010  1.00  0.00    -0.237 OA
ATOM     81  O   UNL A   1      43.761  26.288  38.476  1.00  0.00    -0.237 OA
ATOM     82  O   UNL A   1      42.333  27.549  36.922  1.00  0.00    -0.744 OA
ENDBRANCH  75  79
ENDBRANCH  48  72
BRANCH  60  83
ATOM     83  C   UNL A   1      45.678  28.609  27.753  1.00  0.00     0.023 A 
ATOM     84  C   UNL A   1      46.042  27.385  27.140  1.00  0.00     0.031 A 
ATOM     85  C   UNL A   1      46.620  29.652  27.728  1.00  0.00     0.131 A 
ATOM     86  C   UNL A   1      47.315  27.247  26.543  1.00  0.00     0.055 A 
ATOM     87  C   UNL A   1      47.865  29.519  27.117  1.00  0.00     0.041 A 
ATOM     88  F   UNL A   1      46.330  30.843  28.277  1.00  0.00    -0.206 F 
ATOM     89  C   UNL A   1      48.221  28.313  26.527  1.00  0.00     0.022 A 
BRANCH  86  90
ATOM     90  S   UNL A   1      47.841  25.665  25.798  1.00  0.00     0.124 S 
ATOM     91  O   UNL A   1      47.868  24.745  26.928  1.00  0.00    -0.237 OA
ATOM     92  O   UNL A   1      46.801  25.421  24.802  1.00  0.00    -0.237 OA
ATOM     93  O   UNL A   1      49.157  25.975  25.234  1.00  0.00    -0.744 OA
ENDBRANCH  86  90
ENDBRANCH  60  83
ENDBRANCH  34  35
ENDBRANCH  26  29
ENDBRANCH  24  25
ENDBRANCH  23  24
ENDBRANCH   1  23
TORSDOF 19
ENDMDL
