MODEL 1
REMARK VINA RESULT:     -11.2      0.000      0.000
REMARK SMILES CC(=O)N[C@@H](CCC(=O)NCCCCNC(=O)c1ccc(-c2c3nc(c(-c4cc(S(=O)(=O)[O-])ccc4F)c4ccc([nH]4)c(-c4cc(S(=O)(=O)[O-])ccc4F)c4nc(c(-c5cc(S(=O)(=O)[O-])ccc5F)c5ccc2[nH]5)C=C4)C=C3)cc1)Cc1nc(C)ccc1O
REMARK SMILES IDX 11 1 10 2 8 3 9 4 7 6 6 7 5 8 4 9 1 10 2 11 3 12 81 14 82 15
REMARK SMILES IDX 83 16 88 17 84 18 87 19 85 20 86 21 89 22 12 24 13 25 14 26
REMARK SMILES IDX 15 27 16 28 17 30 18 31 19 32 80 33 20 34 79 35 21 36 22 37
REMARK SMILES IDX 23 38 73 39 24 40 78 41 72 42 74 43 25 44 77 45 71 46 70 47
REMARK SMILES IDX 26 49 58 50 38 51 57 52 39 53 42 54 56 55 75 56 40 57 41 58
REMARK SMILES IDX 55 60 76 61 43 62 27 63 28 64 36 65 29 66 35 67 37 68 34 69
REMARK SMILES IDX 30 70 31 71 32 72 33 73 59 74 60 75 68 76 61 77 67 78 69 79
REMARK SMILES IDX 66 80 62 81 63 82 64 83 65 84 44 85 45 86 53 87 46 88 52 89
REMARK SMILES IDX 54 90 51 91 47 92 48 93 49 94 50 95
REMARK H PARENT 10 5 4 13 89 23 15 29 74 48 42 59
REMARK Flexibility Score: inf
ROOT
ATOM      1  C   UNL A   1      30.925  28.947  23.335  1.00  0.00     0.116 C 
ENDROOT
BRANCH   1   2
ATOM      2  N   UNL A   1      31.310  28.002  22.302  1.00  0.00    -0.356 N 
ATOM      3  C   UNL A   1      31.404  26.644  22.329  1.00  0.00     0.220 C 
ATOM      4  O   UNL A   1      31.828  26.063  21.330  1.00  0.00    -0.275 OA
ATOM      5  H   UNL A   1      31.542  28.412  21.437  1.00  0.00     0.163 HD
BRANCH   3   6
ATOM      6  C   UNL A   1      30.927  25.872  23.542  1.00  0.00     0.102 C 
BRANCH   6   7
ATOM      7  C   UNL A   1      30.427  24.445  23.225  1.00  0.00     0.035 C 
BRANCH   7   8
ATOM      8  C   UNL A   1      31.026  23.280  24.068  1.00  0.00     0.088 C 
BRANCH   8   9
ATOM      9  N   UNL A   1      31.567  23.818  25.314  1.00  0.00    -0.353 N 
ATOM     10  C   UNL A   1      29.931  22.784  26.841  1.00  0.00     0.114 C 
ATOM     11  C   UNL A   1      31.143  23.631  26.593  1.00  0.00     0.217 C 
ATOM     12  O   UNL A   1      31.767  24.157  27.516  1.00  0.00    -0.275 OA
ATOM     13  H   UNL A   1      32.353  24.401  25.212  1.00  0.00     0.163 HD
ENDBRANCH   8   9
BRANCH   8  14
ATOM     14  C   UNL A   1      31.989  22.423  23.213  1.00  0.00     0.085 C 
BRANCH  14  15
ATOM     15  C   UNL A   1      33.240  21.788  23.786  1.00  0.00     0.084 A 
ATOM     16  N   UNL A   1      34.348  22.582  23.744  1.00  0.00    -0.254 NA
ATOM     17  C   UNL A   1      33.274  20.564  24.460  1.00  0.00     0.137 A 
ATOM     18  C   UNL A   1      35.475  22.175  24.385  1.00  0.00     0.038 A 
ATOM     19  C   UNL A   1      34.467  20.113  25.015  1.00  0.00     0.050 A 
ATOM     20  C   UNL A   1      36.626  23.135  24.436  1.00  0.00     0.067 C 
ATOM     21  C   UNL A   1      35.583  20.933  24.991  1.00  0.00     0.027 A 
BRANCH  17  22
ATOM     22  O   UNL A   1      32.153  19.821  24.683  1.00  0.00    -0.506 OA
ATOM     23  H   UNL A   1      31.880  19.185  24.052  1.00  0.00     0.293 HD
ENDBRANCH  17  22
ENDBRANCH  14  15
ENDBRANCH   8  14
ENDBRANCH   7   8
ENDBRANCH   6   7
ENDBRANCH   3   6
ENDBRANCH   1   2
BRANCH   1  24
ATOM     24  C   UNL A   1      32.082  29.317  24.257  1.00  0.00     0.023 C 
BRANCH  24  25
ATOM     25  C   UNL A   1      31.802  29.036  25.740  1.00  0.00     0.023 C 
BRANCH  25  26
ATOM     26  C   UNL A   1      32.711  29.795  26.690  1.00  0.00     0.116 C 
BRANCH  26  27
ATOM     27  N   UNL A   1      32.404  31.209  26.813  1.00  0.00    -0.352 N 
ATOM     28  C   UNL A   1      33.165  32.211  27.385  1.00  0.00     0.251 C 
ATOM     29  H   UNL A   1      31.539  31.493  26.438  1.00  0.00     0.163 HD
ATOM     30  O   UNL A   1      32.736  33.353  27.447  1.00  0.00    -0.269 OA
BRANCH  28  31
ATOM     31  C   UNL A   1      34.486  31.875  27.972  1.00  0.00     0.039 A 
ATOM     32  C   UNL A   1      35.493  32.847  28.002  1.00  0.00     0.014 A 
ATOM     33  C   UNL A   1      34.722  30.615  28.520  1.00  0.00     0.014 A 
ATOM     34  C   UNL A   1      36.707  32.572  28.643  1.00  0.00     0.010 A 
ATOM     35  C   UNL A   1      35.878  30.382  29.247  1.00  0.00     0.010 A 
ATOM     36  C   UNL A   1      36.893  31.349  29.301  1.00  0.00    -0.014 A 
BRANCH  36  37
ATOM     37  C   UNL A   1      38.145  30.987  30.011  1.00  0.00     0.031 A 
ATOM     38  C   UNL A   1      39.077  30.001  29.356  1.00  0.00     0.074 A 
ATOM     39  C   UNL A   1      38.360  31.410  31.270  1.00  0.00     0.049 A 
ATOM     40  N   UNL A   1      40.062  29.314  29.871  1.00  0.00    -0.248 NA
ATOM     41  C   UNL A   1      38.813  29.703  27.939  1.00  0.00     0.031 C 
ATOM     42  C   UNL A   1      37.502  32.335  32.013  1.00  0.00     0.029 A 
ATOM     43  N   UNL A   1      39.349  31.086  32.164  1.00  0.00    -0.354 N 
ATOM     44  C   UNL A   1      40.495  28.461  28.859  1.00  0.00     0.074 A 
ATOM     45  C   UNL A   1      39.627  28.683  27.723  1.00  0.00     0.031 C 
ATOM     46  C   UNL A   1      38.004  32.508  33.246  1.00  0.00     0.029 A 
ATOM     47  C   UNL A   1      39.184  31.664  33.402  1.00  0.00     0.049 A 
ATOM     48  H   UNL A   1      40.105  30.496  31.941  1.00  0.00     0.167 HD
ATOM     49  C   UNL A   1      41.533  27.589  28.875  1.00  0.00     0.034 A 
ATOM     50  C   UNL A   1      39.890  31.504  34.538  1.00  0.00     0.034 A 
ATOM     51  C   UNL A   1      42.406  27.429  30.013  1.00  0.00     0.049 A 
ATOM     52  C   UNL A   1      41.063  30.554  34.527  1.00  0.00     0.074 A 
ATOM     53  C   UNL A   1      43.534  26.638  30.134  1.00  0.00     0.029 A 
ATOM     54  N   UNL A   1      42.248  28.086  31.228  1.00  0.00    -0.354 N 
ATOM     55  N   UNL A   1      41.485  29.776  33.556  1.00  0.00    -0.248 NA
ATOM     56  C   UNL A   1      41.857  30.468  35.758  1.00  0.00     0.031 C 
ATOM     57  C   UNL A   1      44.025  26.775  31.438  1.00  0.00     0.029 A 
ATOM     58  C   UNL A   1      43.246  27.704  32.109  1.00  0.00     0.049 A 
ATOM     59  H   UNL A   1      41.531  28.728  31.433  1.00  0.00     0.167 HD
ATOM     60  C   UNL A   1      42.611  29.127  34.052  1.00  0.00     0.074 A 
ATOM     61  C   UNL A   1      42.809  29.618  35.402  1.00  0.00     0.031 C 
ATOM     62  C   UNL A   1      43.413  28.211  33.452  1.00  0.00     0.034 A 
BRANCH  49  63
ATOM     63  C   UNL A   1      41.751  26.738  27.645  1.00  0.00     0.023 A 
ATOM     64  C   UNL A   1      41.333  25.397  27.587  1.00  0.00     0.031 A 
ATOM     65  C   UNL A   1      42.433  27.257  26.530  1.00  0.00     0.131 A 
ATOM     66  C   UNL A   1      41.685  24.597  26.488  1.00  0.00     0.055 A 
ATOM     67  C   UNL A   1      42.697  26.481  25.398  1.00  0.00     0.041 A 
ATOM     68  F   UNL A   1      42.877  28.525  26.528  1.00  0.00    -0.206 F 
ATOM     69  C   UNL A   1      42.340  25.136  25.381  1.00  0.00     0.022 A 
BRANCH  66  70
ATOM     70  S   UNL A   1      41.417  22.806  26.604  1.00  0.00     0.124 S 
ATOM     71  O   UNL A   1      42.152  22.478  27.823  1.00  0.00    -0.237 OA
ATOM     72  O   UNL A   1      39.965  22.709  26.688  1.00  0.00    -0.237 OA
ATOM     73  O   UNL A   1      42.008  22.291  25.371  1.00  0.00    -0.744 OA
ENDBRANCH  66  70
ENDBRANCH  49  63
BRANCH  50  74
ATOM     74  C   UNL A   1      39.514  32.247  35.774  1.00  0.00     0.023 A 
ATOM     75  C   UNL A   1      38.660  31.671  36.729  1.00  0.00     0.031 A 
ATOM     76  C   UNL A   1      39.986  33.550  36.016  1.00  0.00     0.131 A 
ATOM     77  C   UNL A   1      38.275  32.406  37.861  1.00  0.00     0.055 A 
ATOM     78  C   UNL A   1      39.638  34.260  37.169  1.00  0.00     0.041 A 
ATOM     79  F   UNL A   1      40.811  34.146  35.141  1.00  0.00    -0.206 F 
ATOM     80  C   UNL A   1      38.768  33.691  38.094  1.00  0.00     0.022 A 
BRANCH  77  81
ATOM     81  S   UNL A   1      37.060  31.678  38.995  1.00  0.00     0.124 S 
ATOM     82  O   UNL A   1      37.775  31.722  40.265  1.00  0.00    -0.237 OA
ATOM     83  O   UNL A   1      35.934  32.595  38.861  1.00  0.00    -0.237 OA
ATOM     84  O   UNL A   1      36.842  30.341  38.447  1.00  0.00    -0.744 OA
ENDBRANCH  77  81
ENDBRANCH  50  74
BRANCH  62  85
ATOM     85  C   UNL A   1      44.600  27.725  34.242  1.00  0.00     0.023 A 
ATOM     86  C   UNL A   1      44.529  26.576  35.048  1.00  0.00     0.031 A 
ATOM     87  C   UNL A   1      45.818  28.426  34.188  1.00  0.00     0.131 A 
ATOM     88  C   UNL A   1      45.640  26.191  35.810  1.00  0.00     0.055 A 
ATOM     89  C   UNL A   1      46.938  28.005  34.903  1.00  0.00     0.041 A 
ATOM     90  F   UNL A   1      45.936  29.530  33.433  1.00  0.00    -0.206 F 
ATOM     91  C   UNL A   1      46.850  26.888  35.730  1.00  0.00     0.022 A 
BRANCH  88  92
ATOM     92  S   UNL A   1      45.462  24.812  36.973  1.00  0.00     0.124 S 
ATOM     93  O   UNL A   1      45.856  25.429  38.236  1.00  0.00    -0.237 OA
ATOM     94  O   UNL A   1      44.048  24.474  36.843  1.00  0.00    -0.237 OA
ATOM     95  O   UNL A   1      46.389  23.806  36.458  1.00  0.00    -0.744 OA
ENDBRANCH  88  92
ENDBRANCH  62  85
ENDBRANCH  36  37
ENDBRANCH  28  31
ENDBRANCH  26  27
ENDBRANCH  25  26
ENDBRANCH  24  25
ENDBRANCH   1  24
TORSDOF 20
ENDMDL
MODEL 2
REMARK VINA RESULT:     -11.1      2.472      8.077
REMARK SMILES CC(=O)N[C@@H](CCC(=O)NCCCCNC(=O)c1ccc(-c2c3nc(c(-c4cc(S(=O)(=O)[O-])ccc4F)c4ccc([nH]4)c(-c4cc(S(=O)(=O)[O-])ccc4F)c4nc(c(-c5cc(S(=O)(=O)[O-])ccc5F)c5ccc2[nH]5)C=C4)C=C3)cc1)Cc1nc(C)ccc1O
REMARK SMILES IDX 11 1 10 2 8 3 9 4 7 6 6 7 5 8 4 9 1 10 2 11 3 12 81 14 82 15
REMARK SMILES IDX 83 16 88 17 84 18 87 19 85 20 86 21 89 22 12 24 13 25 14 26
REMARK SMILES IDX 15 27 16 28 17 30 18 31 19 32 80 33 20 34 79 35 21 36 22 37
REMARK SMILES IDX 23 38 73 39 24 40 78 41 72 42 74 43 25 44 77 45 71 46 70 47
REMARK SMILES IDX 26 49 58 50 38 51 57 52 39 53 42 54 56 55 75 56 40 57 41 58
REMARK SMILES IDX 55 60 76 61 43 62 27 63 28 64 36 65 29 66 35 67 37 68 34 69
REMARK SMILES IDX 30 70 31 71 32 72 33 73 59 74 60 75 68 76 61 77 67 78 69 79
REMARK SMILES IDX 66 80 62 81 63 82 64 83 65 84 44 85 45 86 53 87 46 88 52 89
REMARK SMILES IDX 54 90 51 91 47 92 48 93 49 94 50 95
REMARK H PARENT 10 5 4 13 89 23 15 29 74 48 42 59
REMARK Flexibility Score: inf
ROOT
ATOM      1  C   UNL A   1      33.125  28.870  23.399  1.00  0.00     0.116 C 
ENDROOT
BRANCH   1   2
ATOM      2  N   UNL A   1      31.946  29.592  23.842  1.00  0.00    -0.356 N 
ATOM      3  C   UNL A   1      30.632  29.431  23.520  1.00  0.00     0.220 C 
ATOM      4  O   UNL A   1      29.813  30.227  23.980  1.00  0.00    -0.275 OA
ATOM      5  H   UNL A   1      32.125  30.318  24.482  1.00  0.00     0.163 HD
BRANCH   3   6
ATOM      6  C   UNL A   1      30.194  28.255  22.673  1.00  0.00     0.102 C 
BRANCH   6   7
ATOM      7  C   UNL A   1      29.895  26.973  23.481  1.00  0.00     0.035 C 
BRANCH   7   8
ATOM      8  C   UNL A   1      30.984  25.858  23.474  1.00  0.00     0.088 C 
BRANCH   8   9
ATOM      9  N   UNL A   1      31.595  25.794  22.148  1.00  0.00    -0.353 N 
ATOM     10  C   UNL A   1      33.854  25.124  22.874  1.00  0.00     0.114 C 
ATOM     11  C   UNL A   1      32.866  25.460  21.796  1.00  0.00     0.217 C 
ATOM     12  O   UNL A   1      33.174  25.436  20.604  1.00  0.00    -0.275 OA
ATOM     13  H   UNL A   1      30.999  26.025  21.400  1.00  0.00     0.163 HD
ENDBRANCH   8   9
BRANCH   8  14
ATOM     14  C   UNL A   1      30.416  24.533  24.035  1.00  0.00     0.085 C 
BRANCH  14  15
ATOM     15  C   UNL A   1      31.203  23.645  24.978  1.00  0.00     0.084 A 
ATOM     16  N   UNL A   1      31.746  22.539  24.392  1.00  0.00    -0.254 NA
ATOM     17  C   UNL A   1      31.515  23.968  26.301  1.00  0.00     0.137 A 
ATOM     18  C   UNL A   1      32.608  21.771  25.108  1.00  0.00     0.038 A 
ATOM     19  C   UNL A   1      32.311  23.111  27.053  1.00  0.00     0.050 A 
ATOM     20  C   UNL A   1      33.293  20.646  24.390  1.00  0.00     0.067 C 
ATOM     21  C   UNL A   1      32.880  22.002  26.448  1.00  0.00     0.027 A 
BRANCH  17  22
ATOM     22  O   UNL A   1      31.144  25.149  26.872  1.00  0.00    -0.506 OA
ATOM     23  H   UNL A   1      31.794  25.784  27.099  1.00  0.00     0.293 HD
ENDBRANCH  17  22
ENDBRANCH  14  15
ENDBRANCH   8  14
ENDBRANCH   7   8
ENDBRANCH   6   7
ENDBRANCH   3   6
ENDBRANCH   1   2
BRANCH   1  24
ATOM     24  C   UNL A   1      34.027  28.449  24.556  1.00  0.00     0.023 C 
BRANCH  24  25
ATOM     25  C   UNL A   1      33.257  27.966  25.793  1.00  0.00     0.023 C 
BRANCH  25  26
ATOM     26  C   UNL A   1      33.744  28.575  27.095  1.00  0.00     0.116 C 
BRANCH  26  27
ATOM     27  N   UNL A   1      33.662  30.024  27.148  1.00  0.00    -0.352 N 
ATOM     28  C   UNL A   1      34.571  30.921  27.677  1.00  0.00     0.251 C 
ATOM     29  H   UNL A   1      32.851  30.421  26.755  1.00  0.00     0.163 HD
ATOM     30  O   UNL A   1      34.325  32.118  27.681  1.00  0.00    -0.269 OA
BRANCH  28  31
ATOM     31  C   UNL A   1      35.824  30.412  28.287  1.00  0.00     0.039 A 
ATOM     32  C   UNL A   1      35.774  29.781  29.535  1.00  0.00     0.014 A 
ATOM     33  C   UNL A   1      37.041  30.529  27.617  1.00  0.00     0.014 A 
ATOM     34  C   UNL A   1      36.934  29.210  30.073  1.00  0.00     0.010 A 
ATOM     35  C   UNL A   1      38.161  29.870  28.097  1.00  0.00     0.010 A 
ATOM     36  C   UNL A   1      38.127  29.219  29.339  1.00  0.00    -0.014 A 
BRANCH  36  37
ATOM     37  C   UNL A   1      39.395  28.627  29.835  1.00  0.00     0.031 A 
ATOM     38  C   UNL A   1      40.140  29.347  30.928  1.00  0.00     0.074 A 
ATOM     39  C   UNL A   1      39.936  27.563  29.215  1.00  0.00     0.049 A 
ATOM     40  N   UNL A   1      41.376  29.207  31.328  1.00  0.00    -0.248 NA
ATOM     41  C   UNL A   1      39.404  30.420  31.616  1.00  0.00     0.031 C 
ATOM     42  C   UNL A   1      39.317  26.812  28.120  1.00  0.00     0.029 A 
ATOM     43  N   UNL A   1      41.150  26.948  29.392  1.00  0.00    -0.354 N 
ATOM     44  C   UNL A   1      41.582  30.211  32.271  1.00  0.00     0.074 A 
ATOM     45  C   UNL A   1      40.360  30.983  32.336  1.00  0.00     0.031 C 
ATOM     46  C   UNL A   1      40.152  25.836  27.727  1.00  0.00     0.029 A 
ATOM     47  C   UNL A   1      41.386  25.927  28.500  1.00  0.00     0.049 A 
ATOM     48  H   UNL A   1      41.791  27.212  30.090  1.00  0.00     0.167 HD
ATOM     49  C   UNL A   1      42.685  30.452  33.021  1.00  0.00     0.034 A 
ATOM     50  C   UNL A   1      42.486  25.173  28.311  1.00  0.00     0.034 A 
ATOM     51  C   UNL A   1      43.870  29.631  32.961  1.00  0.00     0.049 A 
ATOM     52  C   UNL A   1      43.692  25.433  29.180  1.00  0.00     0.074 A 
ATOM     53  C   UNL A   1      45.025  29.720  33.718  1.00  0.00     0.029 A 
ATOM     54  N   UNL A   1      44.046  28.560  32.092  1.00  0.00    -0.354 N 
ATOM     55  N   UNL A   1      43.867  26.363  30.092  1.00  0.00    -0.248 NA
ATOM     56  C   UNL A   1      44.842  24.539  29.002  1.00  0.00     0.031 C 
ATOM     57  C   UNL A   1      45.917  28.739  33.270  1.00  0.00     0.029 A 
ATOM     58  C   UNL A   1      45.295  27.992  32.281  1.00  0.00     0.049 A 
ATOM     59  H   UNL A   1      43.379  28.250  31.437  1.00  0.00     0.167 HD
ATOM     60  C   UNL A   1      45.138  26.149  30.614  1.00  0.00     0.074 A 
ATOM     61  C   UNL A   1      45.677  24.992  29.926  1.00  0.00     0.031 C 
ATOM     62  C   UNL A   1      45.804  26.839  31.575  1.00  0.00     0.034 A 
BRANCH  49  63
ATOM     63  C   UNL A   1      42.658  31.653  33.938  1.00  0.00     0.023 A 
ATOM     64  C   UNL A   1      42.275  31.548  35.287  1.00  0.00     0.031 A 
ATOM     65  C   UNL A   1      42.971  32.934  33.447  1.00  0.00     0.131 A 
ATOM     66  C   UNL A   1      42.118  32.705  36.067  1.00  0.00     0.055 A 
ATOM     67  C   UNL A   1      42.905  34.072  34.256  1.00  0.00     0.041 A 
ATOM     68  F   UNL A   1      43.326  33.106  32.164  1.00  0.00    -0.206 F 
ATOM     69  C   UNL A   1      42.457  33.964  35.569  1.00  0.00     0.022 A 
BRANCH  66  70
ATOM     70  S   UNL A   1      41.309  32.554  37.683  1.00  0.00     0.124 S 
ATOM     71  O   UNL A   1      42.160  31.568  38.345  1.00  0.00    -0.237 OA
ATOM     72  O   UNL A   1      41.384  33.913  38.203  1.00  0.00    -0.237 OA
ATOM     73  O   UNL A   1      39.966  32.083  37.352  1.00  0.00    -0.744 OA
ENDBRANCH  66  70
ENDBRANCH  49  63
BRANCH  50  74
ATOM     74  C   UNL A   1      42.507  24.111  27.265  1.00  0.00     0.023 A 
ATOM     75  C   UNL A   1      41.895  22.867  27.490  1.00  0.00     0.031 A 
ATOM     76  C   UNL A   1      43.149  24.314  26.030  1.00  0.00     0.131 A 
ATOM     77  C   UNL A   1      41.969  21.861  26.513  1.00  0.00     0.055 A 
ATOM     78  C   UNL A   1      43.178  23.326  25.042  1.00  0.00     0.041 A 
ATOM     79  F   UNL A   1      43.743  25.487  25.759  1.00  0.00    -0.206 F 
ATOM     80  C   UNL A   1      42.595  22.087  25.286  1.00  0.00     0.022 A 
BRANCH  77  81
ATOM     81  S   UNL A   1      41.289  20.225  26.901  1.00  0.00     0.124 S 
ATOM     82  O   UNL A   1      42.447  19.364  26.691  1.00  0.00    -0.237 OA
ATOM     83  O   UNL A   1      40.861  20.397  28.286  1.00  0.00    -0.237 OA
ATOM     84  O   UNL A   1      40.208  20.067  25.932  1.00  0.00    -0.744 OA
ENDBRANCH  77  81
ENDBRANCH  50  74
BRANCH  62  85
ATOM     85  C   UNL A   1      47.164  26.323  31.964  1.00  0.00     0.023 A 
ATOM     86  C   UNL A   1      47.337  25.443  33.045  1.00  0.00     0.031 A 
ATOM     87  C   UNL A   1      48.303  26.721  31.240  1.00  0.00     0.131 A 
ATOM     88  C   UNL A   1      48.627  25.031  33.407  1.00  0.00     0.055 A 
ATOM     89  C   UNL A   1      49.577  26.262  31.569  1.00  0.00     0.041 A 
ATOM     90  F   UNL A   1      48.190  27.561  30.198  1.00  0.00    -0.206 F 
ATOM     91  C   UNL A   1      49.747  25.421  32.666  1.00  0.00     0.022 A 
BRANCH  88  92
ATOM     92  S   UNL A   1      48.834  24.041  34.912  1.00  0.00     0.124 S 
ATOM     93  O   UNL A   1      48.645  22.684  34.409  1.00  0.00    -0.237 OA
ATOM     94  O   UNL A   1      50.191  24.383  35.328  1.00  0.00    -0.237 OA
ATOM     95  O   UNL A   1      47.775  24.530  35.792  1.00  0.00    -0.744 OA
ENDBRANCH  88  92
ENDBRANCH  62  85
ENDBRANCH  36  37
ENDBRANCH  28  31
ENDBRANCH  26  27
ENDBRANCH  25  26
ENDBRANCH  24  25
ENDBRANCH   1  24
TORSDOF 20
ENDMDL
MODEL 3
REMARK VINA RESULT:     -11.1      2.619      8.137
REMARK SMILES CC(=O)N[C@@H](CCC(=O)NCCCCNC(=O)c1ccc(-c2c3nc(c(-c4cc(S(=O)(=O)[O-])ccc4F)c4ccc([nH]4)c(-c4cc(S(=O)(=O)[O-])ccc4F)c4nc(c(-c5cc(S(=O)(=O)[O-])ccc5F)c5ccc2[nH]5)C=C4)C=C3)cc1)Cc1nc(C)ccc1O
REMARK SMILES IDX 11 1 10 2 8 3 9 4 7 6 6 7 5 8 4 9 1 10 2 11 3 12 81 14 82 15
REMARK SMILES IDX 83 16 88 17 84 18 87 19 85 20 86 21 89 22 12 24 13 25 14 26
REMARK SMILES IDX 15 27 16 28 17 30 18 31 19 32 80 33 20 34 79 35 21 36 22 37
REMARK SMILES IDX 23 38 73 39 24 40 78 41 72 42 74 43 25 44 77 45 71 46 70 47
REMARK SMILES IDX 26 49 58 50 38 51 57 52 39 53 42 54 56 55 75 56 40 57 41 58
REMARK SMILES IDX 55 60 76 61 43 62 27 63 28 64 36 65 29 66 35 67 37 68 34 69
REMARK SMILES IDX 30 70 31 71 32 72 33 73 59 74 60 75 68 76 61 77 67 78 69 79
REMARK SMILES IDX 66 80 62 81 63 82 64 83 65 84 44 85 45 86 53 87 46 88 52 89
REMARK SMILES IDX 54 90 51 91 47 92 48 93 49 94 50 95
REMARK H PARENT 10 5 4 13 89 23 15 29 74 48 42 59
REMARK Flexibility Score: inf
ROOT
ATOM      1  C   UNL A   1      32.773  28.111  22.926  1.00  0.00     0.116 C 
ENDROOT
BRANCH   1   2
ATOM      2  N   UNL A   1      33.036  27.257  21.782  1.00  0.00    -0.356 N 
ATOM      3  C   UNL A   1      32.750  25.943  21.567  1.00  0.00     0.220 C 
ATOM      4  O   UNL A   1      33.144  25.417  20.527  1.00  0.00    -0.275 OA
ATOM      5  H   UNL A   1      33.498  27.703  21.035  1.00  0.00     0.163 HD
BRANCH   3   6
ATOM      6  C   UNL A   1      31.903  25.177  22.563  1.00  0.00     0.102 C 
BRANCH   6   7
ATOM      7  C   UNL A   1      32.262  23.679  22.673  1.00  0.00     0.035 C 
BRANCH   7   8
ATOM      8  C   UNL A   1      33.133  23.245  23.890  1.00  0.00     0.088 C 
BRANCH   8   9
ATOM      9  N   UNL A   1      34.422  22.756  23.408  1.00  0.00    -0.353 N 
ATOM     10  C   UNL A   1      35.835  23.895  25.076  1.00  0.00     0.114 C 
ATOM     11  C   UNL A   1      35.672  22.989  23.892  1.00  0.00     0.217 C 
ATOM     12  O   UNL A   1      36.637  22.448  23.351  1.00  0.00    -0.275 OA
ATOM     13  H   UNL A   1      34.379  22.172  22.617  1.00  0.00     0.163 HD
ENDBRANCH   8   9
BRANCH   8  14
ATOM     14  C   UNL A   1      32.340  22.294  24.820  1.00  0.00     0.085 C 
BRANCH  14  15
ATOM     15  C   UNL A   1      32.444  20.786  24.720  1.00  0.00     0.084 A 
ATOM     16  N   UNL A   1      32.199  20.283  23.476  1.00  0.00    -0.254 NA
ATOM     17  C   UNL A   1      32.908  19.951  25.740  1.00  0.00     0.137 A 
ATOM     18  C   UNL A   1      32.432  18.965  23.240  1.00  0.00     0.038 A 
ATOM     19  C   UNL A   1      33.036  18.584  25.511  1.00  0.00     0.050 A 
ATOM     20  C   UNL A   1      32.287  18.478  21.829  1.00  0.00     0.067 C 
ATOM     21  C   UNL A   1      32.809  18.082  24.240  1.00  0.00     0.027 A 
BRANCH  17  22
ATOM     22  O   UNL A   1      33.336  20.432  26.942  1.00  0.00    -0.506 OA
ATOM     23  H   UNL A   1      34.203  20.241  27.241  1.00  0.00     0.293 HD
ENDBRANCH  17  22
ENDBRANCH  14  15
ENDBRANCH   8  14
ENDBRANCH   7   8
ENDBRANCH   6   7
ENDBRANCH   3   6
ENDBRANCH   1   2
BRANCH   1  24
ATOM     24  C   UNL A   1      33.894  28.073  23.960  1.00  0.00     0.023 C 
BRANCH  24  25
ATOM     25  C   UNL A   1      33.394  27.969  25.408  1.00  0.00     0.023 C 
BRANCH  25  26
ATOM     26  C   UNL A   1      34.354  28.546  26.431  1.00  0.00     0.116 C 
BRANCH  26  27
ATOM     27  N   UNL A   1      34.089  29.928  26.790  1.00  0.00    -0.352 N 
ATOM     28  C   UNL A   1      34.842  30.774  27.581  1.00  0.00     0.251 C 
ATOM     29  H   UNL A   1      33.261  30.314  26.421  1.00  0.00     0.163 HD
ATOM     30  O   UNL A   1      34.449  31.906  27.824  1.00  0.00    -0.269 OA
BRANCH  28  31
ATOM     31  C   UNL A   1      36.107  30.277  28.178  1.00  0.00     0.039 A 
ATOM     32  C   UNL A   1      36.071  29.604  29.405  1.00  0.00     0.014 A 
ATOM     33  C   UNL A   1      37.322  30.448  27.516  1.00  0.00     0.014 A 
ATOM     34  C   UNL A   1      37.243  29.045  29.927  1.00  0.00     0.010 A 
ATOM     35  C   UNL A   1      38.457  29.801  27.977  1.00  0.00     0.010 A 
ATOM     36  C   UNL A   1      38.437  29.109  29.197  1.00  0.00    -0.014 A 
BRANCH  36  37
ATOM     37  C   UNL A   1      39.719  28.533  29.676  1.00  0.00     0.031 A 
ATOM     38  C   UNL A   1      40.446  29.238  30.791  1.00  0.00     0.074 A 
ATOM     39  C   UNL A   1      40.286  27.501  29.025  1.00  0.00     0.049 A 
ATOM     40  N   UNL A   1      41.685  29.116  31.189  1.00  0.00    -0.248 NA
ATOM     41  C   UNL A   1      39.683  30.272  31.510  1.00  0.00     0.031 C 
ATOM     42  C   UNL A   1      39.686  26.769  27.908  1.00  0.00     0.029 A 
ATOM     43  N   UNL A   1      41.514  26.911  29.185  1.00  0.00    -0.354 N 
ATOM     44  C   UNL A   1      41.866  30.096  32.162  1.00  0.00     0.074 A 
ATOM     45  C   UNL A   1      40.625  30.835  32.249  1.00  0.00     0.031 C 
ATOM     46  C   UNL A   1      40.545  25.827  27.487  1.00  0.00     0.029 A 
ATOM     47  C   UNL A   1      41.776  25.923  28.264  1.00  0.00     0.049 A 
ATOM     48  H   UNL A   1      42.148  27.170  29.893  1.00  0.00     0.167 HD
ATOM     49  C   UNL A   1      42.962  30.341  32.921  1.00  0.00     0.034 A 
ATOM     50  C   UNL A   1      42.895  25.202  28.054  1.00  0.00     0.034 A 
ATOM     51  C   UNL A   1      44.166  29.551  32.838  1.00  0.00     0.049 A 
ATOM     52  C   UNL A   1      44.093  25.466  28.932  1.00  0.00     0.074 A 
ATOM     53  C   UNL A   1      45.318  29.645  33.598  1.00  0.00     0.029 A 
ATOM     54  N   UNL A   1      44.369  28.511  31.937  1.00  0.00    -0.354 N 
ATOM     55  N   UNL A   1      44.244  26.372  29.871  1.00  0.00    -0.248 NA
ATOM     56  C   UNL A   1      45.264  24.606  28.729  1.00  0.00     0.031 C 
ATOM     57  C   UNL A   1      46.234  28.700  33.123  1.00  0.00     0.029 A 
ATOM     58  C   UNL A   1      45.631  27.969  32.111  1.00  0.00     0.049 A 
ATOM     59  H   UNL A   1      43.710  28.205  31.272  1.00  0.00     0.167 HD
ATOM     60  C   UNL A   1      45.520  26.173  30.389  1.00  0.00     0.074 A 
ATOM     61  C   UNL A   1      46.088  25.051  29.667  1.00  0.00     0.031 C 
ATOM     62  C   UNL A   1      46.168  26.850  31.371  1.00  0.00     0.034 A 
BRANCH  49  63
ATOM     63  C   UNL A   1      42.905  31.513  33.873  1.00  0.00     0.023 A 
ATOM     64  C   UNL A   1      42.373  31.391  35.170  1.00  0.00     0.031 A 
ATOM     65  C   UNL A   1      43.342  32.787  33.466  1.00  0.00     0.131 A 
ATOM     66  C   UNL A   1      42.199  32.531  35.970  1.00  0.00     0.055 A 
ATOM     67  C   UNL A   1      43.254  33.901  34.304  1.00  0.00     0.041 A 
ATOM     68  F   UNL A   1      43.842  32.976  32.234  1.00  0.00    -0.206 F 
ATOM     69  C   UNL A   1      42.662  33.781  35.558  1.00  0.00     0.022 A 
BRANCH  66  70
ATOM     70  S   UNL A   1      41.214  32.379  37.485  1.00  0.00     0.124 S 
ATOM     71  O   UNL A   1      40.050  31.638  37.005  1.00  0.00    -0.237 OA
ATOM     72  O   UNL A   1      42.111  31.653  38.375  1.00  0.00    -0.237 OA
ATOM     73  O   UNL A   1      40.948  33.766  37.861  1.00  0.00    -0.744 OA
ENDBRANCH  66  70
ENDBRANCH  49  63
BRANCH  50  74
ATOM     74  C   UNL A   1      42.941  24.174  26.976  1.00  0.00     0.023 A 
ATOM     75  C   UNL A   1      42.277  22.946  27.124  1.00  0.00     0.031 A 
ATOM     76  C   UNL A   1      43.662  24.392  25.788  1.00  0.00     0.131 A 
ATOM     77  C   UNL A   1      42.375  21.968  26.121  1.00  0.00     0.055 A 
ATOM     78  C   UNL A   1      43.717  23.435  24.771  1.00  0.00     0.041 A 
ATOM     79  F   UNL A   1      44.309  25.551  25.590  1.00  0.00    -0.206 F 
ATOM     80  C   UNL A   1      43.079  22.210  24.940  1.00  0.00     0.022 A 
BRANCH  77  81
ATOM     81  S   UNL A   1      41.620  20.346  26.415  1.00  0.00     0.124 S 
ATOM     82  O   UNL A   1      42.130  20.016  27.741  1.00  0.00    -0.237 OA
ATOM     83  O   UNL A   1      40.196  20.656  26.335  1.00  0.00    -0.237 OA
ATOM     84  O   UNL A   1      42.139  19.526  25.324  1.00  0.00    -0.744 OA
ENDBRANCH  77  81
ENDBRANCH  50  74
BRANCH  62  85
ATOM     85  C   UNL A   1      47.541  26.356  31.746  1.00  0.00     0.023 A 
ATOM     86  C   UNL A   1      47.735  25.455  32.806  1.00  0.00     0.031 A 
ATOM     87  C   UNL A   1      48.669  26.796  31.031  1.00  0.00     0.131 A 
ATOM     88  C   UNL A   1      49.035  25.063  33.156  1.00  0.00     0.055 A 
ATOM     89  C   UNL A   1      49.954  26.358  31.347  1.00  0.00     0.041 A 
ATOM     90  F   UNL A   1      48.535  27.657  30.009  1.00  0.00    -0.206 F 
ATOM     91  C   UNL A   1      50.144  25.496  32.423  1.00  0.00     0.022 A 
BRANCH  88  92
ATOM     92  S   UNL A   1      49.267  24.044  34.637  1.00  0.00     0.124 S 
ATOM     93  O   UNL A   1      50.669  23.656  34.522  1.00  0.00    -0.237 OA
ATOM     94  O   UNL A   1      48.950  24.978  35.713  1.00  0.00    -0.237 OA
ATOM     95  O   UNL A   1      48.306  22.957  34.460  1.00  0.00    -0.744 OA
ENDBRANCH  88  92
ENDBRANCH  62  85
ENDBRANCH  36  37
ENDBRANCH  28  31
ENDBRANCH  26  27
ENDBRANCH  25  26
ENDBRANCH  24  25
ENDBRANCH   1  24
TORSDOF 20
ENDMDL
