MODEL 1
REMARK VINA RESULT:     -11.6      0.000      0.000
REMARK SMILES O=C(NCCCCNC(=O)c1cccnc1SCC(=O)c1ccccc1Cl)c1ccc(-c2c3nc(c(-c4cc(S(=O)(=O)[O-])ccc4F)c4ccc([nH]4)c(-c4cc(S(=O)(=O)[O-])ccc4F)c4nc(c(-c5cc(S(=O)(=O)[O-])ccc5F)c5ccc2[nH]5)C=C4)C=C3)cc1
REMARK SMILES IDX 6 1 5 2 4 3 3 4 1 5 2 6 28 8 29 9 90 10 30 11 89 12 31 13
REMARK SMILES IDX 32 14 33 15 83 16 34 17 88 18 82 19 84 20 35 21 87 22 81 23
REMARK SMILES IDX 80 24 36 26 68 27 48 28 67 29 49 30 52 31 66 32 85 33 50 34
REMARK SMILES IDX 51 35 65 37 86 38 53 39 37 40 38 41 46 42 39 43 45 44 47 45
REMARK SMILES IDX 44 46 40 47 41 48 42 49 43 50 69 51 70 52 78 53 71 54 77 55
REMARK SMILES IDX 79 56 76 57 72 58 73 59 74 60 75 61 54 62 55 63 63 64 56 65
REMARK SMILES IDX 62 66 64 67 61 68 57 69 58 70 59 71 60 72 7 73 8 74 9 75
REMARK SMILES IDX 10 77 11 78 12 79 16 80 13 81 15 82 14 83 17 84 18 85 19 86
REMARK SMILES IDX 20 87 21 88 22 89 26 90 23 91 25 92 27 93 24 94
REMARK H PARENT 3 7 84 25 52 36 8 76
REMARK Flexibility Score: inf
ROOT
ATOM      1  C   UNL A   1      31.814  27.924  27.188  1.00  0.00     0.023 C 
ENDROOT
BRANCH   1   2
ATOM      2  C   UNL A   1      31.465  29.110  26.290  1.00  0.00     0.023 C 
BRANCH   2   3
ATOM      3  C   UNL A   1      32.597  30.084  25.981  1.00  0.00     0.116 C 
BRANCH   3   4
ATOM      4  N   UNL A   1      32.308  31.452  26.378  1.00  0.00    -0.352 N 
ATOM      5  O   UNL A   1      32.527  33.392  27.493  1.00  0.00    -0.269 OA
ATOM      6  C   UNL A   1      32.993  32.285  27.228  1.00  0.00     0.251 C 
ATOM      7  H   UNL A   1      31.498  31.841  25.976  1.00  0.00     0.163 HD
BRANCH   6   8
ATOM      8  C   UNL A   1      34.263  31.851  27.855  1.00  0.00     0.039 A 
ATOM      9  C   UNL A   1      34.444  30.544  28.318  1.00  0.00     0.014 A 
ATOM     10  C   UNL A   1      35.304  32.779  27.958  1.00  0.00     0.014 A 
ATOM     11  C   UNL A   1      35.615  30.203  28.995  1.00  0.00     0.010 A 
ATOM     12  C   UNL A   1      36.501  32.416  28.581  1.00  0.00     0.010 A 
ATOM     13  C   UNL A   1      36.653  31.136  29.134  1.00  0.00    -0.014 A 
BRANCH  13  14
ATOM     14  C   UNL A   1      37.909  30.762  29.836  1.00  0.00     0.031 A 
ATOM     15  C   UNL A   1      38.900  29.834  29.191  1.00  0.00     0.074 A 
ATOM     16  C   UNL A   1      38.138  31.241  31.074  1.00  0.00     0.049 A 
ATOM     17  N   UNL A   1      40.014  29.346  29.674  1.00  0.00    -0.248 NA
ATOM     18  C   UNL A   1      38.588  29.386  27.826  1.00  0.00     0.031 C 
ATOM     19  C   UNL A   1      37.240  32.134  31.809  1.00  0.00     0.029 A 
ATOM     20  N   UNL A   1      39.183  31.033  31.935  1.00  0.00    -0.354 N 
ATOM     21  C   UNL A   1      40.530  28.518  28.683  1.00  0.00     0.074 A 
ATOM     22  C   UNL A   1      39.584  28.547  27.585  1.00  0.00     0.031 C 
ATOM     23  C   UNL A   1      37.771  32.394  33.013  1.00  0.00     0.029 A 
ATOM     24  C   UNL A   1      39.020  31.650  33.152  1.00  0.00     0.049 A 
ATOM     25  H   UNL A   1      39.974  30.494  31.705  1.00  0.00     0.167 HD
ATOM     26  C   UNL A   1      41.687  27.808  28.687  1.00  0.00     0.034 A 
ATOM     27  C   UNL A   1      39.768  31.599  34.270  1.00  0.00     0.034 A 
ATOM     28  C   UNL A   1      42.618  27.795  29.790  1.00  0.00     0.049 A 
ATOM     29  C   UNL A   1      41.029  30.781  34.269  1.00  0.00     0.074 A 
ATOM     30  C   UNL A   1      43.849  27.167  29.875  1.00  0.00     0.029 A 
ATOM     31  N   UNL A   1      42.414  28.426  31.011  1.00  0.00    -0.354 N 
ATOM     32  N   UNL A   1      41.525  30.034  33.310  1.00  0.00    -0.248 NA
ATOM     33  C   UNL A   1      41.833  30.802  35.497  1.00  0.00     0.031 C 
ATOM     34  C   UNL A   1      44.359  27.366  31.165  1.00  0.00     0.029 A 
ATOM     35  C   UNL A   1      43.476  28.172  31.866  1.00  0.00     0.049 A 
ATOM     36  H   UNL A   1      41.628  28.974  31.237  1.00  0.00     0.167 HD
ATOM     37  C   UNL A   1      42.707  29.505  33.816  1.00  0.00     0.074 A 
ATOM     38  C   UNL A   1      42.853  30.025  35.161  1.00  0.00     0.031 C 
ATOM     39  C   UNL A   1      43.595  28.674  33.215  1.00  0.00     0.034 A 
BRANCH  26  40
ATOM     40  C   UNL A   1      41.978  26.954  27.476  1.00  0.00     0.023 A 
ATOM     41  C   UNL A   1      41.626  25.593  27.427  1.00  0.00     0.031 A 
ATOM     42  C   UNL A   1      42.655  27.498  26.371  1.00  0.00     0.131 A 
ATOM     43  C   UNL A   1      42.024  24.805  26.335  1.00  0.00     0.055 A 
ATOM     44  C   UNL A   1      42.982  26.726  25.254  1.00  0.00     0.041 A 
ATOM     45  F   UNL A   1      43.032  28.786  26.367  1.00  0.00    -0.206 F 
ATOM     46  C   UNL A   1      42.682  25.367  25.239  1.00  0.00     0.022 A 
BRANCH  43  47
ATOM     47  S   UNL A   1      41.811  23.006  26.442  1.00  0.00     0.124 S 
ATOM     48  O   UNL A   1      40.356  22.880  26.498  1.00  0.00    -0.237 OA
ATOM     49  O   UNL A   1      42.447  22.542  25.215  1.00  0.00    -0.237 OA
ATOM     50  O   UNL A   1      42.506  22.652  27.678  1.00  0.00    -0.744 OA
ENDBRANCH  43  47
ENDBRANCH  26  40
BRANCH  27  51
ATOM     51  C   UNL A   1      39.303  32.305  35.492  1.00  0.00     0.023 A 
ATOM     52  C   UNL A   1      38.539  31.651  36.469  1.00  0.00     0.031 A 
ATOM     53  C   UNL A   1      39.653  33.650  35.709  1.00  0.00     0.131 A 
ATOM     54  C   UNL A   1      38.136  32.351  37.617  1.00  0.00     0.055 A 
ATOM     55  C   UNL A   1      39.280  34.330  36.867  1.00  0.00     0.041 A 
ATOM     56  F   UNL A   1      40.395  34.312  34.805  1.00  0.00    -0.206 F 
ATOM     57  C   UNL A   1      38.512  33.680  37.828  1.00  0.00     0.022 A 
BRANCH  54  58
ATOM     58  S   UNL A   1      37.093  31.501  38.833  1.00  0.00     0.124 S 
ATOM     59  O   UNL A   1      37.005  30.161  38.265  1.00  0.00    -0.237 OA
ATOM     60  O   UNL A   1      37.882  31.629  40.054  1.00  0.00    -0.237 OA
ATOM     61  O   UNL A   1      35.852  32.271  38.815  1.00  0.00    -0.744 OA
ENDBRANCH  54  58
ENDBRANCH  27  51
BRANCH  39  62
ATOM     62  C   UNL A   1      44.820  28.302  34.008  1.00  0.00     0.023 A 
ATOM     63  C   UNL A   1      44.848  27.162  34.829  1.00  0.00     0.031 A 
ATOM     64  C   UNL A   1      45.973  29.104  33.940  1.00  0.00     0.131 A 
ATOM     65  C   UNL A   1      45.997  26.874  35.582  1.00  0.00     0.055 A 
ATOM     66  C   UNL A   1      47.127  28.789  34.657  1.00  0.00     0.041 A 
ATOM     67  F   UNL A   1      45.995  30.204  33.171  1.00  0.00    -0.206 F 
ATOM     68  C   UNL A   1      47.140  27.673  35.489  1.00  0.00     0.022 A 
BRANCH  65  69
ATOM     69  S   UNL A   1      45.966  25.465  36.723  1.00  0.00     0.124 S 
ATOM     70  O   UNL A   1      46.293  26.101  37.996  1.00  0.00    -0.237 OA
ATOM     71  O   UNL A   1      44.598  24.978  36.586  1.00  0.00    -0.237 OA
ATOM     72  O   UNL A   1      46.996  24.573  36.194  1.00  0.00    -0.744 OA
ENDBRANCH  65  69
ENDBRANCH  39  62
ENDBRANCH  13  14
ENDBRANCH   6   8
ENDBRANCH   3   4
ENDBRANCH   2   3
ENDBRANCH   1   2
BRANCH   1  73
ATOM     73  C   UNL A   1      32.321  26.670  26.486  1.00  0.00     0.116 C 
BRANCH  73  74
ATOM     74  N   UNL A   1      31.634  25.444  26.852  1.00  0.00    -0.352 N 
ATOM     75  C   UNL A   1      32.094  24.173  26.660  1.00  0.00     0.254 C 
ATOM     76  H   UNL A   1      30.751  25.539  27.279  1.00  0.00     0.163 HD
ATOM     77  O   UNL A   1      31.770  23.229  27.388  1.00  0.00    -0.269 OA
BRANCH  75  78
ATOM     78  C   UNL A   1      33.054  23.906  25.602  1.00  0.00     0.072 A 
ATOM     79  C   UNL A   1      34.405  24.064  25.938  1.00  0.00     0.018 A 
ATOM     80  C   UNL A   1      32.686  23.548  24.304  1.00  0.00     0.109 A 
ATOM     81  C   UNL A   1      35.372  23.888  24.964  1.00  0.00     0.021 A 
ATOM     82  N   UNL A   1      33.645  23.334  23.359  1.00  0.00    -0.249 NA
ATOM     83  C   UNL A   1      34.947  23.508  23.704  1.00  0.00     0.112 A 
BRANCH  80  84
ATOM     84  S   UNL A   1      31.047  23.777  23.623  1.00  0.00    -0.097 SA
BRANCH  84  85
ATOM     85  C   UNL A   1      30.810  25.515  23.143  1.00  0.00     0.157 C 
BRANCH  85  86
ATOM     86  C   UNL A   1      29.771  26.329  23.862  1.00  0.00     0.174 C 
ATOM     87  O   UNL A   1      29.436  26.009  25.006  1.00  0.00    -0.293 OA
BRANCH  86  88
ATOM     88  C   UNL A   1      29.294  27.649  23.320  1.00  0.00     0.037 A 
ATOM     89  C   UNL A   1      27.896  27.850  23.352  1.00  0.00     0.013 A 
ATOM     90  C   UNL A   1      30.090  28.692  22.824  1.00  0.00     0.051 A 
ATOM     91  C   UNL A   1      27.314  29.052  22.935  1.00  0.00     0.001 A 
ATOM     92  C   UNL A   1      29.499  29.901  22.414  1.00  0.00     0.021 A 
ATOM     93  Cl  UNL A   1      31.801  28.619  22.611  1.00  0.00    -0.084 Cl
ATOM     94  C   UNL A   1      28.119  30.082  22.471  1.00  0.00     0.002 A 
ENDBRANCH  86  88
ENDBRANCH  85  86
ENDBRANCH  84  85
ENDBRANCH  80  84
ENDBRANCH  75  78
ENDBRANCH  73  74
ENDBRANCH   1  73
TORSDOF 18
ENDMDL
MODEL 2
REMARK VINA RESULT:     -11.4      4.918      7.338
REMARK SMILES O=C(NCCCCNC(=O)c1cccnc1SCC(=O)c1ccccc1Cl)c1ccc(-c2c3nc(c(-c4cc(S(=O)(=O)[O-])ccc4F)c4ccc([nH]4)c(-c4cc(S(=O)(=O)[O-])ccc4F)c4nc(c(-c5cc(S(=O)(=O)[O-])ccc5F)c5ccc2[nH]5)C=C4)C=C3)cc1
REMARK SMILES IDX 6 1 5 2 4 3 3 4 1 5 2 6 28 8 29 9 90 10 30 11 89 12 31 13
REMARK SMILES IDX 32 14 33 15 83 16 34 17 88 18 82 19 84 20 35 21 87 22 81 23
REMARK SMILES IDX 80 24 36 26 68 27 48 28 67 29 49 30 52 31 66 32 85 33 50 34
REMARK SMILES IDX 51 35 65 37 86 38 53 39 37 40 38 41 46 42 39 43 45 44 47 45
REMARK SMILES IDX 44 46 40 47 41 48 42 49 43 50 69 51 70 52 78 53 71 54 77 55
REMARK SMILES IDX 79 56 76 57 72 58 73 59 74 60 75 61 54 62 55 63 63 64 56 65
REMARK SMILES IDX 62 66 64 67 61 68 57 69 58 70 59 71 60 72 7 73 8 74 9 75
REMARK SMILES IDX 10 77 11 78 12 79 16 80 13 81 15 82 14 83 17 84 18 85 19 86
REMARK SMILES IDX 20 87 21 88 22 89 26 90 23 91 25 92 27 93 24 94
REMARK H PARENT 3 7 84 25 52 36 8 76
REMARK Flexibility Score: inf
ROOT
ATOM      1  C   UNL A   1      35.418  21.977  26.627  1.00  0.00     0.023 C 
ENDROOT
BRANCH   1   2
ATOM      2  C   UNL A   1      35.783  21.504  25.220  1.00  0.00     0.023 C 
BRANCH   2   3
ATOM      3  C   UNL A   1      37.236  21.689  24.798  1.00  0.00     0.116 C 
BRANCH   3   4
ATOM      4  N   UNL A   1      38.134  20.696  25.363  1.00  0.00    -0.352 N 
ATOM      5  O   UNL A   1      39.954  19.876  26.396  1.00  0.00    -0.269 OA
ATOM      6  C   UNL A   1      39.296  20.864  26.075  1.00  0.00     0.251 C 
ATOM      7  H   UNL A   1      37.869  19.760  25.212  1.00  0.00     0.163 HD
BRANCH   6   8
ATOM      8  C   UNL A   1      39.779  22.218  26.428  1.00  0.00     0.039 A 
ATOM      9  C   UNL A   1      39.126  23.371  25.982  1.00  0.00     0.014 A 
ATOM     10  C   UNL A   1      40.906  22.329  27.248  1.00  0.00     0.014 A 
ATOM     11  C   UNL A   1      39.670  24.627  26.248  1.00  0.00     0.010 A 
ATOM     12  C   UNL A   1      41.415  23.590  27.567  1.00  0.00     0.010 A 
ATOM     13  C   UNL A   1      40.820  24.748  27.042  1.00  0.00    -0.014 A 
BRANCH  13  14
ATOM     14  C   UNL A   1      41.386  26.089  27.343  1.00  0.00     0.031 A 
ATOM     15  C   UNL A   1      42.767  26.459  26.880  1.00  0.00     0.074 A 
ATOM     16  C   UNL A   1      40.658  26.964  28.063  1.00  0.00     0.049 A 
ATOM     17  N   UNL A   1      43.451  27.552  27.104  1.00  0.00    -0.248 NA
ATOM     18  C   UNL A   1      43.479  25.458  26.072  1.00  0.00     0.031 C 
ATOM     19  C   UNL A   1      39.312  26.710  28.582  1.00  0.00     0.029 A 
ATOM     20  N   UNL A   1      40.950  28.231  28.494  1.00  0.00    -0.354 N 
ATOM     21  C   UNL A   1      44.680  27.369  26.480  1.00  0.00     0.074 A 
ATOM     22  C   UNL A   1      44.656  26.041  25.900  1.00  0.00     0.031 C 
ATOM     23  C   UNL A   1      38.897  27.787  29.266  1.00  0.00     0.029 A 
ATOM     24  C   UNL A   1      39.963  28.785  29.273  1.00  0.00     0.049 A 
ATOM     25  H   UNL A   1      41.786  28.699  28.269  1.00  0.00     0.167 HD
ATOM     26  C   UNL A   1      45.726  28.230  26.395  1.00  0.00     0.034 A 
ATOM     27  C   UNL A   1      39.927  29.948  29.949  1.00  0.00     0.034 A 
ATOM     28  C   UNL A   1      45.729  29.551  26.976  1.00  0.00     0.049 A 
ATOM     29  C   UNL A   1      41.107  30.877  29.871  1.00  0.00     0.074 A 
ATOM     30  C   UNL A   1      46.705  30.531  26.894  1.00  0.00     0.029 A 
ATOM     31  N   UNL A   1      44.713  30.074  27.767  1.00  0.00    -0.354 N 
ATOM     32  N   UNL A   1      42.247  30.706  29.245  1.00  0.00    -0.248 NA
ATOM     33  C   UNL A   1      40.993  32.154  30.586  1.00  0.00     0.031 C 
ATOM     34  C   UNL A   1      46.307  31.618  27.683  1.00  0.00     0.029 A 
ATOM     35  C   UNL A   1      45.054  31.344  28.208  1.00  0.00     0.049 A 
ATOM     36  H   UNL A   1      43.872  29.610  27.984  1.00  0.00     0.167 HD
ATOM     37  C   UNL A   1      42.984  31.861  29.480  1.00  0.00     0.074 A 
ATOM     38  C   UNL A   1      42.155  32.723  30.300  1.00  0.00     0.031 C 
ATOM     39  C   UNL A   1      44.230  32.182  29.048  1.00  0.00     0.034 A 
BRANCH  26  40
ATOM     40  C   UNL A   1      46.965  27.744  25.681  1.00  0.00     0.023 A 
ATOM     41  C   UNL A   1      47.206  28.042  24.328  1.00  0.00     0.031 A 
ATOM     42  C   UNL A   1      47.899  26.935  26.352  1.00  0.00     0.131 A 
ATOM     43  C   UNL A   1      48.305  27.469  23.669  1.00  0.00     0.055 A 
ATOM     44  C   UNL A   1      49.031  26.430  25.710  1.00  0.00     0.041 A 
ATOM     45  F   UNL A   1      47.713  26.603  27.640  1.00  0.00    -0.206 F 
ATOM     46  C   UNL A   1      49.231  26.681  24.357  1.00  0.00     0.022 A 
BRANCH  43  47
ATOM     47  S   UNL A   1      48.419  27.638  21.865  1.00  0.00     0.124 S 
ATOM     48  O   UNL A   1      47.120  28.222  21.538  1.00  0.00    -0.237 OA
ATOM     49  O   UNL A   1      49.573  28.513  21.704  1.00  0.00    -0.237 OA
ATOM     50  O   UNL A   1      48.608  26.264  21.405  1.00  0.00    -0.744 OA
ENDBRANCH  43  47
ENDBRANCH  26  40
BRANCH  27  51
ATOM     51  C   UNL A   1      38.749  30.263  30.799  1.00  0.00     0.023 A 
ATOM     52  C   UNL A   1      37.710  31.082  30.335  1.00  0.00     0.031 A 
ATOM     53  C   UNL A   1      38.639  29.712  32.089  1.00  0.00     0.131 A 
ATOM     54  C   UNL A   1      36.606  31.338  31.165  1.00  0.00     0.055 A 
ATOM     55  C   UNL A   1      37.525  29.942  32.895  1.00  0.00     0.041 A 
ATOM     56  F   UNL A   1      39.605  28.911  32.569  1.00  0.00    -0.206 F 
ATOM     57  C   UNL A   1      36.502  30.764  32.434  1.00  0.00     0.022 A 
BRANCH  54  58
ATOM     58  S   UNL A   1      35.308  32.453  30.565  1.00  0.00     0.124 S 
ATOM     59  O   UNL A   1      36.059  33.676  30.311  1.00  0.00    -0.237 OA
ATOM     60  O   UNL A   1      34.819  31.745  29.386  1.00  0.00    -0.237 OA
ATOM     61  O   UNL A   1      34.369  32.515  31.682  1.00  0.00    -0.744 OA
ENDBRANCH  54  58
ENDBRANCH  27  51
BRANCH  39  62
ATOM     62  C   UNL A   1      44.753  33.540  29.432  1.00  0.00     0.023 A 
ATOM     63  C   UNL A   1      44.505  34.676  28.642  1.00  0.00     0.031 A 
ATOM     64  C   UNL A   1      45.513  33.696  30.605  1.00  0.00     0.131 A 
ATOM     65  C   UNL A   1      45.045  35.916  29.016  1.00  0.00     0.055 A 
ATOM     66  C   UNL A   1      46.011  34.939  30.994  1.00  0.00     0.041 A 
ATOM     67  F   UNL A   1      45.779  32.641  31.391  1.00  0.00    -0.206 F 
ATOM     68  C   UNL A   1      45.785  36.056  30.195  1.00  0.00     0.022 A 
BRANCH  65  69
ATOM     69  S   UNL A   1      44.810  37.341  27.919  1.00  0.00     0.124 S 
ATOM     70  O   UNL A   1      46.173  37.597  27.462  1.00  0.00    -0.237 OA
ATOM     71  O   UNL A   1      43.889  36.818  26.916  1.00  0.00    -0.237 OA
ATOM     72  O   UNL A   1      44.250  38.363  28.801  1.00  0.00    -0.744 OA
ENDBRANCH  65  69
ENDBRANCH  39  62
ENDBRANCH  13  14
ENDBRANCH   6   8
ENDBRANCH   3   4
ENDBRANCH   2   3
ENDBRANCH   1   2
BRANCH   1  73
ATOM     73  C   UNL A   1      34.096  21.469  27.190  1.00  0.00     0.116 C 
BRANCH  73  74
ATOM     74  N   UNL A   1      33.181  22.505  27.635  1.00  0.00    -0.352 N 
ATOM     75  C   UNL A   1      32.228  23.120  26.876  1.00  0.00     0.254 C 
ATOM     76  H   UNL A   1      33.257  22.792  28.575  1.00  0.00     0.163 HD
ATOM     77  O   UNL A   1      31.189  23.585  27.357  1.00  0.00    -0.269 OA
BRANCH  75  78
ATOM     78  C   UNL A   1      32.387  23.186  25.433  1.00  0.00     0.072 A 
ATOM     79  C   UNL A   1      31.849  22.117  24.702  1.00  0.00     0.018 A 
ATOM     80  C   UNL A   1      33.062  24.218  24.781  1.00  0.00     0.109 A 
ATOM     81  C   UNL A   1      32.018  22.082  23.329  1.00  0.00     0.021 A 
ATOM     82  N   UNL A   1      33.190  24.200  23.424  1.00  0.00    -0.249 NA
ATOM     83  C   UNL A   1      32.674  23.146  22.738  1.00  0.00     0.112 A 
BRANCH  80  84
ATOM     84  S   UNL A   1      34.184  25.355  25.590  1.00  0.00    -0.097 SA
BRANCH  84  85
ATOM     85  C   UNL A   1      33.417  26.999  25.722  1.00  0.00     0.157 C 
BRANCH  85  86
ATOM     86  C   UNL A   1      31.931  27.088  25.931  1.00  0.00     0.174 C 
ATOM     87  O   UNL A   1      31.455  26.796  27.031  1.00  0.00    -0.293 OA
BRANCH  86  88
ATOM     88  C   UNL A   1      31.033  27.738  24.913  1.00  0.00     0.037 A 
ATOM     89  C   UNL A   1      31.112  29.147  24.845  1.00  0.00     0.013 A 
ATOM     90  C   UNL A   1      30.165  27.090  24.021  1.00  0.00     0.051 A 
ATOM     91  C   UNL A   1      30.378  29.881  23.907  1.00  0.00     0.001 A 
ATOM     92  C   UNL A   1      29.437  27.835  23.075  1.00  0.00     0.021 A 
ATOM     93  Cl  UNL A   1      29.850  25.394  23.999  1.00  0.00    -0.084 Cl
ATOM     94  C   UNL A   1      29.544  29.222  23.015  1.00  0.00     0.002 A 
ENDBRANCH  86  88
ENDBRANCH  85  86
ENDBRANCH  84  85
ENDBRANCH  80  84
ENDBRANCH  75  78
ENDBRANCH  73  74
ENDBRANCH   1  73
TORSDOF 18
ENDMDL
MODEL 3
REMARK VINA RESULT:     -11.4      1.881      8.191
REMARK SMILES O=C(NCCCCNC(=O)c1cccnc1SCC(=O)c1ccccc1Cl)c1ccc(-c2c3nc(c(-c4cc(S(=O)(=O)[O-])ccc4F)c4ccc([nH]4)c(-c4cc(S(=O)(=O)[O-])ccc4F)c4nc(c(-c5cc(S(=O)(=O)[O-])ccc5F)c5ccc2[nH]5)C=C4)C=C3)cc1
REMARK SMILES IDX 6 1 5 2 4 3 3 4 1 5 2 6 28 8 29 9 90 10 30 11 89 12 31 13
REMARK SMILES IDX 32 14 33 15 83 16 34 17 88 18 82 19 84 20 35 21 87 22 81 23
REMARK SMILES IDX 80 24 36 26 68 27 48 28 67 29 49 30 52 31 66 32 85 33 50 34
REMARK SMILES IDX 51 35 65 37 86 38 53 39 37 40 38 41 46 42 39 43 45 44 47 45
REMARK SMILES IDX 44 46 40 47 41 48 42 49 43 50 69 51 70 52 78 53 71 54 77 55
REMARK SMILES IDX 79 56 76 57 72 58 73 59 74 60 75 61 54 62 55 63 63 64 56 65
REMARK SMILES IDX 62 66 64 67 61 68 57 69 58 70 59 71 60 72 7 73 8 74 9 75
REMARK SMILES IDX 10 77 11 78 12 79 16 80 13 81 15 82 14 83 17 84 18 85 19 86
REMARK SMILES IDX 20 87 21 88 22 89 26 90 23 91 25 92 27 93 24 94
REMARK H PARENT 3 7 84 25 52 36 8 76
REMARK Flexibility Score: inf
ROOT
ATOM      1  C   UNL A   1      33.020  29.232  24.232  1.00  0.00     0.023 C 
ENDROOT
BRANCH   1   2
ATOM      2  C   UNL A   1      31.823  29.248  25.182  1.00  0.00     0.023 C 
BRANCH   2   3
ATOM      3  C   UNL A   1      32.085  29.758  26.595  1.00  0.00     0.116 C 
BRANCH   3   4
ATOM      4  N   UNL A   1      32.077  31.207  26.698  1.00  0.00    -0.352 N 
ATOM      5  O   UNL A   1      32.731  33.256  27.353  1.00  0.00    -0.269 OA
ATOM      6  C   UNL A   1      32.969  32.051  27.313  1.00  0.00     0.251 C 
ATOM      7  H   UNL A   1      31.316  31.653  26.261  1.00  0.00     0.163 HD
BRANCH   6   8
ATOM      8  C   UNL A   1      34.193  31.521  27.956  1.00  0.00     0.039 A 
ATOM      9  C   UNL A   1      34.401  30.147  28.121  1.00  0.00     0.014 A 
ATOM     10  C   UNL A   1      35.166  32.429  28.385  1.00  0.00     0.014 A 
ATOM     11  C   UNL A   1      35.516  29.692  28.824  1.00  0.00     0.010 A 
ATOM     12  C   UNL A   1      36.313  31.967  29.034  1.00  0.00     0.010 A 
ATOM     13  C   UNL A   1      36.482  30.597  29.288  1.00  0.00    -0.014 A 
BRANCH  13  14
ATOM     14  C   UNL A   1      37.680  30.107  30.017  1.00  0.00     0.031 A 
ATOM     15  C   UNL A   1      37.940  30.531  31.435  1.00  0.00     0.074 A 
ATOM     16  C   UNL A   1      38.551  29.298  29.383  1.00  0.00     0.049 A 
ATOM     17  N   UNL A   1      38.962  30.261  32.207  1.00  0.00    -0.248 NA
ATOM     18  C   UNL A   1      36.922  31.386  32.062  1.00  0.00     0.031 C 
ATOM     19  C   UNL A   1      38.413  28.834  28.001  1.00  0.00     0.029 A 
ATOM     20  N   UNL A   1      39.727  28.739  29.810  1.00  0.00    -0.354 N 
ATOM     21  C   UNL A   1      38.722  30.924  33.406  1.00  0.00     0.074 A 
ATOM     22  C   UNL A   1      37.472  31.639  33.240  1.00  0.00     0.031 C 
ATOM     23  C   UNL A   1      39.467  28.063  27.693  1.00  0.00     0.029 A 
ATOM     24  C   UNL A   1      40.374  28.018  28.836  1.00  0.00     0.049 A 
ATOM     25  H   UNL A   1      40.074  28.843  30.725  1.00  0.00     0.167 HD
ATOM     26  C   UNL A   1      39.471  30.929  34.538  1.00  0.00     0.034 A 
ATOM     27  C   UNL A   1      41.579  27.417  28.843  1.00  0.00     0.034 A 
ATOM     28  C   UNL A   1      40.712  30.207  34.684  1.00  0.00     0.049 A 
ATOM     29  C   UNL A   1      42.411  27.460  30.094  1.00  0.00     0.074 A 
ATOM     30  C   UNL A   1      41.517  30.088  35.805  1.00  0.00     0.029 A 
ATOM     31  N   UNL A   1      41.342  29.495  33.671  1.00  0.00    -0.354 N 
ATOM     32  N   UNL A   1      42.153  28.059  31.233  1.00  0.00    -0.248 NA
ATOM     33  C   UNL A   1      43.692  26.744  30.062  1.00  0.00     0.031 C 
ATOM     34  C   UNL A   1      42.659  29.357  35.453  1.00  0.00     0.029 A 
ATOM     35  C   UNL A   1      42.540  28.967  34.129  1.00  0.00     0.049 A 
ATOM     36  H   UNL A   1      40.989  29.382  32.759  1.00  0.00     0.167 HD
ATOM     37  C   UNL A   1      43.236  27.782  32.060  1.00  0.00     0.074 A 
ATOM     38  C   UNL A   1      44.145  26.956  31.290  1.00  0.00     0.031 C 
ATOM     39  C   UNL A   1      43.451  28.168  33.342  1.00  0.00     0.034 A 
BRANCH  26  40
ATOM     40  C   UNL A   1      38.982  31.781  35.685  1.00  0.00     0.023 A 
ATOM     41  C   UNL A   1      38.350  31.217  36.809  1.00  0.00     0.031 A 
ATOM     42  C   UNL A   1      39.112  33.180  35.637  1.00  0.00     0.131 A 
ATOM     43  C   UNL A   1      37.800  32.052  37.795  1.00  0.00     0.055 A 
ATOM     44  C   UNL A   1      38.629  34.000  36.659  1.00  0.00     0.041 A 
ATOM     45  F   UNL A   1      39.691  33.776  34.582  1.00  0.00    -0.206 F 
ATOM     46  C   UNL A   1      37.954  33.439  37.738  1.00  0.00     0.022 A 
BRANCH  43  47
ATOM     47  S   UNL A   1      36.744  31.307  39.069  1.00  0.00     0.124 S 
ATOM     48  O   UNL A   1      36.424  30.012  38.473  1.00  0.00    -0.237 OA
ATOM     49  O   UNL A   1      37.626  31.276  40.229  1.00  0.00    -0.237 OA
ATOM     50  O   UNL A   1      35.618  32.234  39.165  1.00  0.00    -0.744 OA
ENDBRANCH  43  47
ENDBRANCH  26  40
BRANCH  27  51
ATOM     51  C   UNL A   1      42.080  26.773  27.601  1.00  0.00     0.023 A 
ATOM     52  C   UNL A   1      42.018  25.383  27.421  1.00  0.00     0.031 A 
ATOM     53  C   UNL A   1      42.604  27.558  26.558  1.00  0.00     0.131 A 
ATOM     54  C   UNL A   1      42.486  24.818  26.224  1.00  0.00     0.055 A 
ATOM     55  C   UNL A   1      43.036  26.994  25.358  1.00  0.00     0.041 A 
ATOM     56  F   UNL A   1      42.671  28.894  26.683  1.00  0.00    -0.206 F 
ATOM     57  C   UNL A   1      42.983  25.615  25.188  1.00  0.00     0.022 A 
BRANCH  54  58
ATOM     58  S   UNL A   1      42.455  23.014  26.043  1.00  0.00     0.124 S 
ATOM     59  O   UNL A   1      43.360  22.592  27.105  1.00  0.00    -0.237 OA
ATOM     60  O   UNL A   1      41.042  22.712  26.248  1.00  0.00    -0.237 OA
ATOM     61  O   UNL A   1      42.942  22.799  24.683  1.00  0.00    -0.744 OA
ENDBRANCH  54  58
ENDBRANCH  27  51
BRANCH  39  62
ATOM     62  C   UNL A   1      44.710  27.669  33.999  1.00  0.00     0.023 A 
ATOM     63  C   UNL A   1      44.744  26.449  34.696  1.00  0.00     0.031 A 
ATOM     64  C   UNL A   1      45.890  28.429  33.928  1.00  0.00     0.131 A 
ATOM     65  C   UNL A   1      45.929  26.041  35.328  1.00  0.00     0.055 A 
ATOM     66  C   UNL A   1      47.076  27.998  34.521  1.00  0.00     0.041 A 
ATOM     67  F   UNL A   1      45.908  29.602  33.275  1.00  0.00    -0.206 F 
ATOM     68  C   UNL A   1      47.098  26.801  35.232  1.00  0.00     0.022 A 
BRANCH  65  69
ATOM     69  S   UNL A   1      45.915  24.522  36.319  1.00  0.00     0.124 S 
ATOM     70  O   UNL A   1      45.800  23.492  35.290  1.00  0.00    -0.237 OA
ATOM     71  O   UNL A   1      47.194  24.587  37.016  1.00  0.00    -0.237 OA
ATOM     72  O   UNL A   1      44.738  24.679  37.171  1.00  0.00    -0.744 OA
ENDBRANCH  65  69
ENDBRANCH  39  62
ENDBRANCH  13  14
ENDBRANCH   6   8
ENDBRANCH   3   4
ENDBRANCH   2   3
ENDBRANCH   1   2
BRANCH   1  73
ATOM     73  C   UNL A   1      32.723  28.901  22.774  1.00  0.00     0.116 C 
BRANCH  73  74
ATOM     74  N   UNL A   1      33.503  27.807  22.224  1.00  0.00    -0.352 N 
ATOM     75  C   UNL A   1      33.150  26.488  22.218  1.00  0.00     0.254 C 
ATOM     76  H   UNL A   1      34.370  28.038  21.817  1.00  0.00     0.163 HD
ATOM     77  O   UNL A   1      33.540  25.697  21.353  1.00  0.00    -0.269 OA
BRANCH  75  78
ATOM     78  C   UNL A   1      32.227  25.983  23.221  1.00  0.00     0.072 A 
ATOM     79  C   UNL A   1      30.864  26.051  22.898  1.00  0.00     0.018 A 
ATOM     80  C   UNL A   1      32.636  25.489  24.460  1.00  0.00     0.109 A 
ATOM     81  C   UNL A   1      29.925  25.647  23.831  1.00  0.00     0.021 A 
ATOM     82  N   UNL A   1      31.709  25.053  25.360  1.00  0.00    -0.249 NA
ATOM     83  C   UNL A   1      30.393  25.142  25.031  1.00  0.00     0.112 A 
BRANCH  80  84
ATOM     84  S   UNL A   1      34.248  25.785  25.180  1.00  0.00    -0.097 SA
BRANCH  84  85
ATOM     85  C   UNL A   1      35.280  24.295  25.028  1.00  0.00     0.157 C 
BRANCH  85  86
ATOM     86  C   UNL A   1      35.029  23.355  23.882  1.00  0.00     0.174 C 
ATOM     87  O   UNL A   1      35.574  23.565  22.795  1.00  0.00    -0.293 OA
BRANCH  86  88
ATOM     88  C   UNL A   1      34.317  22.045  24.083  1.00  0.00     0.037 A 
ATOM     89  C   UNL A   1      33.001  21.984  23.574  1.00  0.00     0.013 A 
ATOM     90  C   UNL A   1      34.836  20.889  24.688  1.00  0.00     0.051 A 
ATOM     91  C   UNL A   1      32.240  20.811  23.637  1.00  0.00     0.001 A 
ATOM     92  C   UNL A   1      34.067  19.712  24.740  1.00  0.00     0.021 A 
ATOM     93  Cl  UNL A   1      36.377  20.778  25.454  1.00  0.00    -0.084 Cl
ATOM     94  C   UNL A   1      32.778  19.671  24.216  1.00  0.00     0.002 A 
ENDBRANCH  86  88
ENDBRANCH  85  86
ENDBRANCH  84  85
ENDBRANCH  80  84
ENDBRANCH  75  78
ENDBRANCH  73  74
ENDBRANCH   1  73
TORSDOF 18
ENDMDL
