MODEL 1
REMARK VINA RESULT:     -10.7      0.000      0.000
REMARK SMILES O=C(/C=C\N1CC[C@@H](O)C1)NCCCCNC(=O)c1ccc(-c2c3nc(c(-c4cc(S(=O)(=O)[O-])ccc4F)c4ccc([nH]4)c(-c4cc(S(=O)(=O)[O-])ccc4F)c4nc(c(-c5cc(S(=O)(=O)[O-])ccc5F)c5ccc2[nH]5)C=C4)C=C3)cc1
REMARK SMILES IDX 14 1 13 2 12 3 11 4 1 5 2 6 3 8 4 9 5 10 6 11 10 12 7 13
REMARK SMILES IDX 8 14 9 15 15 17 16 18 17 19 18 21 19 22 20 23 81 24 21 25
REMARK SMILES IDX 80 26 22 27 23 28 24 29 74 30 25 31 79 32 73 33 75 34 26 35
REMARK SMILES IDX 78 36 72 37 71 38 27 40 59 41 39 42 58 43 40 44 43 45 57 46
REMARK SMILES IDX 76 47 41 48 42 49 56 51 77 52 44 53 28 54 29 55 37 56 30 57
REMARK SMILES IDX 36 58 38 59 35 60 31 61 32 62 33 63 34 64 60 65 61 66 69 67
REMARK SMILES IDX 62 68 68 69 70 70 67 71 63 72 64 73 65 74 66 75 45 76 46 77
REMARK SMILES IDX 54 78 47 79 53 80 55 81 52 82 48 83 49 84 50 85 51 86
REMARK H PARENT 11 7 9 16 16 20 75 39 43 50
REMARK Flexibility Score: inf
ROOT
ATOM      1  C   UNL A   1      33.373  34.305  28.626  1.00  0.00     0.023 C 
ENDROOT
BRANCH   1   2
ATOM      2  C   UNL A   1      33.995  35.692  28.433  1.00  0.00     0.023 C 
BRANCH   2   3
ATOM      3  C   UNL A   1      33.314  36.871  29.137  1.00  0.00     0.116 C 
BRANCH   3   4
ATOM      4  N   UNL A   1      33.743  37.088  30.504  1.00  0.00    -0.353 N 
ATOM      5  O   UNL A   1      31.873  36.260  31.536  1.00  0.00    -0.270 OA
ATOM      6  C   UNL A   1      32.991  36.748  31.597  1.00  0.00     0.245 C 
ATOM      7  H   UNL A   1      34.623  37.503  30.655  1.00  0.00     0.163 HD
BRANCH   6   8
ATOM      8  C   UNL A   1      33.666  36.869  32.924  1.00  0.00     0.088 C 
ATOM      9  C   UNL A   1      34.482  36.052  33.603  1.00  0.00     0.086 C 
BRANCH   9  10
ATOM     10  N   UNL A   1      35.091  34.855  33.305  1.00  0.00    -0.375 N 
ATOM     11  C   UNL A   1      35.459  33.834  34.301  1.00  0.00     0.119 C 
ATOM     12  C   UNL A   1      35.626  34.450  32.005  1.00  0.00     0.147 C 
ATOM     13  C   UNL A   1      35.894  32.613  33.469  1.00  0.00     0.055 C 
ATOM     14  C   UNL A   1      35.400  32.938  32.064  1.00  0.00     0.135 C 
BRANCH  14  15
ATOM     15  O   UNL A   1      33.997  32.642  31.984  1.00  0.00    -0.391 OA
ATOM     16  H   UNL A   1      33.537  33.053  32.733  1.00  0.00     0.211 HD
ENDBRANCH  14  15
ENDBRANCH   9  10
ENDBRANCH   6   8
ENDBRANCH   3   4
ENDBRANCH   2   3
ENDBRANCH   1   2
BRANCH   1  17
ATOM     17  C   UNL A   1      34.294  33.099  28.460  1.00  0.00     0.116 C 
BRANCH  17  18
ATOM     18  N   UNL A   1      33.666  31.967  27.810  1.00  0.00    -0.352 N 
ATOM     19  C   UNL A   1      34.154  30.696  27.605  1.00  0.00     0.251 C 
ATOM     20  H   UNL A   1      32.759  32.131  27.466  1.00  0.00     0.163 HD
ATOM     21  O   UNL A   1      33.470  29.900  26.964  1.00  0.00    -0.269 OA
BRANCH  19  22
ATOM     22  C   UNL A   1      35.501  30.282  28.089  1.00  0.00     0.039 A 
ATOM     23  C   UNL A   1      35.595  29.760  29.384  1.00  0.00     0.014 A 
ATOM     24  C   UNL A   1      36.667  30.428  27.330  1.00  0.00     0.014 A 
ATOM     25  C   UNL A   1      36.831  29.337  29.892  1.00  0.00     0.010 A 
ATOM     26  C   UNL A   1      37.894  29.953  27.817  1.00  0.00     0.010 A 
ATOM     27  C   UNL A   1      37.991  29.398  29.104  1.00  0.00    -0.014 A 
BRANCH  27  28
ATOM     28  C   UNL A   1      39.290  28.875  29.626  1.00  0.00     0.031 A 
ATOM     29  C   UNL A   1      39.975  29.533  30.797  1.00  0.00     0.074 A 
ATOM     30  C   UNL A   1      39.866  27.804  29.041  1.00  0.00     0.049 A 
ATOM     31  N   UNL A   1      41.108  29.220  31.376  1.00  0.00    -0.248 NA
ATOM     32  C   UNL A   1      39.306  30.703  31.380  1.00  0.00     0.031 C 
ATOM     33  C   UNL A   1      39.323  27.083  27.888  1.00  0.00     0.029 A 
ATOM     34  N   UNL A   1      41.030  27.133  29.330  1.00  0.00    -0.354 N 
ATOM     35  C   UNL A   1      41.287  30.150  32.395  1.00  0.00     0.074 A 
ATOM     36  C   UNL A   1      40.175  31.076  32.309  1.00  0.00     0.031 C 
ATOM     37  C   UNL A   1      40.136  26.059  27.586  1.00  0.00     0.029 A 
ATOM     38  C   UNL A   1      41.286  26.074  28.488  1.00  0.00     0.049 A 
ATOM     39  H   UNL A   1      41.626  27.387  30.071  1.00  0.00     0.167 HD
ATOM     40  C   UNL A   1      42.272  30.216  33.328  1.00  0.00     0.034 A 
ATOM     41  C   UNL A   1      42.327  25.218  28.433  1.00  0.00     0.034 A 
ATOM     42  C   UNL A   1      43.380  29.292  33.406  1.00  0.00     0.049 A 
ATOM     43  C   UNL A   1      43.439  25.346  29.445  1.00  0.00     0.074 A 
ATOM     44  C   UNL A   1      44.407  29.254  34.336  1.00  0.00     0.029 A 
ATOM     45  N   UNL A   1      43.619  28.252  32.516  1.00  0.00    -0.354 N 
ATOM     46  N   UNL A   1      43.570  26.208  30.426  1.00  0.00    -0.248 NA
ATOM     47  C   UNL A   1      44.539  24.375  29.350  1.00  0.00     0.031 C 
ATOM     48  C   UNL A   1      45.305  28.247  33.963  1.00  0.00     0.029 A 
ATOM     49  C   UNL A   1      44.795  27.594  32.853  1.00  0.00     0.049 A 
ATOM     50  H   UNL A   1      43.039  28.015  31.757  1.00  0.00     0.167 HD
ATOM     51  C   UNL A   1      44.750  25.862  31.081  1.00  0.00     0.074 A 
ATOM     52  C   UNL A   1      45.283  24.705  30.395  1.00  0.00     0.031 C 
ATOM     53  C   UNL A   1      45.335  26.447  32.158  1.00  0.00     0.034 A 
BRANCH  40  54
ATOM     54  C   UNL A   1      42.208  31.350  34.328  1.00  0.00     0.023 A 
ATOM     55  C   UNL A   1      41.266  31.363  35.372  1.00  0.00     0.031 A 
ATOM     56  C   UNL A   1      43.090  32.441  34.228  1.00  0.00     0.131 A 
ATOM     57  C   UNL A   1      41.177  32.476  36.222  1.00  0.00     0.055 A 
ATOM     58  C   UNL A   1      43.054  33.505  35.132  1.00  0.00     0.041 A 
ATOM     59  F   UNL A   1      44.000  32.497  33.243  1.00  0.00    -0.206 F 
ATOM     60  C   UNL A   1      42.081  33.534  36.128  1.00  0.00     0.022 A 
BRANCH  57  61
ATOM     61  S   UNL A   1      39.763  32.587  37.355  1.00  0.00     0.124 S 
ATOM     62  O   UNL A   1      39.089  33.789  36.865  1.00  0.00    -0.237 OA
ATOM     63  O   UNL A   1      39.071  31.326  37.120  1.00  0.00    -0.237 OA
ATOM     64  O   UNL A   1      40.387  32.724  38.668  1.00  0.00    -0.744 OA
ENDBRANCH  57  61
ENDBRANCH  40  54
BRANCH  41  65
ATOM     65  C   UNL A   1      42.392  24.178  27.365  1.00  0.00     0.023 A 
ATOM     66  C   UNL A   1      41.747  22.939  27.512  1.00  0.00     0.031 A 
ATOM     67  C   UNL A   1      43.146  24.391  26.196  1.00  0.00     0.131 A 
ATOM     68  C   UNL A   1      41.908  21.945  26.533  1.00  0.00     0.055 A 
ATOM     69  C   UNL A   1      43.253  23.423  25.198  1.00  0.00     0.041 A 
ATOM     70  F   UNL A   1      43.785  25.557  26.005  1.00  0.00    -0.206 F 
ATOM     71  C   UNL A   1      42.643  22.184  25.369  1.00  0.00     0.022 A 
BRANCH  68  72
ATOM     72  S   UNL A   1      41.220  20.296  26.845  1.00  0.00     0.124 S 
ATOM     73  O   UNL A   1      40.908  20.369  28.267  1.00  0.00    -0.237 OA
ATOM     74  O   UNL A   1      40.077  20.268  25.936  1.00  0.00    -0.237 OA
ATOM     75  O   UNL A   1      42.317  19.397  26.490  1.00  0.00    -0.744 OA
ENDBRANCH  68  72
ENDBRANCH  41  65
BRANCH  53  76
ATOM     76  C   UNL A   1      46.600  25.813  32.689  1.00  0.00     0.023 A 
ATOM     77  C   UNL A   1      46.573  24.803  33.668  1.00  0.00     0.031 A 
ATOM     78  C   UNL A   1      47.855  26.235  32.214  1.00  0.00     0.131 A 
ATOM     79  C   UNL A   1      47.776  24.292  34.181  1.00  0.00     0.055 A 
ATOM     80  C   UNL A   1      49.046  25.677  32.682  1.00  0.00     0.041 A 
ATOM     81  F   UNL A   1      47.945  27.199  31.283  1.00  0.00    -0.206 F 
ATOM     82  C   UNL A   1      49.012  24.709  33.681  1.00  0.00     0.022 A 
BRANCH  79  83
ATOM     83  S   UNL A   1      47.708  23.141  35.583  1.00  0.00     0.124 S 
ATOM     84  O   UNL A   1      46.289  22.800  35.626  1.00  0.00    -0.237 OA
ATOM     85  O   UNL A   1      48.607  22.075  35.156  1.00  0.00    -0.237 OA
ATOM     86  O   UNL A   1      48.188  23.943  36.708  1.00  0.00    -0.744 OA
ENDBRANCH  79  83
ENDBRANCH  53  76
ENDBRANCH  27  28
ENDBRANCH  19  22
ENDBRANCH  17  18
ENDBRANCH   1  17
TORSDOF 16
ENDMDL
MODEL 2
REMARK VINA RESULT:     -10.6      1.577      1.935
REMARK SMILES O=C(/C=C\N1CC[C@@H](O)C1)NCCCCNC(=O)c1ccc(-c2c3nc(c(-c4cc(S(=O)(=O)[O-])ccc4F)c4ccc([nH]4)c(-c4cc(S(=O)(=O)[O-])ccc4F)c4nc(c(-c5cc(S(=O)(=O)[O-])ccc5F)c5ccc2[nH]5)C=C4)C=C3)cc1
REMARK SMILES IDX 14 1 13 2 12 3 11 4 1 5 2 6 3 8 4 9 5 10 6 11 10 12 7 13
REMARK SMILES IDX 8 14 9 15 15 17 16 18 17 19 18 21 19 22 20 23 81 24 21 25
REMARK SMILES IDX 80 26 22 27 23 28 24 29 74 30 25 31 79 32 73 33 75 34 26 35
REMARK SMILES IDX 78 36 72 37 71 38 27 40 59 41 39 42 58 43 40 44 43 45 57 46
REMARK SMILES IDX 76 47 41 48 42 49 56 51 77 52 44 53 28 54 29 55 37 56 30 57
REMARK SMILES IDX 36 58 38 59 35 60 31 61 32 62 33 63 34 64 60 65 61 66 69 67
REMARK SMILES IDX 62 68 68 69 70 70 67 71 63 72 64 73 65 74 66 75 45 76 46 77
REMARK SMILES IDX 54 78 47 79 53 80 55 81 52 82 48 83 49 84 50 85 51 86
REMARK H PARENT 11 7 9 16 16 20 75 39 43 50
REMARK Flexibility Score: inf
ROOT
ATOM      1  C   UNL A   1      34.017  34.139  29.311  1.00  0.00     0.023 C 
ENDROOT
BRANCH   1   2
ATOM      2  C   UNL A   1      33.422  35.436  28.752  1.00  0.00     0.023 C 
BRANCH   2   3
ATOM      3  C   UNL A   1      32.942  36.481  29.765  1.00  0.00     0.116 C 
BRANCH   3   4
ATOM      4  N   UNL A   1      33.687  36.507  31.007  1.00  0.00    -0.353 N 
ATOM      5  O   UNL A   1      31.917  36.902  32.407  1.00  0.00    -0.270 OA
ATOM      6  C   UNL A   1      33.110  36.699  32.234  1.00  0.00     0.245 C 
ATOM      7  H   UNL A   1      34.663  36.378  30.966  1.00  0.00     0.163 HD
BRANCH   6   8
ATOM      8  C   UNL A   1      33.999  36.507  33.418  1.00  0.00     0.088 C 
ATOM      9  C   UNL A   1      34.855  35.534  33.761  1.00  0.00     0.086 C 
BRANCH   9  10
ATOM     10  N   UNL A   1      35.320  34.410  33.120  1.00  0.00    -0.375 N 
ATOM     11  C   UNL A   1      36.482  34.383  32.215  1.00  0.00     0.119 C 
ATOM     12  C   UNL A   1      34.673  33.097  33.082  1.00  0.00     0.147 C 
ATOM     13  C   UNL A   1      36.731  32.889  31.939  1.00  0.00     0.055 C 
ATOM     14  C   UNL A   1      35.894  32.181  32.997  1.00  0.00     0.135 C 
BRANCH  14  15
ATOM     15  O   UNL A   1      36.611  32.192  34.241  1.00  0.00    -0.391 OA
ATOM     16  H   UNL A   1      36.005  32.427  34.961  1.00  0.00     0.211 HD
ENDBRANCH  14  15
ENDBRANCH   9  10
ENDBRANCH   6   8
ENDBRANCH   3   4
ENDBRANCH   2   3
ENDBRANCH   1   2
BRANCH   1  17
ATOM     17  C   UNL A   1      34.802  33.259  28.341  1.00  0.00     0.116 C 
BRANCH  17  18
ATOM     18  N   UNL A   1      34.016  32.200  27.744  1.00  0.00    -0.352 N 
ATOM     19  C   UNL A   1      34.307  30.859  27.617  1.00  0.00     0.251 C 
ATOM     20  H   UNL A   1      33.147  32.478  27.374  1.00  0.00     0.163 HD
ATOM     21  O   UNL A   1      33.517  30.141  27.008  1.00  0.00    -0.269 OA
BRANCH  19  22
ATOM     22  C   UNL A   1      35.571  30.275  28.148  1.00  0.00     0.039 A 
ATOM     23  C   UNL A   1      36.671  30.210  27.284  1.00  0.00     0.014 A 
ATOM     24  C   UNL A   1      35.693  29.758  29.442  1.00  0.00     0.014 A 
ATOM     25  C   UNL A   1      37.892  29.687  27.727  1.00  0.00     0.010 A 
ATOM     26  C   UNL A   1      36.931  29.286  29.902  1.00  0.00     0.010 A 
ATOM     27  C   UNL A   1      38.049  29.247  29.052  1.00  0.00    -0.014 A 
BRANCH  27  28
ATOM     28  C   UNL A   1      39.376  28.762  29.537  1.00  0.00     0.031 A 
ATOM     29  C   UNL A   1      40.106  29.479  30.644  1.00  0.00     0.074 A 
ATOM     30  C   UNL A   1      39.937  27.670  28.976  1.00  0.00     0.049 A 
ATOM     31  N   UNL A   1      41.268  29.204  31.184  1.00  0.00    -0.248 NA
ATOM     32  C   UNL A   1      39.451  30.669  31.203  1.00  0.00     0.031 C 
ATOM     33  C   UNL A   1      39.350  26.892  27.883  1.00  0.00     0.029 A 
ATOM     34  N   UNL A   1      41.121  27.024  29.241  1.00  0.00    -0.354 N 
ATOM     35  C   UNL A   1      41.482  30.182  32.150  1.00  0.00     0.074 A 
ATOM     36  C   UNL A   1      40.357  31.092  32.072  1.00  0.00     0.031 C 
ATOM     37  C   UNL A   1      40.161  25.862  27.591  1.00  0.00     0.029 A 
ATOM     38  C   UNL A   1      41.350  25.930  28.438  1.00  0.00     0.049 A 
ATOM     39  H   UNL A   1      41.747  27.318  29.942  1.00  0.00     0.167 HD
ATOM     40  C   UNL A   1      42.508  30.301  33.032  1.00  0.00     0.034 A 
ATOM     41  C   UNL A   1      42.398  25.082  28.375  1.00  0.00     0.034 A 
ATOM     42  C   UNL A   1      43.629  29.392  33.101  1.00  0.00     0.049 A 
ATOM     43  C   UNL A   1      43.554  25.267  29.327  1.00  0.00     0.074 A 
ATOM     44  C   UNL A   1      44.698  29.407  33.983  1.00  0.00     0.029 A 
ATOM     45  N   UNL A   1      43.840  28.314  32.250  1.00  0.00    -0.354 N 
ATOM     46  N   UNL A   1      43.719  26.175  30.260  1.00  0.00    -0.248 NA
ATOM     47  C   UNL A   1      44.659  24.304  29.226  1.00  0.00     0.031 C 
ATOM     48  C   UNL A   1      45.589  28.392  33.616  1.00  0.00     0.029 A 
ATOM     49  C   UNL A   1      45.037  27.684  32.562  1.00  0.00     0.049 A 
ATOM     50  H   UNL A   1      43.228  28.036  31.530  1.00  0.00     0.167 HD
ATOM     51  C   UNL A   1      44.931  25.871  30.876  1.00  0.00     0.074 A 
ATOM     52  C   UNL A   1      45.445  24.689  30.219  1.00  0.00     0.031 C 
ATOM     53  C   UNL A   1      45.558  26.511  31.897  1.00  0.00     0.034 A 
BRANCH  40  54
ATOM     54  C   UNL A   1      42.476  31.480  33.980  1.00  0.00     0.023 A 
ATOM     55  C   UNL A   1      41.726  31.452  35.169  1.00  0.00     0.031 A 
ATOM     56  C   UNL A   1      43.195  32.653  33.687  1.00  0.00     0.131 A 
ATOM     57  C   UNL A   1      41.647  32.598  35.976  1.00  0.00     0.055 A 
ATOM     58  C   UNL A   1      43.183  33.759  34.539  1.00  0.00     0.041 A 
ATOM     59  F   UNL A   1      43.916  32.749  32.559  1.00  0.00    -0.206 F 
ATOM     60  C   UNL A   1      42.392  33.741  35.684  1.00  0.00     0.022 A 
BRANCH  57  61
ATOM     61  S   UNL A   1      40.437  32.623  37.327  1.00  0.00     0.124 S 
ATOM     62  O   UNL A   1      41.262  32.228  38.468  1.00  0.00    -0.237 OA
ATOM     63  O   UNL A   1      39.982  34.008  37.318  1.00  0.00    -0.237 OA
ATOM     64  O   UNL A   1      39.443  31.634  36.916  1.00  0.00    -0.744 OA
ENDBRANCH  57  61
ENDBRANCH  40  54
BRANCH  41  65
ATOM     65  C   UNL A   1      42.426  23.994  27.353  1.00  0.00     0.023 A 
ATOM     66  C   UNL A   1      41.839  22.743  27.603  1.00  0.00     0.031 A 
ATOM     67  C   UNL A   1      43.088  24.176  26.125  1.00  0.00     0.131 A 
ATOM     68  C   UNL A   1      41.967  21.709  26.661  1.00  0.00     0.055 A 
ATOM     69  C   UNL A   1      43.161  23.164  25.167  1.00  0.00     0.041 A 
ATOM     70  F   UNL A   1      43.669  25.351  25.835  1.00  0.00    -0.206 F 
ATOM     71  C   UNL A   1      42.610  21.916  25.438  1.00  0.00     0.022 A 
BRANCH  68  72
ATOM     72  S   UNL A   1      41.363  20.054  27.097  1.00  0.00     0.124 S 
ATOM     73  O   UNL A   1      40.747  20.296  28.396  1.00  0.00    -0.237 OA
ATOM     74  O   UNL A   1      40.450  19.766  25.995  1.00  0.00    -0.237 OA
ATOM     75  O   UNL A   1      42.580  19.244  27.123  1.00  0.00    -0.744 OA
ENDBRANCH  68  72
ENDBRANCH  41  65
BRANCH  53  76
ATOM     76  C   UNL A   1      46.853  25.915  32.397  1.00  0.00     0.023 A 
ATOM     77  C   UNL A   1      48.085  26.181  31.772  1.00  0.00     0.031 A 
ATOM     78  C   UNL A   1      46.853  25.057  33.512  1.00  0.00     0.131 A 
ATOM     79  C   UNL A   1      49.254  25.551  32.229  1.00  0.00     0.055 A 
ATOM     80  C   UNL A   1      48.028  24.484  34.001  1.00  0.00     0.041 A 
ATOM     81  F   UNL A   1      45.707  24.762  34.147  1.00  0.00    -0.206 F 
ATOM     82  C   UNL A   1      49.236  24.718  33.351  1.00  0.00     0.022 A 
BRANCH  79  83
ATOM     83  S   UNL A   1      50.786  25.755  31.278  1.00  0.00     0.124 S 
ATOM     84  O   UNL A   1      50.811  27.196  31.050  1.00  0.00    -0.237 OA
ATOM     85  O   UNL A   1      51.795  25.237  32.196  1.00  0.00    -0.237 OA
ATOM     86  O   UNL A   1      50.559  24.942  30.084  1.00  0.00    -0.744 OA
ENDBRANCH  79  83
ENDBRANCH  53  76
ENDBRANCH  27  28
ENDBRANCH  19  22
ENDBRANCH  17  18
ENDBRANCH   1  17
TORSDOF 16
ENDMDL
MODEL 3
REMARK VINA RESULT:     -10.5      5.183     12.634
REMARK SMILES O=C(/C=C\N1CC[C@@H](O)C1)NCCCCNC(=O)c1ccc(-c2c3nc(c(-c4cc(S(=O)(=O)[O-])ccc4F)c4ccc([nH]4)c(-c4cc(S(=O)(=O)[O-])ccc4F)c4nc(c(-c5cc(S(=O)(=O)[O-])ccc5F)c5ccc2[nH]5)C=C4)C=C3)cc1
REMARK SMILES IDX 14 1 13 2 12 3 11 4 1 5 2 6 3 8 4 9 5 10 6 11 10 12 7 13
REMARK SMILES IDX 8 14 9 15 15 17 16 18 17 19 18 21 19 22 20 23 81 24 21 25
REMARK SMILES IDX 80 26 22 27 23 28 24 29 74 30 25 31 79 32 73 33 75 34 26 35
REMARK SMILES IDX 78 36 72 37 71 38 27 40 59 41 39 42 58 43 40 44 43 45 57 46
REMARK SMILES IDX 76 47 41 48 42 49 56 51 77 52 44 53 28 54 29 55 37 56 30 57
REMARK SMILES IDX 36 58 38 59 35 60 31 61 32 62 33 63 34 64 60 65 61 66 69 67
REMARK SMILES IDX 62 68 68 69 70 70 67 71 63 72 64 73 65 74 66 75 45 76 46 77
REMARK SMILES IDX 54 78 47 79 53 80 55 81 52 82 48 83 49 84 50 85 51 86
REMARK H PARENT 11 7 9 16 16 20 75 39 43 50
REMARK Flexibility Score: inf
ROOT
ATOM      1  C   UNL A   1      42.031  20.694  27.375  1.00  0.00     0.023 C 
ENDROOT
BRANCH   1   2
ATOM      2  C   UNL A   1      42.080  19.168  27.244  1.00  0.00     0.023 C 
BRANCH   2   3
ATOM      3  C   UNL A   1      42.874  18.590  26.068  1.00  0.00     0.116 C 
BRANCH   3   4
ATOM      4  N   UNL A   1      44.000  19.397  25.644  1.00  0.00    -0.353 N 
ATOM      5  O   UNL A   1      45.538  17.705  25.496  1.00  0.00    -0.270 OA
ATOM      6  C   UNL A   1      45.241  18.884  25.375  1.00  0.00     0.245 C 
ATOM      7  H   UNL A   1      43.865  20.366  25.543  1.00  0.00     0.163 HD
BRANCH   6   8
ATOM      8  C   UNL A   1      46.227  19.828  24.769  1.00  0.00     0.088 C 
ATOM      9  C   UNL A   1      46.236  21.160  24.627  1.00  0.00     0.086 C 
BRANCH   9  10
ATOM     10  N   UNL A   1      45.411  22.168  25.068  1.00  0.00    -0.375 N 
ATOM     11  C   UNL A   1      45.293  22.597  26.472  1.00  0.00     0.119 C 
ATOM     12  C   UNL A   1      44.400  22.875  24.280  1.00  0.00     0.147 C 
ATOM     13  C   UNL A   1      44.435  23.876  26.421  1.00  0.00     0.055 C 
ATOM     14  C   UNL A   1      44.434  24.252  24.945  1.00  0.00     0.135 C 
BRANCH  14  15
ATOM     15  O   UNL A   1      45.665  24.923  24.634  1.00  0.00    -0.391 OA
ATOM     16  H   UNL A   1      45.672  25.166  23.695  1.00  0.00     0.211 HD
ENDBRANCH  14  15
ENDBRANCH   9  10
ENDBRANCH   6   8
ENDBRANCH   3   4
ENDBRANCH   2   3
ENDBRANCH   1   2
BRANCH   1  17
ATOM     17  C   UNL A   1      41.495  21.479  26.180  1.00  0.00     0.116 C 
BRANCH  17  18
ATOM     18  N   UNL A   1      40.054  21.430  26.046  1.00  0.00    -0.352 N 
ATOM     19  C   UNL A   1      39.123  22.424  26.249  1.00  0.00     0.251 C 
ATOM     20  H   UNL A   1      39.686  20.559  25.770  1.00  0.00     0.163 HD
ATOM     21  O   UNL A   1      37.930  22.144  26.143  1.00  0.00    -0.269 OA
BRANCH  19  22
ATOM     22  C   UNL A   1      39.519  23.805  26.646  1.00  0.00     0.039 A 
ATOM     23  C   UNL A   1      39.381  24.160  27.993  1.00  0.00     0.014 A 
ATOM     24  C   UNL A   1      39.979  24.762  25.735  1.00  0.00     0.014 A 
ATOM     25  C   UNL A   1      39.751  25.438  28.432  1.00  0.00     0.010 A 
ATOM     26  C   UNL A   1      40.402  26.021  26.185  1.00  0.00     0.010 A 
ATOM     27  C   UNL A   1      40.297  26.375  27.541  1.00  0.00    -0.014 A 
BRANCH  27  28
ATOM     28  C   UNL A   1      40.760  27.708  28.032  1.00  0.00     0.031 A 
ATOM     29  C   UNL A   1      42.219  28.087  27.986  1.00  0.00     0.074 A 
ATOM     30  C   UNL A   1      39.866  28.586  28.531  1.00  0.00     0.049 A 
ATOM     31  N   UNL A   1      42.799  29.195  28.377  1.00  0.00    -0.248 NA
ATOM     32  C   UNL A   1      43.144  27.082  27.446  1.00  0.00     0.031 C 
ATOM     33  C   UNL A   1      38.427  28.343  28.653  1.00  0.00     0.029 A 
ATOM     34  N   UNL A   1      40.028  29.858  29.029  1.00  0.00    -0.354 N 
ATOM     35  C   UNL A   1      44.157  29.024  28.126  1.00  0.00     0.074 A 
ATOM     36  C   UNL A   1      44.316  27.679  27.610  1.00  0.00     0.031 C 
ATOM     37  C   UNL A   1      37.838  29.436  29.165  1.00  0.00     0.029 A 
ATOM     38  C   UNL A   1      38.856  30.442  29.455  1.00  0.00     0.049 A 
ATOM     39  H   UNL A   1      40.902  30.308  29.076  1.00  0.00     0.167 HD
ATOM     40  C   UNL A   1      45.174  29.910  28.290  1.00  0.00     0.034 A 
ATOM     41  C   UNL A   1      38.622  31.642  30.026  1.00  0.00     0.034 A 
ATOM     42  C   UNL A   1      45.009  31.249  28.809  1.00  0.00     0.049 A 
ATOM     43  C   UNL A   1      39.776  32.588  30.251  1.00  0.00     0.074 A 
ATOM     44  C   UNL A   1      45.971  32.232  28.978  1.00  0.00     0.029 A 
ATOM     45  N   UNL A   1      43.812  31.791  29.258  1.00  0.00    -0.354 N 
ATOM     46  N   UNL A   1      41.047  32.424  29.970  1.00  0.00    -0.248 NA
ATOM     47  C   UNL A   1      39.459  33.888  30.859  1.00  0.00     0.031 C 
ATOM     48  C   UNL A   1      45.373  33.334  29.600  1.00  0.00     0.029 A 
ATOM     49  C   UNL A   1      44.019  33.078  29.738  1.00  0.00     0.049 A 
ATOM     50  H   UNL A   1      42.941  31.331  29.238  1.00  0.00     0.167 HD
ATOM     51  C   UNL A   1      41.674  33.611  30.339  1.00  0.00     0.074 A 
ATOM     52  C   UNL A   1      40.640  34.487  30.846  1.00  0.00     0.031 C 
ATOM     53  C   UNL A   1      42.988  33.947  30.258  1.00  0.00     0.034 A 
BRANCH  40  54
ATOM     54  C   UNL A   1      46.567  29.444  27.928  1.00  0.00     0.023 A 
ATOM     55  C   UNL A   1      46.890  29.023  26.625  1.00  0.00     0.031 A 
ATOM     56  C   UNL A   1      47.584  29.406  28.899  1.00  0.00     0.131 A 
ATOM     57  C   UNL A   1      48.167  28.511  26.350  1.00  0.00     0.055 A 
ATOM     58  C   UNL A   1      48.878  28.977  28.597  1.00  0.00     0.041 A 
ATOM     59  F   UNL A   1      47.335  29.778  30.164  1.00  0.00    -0.206 F 
ATOM     60  C   UNL A   1      49.171  28.511  27.319  1.00  0.00     0.022 A 
BRANCH  57  61
ATOM     61  S   UNL A   1      48.449  27.703  24.750  1.00  0.00     0.124 S 
ATOM     62  O   UNL A   1      49.778  28.200  24.399  1.00  0.00    -0.237 OA
ATOM     63  O   UNL A   1      48.366  26.288  25.092  1.00  0.00    -0.237 OA
ATOM     64  O   UNL A   1      47.362  28.210  23.915  1.00  0.00    -0.744 OA
ENDBRANCH  57  61
ENDBRANCH  40  54
BRANCH  41  65
ATOM     65  C   UNL A   1      37.242  32.014  30.457  1.00  0.00     0.023 A 
ATOM     66  C   UNL A   1      36.348  32.646  29.577  1.00  0.00     0.031 A 
ATOM     67  C   UNL A   1      36.815  31.788  31.778  1.00  0.00     0.131 A 
ATOM     68  C   UNL A   1      35.093  33.072  30.041  1.00  0.00     0.055 A 
ATOM     69  C   UNL A   1      35.544  32.159  32.218  1.00  0.00     0.041 A 
ATOM     70  F   UNL A   1      37.630  31.190  32.662  1.00  0.00    -0.206 F 
ATOM     71  C   UNL A   1      34.678  32.818  31.351  1.00  0.00     0.022 A 
BRANCH  68  72
ATOM     72  S   UNL A   1      34.041  34.050  28.934  1.00  0.00     0.124 S 
ATOM     73  O   UNL A   1      33.577  33.037  27.993  1.00  0.00    -0.237 OA
ATOM     74  O   UNL A   1      33.040  34.579  29.856  1.00  0.00    -0.237 OA
ATOM     75  O   UNL A   1      34.960  35.043  28.380  1.00  0.00    -0.744 OA
ENDBRANCH  68  72
ENDBRANCH  41  65
BRANCH  53  76
ATOM     76  C   UNL A   1      43.374  35.344  30.690  1.00  0.00     0.023 A 
ATOM     77  C   UNL A   1      43.403  36.421  29.786  1.00  0.00     0.031 A 
ATOM     78  C   UNL A   1      43.728  35.597  32.028  1.00  0.00     0.131 A 
ATOM     79  C   UNL A   1      43.834  37.686  30.217  1.00  0.00     0.055 A 
ATOM     80  C   UNL A   1      44.093  36.872  32.465  1.00  0.00     0.041 A 
ATOM     81  F   UNL A   1      43.723  34.608  32.936  1.00  0.00    -0.206 F 
ATOM     82  C   UNL A   1      44.161  37.922  31.555  1.00  0.00     0.022 A 
BRANCH  79  83
ATOM     83  S   UNL A   1      44.056  39.000  28.985  1.00  0.00     0.124 S 
ATOM     84  O   UNL A   1      43.336  38.461  27.835  1.00  0.00    -0.237 OA
ATOM     85  O   UNL A   1      43.441  40.149  29.640  1.00  0.00    -0.237 OA
ATOM     86  O   UNL A   1      45.507  39.080  28.826  1.00  0.00    -0.744 OA
ENDBRANCH  79  83
ENDBRANCH  53  76
ENDBRANCH  27  28
ENDBRANCH  19  22
ENDBRANCH  17  18
ENDBRANCH   1  17
TORSDOF 16
ENDMDL
