MODEL 1
REMARK VINA RESULT:     -10.1      0.000      0.000
REMARK SMILES Cc1ccc(S(=O)(=O)N2CCN(C(=O)[C@H]3CCCC[C@@H]3C(=O)NCCCCNC(=O)c3ccc(-c4c5nc(c(-c6cc(S(=O)(=O)[O-])ccc6F)c6ccc([nH]6)c(-c6cc(S(=O)(=O)[O-])ccc6F)c6nc(c(-c7cc(S(=O)(=O)[O-])ccc7F)c7ccc4[nH]7)C=C6)C=C5)cc3)CC2)cc1C
REMARK SMILES IDX 25 1 24 2 23 3 21 4 22 5 20 7 15 8 16 9 17 10 19 11 18 12
REMARK SMILES IDX 13 13 9 14 10 15 95 16 11 17 94 18 12 19 14 20 6 21 7 22
REMARK SMILES IDX 8 23 5 24 1 25 2 26 3 27 97 28 4 29 96 30 98 31 26 32 27 33
REMARK SMILES IDX 28 34 29 35 30 37 31 38 32 39 93 40 33 41 92 42 34 43 35 44
REMARK SMILES IDX 36 45 86 46 37 47 91 48 85 49 87 50 38 51 90 52 84 53 83 54
REMARK SMILES IDX 39 56 71 57 51 58 70 59 52 60 55 61 69 62 88 63 53 64 54 65
REMARK SMILES IDX 68 67 89 68 56 69 40 70 41 71 49 72 42 73 48 74 50 75 47 76
REMARK SMILES IDX 43 77 44 78 45 79 46 80 72 81 73 82 81 83 74 84 80 85 82 86
REMARK SMILES IDX 79 87 75 88 76 89 77 90 78 91 57 92 58 93 66 94 59 95 65 96
REMARK SMILES IDX 67 97 64 98 60 99 61 100 62 101 63 102
REMARK H PARENT 23 6 28 36 87 55 55 66
REMARK Flexibility Score: inf
ROOT
ATOM      1  C   UNL A   1      34.337  34.901  29.181  1.00  0.00     0.023 C 
ENDROOT
BRANCH   1   2
ATOM      2  C   UNL A   1      34.187  34.167  30.504  1.00  0.00     0.116 C 
BRANCH   2   3
ATOM      3  N   UNL A   1      34.645  34.925  31.649  1.00  0.00    -0.356 N 
ATOM      4  C   UNL A   1      35.734  34.709  32.437  1.00  0.00     0.223 C 
ATOM      5  O   UNL A   1      35.922  35.489  33.372  1.00  0.00    -0.275 OA
ATOM      6  H   UNL A   1      34.093  35.703  31.892  1.00  0.00     0.163 HD
BRANCH   4   7
ATOM      7  C   UNL A   1      36.623  33.484  32.205  1.00  0.00     0.091 C 
ATOM      8  C   UNL A   1      37.402  33.107  33.512  1.00  0.00     0.091 C 
ATOM      9  C   UNL A   1      38.539  34.134  33.729  1.00  0.00     0.014 C 
ATOM     10  C   UNL A   1      39.489  34.252  32.550  1.00  0.00     0.001 C 
ATOM     11  C   UNL A   1      37.624  33.589  31.032  1.00  0.00     0.014 C 
ATOM     12  C   UNL A   1      38.730  34.601  31.284  1.00  0.00     0.001 C 
BRANCH   8  13
ATOM     13  C   UNL A   1      37.806  31.629  33.376  1.00  0.00     0.226 C 
ATOM     14  N   UNL A   1      41.293  29.881  35.056  1.00  0.00    -0.194 NA
ATOM     15  C   UNL A   1      40.848  29.536  33.697  1.00  0.00     0.124 C 
ATOM     16  C   UNL A   1      40.964  31.261  35.482  1.00  0.00     0.124 C 
ATOM     17  C   UNL A   1      39.353  29.790  33.549  1.00  0.00     0.136 C 
ATOM     18  C   UNL A   1      39.483  31.612  35.259  1.00  0.00     0.136 C 
ATOM     19  N   UNL A   1      38.951  31.141  33.973  1.00  0.00    -0.340 N 
ATOM     20  O   UNL A   1      37.092  30.848  32.733  1.00  0.00    -0.275 OA
BRANCH  14  21
ATOM     21  S   UNL A   1      41.871  28.715  36.110  1.00  0.00     0.243 S 
ATOM     22  O   UNL A   1      40.741  28.037  36.700  1.00  0.00    -0.207 OA
ATOM     23  O   UNL A   1      42.881  29.353  36.935  1.00  0.00    -0.207 OA
BRANCH  21  24
ATOM     24  C   UNL A   1      42.731  27.499  35.132  1.00  0.00     0.082 A 
ATOM     25  C   UNL A   1      44.757  24.557  32.702  1.00  0.00     0.044 C 
ATOM     26  C   UNL A   1      44.041  25.543  33.581  1.00  0.00    -0.048 A 
ATOM     27  C   UNL A   1      44.293  26.902  33.383  1.00  0.00     0.005 A 
ATOM     28  C   UNL A   1      43.116  25.158  34.574  1.00  0.00    -0.047 A 
ATOM     29  C   UNL A   1      43.634  27.859  34.147  1.00  0.00     0.022 A 
ATOM     30  C   UNL A   1      42.478  26.145  35.355  1.00  0.00     0.025 A 
ATOM     31  C   UNL A   1      42.763  23.721  34.838  1.00  0.00     0.044 C 
ENDBRANCH  21  24
ENDBRANCH  14  21
ENDBRANCH   8  13
ENDBRANCH   4   7
ENDBRANCH   2   3
ENDBRANCH   1   2
BRANCH   1  32
ATOM     32  C   UNL A   1      34.540  34.008  27.960  1.00  0.00     0.023 C 
BRANCH  32  33
ATOM     33  C   UNL A   1      35.296  32.711  28.220  1.00  0.00     0.116 C 
BRANCH  33  34
ATOM     34  N   UNL A   1      34.478  31.528  28.001  1.00  0.00    -0.352 N 
ATOM     35  C   UNL A   1      34.851  30.206  27.920  1.00  0.00     0.251 C 
ATOM     36  H   UNL A   1      33.514  31.699  27.895  1.00  0.00     0.163 HD
ATOM     37  O   UNL A   1      34.034  29.369  27.547  1.00  0.00    -0.269 OA
BRANCH  35  38
ATOM     38  C   UNL A   1      36.237  29.806  28.249  1.00  0.00     0.039 A 
ATOM     39  C   UNL A   1      37.232  29.935  27.276  1.00  0.00     0.014 A 
ATOM     40  C   UNL A   1      36.560  29.313  29.515  1.00  0.00     0.014 A 
ATOM     41  C   UNL A   1      38.559  29.641  27.600  1.00  0.00     0.010 A 
ATOM     42  C   UNL A   1      37.893  29.115  29.864  1.00  0.00     0.010 A 
ATOM     43  C   UNL A   1      38.909  29.268  28.908  1.00  0.00    -0.014 A 
BRANCH  43  44
ATOM     44  C   UNL A   1      40.324  29.004  29.288  1.00  0.00     0.031 A 
ATOM     45  C   UNL A   1      41.111  30.057  30.025  1.00  0.00     0.074 A 
ATOM     46  C   UNL A   1      40.915  27.846  28.931  1.00  0.00     0.049 A 
ATOM     47  N   UNL A   1      42.374  30.059  30.367  1.00  0.00    -0.248 NA
ATOM     48  C   UNL A   1      40.387  31.282  30.397  1.00  0.00     0.031 C 
ATOM     49  C   UNL A   1      40.272  26.764  28.181  1.00  0.00     0.029 A 
ATOM     50  N   UNL A   1      42.192  27.386  29.140  1.00  0.00    -0.354 N 
ATOM     51  C   UNL A   1      42.595  31.283  30.991  1.00  0.00     0.074 A 
ATOM     52  C   UNL A   1      41.357  32.027  30.903  1.00  0.00     0.031 C 
ATOM     53  C   UNL A   1      41.148  25.761  28.016  1.00  0.00     0.029 A 
ATOM     54  C   UNL A   1      42.431  26.143  28.598  1.00  0.00     0.049 A 
ATOM     55  H   UNL A   1      42.874  27.897  29.633  1.00  0.00     0.167 HD
ATOM     56  C   UNL A   1      43.715  31.734  31.610  1.00  0.00     0.034 A 
ATOM     57  C   UNL A   1      43.558  25.403  28.558  1.00  0.00     0.034 A 
ATOM     58  C   UNL A   1      44.941  30.979  31.694  1.00  0.00     0.049 A 
ATOM     59  C   UNL A   1      44.804  25.940  29.221  1.00  0.00     0.074 A 
ATOM     60  C   UNL A   1      46.128  31.330  32.313  1.00  0.00     0.029 A 
ATOM     61  N   UNL A   1      45.141  29.720  31.142  1.00  0.00    -0.354 N 
ATOM     62  N   UNL A   1      44.985  27.088  29.834  1.00  0.00    -0.248 NA
ATOM     63  C   UNL A   1      45.991  25.076  29.204  1.00  0.00     0.031 C 
ATOM     64  C   UNL A   1      47.064  30.318  32.076  1.00  0.00     0.029 A 
ATOM     65  C   UNL A   1      46.436  29.292  31.389  1.00  0.00     0.049 A 
ATOM     66  H   UNL A   1      44.461  29.207  30.647  1.00  0.00     0.167 HD
ATOM     67  C   UNL A   1      46.295  27.062  30.308  1.00  0.00     0.074 A 
ATOM     68  C   UNL A   1      46.848  25.780  29.925  1.00  0.00     0.031 C 
ATOM     69  C   UNL A   1      46.976  28.009  31.003  1.00  0.00     0.034 A 
BRANCH  56  70
ATOM     70  C   UNL A   1      43.658  33.109  32.232  1.00  0.00     0.023 A 
ATOM     71  C   UNL A   1      43.465  33.282  33.614  1.00  0.00     0.031 A 
ATOM     72  C   UNL A   1      43.780  34.262  31.437  1.00  0.00     0.131 A 
ATOM     73  C   UNL A   1      43.322  34.571  34.147  1.00  0.00     0.055 A 
ATOM     74  C   UNL A   1      43.726  35.544  31.988  1.00  0.00     0.041 A 
ATOM     75  F   UNL A   1      43.942  34.164  30.108  1.00  0.00    -0.206 F 
ATOM     76  C   UNL A   1      43.481  35.705  33.348  1.00  0.00     0.022 A 
BRANCH  73  77
ATOM     77  S   UNL A   1      42.779  34.740  35.870  1.00  0.00     0.124 S 
ATOM     78  O   UNL A   1      41.327  34.788  35.717  1.00  0.00    -0.237 OA
ATOM     79  O   UNL A   1      43.318  33.534  36.489  1.00  0.00    -0.237 OA
ATOM     80  O   UNL A   1      43.395  35.993  36.302  1.00  0.00    -0.744 OA
ENDBRANCH  73  77
ENDBRANCH  56  70
BRANCH  57  81
ATOM     81  C   UNL A   1      43.580  24.087  27.852  1.00  0.00     0.023 A 
ATOM     82  C   UNL A   1      44.275  23.918  26.643  1.00  0.00     0.031 A 
ATOM     83  C   UNL A   1      42.847  22.992  28.345  1.00  0.00     0.131 A 
ATOM     84  C   UNL A   1      44.171  22.709  25.937  1.00  0.00     0.055 A 
ATOM     85  C   UNL A   1      42.802  21.768  27.673  1.00  0.00     0.041 A 
ATOM     86  F   UNL A   1      42.164  23.094  29.497  1.00  0.00    -0.206 F 
ATOM     87  C   UNL A   1      43.453  21.628  26.453  1.00  0.00     0.022 A 
BRANCH  84  88
ATOM     88  S   UNL A   1      44.891  22.608  24.276  1.00  0.00     0.124 S 
ATOM     89  O   UNL A   1      45.704  23.818  24.232  1.00  0.00    -0.237 OA
ATOM     90  O   UNL A   1      45.622  21.346  24.339  1.00  0.00    -0.237 OA
ATOM     91  O   UNL A   1      43.723  22.607  23.398  1.00  0.00    -0.744 OA
ENDBRANCH  84  88
ENDBRANCH  57  81
BRANCH  69  92
ATOM     92  C   UNL A   1      48.376  27.662  31.454  1.00  0.00     0.023 A 
ATOM     93  C   UNL A   1      49.511  28.004  30.699  1.00  0.00     0.031 A 
ATOM     94  C   UNL A   1      48.572  26.964  32.661  1.00  0.00     0.131 A 
ATOM     95  C   UNL A   1      50.783  27.591  31.124  1.00  0.00     0.055 A 
ATOM     96  C   UNL A   1      49.846  26.620  33.115  1.00  0.00     0.041 A 
ATOM     97  F   UNL A   1      47.526  26.608  33.423  1.00  0.00    -0.206 F 
ATOM     98  C   UNL A   1      50.960  26.920  32.336  1.00  0.00     0.022 A 
BRANCH  95  99
ATOM     99  S   UNL A   1      52.196  27.847  30.016  1.00  0.00     0.124 S 
ATOM    100  O   UNL A   1      52.307  29.302  29.997  1.00  0.00    -0.237 OA
ATOM    101  O   UNL A   1      53.267  27.135  30.705  1.00  0.00    -0.237 OA
ATOM    102  O   UNL A   1      51.760  27.242  28.758  1.00  0.00    -0.744 OA
ENDBRANCH  95  99
ENDBRANCH  69  92
ENDBRANCH  43  44
ENDBRANCH  35  38
ENDBRANCH  33  34
ENDBRANCH  32  33
ENDBRANCH   1  32
TORSDOF 17
ENDMDL
MODEL 2
REMARK VINA RESULT:      -9.9      2.172      2.486
REMARK SMILES Cc1ccc(S(=O)(=O)N2CCN(C(=O)[C@H]3CCCC[C@@H]3C(=O)NCCCCNC(=O)c3ccc(-c4c5nc(c(-c6cc(S(=O)(=O)[O-])ccc6F)c6ccc([nH]6)c(-c6cc(S(=O)(=O)[O-])ccc6F)c6nc(c(-c7cc(S(=O)(=O)[O-])ccc7F)c7ccc4[nH]7)C=C6)C=C5)cc3)CC2)cc1C
REMARK SMILES IDX 25 1 24 2 23 3 21 4 22 5 20 7 15 8 16 9 17 10 19 11 18 12
REMARK SMILES IDX 13 13 9 14 10 15 95 16 11 17 94 18 12 19 14 20 6 21 7 22
REMARK SMILES IDX 8 23 5 24 1 25 2 26 3 27 97 28 4 29 96 30 98 31 26 32 27 33
REMARK SMILES IDX 28 34 29 35 30 37 31 38 32 39 93 40 33 41 92 42 34 43 35 44
REMARK SMILES IDX 36 45 86 46 37 47 91 48 85 49 87 50 38 51 90 52 84 53 83 54
REMARK SMILES IDX 39 56 71 57 51 58 70 59 52 60 55 61 69 62 88 63 53 64 54 65
REMARK SMILES IDX 68 67 89 68 56 69 40 70 41 71 49 72 42 73 48 74 50 75 47 76
REMARK SMILES IDX 43 77 44 78 45 79 46 80 72 81 73 82 81 83 74 84 80 85 82 86
REMARK SMILES IDX 79 87 75 88 76 89 77 90 78 91 57 92 58 93 66 94 59 95 65 96
REMARK SMILES IDX 67 97 64 98 60 99 61 100 62 101 63 102
REMARK H PARENT 23 6 28 36 87 55 55 66
REMARK Flexibility Score: inf
ROOT
ATOM      1  C   UNL A   1      34.423  35.004  29.315  1.00  0.00     0.023 C 
ENDROOT
BRANCH   1   2
ATOM      2  C   UNL A   1      34.360  34.169  30.585  1.00  0.00     0.116 C 
BRANCH   2   3
ATOM      3  N   UNL A   1      34.801  34.873  31.770  1.00  0.00    -0.356 N 
ATOM      4  C   UNL A   1      35.863  34.605  32.579  1.00  0.00     0.223 C 
ATOM      5  O   UNL A   1      36.040  35.345  33.548  1.00  0.00    -0.275 OA
ATOM      6  H   UNL A   1      34.256  35.652  32.028  1.00  0.00     0.163 HD
BRANCH   4   7
ATOM      7  C   UNL A   1      36.734  33.373  32.324  1.00  0.00     0.091 C 
ATOM      8  C   UNL A   1      37.496  32.951  33.626  1.00  0.00     0.091 C 
ATOM      9  C   UNL A   1      38.647  33.954  33.879  1.00  0.00     0.014 C 
ATOM     10  C   UNL A   1      39.609  34.087  32.711  1.00  0.00     0.001 C 
ATOM     11  C   UNL A   1      37.747  33.492  31.162  1.00  0.00     0.014 C 
ATOM     12  C   UNL A   1      38.866  34.479  31.449  1.00  0.00     0.001 C 
BRANCH   8  13
ATOM     13  C   UNL A   1      37.878  31.471  33.457  1.00  0.00     0.226 C 
ATOM     14  N   UNL A   1      41.382  29.653  35.025  1.00  0.00    -0.194 NA
ATOM     15  C   UNL A   1      40.901  29.336  33.672  1.00  0.00     0.124 C 
ATOM     16  C   UNL A   1      41.080  31.029  35.482  1.00  0.00     0.124 C 
ATOM     17  C   UNL A   1      39.406  29.610  33.563  1.00  0.00     0.136 C 
ATOM     18  C   UNL A   1      39.599  31.402  35.299  1.00  0.00     0.136 C 
ATOM     19  N   UNL A   1      39.030  30.959  34.019  1.00  0.00    -0.340 N 
ATOM     20  O   UNL A   1      37.140  30.709  32.818  1.00  0.00    -0.275 OA
BRANCH  14  21
ATOM     21  S   UNL A   1      41.969  28.462  36.047  1.00  0.00     0.243 S 
ATOM     22  O   UNL A   1      40.845  27.747  36.603  1.00  0.00    -0.207 OA
ATOM     23  O   UNL A   1      42.961  29.089  36.901  1.00  0.00    -0.207 OA
BRANCH  21  24
ATOM     24  C   UNL A   1      42.858  27.293  35.038  1.00  0.00     0.082 A 
ATOM     25  C   UNL A   1      44.955  24.464  32.534  1.00  0.00     0.044 C 
ATOM     26  C   UNL A   1      44.216  25.410  33.438  1.00  0.00    -0.048 A 
ATOM     27  C   UNL A   1      44.399  26.780  33.244  1.00  0.00     0.005 A 
ATOM     28  C   UNL A   1      43.338  24.976  34.453  1.00  0.00    -0.047 A 
ATOM     29  C   UNL A   1      43.717  27.701  34.031  1.00  0.00     0.022 A 
ATOM     30  C   UNL A   1      42.675  25.928  35.257  1.00  0.00     0.025 A 
ATOM     31  C   UNL A   1      43.059  23.523  34.716  1.00  0.00     0.044 C 
ENDBRANCH  21  24
ENDBRANCH  14  21
ENDBRANCH   8  13
ENDBRANCH   4   7
ENDBRANCH   2   3
ENDBRANCH   1   2
BRANCH   1  32
ATOM     32  C   UNL A   1      34.796  34.237  28.050  1.00  0.00     0.023 C 
BRANCH  32  33
ATOM     33  C   UNL A   1      35.442  32.876  28.279  1.00  0.00     0.116 C 
BRANCH  33  34
ATOM     34  N   UNL A   1      34.514  31.772  28.089  1.00  0.00    -0.352 N 
ATOM     35  C   UNL A   1      34.767  30.427  27.951  1.00  0.00     0.251 C 
ATOM     36  H   UNL A   1      33.563  32.026  28.056  1.00  0.00     0.163 HD
ATOM     37  O   UNL A   1      33.858  29.672  27.616  1.00  0.00    -0.269 OA
BRANCH  35  38
ATOM     38  C   UNL A   1      36.133  29.903  28.172  1.00  0.00     0.039 A 
ATOM     39  C   UNL A   1      37.074  30.001  27.143  1.00  0.00     0.014 A 
ATOM     40  C   UNL A   1      36.491  29.326  29.392  1.00  0.00     0.014 A 
ATOM     41  C   UNL A   1      38.390  29.588  27.368  1.00  0.00     0.010 A 
ATOM     42  C   UNL A   1      37.822  29.008  29.645  1.00  0.00     0.010 A 
ATOM     43  C   UNL A   1      38.788  29.126  28.633  1.00  0.00    -0.014 A 
BRANCH  43  44
ATOM     44  C   UNL A   1      40.196  28.733  28.909  1.00  0.00     0.031 A 
ATOM     45  C   UNL A   1      41.083  29.642  29.720  1.00  0.00     0.074 A 
ATOM     46  C   UNL A   1      40.694  27.591  28.392  1.00  0.00     0.049 A 
ATOM     47  N   UNL A   1      42.357  29.527  29.997  1.00  0.00    -0.248 NA
ATOM     48  C   UNL A   1      40.459  30.857  30.265  1.00  0.00     0.031 C 
ATOM     49  C   UNL A   1      39.949  26.645  27.557  1.00  0.00     0.029 A 
ATOM     50  N   UNL A   1      41.945  27.032  28.484  1.00  0.00    -0.354 N 
ATOM     51  C   UNL A   1      42.684  30.654  30.745  1.00  0.00     0.074 A 
ATOM     52  C   UNL A   1      41.496  31.477  30.804  1.00  0.00     0.031 C 
ATOM     53  C   UNL A   1      40.748  25.616  27.235  1.00  0.00     0.029 A 
ATOM     54  C   UNL A   1      42.077  25.849  27.792  1.00  0.00     0.049 A 
ATOM     55  H   UNL A   1      42.680  27.440  28.996  1.00  0.00     0.167 HD
ATOM     56  C   UNL A   1      43.857  30.960  31.354  1.00  0.00     0.034 A 
ATOM     57  C   UNL A   1      43.150  25.052  27.612  1.00  0.00     0.034 A 
ATOM     58  C   UNL A   1      45.034  30.127  31.290  1.00  0.00     0.049 A 
ATOM     59  C   UNL A   1      44.456  25.430  28.268  1.00  0.00     0.074 A 
ATOM     60  C   UNL A   1      46.267  30.330  31.884  1.00  0.00     0.029 A 
ATOM     61  N   UNL A   1      45.125  28.931  30.588  1.00  0.00    -0.354 N 
ATOM     62  N   UNL A   1      44.739  26.485  28.998  1.00  0.00    -0.248 NA
ATOM     63  C   UNL A   1      45.581  24.503  28.093  1.00  0.00     0.031 C 
ATOM     64  C   UNL A   1      47.122  29.297  31.487  1.00  0.00     0.029 A 
ATOM     65  C   UNL A   1      46.398  28.399  30.720  1.00  0.00     0.049 A 
ATOM     66  H   UNL A   1      44.392  28.522  30.073  1.00  0.00     0.167 HD
ATOM     67  C   UNL A   1      46.063  26.324  29.400  1.00  0.00     0.074 A 
ATOM     68  C   UNL A   1      46.513  25.064  28.846  1.00  0.00     0.031 C 
ATOM     69  C   UNL A   1      46.835  27.139  30.164  1.00  0.00     0.034 A 
BRANCH  56  70
ATOM     70  C   UNL A   1      43.919  32.254  32.131  1.00  0.00     0.023 A 
ATOM     71  C   UNL A   1      43.916  33.501  31.482  1.00  0.00     0.031 A 
ATOM     72  C   UNL A   1      44.001  32.245  33.535  1.00  0.00     0.131 A 
ATOM     73  C   UNL A   1      44.070  34.680  32.225  1.00  0.00     0.055 A 
ATOM     74  C   UNL A   1      44.064  33.427  34.275  1.00  0.00     0.041 A 
ATOM     75  F   UNL A   1      44.032  31.087  34.211  1.00  0.00    -0.206 F 
ATOM     76  C   UNL A   1      44.115  34.654  33.620  1.00  0.00     0.022 A 
BRANCH  73  77
ATOM     77  S   UNL A   1      44.360  36.233  31.333  1.00  0.00     0.124 S 
ATOM     78  O   UNL A   1      45.816  36.238  31.217  1.00  0.00    -0.237 OA
ATOM     79  O   UNL A   1      43.620  36.027  30.093  1.00  0.00    -0.237 OA
ATOM     80  O   UNL A   1      43.810  37.250  32.227  1.00  0.00    -0.744 OA
ENDBRANCH  73  77
ENDBRANCH  56  70
BRANCH  57  81
ATOM     81  C   UNL A   1      43.054  23.828  26.760  1.00  0.00     0.023 A 
ATOM     82  C   UNL A   1      42.328  22.701  27.180  1.00  0.00     0.031 A 
ATOM     83  C   UNL A   1      43.744  23.744  25.537  1.00  0.00     0.131 A 
ATOM     84  C   UNL A   1      42.362  21.521  26.419  1.00  0.00     0.055 A 
ATOM     85  C   UNL A   1      43.719  22.591  24.749  1.00  0.00     0.041 A 
ATOM     86  F   UNL A   1      44.453  24.791  25.083  1.00  0.00    -0.206 F 
ATOM     87  C   UNL A   1      43.039  21.465  25.199  1.00  0.00     0.022 A 
BRANCH  84  88
ATOM     88  S   UNL A   1      41.606  20.023  27.106  1.00  0.00     0.124 S 
ATOM     89  O   UNL A   1      42.768  19.324  27.643  1.00  0.00    -0.237 OA
ATOM     90  O   UNL A   1      40.678  20.575  28.088  1.00  0.00    -0.237 OA
ATOM     91  O   UNL A   1      40.981  19.395  25.944  1.00  0.00    -0.744 OA
ENDBRANCH  84  88
ENDBRANCH  57  81
BRANCH  69  92
ATOM     92  C   UNL A   1      48.227  26.657  30.502  1.00  0.00     0.023 A 
ATOM     93  C   UNL A   1      48.476  25.788  31.577  1.00  0.00     0.031 A 
ATOM     94  C   UNL A   1      49.324  27.089  29.734  1.00  0.00     0.131 A 
ATOM     95  C   UNL A   1      49.795  25.430  31.895  1.00  0.00     0.055 A 
ATOM     96  C   UNL A   1      50.627  26.672  30.011  1.00  0.00     0.041 A 
ATOM     97  F   UNL A   1      49.149  27.922  28.696  1.00  0.00    -0.206 F 
ATOM     98  C   UNL A   1      50.870  25.850  31.108  1.00  0.00     0.022 A 
BRANCH  95  99
ATOM     99  S   UNL A   1      50.100  24.497  33.421  1.00  0.00     0.124 S 
ATOM    100  O   UNL A   1      48.951  24.870  34.240  1.00  0.00    -0.237 OA
ATOM    101  O   UNL A   1      50.123  23.118  32.944  1.00  0.00    -0.237 OA
ATOM    102  O   UNL A   1      51.387  25.013  33.887  1.00  0.00    -0.744 OA
ENDBRANCH  95  99
ENDBRANCH  69  92
ENDBRANCH  43  44
ENDBRANCH  35  38
ENDBRANCH  33  34
ENDBRANCH  32  33
ENDBRANCH   1  32
TORSDOF 17
ENDMDL
MODEL 3
REMARK VINA RESULT:      -9.5      6.013     11.410
REMARK SMILES Cc1ccc(S(=O)(=O)N2CCN(C(=O)[C@H]3CCCC[C@@H]3C(=O)NCCCCNC(=O)c3ccc(-c4c5nc(c(-c6cc(S(=O)(=O)[O-])ccc6F)c6ccc([nH]6)c(-c6cc(S(=O)(=O)[O-])ccc6F)c6nc(c(-c7cc(S(=O)(=O)[O-])ccc7F)c7ccc4[nH]7)C=C6)C=C5)cc3)CC2)cc1C
REMARK SMILES IDX 25 1 24 2 23 3 21 4 22 5 20 7 15 8 16 9 17 10 19 11 18 12
REMARK SMILES IDX 13 13 9 14 10 15 95 16 11 17 94 18 12 19 14 20 6 21 7 22
REMARK SMILES IDX 8 23 5 24 1 25 2 26 3 27 97 28 4 29 96 30 98 31 26 32 27 33
REMARK SMILES IDX 28 34 29 35 30 37 31 38 32 39 93 40 33 41 92 42 34 43 35 44
REMARK SMILES IDX 36 45 86 46 37 47 91 48 85 49 87 50 38 51 90 52 84 53 83 54
REMARK SMILES IDX 39 56 71 57 51 58 70 59 52 60 55 61 69 62 88 63 53 64 54 65
REMARK SMILES IDX 68 67 89 68 56 69 40 70 41 71 49 72 42 73 48 74 50 75 47 76
REMARK SMILES IDX 43 77 44 78 45 79 46 80 72 81 73 82 81 83 74 84 80 85 82 86
REMARK SMILES IDX 79 87 75 88 76 89 77 90 78 91 57 92 58 93 66 94 59 95 65 96
REMARK SMILES IDX 67 97 64 98 60 99 61 100 62 101 63 102
REMARK H PARENT 23 6 28 36 87 55 55 66
REMARK Flexibility Score: inf
ROOT
ATOM      1  C   UNL A   1      37.918  20.981  25.453  1.00  0.00     0.023 C 
ENDROOT
BRANCH   1   2
ATOM      2  C   UNL A   1      37.022  20.094  24.603  1.00  0.00     0.116 C 
BRANCH   2   3
ATOM      3  N   UNL A   1      36.862  18.753  25.123  1.00  0.00    -0.356 N 
ATOM      4  C   UNL A   1      35.866  17.856  24.886  1.00  0.00     0.223 C 
ATOM      5  O   UNL A   1      35.936  16.765  25.453  1.00  0.00    -0.275 OA
ATOM      6  H   UNL A   1      37.571  18.448  25.734  1.00  0.00     0.163 HD
BRANCH   4   7
ATOM      7  C   UNL A   1      34.668  18.247  24.016  1.00  0.00     0.091 C 
ATOM      8  C   UNL A   1      33.637  19.096  24.837  1.00  0.00     0.091 C 
ATOM      9  C   UNL A   1      32.877  18.158  25.804  1.00  0.00     0.014 C 
ATOM     10  C   UNL A   1      32.188  16.995  25.112  1.00  0.00     0.001 C 
ATOM     11  C   UNL A   1      33.926  17.080  23.325  1.00  0.00     0.014 C 
ATOM     12  C   UNL A   1      33.185  16.186  24.306  1.00  0.00     0.001 C 
BRANCH   8  13
ATOM     13  C   UNL A   1      32.798  19.883  23.816  1.00  0.00     0.226 C 
ATOM     14  N   UNL A   1      32.482  24.115  23.654  1.00  0.00    -0.194 NA
ATOM     15  C   UNL A   1      31.305  23.256  23.453  1.00  0.00     0.124 C 
ATOM     16  C   UNL A   1      33.508  23.555  24.562  1.00  0.00     0.124 C 
ATOM     17  C   UNL A   1      31.733  21.874  22.975  1.00  0.00     0.136 C 
ATOM     18  C   UNL A   1      33.907  22.117  24.190  1.00  0.00     0.136 C 
ATOM     19  N   UNL A   1      32.769  21.263  23.825  1.00  0.00    -0.340 N 
ATOM     20  O   UNL A   1      32.144  19.280  22.955  1.00  0.00    -0.275 OA
BRANCH  14  21
ATOM     21  S   UNL A   1      32.742  25.476  22.711  1.00  0.00     0.243 S 
ATOM     22  O   UNL A   1      31.722  25.522  21.691  1.00  0.00    -0.207 OA
ATOM     23  O   UNL A   1      34.153  25.488  22.368  1.00  0.00    -0.207 OA
BRANCH  21  24
ATOM     24  C   UNL A   1      32.477  26.897  23.752  1.00  0.00     0.082 A 
ATOM     25  C   UNL A   1      31.875  30.393  26.219  1.00  0.00     0.044 C 
ATOM     26  C   UNL A   1      32.116  29.158  25.396  1.00  0.00    -0.048 A 
ATOM     27  C   UNL A   1      31.211  28.863  24.375  1.00  0.00     0.005 A 
ATOM     28  C   UNL A   1      33.222  28.305  25.596  1.00  0.00    -0.047 A 
ATOM     29  C   UNL A   1      31.404  27.751  23.563  1.00  0.00     0.022 A 
ATOM     30  C   UNL A   1      33.384  27.168  24.777  1.00  0.00     0.025 A 
ATOM     31  C   UNL A   1      34.260  28.559  26.653  1.00  0.00     0.044 C 
ENDBRANCH  21  24
ENDBRANCH  14  21
ENDBRANCH   8  13
ENDBRANCH   4   7
ENDBRANCH   2   3
ENDBRANCH   1   2
BRANCH   1  32
ATOM     32  C   UNL A   1      39.411  20.675  25.363  1.00  0.00     0.023 C 
BRANCH  32  33
ATOM     33  C   UNL A   1      39.963  19.792  26.476  1.00  0.00     0.116 C 
BRANCH  33  34
ATOM     34  N   UNL A   1      41.181  19.096  26.089  1.00  0.00    -0.352 N 
ATOM     35  C   UNL A   1      42.442  19.596  25.862  1.00  0.00     0.251 C 
ATOM     36  H   UNL A   1      41.088  18.123  25.974  1.00  0.00     0.163 HD
ATOM     37  O   UNL A   1      43.300  18.871  25.364  1.00  0.00    -0.269 OA
BRANCH  35  38
ATOM     38  C   UNL A   1      42.749  21.007  26.184  1.00  0.00     0.039 A 
ATOM     39  C   UNL A   1      42.935  21.374  27.520  1.00  0.00     0.014 A 
ATOM     40  C   UNL A   1      42.865  21.965  25.175  1.00  0.00     0.014 A 
ATOM     41  C   UNL A   1      43.309  22.684  27.831  1.00  0.00     0.010 A 
ATOM     42  C   UNL A   1      43.332  23.240  25.479  1.00  0.00     0.010 A 
ATOM     43  C   UNL A   1      43.552  23.619  26.812  1.00  0.00    -0.014 A 
BRANCH  43  44
ATOM     44  C   UNL A   1      44.005  25.003  27.119  1.00  0.00     0.031 A 
ATOM     45  C   UNL A   1      43.023  26.010  27.663  1.00  0.00     0.074 A 
ATOM     46  C   UNL A   1      45.277  25.372  26.866  1.00  0.00     0.049 A 
ATOM     47  N   UNL A   1      43.193  27.283  27.911  1.00  0.00    -0.248 NA
ATOM     48  C   UNL A   1      41.661  25.523  27.932  1.00  0.00     0.031 C 
ATOM     49  C   UNL A   1      46.313  24.502  26.304  1.00  0.00     0.029 A 
ATOM     50  N   UNL A   1      45.917  26.574  27.039  1.00  0.00    -0.354 N 
ATOM     51  C   UNL A   1      41.961  27.748  28.362  1.00  0.00     0.074 A 
ATOM     52  C   UNL A   1      41.036  26.639  28.272  1.00  0.00     0.031 C 
ATOM     53  C   UNL A   1      47.460  25.191  26.201  1.00  0.00     0.029 A 
ATOM     54  C   UNL A   1      47.235  26.565  26.639  1.00  0.00     0.049 A 
ATOM     55  H   UNL A   1      45.475  27.369  27.415  1.00  0.00     0.167 HD
ATOM     56  C   UNL A   1      41.638  28.976  28.839  1.00  0.00     0.034 A 
ATOM     57  C   UNL A   1      48.151  27.554  26.610  1.00  0.00     0.034 A 
ATOM     58  C   UNL A   1      42.572  30.072  28.928  1.00  0.00     0.049 A 
ATOM     59  C   UNL A   1      47.759  28.924  27.111  1.00  0.00     0.074 A 
ATOM     60  C   UNL A   1      42.357  31.350  29.412  1.00  0.00     0.029 A 
ATOM     61  N   UNL A   1      43.900  30.021  28.522  1.00  0.00    -0.354 N 
ATOM     62  N   UNL A   1      46.597  29.337  27.563  1.00  0.00    -0.248 NA
ATOM     63  C   UNL A   1      48.805  29.954  27.116  1.00  0.00     0.031 C 
ATOM     64  C   UNL A   1      43.531  32.090  29.236  1.00  0.00     0.029 A 
ATOM     65  C   UNL A   1      44.507  31.250  28.727  1.00  0.00     0.049 A 
ATOM     66  H   UNL A   1      44.344  29.227  28.145  1.00  0.00     0.167 HD
ATOM     67  C   UNL A   1      46.788  30.664  27.942  1.00  0.00     0.074 A 
ATOM     68  C   UNL A   1      48.178  30.973  27.681  1.00  0.00     0.031 C 
ATOM     69  C   UNL A   1      45.896  31.546  28.465  1.00  0.00     0.034 A 
BRANCH  56  70
ATOM     70  C   UNL A   1      40.212  29.192  29.290  1.00  0.00     0.023 A 
ATOM     71  C   UNL A   1      39.851  29.115  30.647  1.00  0.00     0.031 A 
ATOM     72  C   UNL A   1      39.197  29.461  28.355  1.00  0.00     0.131 A 
ATOM     73  C   UNL A   1      38.505  29.226  31.023  1.00  0.00     0.055 A 
ATOM     74  C   UNL A   1      37.871  29.659  28.746  1.00  0.00     0.041 A 
ATOM     75  F   UNL A   1      39.473  29.523  27.043  1.00  0.00    -0.206 F 
ATOM     76  C   UNL A   1      37.516  29.527  30.085  1.00  0.00     0.022 A 
BRANCH  73  77
ATOM     77  S   UNL A   1      38.049  28.825  32.732  1.00  0.00     0.124 S 
ATOM     78  O   UNL A   1      38.109  27.365  32.717  1.00  0.00    -0.237 OA
ATOM     79  O   UNL A   1      39.086  29.501  33.502  1.00  0.00    -0.237 OA
ATOM     80  O   UNL A   1      36.705  29.384  32.868  1.00  0.00    -0.744 OA
ENDBRANCH  73  77
ENDBRANCH  56  70
BRANCH  57  81
ATOM     81  C   UNL A   1      49.522  27.306  26.071  1.00  0.00     0.023 A 
ATOM     82  C   UNL A   1      49.841  27.578  24.731  1.00  0.00     0.031 A 
ATOM     83  C   UNL A   1      50.520  26.726  26.877  1.00  0.00     0.131 A 
ATOM     84  C   UNL A   1      51.098  27.214  24.221  1.00  0.00     0.055 A 
ATOM     85  C   UNL A   1      51.791  26.429  26.383  1.00  0.00     0.041 A 
ATOM     86  F   UNL A   1      50.273  26.446  28.167  1.00  0.00    -0.206 F 
ATOM     87  C   UNL A   1      52.080  26.657  25.042  1.00  0.00     0.022 A 
BRANCH  84  88
ATOM     88  S   UNL A   1      51.389  27.372  22.437  1.00  0.00     0.124 S 
ATOM     89  O   UNL A   1      52.546  26.503  22.249  1.00  0.00    -0.237 OA
ATOM     90  O   UNL A   1      50.128  26.891  21.881  1.00  0.00    -0.237 OA
ATOM     91  O   UNL A   1      51.643  28.799  22.259  1.00  0.00    -0.744 OA
ENDBRANCH  84  88
ENDBRANCH  57  81
BRANCH  69  92
ATOM     92  C   UNL A   1      46.420  32.909  28.854  1.00  0.00     0.023 A 
ATOM     93  C   UNL A   1      46.358  34.010  27.983  1.00  0.00     0.031 A 
ATOM     94  C   UNL A   1      47.002  33.101  30.121  1.00  0.00     0.131 A 
ATOM     95  C   UNL A   1      46.927  35.235  28.364  1.00  0.00     0.055 A 
ATOM     96  C   UNL A   1      47.501  34.342  30.522  1.00  0.00     0.041 A 
ATOM     97  F   UNL A   1      47.091  32.086  30.995  1.00  0.00    -0.206 F 
ATOM     98  C   UNL A   1      47.480  35.413  29.634  1.00  0.00     0.022 A 
BRANCH  95  99
ATOM     99  S   UNL A   1      47.035  36.564  27.134  1.00  0.00     0.124 S 
ATOM    100  O   UNL A   1      48.000  37.470  27.749  1.00  0.00    -0.237 OA
ATOM    101  O   UNL A   1      47.496  35.853  25.946  1.00  0.00    -0.237 OA
ATOM    102  O   UNL A   1      45.667  37.073  27.059  1.00  0.00    -0.744 OA
ENDBRANCH  95  99
ENDBRANCH  69  92
ENDBRANCH  43  44
ENDBRANCH  35  38
ENDBRANCH  33  34
ENDBRANCH  32  33
ENDBRANCH   1  32
TORSDOF 17
ENDMDL
