MODEL 1
REMARK VINA RESULT:     -12.8      0.000      0.000
REMARK SMILES CSc1ccc(/C=C2\C(C)=C(CC(=O)NCCCCNC(=O)c3ccc(-c4c5nc(c(-c6cc(S(=O)(=O)[O-])ccc6F)c6ccc([nH]6)c(-c6cc(S(=O)(=O)[O-])ccc6F)c6nc(c(-c7cc(S(=O)(=O)[O-])ccc7F)c7ccc4[nH]7)C=C6)C=C5)cc3)c3cc(F)ccc32)cc1
REMARK SMILES IDX 17 1 16 2 15 3 13 4 14 5 12 7 11 8 7 9 8 10 9 11 92 12 10 13
REMARK SMILES IDX 86 14 91 15 87 16 90 17 88 18 89 19 6 20 3 21 4 22 94 23
REMARK SMILES IDX 5 24 93 25 2 26 1 27 18 28 19 29 20 30 21 31 22 33 23 34
REMARK SMILES IDX 24 35 85 36 25 37 84 38 26 39 27 40 28 41 78 42 29 43 83 44
REMARK SMILES IDX 77 45 79 46 30 47 82 48 76 49 75 50 31 52 63 53 43 54 62 55
REMARK SMILES IDX 44 56 47 57 61 58 80 59 45 60 46 61 60 63 81 64 48 65 32 66
REMARK SMILES IDX 33 67 41 68 34 69 40 70 42 71 39 72 35 73 36 74 37 75 38 76
REMARK SMILES IDX 64 77 65 78 73 79 66 80 72 81 74 82 71 83 67 84 68 85 69 86
REMARK SMILES IDX 70 87 49 88 50 89 58 90 51 91 57 92 59 93 56 94 52 95 53 96
REMARK SMILES IDX 54 97 55 98
REMARK H PARENT 15 6 20 32 79 51 47 62
REMARK Flexibility Score: inf
ROOT
ATOM      1  C   UNL A   1      32.116  27.315  26.869  1.00  0.00     0.023 C 
ENDROOT
BRANCH   1   2
ATOM      2  C   UNL A   1      31.417  26.440  25.831  1.00  0.00     0.116 C 
BRANCH   2   3
ATOM      3  N   UNL A   1      30.751  25.312  26.447  1.00  0.00    -0.356 N 
ATOM      4  C   UNL A   1      31.310  24.122  26.821  1.00  0.00     0.224 C 
ATOM      5  O   UNL A   1      30.584  23.222  27.246  1.00  0.00    -0.275 OA
ATOM      6  H   UNL A   1      29.785  25.413  26.616  1.00  0.00     0.163 HD
BRANCH   4   7
ATOM      7  C   UNL A   1      32.811  23.946  26.707  1.00  0.00     0.136 C 
BRANCH   7   8
ATOM      8  C   UNL A   1      33.153  23.224  25.419  1.00  0.00    -0.027 C 
ATOM      9  C   UNL A   1      34.427  25.791  23.518  1.00  0.00     0.017 C 
ATOM     10  C   UNL A   1      34.279  24.559  24.030  1.00  0.00    -0.014 C 
ATOM     11  C   UNL A   1      33.021  23.807  24.192  1.00  0.00    -0.039 C 
ATOM     12  C   UNL A   1      35.303  23.633  24.570  1.00  0.00    -0.010 A 
ATOM     13  C   UNL A   1      32.832  22.886  22.962  1.00  0.00     0.045 C 
ATOM     14  C   UNL A   1      34.550  22.743  25.370  1.00  0.00    -0.011 A 
ATOM     15  C   UNL A   1      36.480  23.212  23.973  1.00  0.00     0.012 A 
ATOM     16  C   UNL A   1      34.931  21.430  25.589  1.00  0.00     0.048 A 
ATOM     17  C   UNL A   1      36.857  21.873  24.162  1.00  0.00     0.040 A 
ATOM     18  C   UNL A   1      36.084  21.003  24.949  1.00  0.00     0.123 A 
ATOM     19  F   UNL A   1      36.397  19.700  24.981  1.00  0.00    -0.207 F 
BRANCH   9  20
ATOM     20  C   UNL A   1      33.472  26.571  22.677  1.00  0.00    -0.025 A 
ATOM     21  C   UNL A   1      30.949  27.728  22.514  1.00  0.00     0.007 A 
ATOM     22  C   UNL A   1      32.045  28.525  22.813  1.00  0.00     0.015 A 
ATOM     23  C   UNL A   1      31.153  26.449  21.999  1.00  0.00     0.015 A 
ATOM     24  C   UNL A   1      33.312  27.952  22.832  1.00  0.00     0.009 A 
ATOM     25  C   UNL A   1      32.421  25.867  22.080  1.00  0.00     0.009 A 
BRANCH  21  26
ATOM     26  S   UNL A   1      29.339  28.207  23.105  1.00  0.00    -0.130 SA
ATOM     27  C   UNL A   1      29.366  29.907  22.435  1.00  0.00     0.091 C 
ENDBRANCH  21  26
ENDBRANCH   9  20
ENDBRANCH   7   8
ENDBRANCH   4   7
ENDBRANCH   2   3
ENDBRANCH   1   2
BRANCH   1  28
ATOM     28  C   UNL A   1      31.864  28.808  26.777  1.00  0.00     0.023 C 
BRANCH  28  29
ATOM     29  C   UNL A   1      33.114  29.625  26.558  1.00  0.00     0.116 C 
BRANCH  29  30
ATOM     30  N   UNL A   1      32.933  31.037  26.857  1.00  0.00    -0.352 N 
ATOM     31  C   UNL A   1      33.774  31.856  27.579  1.00  0.00     0.251 C 
ATOM     32  H   UNL A   1      32.116  31.455  26.502  1.00  0.00     0.163 HD
ATOM     33  O   UNL A   1      33.454  32.995  27.848  1.00  0.00    -0.269 OA
BRANCH  31  34
ATOM     34  C   UNL A   1      35.044  31.271  28.055  1.00  0.00     0.039 A 
ATOM     35  C   UNL A   1      36.203  32.041  27.981  1.00  0.00     0.014 A 
ATOM     36  C   UNL A   1      35.048  30.018  28.672  1.00  0.00     0.014 A 
ATOM     37  C   UNL A   1      37.370  31.565  28.576  1.00  0.00     0.010 A 
ATOM     38  C   UNL A   1      36.176  29.600  29.357  1.00  0.00     0.010 A 
ATOM     39  C   UNL A   1      37.355  30.356  29.293  1.00  0.00    -0.014 A 
BRANCH  39  40
ATOM     40  C   UNL A   1      38.583  29.835  29.937  1.00  0.00     0.031 A 
ATOM     41  C   UNL A   1      38.993  30.368  31.281  1.00  0.00     0.074 A 
ATOM     42  C   UNL A   1      39.352  28.941  29.288  1.00  0.00     0.049 A 
ATOM     43  N   UNL A   1      40.052  30.092  31.995  1.00  0.00    -0.248 NA
ATOM     44  C   UNL A   1      38.114  31.385  31.877  1.00  0.00     0.031 C 
ATOM     45  C   UNL A   1      39.088  28.412  27.947  1.00  0.00     0.029 A 
ATOM     46  N   UNL A   1      40.515  28.324  29.665  1.00  0.00    -0.354 N 
ATOM     47  C   UNL A   1      39.974  30.914  33.114  1.00  0.00     0.074 A 
ATOM     48  C   UNL A   1      38.817  31.762  32.931  1.00  0.00     0.031 C 
ATOM     49  C   UNL A   1      40.050  27.534  27.625  1.00  0.00     0.029 A 
ATOM     50  C   UNL A   1      41.015  27.464  28.717  1.00  0.00     0.049 A 
ATOM     51  H   UNL A   1      40.953  28.483  30.533  1.00  0.00     0.167 HD
ATOM     52  C   UNL A   1      40.771  30.932  34.211  1.00  0.00     0.034 A 
ATOM     53  C   UNL A   1      42.131  26.708  28.729  1.00  0.00     0.034 A 
ATOM     54  C   UNL A   1      41.914  30.066  34.369  1.00  0.00     0.049 A 
ATOM     55  C   UNL A   1      43.002  26.728  29.957  1.00  0.00     0.074 A 
ATOM     56  C   UNL A   1      42.762  29.944  35.454  1.00  0.00     0.029 A 
ATOM     57  N   UNL A   1      42.375  29.179  33.402  1.00  0.00    -0.354 N 
ATOM     58  N   UNL A   1      42.878  27.452  31.047  1.00  0.00    -0.248 NA
ATOM     59  C   UNL A   1      44.149  25.814  29.966  1.00  0.00     0.031 C 
ATOM     60  C   UNL A   1      43.774  29.037  35.117  1.00  0.00     0.029 A 
ATOM     61  C   UNL A   1      43.514  28.529  33.854  1.00  0.00     0.049 A 
ATOM     62  H   UNL A   1      41.954  29.033  32.524  1.00  0.00     0.167 HD
ATOM     63  C   UNL A   1      43.920  27.064  31.882  1.00  0.00     0.074 A 
ATOM     64  C   UNL A   1      44.651  26.030  31.174  1.00  0.00     0.031 C 
ATOM     65  C   UNL A   1      44.242  27.514  33.123  1.00  0.00     0.034 A 
BRANCH  52  66
ATOM     66  C   UNL A   1      40.432  31.938  35.289  1.00  0.00     0.023 A 
ATOM     67  C   UNL A   1      39.486  31.653  36.293  1.00  0.00     0.031 A 
ATOM     68  C   UNL A   1      40.989  33.228  35.266  1.00  0.00     0.131 A 
ATOM     69  C   UNL A   1      39.039  32.673  37.146  1.00  0.00     0.055 A 
ATOM     70  C   UNL A   1      40.617  34.209  36.189  1.00  0.00     0.041 A 
ATOM     71  F   UNL A   1      41.881  33.572  34.323  1.00  0.00    -0.206 F 
ATOM     72  C   UNL A   1      39.618  33.942  37.121  1.00  0.00     0.022 A 
BRANCH  69  73
ATOM     73  S   UNL A   1      37.550  32.372  38.142  1.00  0.00     0.124 S 
ATOM     74  O   UNL A   1      37.418  30.919  38.042  1.00  0.00    -0.237 OA
ATOM     75  O   UNL A   1      37.935  32.891  39.449  1.00  0.00    -0.237 OA
ATOM     76  O   UNL A   1      36.514  33.132  37.445  1.00  0.00    -0.744 OA
ENDBRANCH  69  73
ENDBRANCH  52  66
BRANCH  53  77
ATOM     77  C   UNL A   1      42.475  25.877  27.542  1.00  0.00     0.023 A 
ATOM     78  C   UNL A   1      42.080  24.533  27.451  1.00  0.00     0.031 A 
ATOM     79  C   UNL A   1      43.199  26.428  26.469  1.00  0.00     0.131 A 
ATOM     80  C   UNL A   1      42.436  23.775  26.324  1.00  0.00     0.055 A 
ATOM     81  C   UNL A   1      43.513  25.682  25.331  1.00  0.00     0.041 A 
ATOM     82  F   UNL A   1      43.587  27.712  26.501  1.00  0.00    -0.206 F 
ATOM     83  C   UNL A   1      43.138  24.345  25.258  1.00  0.00     0.022 A 
BRANCH  80  84
ATOM     84  S   UNL A   1      42.001  22.015  26.284  1.00  0.00     0.124 S 
ATOM     85  O   UNL A   1      42.826  21.529  25.184  1.00  0.00    -0.237 OA
ATOM     86  O   UNL A   1      42.391  21.576  27.621  1.00  0.00    -0.237 OA
ATOM     87  O   UNL A   1      40.562  22.025  26.029  1.00  0.00    -0.744 OA
ENDBRANCH  80  84
ENDBRANCH  53  77
BRANCH  65  88
ATOM     88  C   UNL A   1      45.420  26.859  33.803  1.00  0.00     0.023 A 
ATOM     89  C   UNL A   1      45.268  25.726  34.622  1.00  0.00     0.031 A 
ATOM     90  C   UNL A   1      46.713  27.384  33.636  1.00  0.00     0.131 A 
ATOM     91  C   UNL A   1      46.380  25.193  35.291  1.00  0.00     0.055 A 
ATOM     92  C   UNL A   1      47.826  26.810  34.251  1.00  0.00     0.041 A 
ATOM     93  F   UNL A   1      46.918  28.467  32.868  1.00  0.00    -0.206 F 
ATOM     94  C   UNL A   1      47.660  25.717  35.096  1.00  0.00     0.022 A 
BRANCH  91  95
ATOM     95  S   UNL A   1      46.115  23.871  36.504  1.00  0.00     0.124 S 
ATOM     96  O   UNL A   1      45.326  22.912  35.739  1.00  0.00    -0.237 OA
ATOM     97  O   UNL A   1      47.479  23.464  36.824  1.00  0.00    -0.237 OA
ATOM     98  O   UNL A   1      45.397  24.540  37.588  1.00  0.00    -0.744 OA
ENDBRANCH  91  95
ENDBRANCH  65  88
ENDBRANCH  39  40
ENDBRANCH  31  34
ENDBRANCH  29  30
ENDBRANCH  28  29
ENDBRANCH   1  28
TORSDOF 17
ENDMDL
MODEL 2
REMARK VINA RESULT:     -12.7      1.969      2.325
REMARK SMILES CSc1ccc(/C=C2\C(C)=C(CC(=O)NCCCCNC(=O)c3ccc(-c4c5nc(c(-c6cc(S(=O)(=O)[O-])ccc6F)c6ccc([nH]6)c(-c6cc(S(=O)(=O)[O-])ccc6F)c6nc(c(-c7cc(S(=O)(=O)[O-])ccc7F)c7ccc4[nH]7)C=C6)C=C5)cc3)c3cc(F)ccc32)cc1
REMARK SMILES IDX 17 1 16 2 15 3 13 4 14 5 12 7 11 8 7 9 8 10 9 11 92 12 10 13
REMARK SMILES IDX 86 14 91 15 87 16 90 17 88 18 89 19 6 20 3 21 4 22 94 23
REMARK SMILES IDX 5 24 93 25 2 26 1 27 18 28 19 29 20 30 21 31 22 33 23 34
REMARK SMILES IDX 24 35 85 36 25 37 84 38 26 39 27 40 28 41 78 42 29 43 83 44
REMARK SMILES IDX 77 45 79 46 30 47 82 48 76 49 75 50 31 52 63 53 43 54 62 55
REMARK SMILES IDX 44 56 47 57 61 58 80 59 45 60 46 61 60 63 81 64 48 65 32 66
REMARK SMILES IDX 33 67 41 68 34 69 40 70 42 71 39 72 35 73 36 74 37 75 38 76
REMARK SMILES IDX 64 77 65 78 73 79 66 80 72 81 74 82 71 83 67 84 68 85 69 86
REMARK SMILES IDX 70 87 49 88 50 89 58 90 51 91 57 92 59 93 56 94 52 95 53 96
REMARK SMILES IDX 54 97 55 98
REMARK H PARENT 15 6 20 32 79 51 47 62
REMARK Flexibility Score: inf
ROOT
ATOM      1  C   UNL A   1      32.217  27.554  26.405  1.00  0.00     0.023 C 
ENDROOT
BRANCH   1   2
ATOM      2  C   UNL A   1      32.515  26.128  26.863  1.00  0.00     0.116 C 
BRANCH   2   3
ATOM      3  N   UNL A   1      31.362  25.267  26.706  1.00  0.00    -0.356 N 
ATOM      4  C   UNL A   1      31.352  23.904  26.606  1.00  0.00     0.224 C 
ATOM      5  O   UNL A   1      30.290  23.323  26.377  1.00  0.00    -0.275 OA
ATOM      6  H   UNL A   1      30.485  25.714  26.666  1.00  0.00     0.163 HD
BRANCH   4   7
ATOM      7  C   UNL A   1      32.651  23.142  26.785  1.00  0.00     0.136 C 
BRANCH   7   8
ATOM      8  C   UNL A   1      33.082  22.533  25.467  1.00  0.00    -0.027 C 
ATOM      9  C   UNL A   1      34.039  25.328  23.706  1.00  0.00     0.017 C 
ATOM     10  C   UNL A   1      34.041  24.063  24.156  1.00  0.00    -0.014 C 
ATOM     11  C   UNL A   1      32.884  23.156  24.269  1.00  0.00    -0.039 C 
ATOM     12  C   UNL A   1      35.169  23.243  24.658  1.00  0.00    -0.010 A 
ATOM     13  C   UNL A   1      32.812  22.281  22.993  1.00  0.00     0.045 C 
ATOM     14  C   UNL A   1      34.528  22.229  25.407  1.00  0.00    -0.011 A 
ATOM     15  C   UNL A   1      36.390  22.999  24.052  1.00  0.00     0.012 A 
ATOM     16  C   UNL A   1      35.066  20.963  25.564  1.00  0.00     0.048 A 
ATOM     17  C   UNL A   1      36.928  21.708  24.179  1.00  0.00     0.040 A 
ATOM     18  C   UNL A   1      36.265  20.712  24.915  1.00  0.00     0.123 A 
ATOM     19  F   UNL A   1      36.734  19.457  24.885  1.00  0.00    -0.207 F 
BRANCH   9  20
ATOM     20  C   UNL A   1      32.998  26.026  22.896  1.00  0.00    -0.025 A 
ATOM     21  C   UNL A   1      31.077  28.035  22.839  1.00  0.00     0.007 A 
ATOM     22  C   UNL A   1      32.323  28.269  22.274  1.00  0.00     0.015 A 
ATOM     23  C   UNL A   1      30.696  26.728  23.140  1.00  0.00     0.015 A 
ATOM     24  C   UNL A   1      33.258  27.240  22.251  1.00  0.00     0.009 A 
ATOM     25  C   UNL A   1      31.661  25.718  23.168  1.00  0.00     0.009 A 
BRANCH  21  26
ATOM     26  S   UNL A   1      30.141  29.409  23.479  1.00  0.00    -0.130 SA
ATOM     27  C   UNL A   1      29.089  29.652  22.004  1.00  0.00     0.091 C 
ENDBRANCH  21  26
ENDBRANCH   9  20
ENDBRANCH   7   8
ENDBRANCH   4   7
ENDBRANCH   2   3
ENDBRANCH   1   2
BRANCH   1  28
ATOM     28  C   UNL A   1      33.380  28.333  25.818  1.00  0.00     0.023 C 
BRANCH  28  29
ATOM     29  C   UNL A   1      34.270  28.974  26.854  1.00  0.00     0.116 C 
BRANCH  29  30
ATOM     30  N   UNL A   1      33.877  30.335  27.182  1.00  0.00    -0.352 N 
ATOM     31  C   UNL A   1      34.522  31.216  28.022  1.00  0.00     0.251 C 
ATOM     32  H   UNL A   1      33.055  30.665  26.753  1.00  0.00     0.163 HD
ATOM     33  O   UNL A   1      34.031  32.291  28.295  1.00  0.00    -0.269 OA
BRANCH  31  34
ATOM     34  C   UNL A   1      35.799  30.771  28.617  1.00  0.00     0.039 A 
ATOM     35  C   UNL A   1      35.763  29.904  29.707  1.00  0.00     0.014 A 
ATOM     36  C   UNL A   1      37.010  31.124  28.016  1.00  0.00     0.014 A 
ATOM     37  C   UNL A   1      36.955  29.349  30.169  1.00  0.00     0.010 A 
ATOM     38  C   UNL A   1      38.175  30.486  28.405  1.00  0.00     0.010 A 
ATOM     39  C   UNL A   1      38.163  29.613  29.503  1.00  0.00    -0.014 A 
BRANCH  39  40
ATOM     40  C   UNL A   1      39.440  29.030  29.976  1.00  0.00     0.031 A 
ATOM     41  C   UNL A   1      40.146  29.654  31.146  1.00  0.00     0.074 A 
ATOM     42  C   UNL A   1      39.987  27.992  29.316  1.00  0.00     0.049 A 
ATOM     43  N   UNL A   1      41.294  29.339  31.686  1.00  0.00    -0.248 NA
ATOM     44  C   UNL A   1      39.492  30.819  31.760  1.00  0.00     0.031 C 
ATOM     45  C   UNL A   1      39.424  27.357  28.121  1.00  0.00     0.029 A 
ATOM     46  N   UNL A   1      41.141  27.294  29.551  1.00  0.00    -0.354 N 
ATOM     47  C   UNL A   1      41.505  30.279  32.690  1.00  0.00     0.074 A 
ATOM     48  C   UNL A   1      40.415  31.226  32.614  1.00  0.00     0.031 C 
ATOM     49  C   UNL A   1      40.225  26.347  27.744  1.00  0.00     0.029 A 
ATOM     50  C   UNL A   1      41.372  26.287  28.644  1.00  0.00     0.049 A 
ATOM     51  H   UNL A   1      41.749  27.494  30.299  1.00  0.00     0.167 HD
ATOM     52  C   UNL A   1      42.496  30.325  33.614  1.00  0.00     0.034 A 
ATOM     53  C   UNL A   1      42.396  25.418  28.550  1.00  0.00     0.034 A 
ATOM     54  C   UNL A   1      43.566  29.359  33.671  1.00  0.00     0.049 A 
ATOM     55  C   UNL A   1      43.485  25.471  29.588  1.00  0.00     0.074 A 
ATOM     56  C   UNL A   1      44.592  29.259  34.592  1.00  0.00     0.029 A 
ATOM     57  N   UNL A   1      43.752  28.328  32.756  1.00  0.00    -0.354 N 
ATOM     58  N   UNL A   1      43.638  26.316  30.583  1.00  0.00    -0.248 NA
ATOM     59  C   UNL A   1      44.527  24.441  29.504  1.00  0.00     0.031 C 
ATOM     60  C   UNL A   1      45.436  28.215  34.195  1.00  0.00     0.029 A 
ATOM     61  C   UNL A   1      44.894  27.607  33.073  1.00  0.00     0.049 A 
ATOM     62  H   UNL A   1      43.159  28.138  31.994  1.00  0.00     0.167 HD
ATOM     63  C   UNL A   1      44.782  25.906  31.259  1.00  0.00     0.074 A 
ATOM     64  C   UNL A   1      45.268  24.727  30.566  1.00  0.00     0.031 C 
ATOM     65  C   UNL A   1      45.375  26.446  32.356  1.00  0.00     0.034 A 
BRANCH  52  66
ATOM     66  C   UNL A   1      42.461  31.471  34.602  1.00  0.00     0.023 A 
ATOM     67  C   UNL A   1      41.574  31.476  35.696  1.00  0.00     0.031 A 
ATOM     68  C   UNL A   1      43.255  32.613  34.402  1.00  0.00     0.131 A 
ATOM     69  C   UNL A   1      41.416  32.637  36.467  1.00  0.00     0.055 A 
ATOM     70  C   UNL A   1      43.169  33.727  35.240  1.00  0.00     0.041 A 
ATOM     71  F   UNL A   1      44.107  32.682  33.366  1.00  0.00    -0.206 F 
ATOM     72  C   UNL A   1      42.227  33.754  36.265  1.00  0.00     0.022 A 
BRANCH  69  73
ATOM     73  S   UNL A   1      39.995  32.736  37.593  1.00  0.00     0.124 S 
ATOM     74  O   UNL A   1      39.589  34.131  37.433  1.00  0.00    -0.237 OA
ATOM     75  O   UNL A   1      39.085  31.739  37.041  1.00  0.00    -0.237 OA
ATOM     76  O   UNL A   1      40.569  32.409  38.897  1.00  0.00    -0.744 OA
ENDBRANCH  69  73
ENDBRANCH  52  66
BRANCH  53  77
ATOM     77  C   UNL A   1      42.431  24.432  27.433  1.00  0.00     0.023 A 
ATOM     78  C   UNL A   1      41.707  23.232  27.495  1.00  0.00     0.031 A 
ATOM     79  C   UNL A   1      43.187  24.690  26.275  1.00  0.00     0.131 A 
ATOM     80  C   UNL A   1      41.775  22.319  26.431  1.00  0.00     0.055 A 
ATOM     81  C   UNL A   1      43.217  23.799  25.201  1.00  0.00     0.041 A 
ATOM     82  F   UNL A   1      43.885  25.830  26.161  1.00  0.00    -0.206 F 
ATOM     83  C   UNL A   1      42.515  22.601  25.279  1.00  0.00     0.022 A 
BRANCH  80  84
ATOM     84  S   UNL A   1      40.912  20.732  26.586  1.00  0.00     0.124 S 
ATOM     85  O   UNL A   1      41.735  19.861  25.754  1.00  0.00    -0.237 OA
ATOM     86  O   UNL A   1      40.975  20.492  28.025  1.00  0.00    -0.237 OA
ATOM     87  O   UNL A   1      39.578  21.016  26.063  1.00  0.00    -0.744 OA
ENDBRANCH  80  84
ENDBRANCH  53  77
BRANCH  65  88
ATOM     88  C   UNL A   1      46.598  25.740  32.889  1.00  0.00     0.023 A 
ATOM     89  C   UNL A   1      47.883  25.994  32.380  1.00  0.00     0.031 A 
ATOM     90  C   UNL A   1      46.470  24.789  33.918  1.00  0.00     0.131 A 
ATOM     91  C   UNL A   1      48.980  25.262  32.857  1.00  0.00     0.055 A 
ATOM     92  C   UNL A   1      47.575  24.112  34.435  1.00  0.00     0.041 A 
ATOM     93  F   UNL A   1      45.266  24.504  34.440  1.00  0.00    -0.206 F 
ATOM     94  C   UNL A   1      48.838  24.336  33.893  1.00  0.00     0.022 A 
BRANCH  91  95
ATOM     95  S   UNL A   1      50.583  25.459  32.031  1.00  0.00     0.124 S 
ATOM     96  O   UNL A   1      50.483  24.494  30.941  1.00  0.00    -0.237 OA
ATOM     97  O   UNL A   1      50.564  26.865  31.642  1.00  0.00    -0.237 OA
ATOM     98  O   UNL A   1      51.550  25.117  33.074  1.00  0.00    -0.744 OA
ENDBRANCH  91  95
ENDBRANCH  65  88
ENDBRANCH  39  40
ENDBRANCH  31  34
ENDBRANCH  29  30
ENDBRANCH  28  29
ENDBRANCH   1  28
TORSDOF 17
ENDMDL
MODEL 3
REMARK VINA RESULT:     -12.6      5.205      8.174
REMARK SMILES CSc1ccc(/C=C2\C(C)=C(CC(=O)NCCCCNC(=O)c3ccc(-c4c5nc(c(-c6cc(S(=O)(=O)[O-])ccc6F)c6ccc([nH]6)c(-c6cc(S(=O)(=O)[O-])ccc6F)c6nc(c(-c7cc(S(=O)(=O)[O-])ccc7F)c7ccc4[nH]7)C=C6)C=C5)cc3)c3cc(F)ccc32)cc1
REMARK SMILES IDX 17 1 16 2 15 3 13 4 14 5 12 7 11 8 7 9 8 10 9 11 92 12 10 13
REMARK SMILES IDX 86 14 91 15 87 16 90 17 88 18 89 19 6 20 3 21 4 22 94 23
REMARK SMILES IDX 5 24 93 25 2 26 1 27 18 28 19 29 20 30 21 31 22 33 23 34
REMARK SMILES IDX 24 35 85 36 25 37 84 38 26 39 27 40 28 41 78 42 29 43 83 44
REMARK SMILES IDX 77 45 79 46 30 47 82 48 76 49 75 50 31 52 63 53 43 54 62 55
REMARK SMILES IDX 44 56 47 57 61 58 80 59 45 60 46 61 60 63 81 64 48 65 32 66
REMARK SMILES IDX 33 67 41 68 34 69 40 70 42 71 39 72 35 73 36 74 37 75 38 76
REMARK SMILES IDX 64 77 65 78 73 79 66 80 72 81 74 82 71 83 67 84 68 85 69 86
REMARK SMILES IDX 70 87 49 88 50 89 58 90 51 91 57 92 59 93 56 94 52 95 53 96
REMARK SMILES IDX 54 97 55 98
REMARK H PARENT 15 6 20 32 79 51 47 62
REMARK Flexibility Score: inf
ROOT
ATOM      1  C   UNL A   1      37.347  21.295  24.509  1.00  0.00     0.023 C 
ENDROOT
BRANCH   1   2
ATOM      2  C   UNL A   1      37.399  22.514  25.428  1.00  0.00     0.116 C 
BRANCH   2   3
ATOM      3  N   UNL A   1      36.418  22.423  26.489  1.00  0.00    -0.356 N 
ATOM      4  C   UNL A   1      35.251  23.125  26.603  1.00  0.00     0.224 C 
ATOM      5  O   UNL A   1      34.569  23.002  27.621  1.00  0.00    -0.275 OA
ATOM      6  H   UNL A   1      36.614  21.781  27.211  1.00  0.00     0.163 HD
BRANCH   4   7
ATOM      7  C   UNL A   1      34.826  24.036  25.467  1.00  0.00     0.136 C 
BRANCH   7   8
ATOM      8  C   UNL A   1      33.404  23.719  25.052  1.00  0.00    -0.027 C 
ATOM      9  C   UNL A   1      33.153  25.464  22.099  1.00  0.00     0.017 C 
ATOM     10  C   UNL A   1      32.984  24.480  22.997  1.00  0.00    -0.014 C 
ATOM     11  C   UNL A   1      32.606  24.623  24.415  1.00  0.00    -0.039 C 
ATOM     12  C   UNL A   1      33.133  23.015  22.829  1.00  0.00    -0.010 A 
ATOM     13  C   UNL A   1      31.071  24.458  24.537  1.00  0.00     0.045 C 
ATOM     14  C   UNL A   1      33.304  22.549  24.153  1.00  0.00    -0.011 A 
ATOM     15  C   UNL A   1      32.559  22.199  21.869  1.00  0.00     0.012 A 
ATOM     16  C   UNL A   1      32.907  21.287  24.558  1.00  0.00     0.048 A 
ATOM     17  C   UNL A   1      32.123  20.928  22.278  1.00  0.00     0.040 A 
ATOM     18  C   UNL A   1      32.290  20.493  23.604  1.00  0.00     0.123 A 
ATOM     19  F   UNL A   1      31.727  19.339  23.987  1.00  0.00    -0.207 F 
BRANCH   9  20
ATOM     20  C   UNL A   1      32.682  26.879  22.168  1.00  0.00    -0.025 A 
ATOM     21  C   UNL A   1      31.926  28.985  23.817  1.00  0.00     0.007 A 
ATOM     22  C   UNL A   1      33.210  28.960  23.290  1.00  0.00     0.015 A 
ATOM     23  C   UNL A   1      30.950  28.149  23.279  1.00  0.00     0.015 A 
ATOM     24  C   UNL A   1      33.563  27.937  22.417  1.00  0.00     0.009 A 
ATOM     25  C   UNL A   1      31.329  27.090  22.450  1.00  0.00     0.009 A 
BRANCH  21  26
ATOM     26  S   UNL A   1      31.638  29.815  25.367  1.00  0.00    -0.130 SA
ATOM     27  C   UNL A   1      31.671  28.319  26.416  1.00  0.00     0.091 C 
ENDBRANCH  21  26
ENDBRANCH   9  20
ENDBRANCH   7   8
ENDBRANCH   4   7
ENDBRANCH   2   3
ENDBRANCH   1   2
BRANCH   1  28
ATOM     28  C   UNL A   1      38.090  20.059  24.980  1.00  0.00     0.023 C 
BRANCH  28  29
ATOM     29  C   UNL A   1      39.261  20.360  25.885  1.00  0.00     0.116 C 
BRANCH  29  30
ATOM     30  N   UNL A   1      40.200  19.255  25.989  1.00  0.00    -0.352 N 
ATOM     31  C   UNL A   1      41.557  19.325  26.216  1.00  0.00     0.251 C 
ATOM     32  H   UNL A   1      39.822  18.351  25.885  1.00  0.00     0.163 HD
ATOM     33  O   UNL A   1      42.249  18.330  26.174  1.00  0.00    -0.269 OA
BRANCH  31  34
ATOM     34  C   UNL A   1      42.135  20.664  26.452  1.00  0.00     0.039 A 
ATOM     35  C   UNL A   1      42.369  21.494  25.358  1.00  0.00     0.014 A 
ATOM     36  C   UNL A   1      42.326  21.122  27.758  1.00  0.00     0.014 A 
ATOM     37  C   UNL A   1      42.756  22.813  25.580  1.00  0.00     0.010 A 
ATOM     38  C   UNL A   1      42.600  22.461  27.977  1.00  0.00     0.010 A 
ATOM     39  C   UNL A   1      42.845  23.313  26.890  1.00  0.00    -0.014 A 
BRANCH  39  40
ATOM     40  C   UNL A   1      43.250  24.714  27.149  1.00  0.00     0.031 A 
ATOM     41  C   UNL A   1      42.282  25.649  27.818  1.00  0.00     0.074 A 
ATOM     42  C   UNL A   1      44.450  25.153  26.726  1.00  0.00     0.049 A 
ATOM     43  N   UNL A   1      42.409  26.921  28.089  1.00  0.00    -0.248 NA
ATOM     44  C   UNL A   1      40.975  25.083  28.188  1.00  0.00     0.031 C 
ATOM     45  C   UNL A   1      45.437  24.351  26.000  1.00  0.00     0.029 A 
ATOM     46  N   UNL A   1      45.040  26.384  26.840  1.00  0.00    -0.354 N 
ATOM     47  C   UNL A   1      41.195  27.309  28.644  1.00  0.00     0.074 A 
ATOM     48  C   UNL A   1      40.318  26.161  28.578  1.00  0.00     0.031 C 
ATOM     49  C   UNL A   1      46.519  25.107  25.754  1.00  0.00     0.029 A 
ATOM     50  C   UNL A   1      46.289  26.451  26.271  1.00  0.00     0.049 A 
ATOM     51  H   UNL A   1      44.610  27.149  27.287  1.00  0.00     0.167 HD
ATOM     52  C   UNL A   1      40.855  28.502  29.193  1.00  0.00     0.034 A 
ATOM     53  C   UNL A   1      47.148  27.485  26.175  1.00  0.00     0.034 A 
ATOM     54  C   UNL A   1      41.756  29.627  29.253  1.00  0.00     0.049 A 
ATOM     55  C   UNL A   1      46.765  28.801  26.798  1.00  0.00     0.074 A 
ATOM     56  C   UNL A   1      41.555  30.865  29.835  1.00  0.00     0.029 A 
ATOM     57  N   UNL A   1      43.031  29.651  28.696  1.00  0.00    -0.354 N 
ATOM     58  N   UNL A   1      45.642  29.139  27.392  1.00  0.00    -0.248 NA
ATOM     59  C   UNL A   1      47.772  29.867  26.759  1.00  0.00     0.031 C 
ATOM     60  C   UNL A   1      42.678  31.659  29.569  1.00  0.00     0.029 A 
ATOM     61  C   UNL A   1      43.615  30.893  28.894  1.00  0.00     0.049 A 
ATOM     62  H   UNL A   1      43.456  28.897  28.229  1.00  0.00     0.167 HD
ATOM     63  C   UNL A   1      45.816  30.451  27.817  1.00  0.00     0.074 A 
ATOM     64  C   UNL A   1      47.159  30.835  27.425  1.00  0.00     0.031 C 
ATOM     65  C   UNL A   1      44.950  31.264  28.477  1.00  0.00     0.034 A 
BRANCH  52  66
ATOM     66  C   UNL A   1      39.449  28.632  29.736  1.00  0.00     0.023 A 
ATOM     67  C   UNL A   1      38.383  29.073  28.928  1.00  0.00     0.031 A 
ATOM     68  C   UNL A   1      39.182  28.400  31.096  1.00  0.00     0.131 A 
ATOM     69  C   UNL A   1      37.144  29.385  29.507  1.00  0.00     0.055 A 
ATOM     70  C   UNL A   1      37.915  28.610  31.646  1.00  0.00     0.041 A 
ATOM     71  F   UNL A   1      40.158  27.998  31.926  1.00  0.00    -0.206 F 
ATOM     72  C   UNL A   1      36.893  29.130  30.856  1.00  0.00     0.022 A 
BRANCH  69  73
ATOM     73  S   UNL A   1      35.942  30.320  28.518  1.00  0.00     0.124 S 
ATOM     74  O   UNL A   1      35.408  31.253  29.509  1.00  0.00    -0.237 OA
ATOM     75  O   UNL A   1      36.778  30.904  27.476  1.00  0.00    -0.237 OA
ATOM     76  O   UNL A   1      35.000  29.297  28.068  1.00  0.00    -0.744 OA
ENDBRANCH  69  73
ENDBRANCH  52  66
BRANCH  53  77
ATOM     77  C   UNL A   1      48.445  27.307  25.464  1.00  0.00     0.023 A 
ATOM     78  C   UNL A   1      48.539  27.445  24.071  1.00  0.00     0.031 A 
ATOM     79  C   UNL A   1      49.618  27.006  26.180  1.00  0.00     0.131 A 
ATOM     80  C   UNL A   1      49.775  27.255  23.432  1.00  0.00     0.055 A 
ATOM     81  C   UNL A   1      50.852  26.861  25.546  1.00  0.00     0.041 A 
ATOM     82  F   UNL A   1      49.582  26.878  27.516  1.00  0.00    -0.206 F 
ATOM     83  C   UNL A   1      50.934  26.977  24.162  1.00  0.00     0.022 A 
BRANCH  80  84
ATOM     84  S   UNL A   1      49.843  27.337  21.622  1.00  0.00     0.124 S 
ATOM     85  O   UNL A   1      49.484  28.728  21.373  1.00  0.00    -0.237 OA
ATOM     86  O   UNL A   1      51.232  26.975  21.353  1.00  0.00    -0.237 OA
ATOM     87  O   UNL A   1      48.852  26.350  21.198  1.00  0.00    -0.744 OA
ENDBRANCH  80  84
ENDBRANCH  53  77
BRANCH  65  88
ATOM     88  C   UNL A   1      45.451  32.640  28.844  1.00  0.00     0.023 A 
ATOM     89  C   UNL A   1      45.283  33.744  27.991  1.00  0.00     0.031 A 
ATOM     90  C   UNL A   1      46.116  32.846  30.066  1.00  0.00     0.131 A 
ATOM     91  C   UNL A   1      45.828  34.988  28.342  1.00  0.00     0.055 A 
ATOM     92  C   UNL A   1      46.597  34.100  30.441  1.00  0.00     0.041 A 
ATOM     93  F   UNL A   1      46.307  31.827  30.920  1.00  0.00    -0.206 F 
ATOM     94  C   UNL A   1      46.467  35.178  29.569  1.00  0.00     0.022 A 
BRANCH  91  95
ATOM     95  S   UNL A   1      45.783  36.333  27.125  1.00  0.00     0.124 S 
ATOM     96  O   UNL A   1      46.533  35.760  26.013  1.00  0.00    -0.237 OA
ATOM     97  O   UNL A   1      44.351  36.508  26.906  1.00  0.00    -0.237 OA
ATOM     98  O   UNL A   1      46.444  37.440  27.814  1.00  0.00    -0.744 OA
ENDBRANCH  91  95
ENDBRANCH  65  88
ENDBRANCH  39  40
ENDBRANCH  31  34
ENDBRANCH  29  30
ENDBRANCH  28  29
ENDBRANCH   1  28
TORSDOF 17
ENDMDL
