MODEL 1
REMARK VINA RESULT:     -12.4      0.000      0.000
REMARK SMILES C[C@@H]1[NH2+]CC[C@H]1C(=O)N[C@@H]1CCC[C@H](C(=O)NCCCCNC(=O)c2ccc(-c3c4nc(c(-c5cc(S(=O)(=O)[O-])ccc5F)c5ccc([nH]5)c(-c5cc(S(=O)(=O)[O-])ccc5F)c5nc(c(-c6cc(S(=O)(=O)[O-])ccc6F)c6ccc3[nH]6)C=C5)C=C4)cc2)C1
REMARK SMILES IDX 20 1 19 2 18 3 17 4 15 5 16 6 14 8 10 9 11 10 88 11 12 12
REMARK SMILES IDX 13 13 9 14 7 15 8 16 6 18 1 19 2 20 3 21 4 22 5 25 21 26
REMARK SMILES IDX 22 27 23 28 24 30 25 31 26 32 87 33 27 34 86 35 28 36 29 37
REMARK SMILES IDX 30 38 80 39 31 40 85 41 79 42 81 43 32 44 84 45 78 46 77 47
REMARK SMILES IDX 33 49 65 50 45 51 64 52 46 53 49 54 63 55 82 56 47 57 48 58
REMARK SMILES IDX 62 60 83 61 50 62 34 63 35 64 43 65 36 66 42 67 44 68 41 69
REMARK SMILES IDX 37 70 38 71 39 72 40 73 66 74 67 75 75 76 68 77 74 78 76 79
REMARK SMILES IDX 73 80 69 81 70 82 71 83 72 84 51 85 52 86 60 87 53 88 59 89
REMARK SMILES IDX 61 90 58 91 54 92 55 93 56 94 57 95
REMARK H PARENT 17 7 9 17 3 23 3 24 22 29 81 48 49 59
REMARK Flexibility Score: inf
ROOT
ATOM      1  C   UNL A   1      35.956  21.259  25.774  1.00  0.00     0.023 C 
ENDROOT
BRANCH   1   2
ATOM      2  C   UNL A   1      34.892  20.749  24.801  1.00  0.00     0.023 C 
BRANCH   2   3
ATOM      3  C   UNL A   1      33.577  20.353  25.462  1.00  0.00     0.116 C 
BRANCH   3   4
ATOM      4  N   UNL A   1      33.461  20.894  26.809  1.00  0.00    -0.356 N 
ATOM      5  C   UNL A   1      32.971  22.082  27.266  1.00  0.00     0.223 C 
ATOM      6  O   UNL A   1      32.983  22.282  28.482  1.00  0.00    -0.275 OA
ATOM      7  H   UNL A   1      33.795  20.295  27.515  1.00  0.00     0.163 HD
BRANCH   5   8
ATOM      8  C   UNL A   1      32.347  23.114  26.329  1.00  0.00     0.080 C 
ATOM      9  C   UNL A   1      32.784  25.594  25.616  1.00  0.00     0.082 C 
ATOM     10  C   UNL A   1      31.334  25.861  26.065  1.00  0.00     0.025 C 
ATOM     11  C   UNL A   1      33.301  24.302  26.213  1.00  0.00     0.038 C 
ATOM     12  C   UNL A   1      30.416  24.658  25.882  1.00  0.00     0.003 C 
ATOM     13  C   UNL A   1      30.906  23.458  26.680  1.00  0.00     0.013 C 
BRANCH   9  14
ATOM     14  N   UNL A   1      33.586  26.794  25.957  1.00  0.00    -0.353 N 
ATOM     15  C   UNL A   1      33.701  28.097  25.610  1.00  0.00     0.229 C 
ATOM     16  O   UNL A   1      34.450  28.756  26.347  1.00  0.00    -0.275 OA
ATOM     17  H   UNL A   1      34.244  26.572  26.656  1.00  0.00     0.163 HD
BRANCH  15  18
ATOM     18  C   UNL A   1      33.066  28.809  24.417  1.00  0.00     0.142 C 
ATOM     19  C   UNL A   1      34.101  28.457  22.107  1.00  0.00     0.076 C 
ATOM     20  C   UNL A   1      33.059  27.997  23.124  1.00  0.00     0.192 C 
ATOM     21  N   UNL A   1      31.733  28.146  22.515  1.00  0.00    -0.343 N 
ATOM     22  C   UNL A   1      30.922  29.048  23.330  1.00  0.00     0.261 C 
ATOM     23  H   UNL A   1      31.278  27.235  22.463  1.00  0.00     0.346 HD
ATOM     24  H   UNL A   1      31.831  28.531  21.577  1.00  0.00     0.346 HD
ATOM     25  C   UNL A   1      31.661  29.332  24.626  1.00  0.00     0.081 C 
ENDBRANCH  15  18
ENDBRANCH   9  14
ENDBRANCH   5   8
ENDBRANCH   3   4
ENDBRANCH   2   3
ENDBRANCH   1   2
BRANCH   1  26
ATOM     26  C   UNL A   1      37.313  21.583  25.146  1.00  0.00     0.116 C 
BRANCH  26  27
ATOM     27  N   UNL A   1      38.325  20.575  25.429  1.00  0.00    -0.352 N 
ATOM     28  C   UNL A   1      39.546  20.708  26.051  1.00  0.00     0.251 C 
ATOM     29  H   UNL A   1      38.104  19.664  25.131  1.00  0.00     0.163 HD
ATOM     30  O   UNL A   1      40.331  19.763  26.057  1.00  0.00    -0.269 OA
BRANCH  28  31
ATOM     31  C   UNL A   1      39.920  21.995  26.671  1.00  0.00     0.039 A 
ATOM     32  C   UNL A   1      40.795  21.993  27.761  1.00  0.00     0.014 A 
ATOM     33  C   UNL A   1      39.446  23.204  26.153  1.00  0.00     0.014 A 
ATOM     34  C   UNL A   1      41.282  23.205  28.259  1.00  0.00     0.010 A 
ATOM     35  C   UNL A   1      39.982  24.407  26.608  1.00  0.00     0.010 A 
ATOM     36  C   UNL A   1      40.929  24.417  27.645  1.00  0.00    -0.014 A 
BRANCH  36  37
ATOM     37  C   UNL A   1      41.594  25.696  28.012  1.00  0.00     0.031 A 
ATOM     38  C   UNL A   1      40.824  26.785  28.704  1.00  0.00     0.074 A 
ATOM     39  C   UNL A   1      42.867  25.909  27.617  1.00  0.00     0.049 A 
ATOM     40  N   UNL A   1      41.196  28.008  28.984  1.00  0.00    -0.248 NA
ATOM     41  C   UNL A   1      39.448  26.467  29.116  1.00  0.00     0.031 C 
ATOM     42  C   UNL A   1      43.703  24.942  26.899  1.00  0.00     0.029 A 
ATOM     43  N   UNL A   1      43.677  27.014  27.736  1.00  0.00    -0.354 N 
ATOM     44  C   UNL A   1      40.098  28.613  29.583  1.00  0.00     0.074 A 
ATOM     45  C   UNL A   1      39.034  27.630  29.600  1.00  0.00     0.031 C 
ATOM     46  C   UNL A   1      44.900  25.494  26.644  1.00  0.00     0.029 A 
ATOM     47  C   UNL A   1      44.903  26.871  27.126  1.00  0.00     0.049 A 
ATOM     48  H   UNL A   1      43.404  27.832  28.212  1.00  0.00     0.167 HD
ATOM     49  C   UNL A   1      39.993  29.869  30.080  1.00  0.00     0.034 A 
ATOM     50  C   UNL A   1      45.904  27.756  26.941  1.00  0.00     0.034 A 
ATOM     51  C   UNL A   1      41.071  30.828  30.079  1.00  0.00     0.049 A 
ATOM     52  C   UNL A   1      45.744  29.157  27.477  1.00  0.00     0.074 A 
ATOM     53  C   UNL A   1      41.102  32.084  30.659  1.00  0.00     0.029 A 
ATOM     54  N   UNL A   1      42.296  30.650  29.452  1.00  0.00    -0.354 N 
ATOM     55  N   UNL A   1      44.729  29.681  28.124  1.00  0.00    -0.248 NA
ATOM     56  C   UNL A   1      46.861  30.086  27.259  1.00  0.00     0.031 C 
ATOM     57  C   UNL A   1      42.313  32.695  30.316  1.00  0.00     0.029 A 
ATOM     58  C   UNL A   1      43.069  31.794  29.585  1.00  0.00     0.049 A 
ATOM     59  H   UNL A   1      42.576  29.831  28.982  1.00  0.00     0.167 HD
ATOM     60  C   UNL A   1      45.097  30.993  28.406  1.00  0.00     0.074 A 
ATOM     61  C   UNL A   1      46.434  31.174  27.881  1.00  0.00     0.031 C 
ATOM     62  C   UNL A   1      44.393  31.965  29.041  1.00  0.00     0.034 A 
BRANCH  49  63
ATOM     63  C   UNL A   1      38.663  30.300  30.644  1.00  0.00     0.023 A 
ATOM     64  C   UNL A   1      37.698  30.951  29.858  1.00  0.00     0.031 A 
ATOM     65  C   UNL A   1      38.343  30.017  31.985  1.00  0.00     0.131 A 
ATOM     66  C   UNL A   1      36.476  31.335  30.429  1.00  0.00     0.055 A 
ATOM     67  C   UNL A   1      37.101  30.345  32.530  1.00  0.00     0.041 A 
ATOM     68  F   UNL A   1      39.235  29.412  32.785  1.00  0.00    -0.206 F 
ATOM     69  C   UNL A   1      36.161  31.015  31.752  1.00  0.00     0.022 A 
BRANCH  66  70
ATOM     70  S   UNL A   1      35.330  32.336  29.442  1.00  0.00     0.124 S 
ATOM     71  O   UNL A   1      36.184  33.452  29.041  1.00  0.00    -0.237 OA
ATOM     72  O   UNL A   1      34.942  31.417  28.379  1.00  0.00    -0.237 OA
ATOM     73  O   UNL A   1      34.271  32.679  30.388  1.00  0.00    -0.744 OA
ENDBRANCH  66  70
ENDBRANCH  49  63
BRANCH  50  74
ATOM     74  C   UNL A   1      47.126  27.378  26.171  1.00  0.00     0.023 A 
ATOM     75  C   UNL A   1      47.272  27.738  24.822  1.00  0.00     0.031 A 
ATOM     76  C   UNL A   1      48.131  26.584  26.752  1.00  0.00     0.131 A 
ATOM     77  C   UNL A   1      48.363  27.254  24.082  1.00  0.00     0.055 A 
ATOM     78  C   UNL A   1      49.247  26.158  26.030  1.00  0.00     0.041 A 
ATOM     79  F   UNL A   1      48.044  26.211  28.039  1.00  0.00    -0.206 F 
ATOM     80  C   UNL A   1      49.358  26.478  24.681  1.00  0.00     0.022 A 
BRANCH  77  81
ATOM     81  S   UNL A   1      48.400  27.554  22.294  1.00  0.00     0.124 S 
ATOM     82  O   UNL A   1      47.090  28.154  22.067  1.00  0.00    -0.237 OA
ATOM     83  O   UNL A   1      49.547  28.447  22.162  1.00  0.00    -0.237 OA
ATOM     84  O   UNL A   1      48.581  26.219  21.729  1.00  0.00    -0.744 OA
ENDBRANCH  77  81
ENDBRANCH  50  74
BRANCH  62  85
ATOM     85  C   UNL A   1      45.072  33.298  29.217  1.00  0.00     0.023 A 
ATOM     86  C   UNL A   1      44.941  34.321  28.263  1.00  0.00     0.031 A 
ATOM     87  C   UNL A   1      45.862  33.550  30.354  1.00  0.00     0.131 A 
ATOM     88  C   UNL A   1      45.624  35.534  28.439  1.00  0.00     0.055 A 
ATOM     89  C   UNL A   1      46.493  34.778  30.552  1.00  0.00     0.041 A 
ATOM     90  F   UNL A   1      46.024  32.606  31.295  1.00  0.00    -0.206 F 
ATOM     91  C   UNL A   1      46.385  35.774  29.586  1.00  0.00     0.022 A 
BRANCH  88  92
ATOM     92  S   UNL A   1      45.561  36.771  27.115  1.00  0.00     0.124 S 
ATOM     93  O   UNL A   1      46.224  36.075  26.017  1.00  0.00    -0.237 OA
ATOM     94  O   UNL A   1      44.126  36.989  26.957  1.00  0.00    -0.237 OA
ATOM     95  O   UNL A   1      46.300  37.905  27.669  1.00  0.00    -0.744 OA
ENDBRANCH  88  92
ENDBRANCH  62  85
ENDBRANCH  36  37
ENDBRANCH  28  31
ENDBRANCH  26  27
ENDBRANCH   1  26
TORSDOF 16
ENDMDL
MODEL 2
REMARK VINA RESULT:     -12.2      5.087     10.337
REMARK SMILES C[C@@H]1[NH2+]CC[C@H]1C(=O)N[C@@H]1CCC[C@H](C(=O)NCCCCNC(=O)c2ccc(-c3c4nc(c(-c5cc(S(=O)(=O)[O-])ccc5F)c5ccc([nH]5)c(-c5cc(S(=O)(=O)[O-])ccc5F)c5nc(c(-c6cc(S(=O)(=O)[O-])ccc6F)c6ccc3[nH]6)C=C5)C=C4)cc2)C1
REMARK SMILES IDX 20 1 19 2 18 3 17 4 15 5 16 6 14 8 10 9 11 10 88 11 12 12
REMARK SMILES IDX 13 13 9 14 7 15 8 16 6 18 1 19 2 20 3 21 4 22 5 25 21 26
REMARK SMILES IDX 22 27 23 28 24 30 25 31 26 32 87 33 27 34 86 35 28 36 29 37
REMARK SMILES IDX 30 38 80 39 31 40 85 41 79 42 81 43 32 44 84 45 78 46 77 47
REMARK SMILES IDX 33 49 65 50 45 51 64 52 46 53 49 54 63 55 82 56 47 57 48 58
REMARK SMILES IDX 62 60 83 61 50 62 34 63 35 64 43 65 36 66 42 67 44 68 41 69
REMARK SMILES IDX 37 70 38 71 39 72 40 73 66 74 67 75 75 76 68 77 74 78 76 79
REMARK SMILES IDX 73 80 69 81 70 82 71 83 72 84 51 85 52 86 60 87 53 88 59 89
REMARK SMILES IDX 61 90 58 91 54 92 55 93 56 94 57 95
REMARK H PARENT 17 7 9 17 3 23 3 24 22 29 81 48 49 59
REMARK Flexibility Score: inf
ROOT
ATOM      1  C   UNL A   1      31.637  30.050  25.243  1.00  0.00     0.023 C 
ENDROOT
BRANCH   1   2
ATOM      2  C   UNL A   1      32.687  29.297  24.425  1.00  0.00     0.023 C 
BRANCH   2   3
ATOM      3  C   UNL A   1      32.273  29.012  22.987  1.00  0.00     0.116 C 
BRANCH   3   4
ATOM      4  N   UNL A   1      33.118  27.999  22.368  1.00  0.00    -0.356 N 
ATOM      5  C   UNL A   1      33.133  26.641  22.485  1.00  0.00     0.223 C 
ATOM      6  O   UNL A   1      33.964  26.013  21.826  1.00  0.00    -0.275 OA
ATOM      7  H   UNL A   1      33.799  28.360  21.756  1.00  0.00     0.163 HD
BRANCH   5   8
ATOM      8  C   UNL A   1      32.109  25.891  23.337  1.00  0.00     0.080 C 
ATOM      9  C   UNL A   1      32.104  24.392  25.482  1.00  0.00     0.082 C 
ATOM     10  C   UNL A   1      31.407  23.334  24.605  1.00  0.00     0.025 C 
ATOM     11  C   UNL A   1      32.794  25.432  24.623  1.00  0.00     0.038 C 
ATOM     12  C   UNL A   1      30.539  23.938  23.507  1.00  0.00     0.003 C 
ATOM     13  C   UNL A   1      31.357  24.813  22.568  1.00  0.00     0.013 C 
BRANCH   9  14
ATOM     14  N   UNL A   1      33.000  23.677  26.421  1.00  0.00    -0.353 N 
ATOM     15  C   UNL A   1      33.959  22.721  26.415  1.00  0.00     0.229 C 
ATOM     16  O   UNL A   1      34.555  22.590  27.496  1.00  0.00    -0.275 OA
ATOM     17  H   UNL A   1      32.851  23.998  27.340  1.00  0.00     0.163 HD
BRANCH  15  18
ATOM     18  C   UNL A   1      34.338  21.782  25.272  1.00  0.00     0.142 C 
ATOM     19  C   UNL A   1      36.761  21.779  24.461  1.00  0.00     0.076 C 
ATOM     20  C   UNL A   1      35.726  21.159  25.397  1.00  0.00     0.192 C 
ATOM     21  N   UNL A   1      35.604  19.736  25.060  1.00  0.00    -0.343 N 
ATOM     22  C   UNL A   1      34.223  19.442  24.682  1.00  0.00     0.261 C 
ATOM     23  H   UNL A   1      35.862  19.172  25.869  1.00  0.00     0.346 HD
ATOM     24  H   UNL A   1      36.224  19.517  24.281  1.00  0.00     0.346 HD
ATOM     25  C   UNL A   1      33.365  20.659  24.985  1.00  0.00     0.081 C 
ENDBRANCH  15  18
ENDBRANCH   9  14
ENDBRANCH   5   8
ENDBRANCH   3   4
ENDBRANCH   2   3
ENDBRANCH   1   2
BRANCH   1  26
ATOM     26  C   UNL A   1      32.076  30.459  26.651  1.00  0.00     0.116 C 
BRANCH  26  27
ATOM     27  N   UNL A   1      31.974  31.893  26.883  1.00  0.00    -0.352 N 
ATOM     28  C   UNL A   1      32.866  32.749  27.490  1.00  0.00     0.251 C 
ATOM     29  H   UNL A   1      31.146  32.313  26.559  1.00  0.00     0.163 HD
ATOM     30  O   UNL A   1      32.530  33.905  27.732  1.00  0.00    -0.269 OA
BRANCH  28  31
ATOM     31  C   UNL A   1      34.204  32.261  27.883  1.00  0.00     0.039 A 
ATOM     32  C   UNL A   1      35.257  33.175  27.977  1.00  0.00     0.014 A 
ATOM     33  C   UNL A   1      34.410  30.915  28.200  1.00  0.00     0.014 A 
ATOM     34  C   UNL A   1      36.487  32.761  28.497  1.00  0.00     0.010 A 
ATOM     35  C   UNL A   1      35.615  30.520  28.778  1.00  0.00     0.010 A 
ATOM     36  C   UNL A   1      36.654  31.446  28.960  1.00  0.00    -0.014 A 
BRANCH  36  37
ATOM     37  C   UNL A   1      37.872  31.037  29.711  1.00  0.00     0.031 A 
ATOM     38  C   UNL A   1      38.796  29.991  29.153  1.00  0.00     0.074 A 
ATOM     39  C   UNL A   1      38.077  31.535  30.948  1.00  0.00     0.049 A 
ATOM     40  N   UNL A   1      39.827  29.417  29.718  1.00  0.00    -0.248 NA
ATOM     41  C   UNL A   1      38.512  29.512  27.791  1.00  0.00     0.031 C 
ATOM     42  C   UNL A   1      37.224  32.525  31.614  1.00  0.00     0.029 A 
ATOM     43  N   UNL A   1      39.049  31.264  31.882  1.00  0.00    -0.354 N 
ATOM     44  C   UNL A   1      40.302  28.494  28.793  1.00  0.00     0.074 A 
ATOM     45  C   UNL A   1      39.428  28.565  27.642  1.00  0.00     0.031 C 
ATOM     46  C   UNL A   1      37.708  32.773  32.841  1.00  0.00     0.029 A 
ATOM     47  C   UNL A   1      38.871  31.925  33.076  1.00  0.00     0.049 A 
ATOM     48  H   UNL A   1      39.801  30.651  31.713  1.00  0.00     0.167 HD
ATOM     49  C   UNL A   1      41.375  27.672  28.897  1.00  0.00     0.034 A 
ATOM     50  C   UNL A   1      39.543  31.835  34.243  1.00  0.00     0.034 A 
ATOM     51  C   UNL A   1      42.251  27.632  30.043  1.00  0.00     0.049 A 
ATOM     52  C   UNL A   1      40.711  30.886  34.337  1.00  0.00     0.074 A 
ATOM     53  C   UNL A   1      43.427  26.919  30.198  1.00  0.00     0.029 A 
ATOM     54  N   UNL A   1      42.039  28.313  31.232  1.00  0.00    -0.354 N 
ATOM     55  N   UNL A   1      41.202  30.087  33.417  1.00  0.00    -0.248 NA
ATOM     56  C   UNL A   1      41.419  30.824  35.623  1.00  0.00     0.031 C 
ATOM     57  C   UNL A   1      43.883  27.106  31.506  1.00  0.00     0.029 A 
ATOM     58  C   UNL A   1      43.034  27.994  32.145  1.00  0.00     0.049 A 
ATOM     59  H   UNL A   1      41.293  28.932  31.404  1.00  0.00     0.167 HD
ATOM     60  C   UNL A   1      42.284  29.446  34.010  1.00  0.00     0.074 A 
ATOM     61  C   UNL A   1      42.391  29.966  35.357  1.00  0.00     0.031 C 
ATOM     62  C   UNL A   1      43.117  28.508  33.491  1.00  0.00     0.034 A 
BRANCH  49  63
ATOM     63  C   UNL A   1      41.653  26.723  27.759  1.00  0.00     0.023 A 
ATOM     64  C   UNL A   1      41.188  25.397  27.766  1.00  0.00     0.031 A 
ATOM     65  C   UNL A   1      42.364  27.169  26.630  1.00  0.00     0.131 A 
ATOM     66  C   UNL A   1      41.475  24.551  26.684  1.00  0.00     0.055 A 
ATOM     67  C   UNL A   1      42.593  26.341  25.530  1.00  0.00     0.041 A 
ATOM     68  F   UNL A   1      42.847  28.421  26.579  1.00  0.00    -0.206 F 
ATOM     69  C   UNL A   1      42.153  25.021  25.556  1.00  0.00     0.022 A 
BRANCH  66  70
ATOM     70  S   UNL A   1      41.023  22.799  26.806  1.00  0.00     0.124 S 
ATOM     71  O   UNL A   1      41.576  22.442  28.110  1.00  0.00    -0.237 OA
ATOM     72  O   UNL A   1      39.568  22.841  26.720  1.00  0.00    -0.237 OA
ATOM     73  O   UNL A   1      41.698  22.190  25.662  1.00  0.00    -0.744 OA
ENDBRANCH  66  70
ENDBRANCH  49  63
BRANCH  50  74
ATOM     74  C   UNL A   1      39.106  32.614  35.439  1.00  0.00     0.023 A 
ATOM     75  C   UNL A   1      39.568  33.921  35.660  1.00  0.00     0.031 A 
ATOM     76  C   UNL A   1      38.281  32.034  36.419  1.00  0.00     0.131 A 
ATOM     77  C   UNL A   1      39.254  34.582  36.859  1.00  0.00     0.055 A 
ATOM     78  C   UNL A   1      37.919  32.718  37.580  1.00  0.00     0.041 A 
ATOM     79  F   UNL A   1      37.809  30.787  36.260  1.00  0.00    -0.206 F 
ATOM     80  C   UNL A   1      38.422  33.994  37.814  1.00  0.00     0.022 A 
BRANCH  77  81
ATOM     81  S   UNL A   1      40.049  36.174  37.205  1.00  0.00     0.124 S 
ATOM     82  O   UNL A   1      39.195  36.709  38.259  1.00  0.00    -0.237 OA
ATOM     83  O   UNL A   1      41.389  35.760  37.610  1.00  0.00    -0.237 OA
ATOM     84  O   UNL A   1      39.975  36.877  35.925  1.00  0.00    -0.744 OA
ENDBRANCH  77  81
ENDBRANCH  50  74
BRANCH  62  85
ATOM     85  C   UNL A   1      44.226  28.008  34.380  1.00  0.00     0.023 A 
ATOM     86  C   UNL A   1      44.023  26.948  35.280  1.00  0.00     0.031 A 
ATOM     87  C   UNL A   1      45.501  28.600  34.328  1.00  0.00     0.131 A 
ATOM     88  C   UNL A   1      45.067  26.539  36.124  1.00  0.00     0.055 A 
ATOM     89  C   UNL A   1      46.550  28.151  35.130  1.00  0.00     0.041 A 
ATOM     90  F   UNL A   1      45.747  29.619  33.489  1.00  0.00    -0.206 F 
ATOM     91  C   UNL A   1      46.334  27.122  36.042  1.00  0.00     0.022 A 
BRANCH  88  92
ATOM     92  S   UNL A   1      44.727  25.277  37.381  1.00  0.00     0.124 S 
ATOM     93  O   UNL A   1      45.515  24.147  36.897  1.00  0.00    -0.237 OA
ATOM     94  O   UNL A   1      45.209  25.913  38.603  1.00  0.00    -0.237 OA
ATOM     95  O   UNL A   1      43.278  25.099  37.307  1.00  0.00    -0.744 OA
ENDBRANCH  88  92
ENDBRANCH  62  85
ENDBRANCH  36  37
ENDBRANCH  28  31
ENDBRANCH  26  27
ENDBRANCH   1  26
TORSDOF 16
ENDMDL
MODEL 3
REMARK VINA RESULT:     -12.2      1.505      7.712
REMARK SMILES C[C@@H]1[NH2+]CC[C@H]1C(=O)N[C@@H]1CCC[C@H](C(=O)NCCCCNC(=O)c2ccc(-c3c4nc(c(-c5cc(S(=O)(=O)[O-])ccc5F)c5ccc([nH]5)c(-c5cc(S(=O)(=O)[O-])ccc5F)c5nc(c(-c6cc(S(=O)(=O)[O-])ccc6F)c6ccc3[nH]6)C=C5)C=C4)cc2)C1
REMARK SMILES IDX 20 1 19 2 18 3 17 4 15 5 16 6 14 8 10 9 11 10 88 11 12 12
REMARK SMILES IDX 13 13 9 14 7 15 8 16 6 18 1 19 2 20 3 21 4 22 5 25 21 26
REMARK SMILES IDX 22 27 23 28 24 30 25 31 26 32 87 33 27 34 86 35 28 36 29 37
REMARK SMILES IDX 30 38 80 39 31 40 85 41 79 42 81 43 32 44 84 45 78 46 77 47
REMARK SMILES IDX 33 49 65 50 45 51 64 52 46 53 49 54 63 55 82 56 47 57 48 58
REMARK SMILES IDX 62 60 83 61 50 62 34 63 35 64 43 65 36 66 42 67 44 68 41 69
REMARK SMILES IDX 37 70 38 71 39 72 40 73 66 74 67 75 75 76 68 77 74 78 76 79
REMARK SMILES IDX 73 80 69 81 70 82 71 83 72 84 51 85 52 86 60 87 53 88 59 89
REMARK SMILES IDX 61 90 58 91 54 92 55 93 56 94 57 95
REMARK H PARENT 17 7 9 17 3 23 3 24 22 29 81 48 49 59
REMARK Flexibility Score: inf
ROOT
ATOM      1  C   UNL A   1      35.836  21.513  25.584  1.00  0.00     0.023 C 
ENDROOT
BRANCH   1   2
ATOM      2  C   UNL A   1      34.871  20.551  24.888  1.00  0.00     0.023 C 
BRANCH   2   3
ATOM      3  C   UNL A   1      33.609  21.213  24.349  1.00  0.00     0.116 C 
BRANCH   3   4
ATOM      4  N   UNL A   1      33.915  22.296  23.424  1.00  0.00    -0.356 N 
ATOM      5  C   UNL A   1      33.716  23.642  23.511  1.00  0.00     0.223 C 
ATOM      6  O   UNL A   1      34.088  24.343  22.568  1.00  0.00    -0.275 OA
ATOM      7  H   UNL A   1      34.342  22.003  22.587  1.00  0.00     0.163 HD
BRANCH   5   8
ATOM      8  C   UNL A   1      33.127  24.293  24.761  1.00  0.00     0.080 C 
ATOM      9  C   UNL A   1      30.872  25.407  25.482  1.00  0.00     0.082 C 
ATOM     10  C   UNL A   1      31.726  26.635  25.852  1.00  0.00     0.025 C 
ATOM     11  C   UNL A   1      31.627  24.491  24.543  1.00  0.00     0.038 C 
ATOM     12  C   UNL A   1      33.135  26.274  26.306  1.00  0.00     0.003 C 
ATOM     13  C   UNL A   1      33.895  25.526  25.219  1.00  0.00     0.013 C 
BRANCH   9  14
ATOM     14  N   UNL A   1      29.579  25.903  24.950  1.00  0.00    -0.353 N 
ATOM     15  C   UNL A   1      29.101  26.708  23.972  1.00  0.00     0.229 C 
ATOM     16  O   UNL A   1      27.869  26.658  23.829  1.00  0.00    -0.275 OA
ATOM     17  H   UNL A   1      28.834  25.529  25.474  1.00  0.00     0.163 HD
BRANCH  15  18
ATOM     18  C   UNL A   1      29.884  27.676  23.089  1.00  0.00     0.142 C 
ATOM     19  C   UNL A   1      29.381  30.173  23.285  1.00  0.00     0.076 C 
ATOM     20  C   UNL A   1      30.238  29.001  23.758  1.00  0.00     0.192 C 
ATOM     21  N   UNL A   1      31.637  29.302  23.432  1.00  0.00    -0.343 N 
ATOM     22  C   UNL A   1      32.166  28.261  22.554  1.00  0.00     0.261 C 
ATOM     23  H   UNL A   1      32.187  29.333  24.291  1.00  0.00     0.346 HD
ATOM     24  H   UNL A   1      31.690  30.204  22.961  1.00  0.00     0.346 HD
ATOM     25  C   UNL A   1      31.155  27.131  22.471  1.00  0.00     0.081 C 
ENDBRANCH  15  18
ENDBRANCH   9  14
ENDBRANCH   5   8
ENDBRANCH   3   4
ENDBRANCH   2   3
ENDBRANCH   1   2
BRANCH   1  26
ATOM     26  C   UNL A   1      37.212  21.644  24.929  1.00  0.00     0.116 C 
BRANCH  26  27
ATOM     27  N   UNL A   1      38.168  20.658  25.413  1.00  0.00    -0.352 N 
ATOM     28  C   UNL A   1      39.334  20.840  26.121  1.00  0.00     0.251 C 
ATOM     29  H   UNL A   1      37.948  19.722  25.203  1.00  0.00     0.163 HD
ATOM     30  O   UNL A   1      40.090  19.889  26.304  1.00  0.00    -0.269 OA
BRANCH  28  31
ATOM     31  C   UNL A   1      39.690  22.184  26.620  1.00  0.00     0.039 A 
ATOM     32  C   UNL A   1      40.830  22.331  27.415  1.00  0.00     0.014 A 
ATOM     33  C   UNL A   1      38.929  23.302  26.270  1.00  0.00     0.014 A 
ATOM     34  C   UNL A   1      41.269  23.611  27.765  1.00  0.00     0.010 A 
ATOM     35  C   UNL A   1      39.403  24.579  26.564  1.00  0.00     0.010 A 
ATOM     36  C   UNL A   1      40.594  24.747  27.288  1.00  0.00    -0.014 A 
BRANCH  36  37
ATOM     37  C   UNL A   1      41.156  26.113  27.462  1.00  0.00     0.031 A 
ATOM     38  C   UNL A   1      42.516  26.453  26.919  1.00  0.00     0.074 A 
ATOM     39  C   UNL A   1      40.479  27.010  28.209  1.00  0.00     0.049 A 
ATOM     40  N   UNL A   1      43.221  27.543  27.086  1.00  0.00    -0.248 NA
ATOM     41  C   UNL A   1      43.180  25.426  26.102  1.00  0.00     0.031 C 
ATOM     42  C   UNL A   1      39.169  26.780  28.826  1.00  0.00     0.029 A 
ATOM     43  N   UNL A   1      40.804  28.286  28.604  1.00  0.00    -0.354 N 
ATOM     44  C   UNL A   1      44.419  27.328  26.414  1.00  0.00     0.074 A 
ATOM     45  C   UNL A   1      44.356  25.990  25.863  1.00  0.00     0.031 C 
ATOM     46  C   UNL A   1      38.806  27.872  29.516  1.00  0.00     0.029 A 
ATOM     47  C   UNL A   1      39.876  28.861  29.442  1.00  0.00     0.049 A 
ATOM     48  H   UNL A   1      41.625  28.746  28.315  1.00  0.00     0.167 HD
ATOM     49  C   UNL A   1      45.466  28.174  26.266  1.00  0.00     0.034 A 
ATOM     50  C   UNL A   1      39.895  30.034  30.108  1.00  0.00     0.034 A 
ATOM     51  C   UNL A   1      45.502  29.514  26.801  1.00  0.00     0.049 A 
ATOM     52  C   UNL A   1      41.091  30.940  29.949  1.00  0.00     0.074 A 
ATOM     53  C   UNL A   1      46.466  30.488  26.610  1.00  0.00     0.029 A 
ATOM     54  N   UNL A   1      44.546  30.060  27.645  1.00  0.00    -0.354 N 
ATOM     55  N   UNL A   1      42.176  30.755  29.233  1.00  0.00    -0.248 NA
ATOM     56  C   UNL A   1      41.068  32.210  30.686  1.00  0.00     0.031 C 
ATOM     57  C   UNL A   1      46.134  31.593  27.401  1.00  0.00     0.029 A 
ATOM     58  C   UNL A   1      44.926  31.338  28.027  1.00  0.00     0.049 A 
ATOM     59  H   UNL A   1      43.720  29.608  27.931  1.00  0.00     0.167 HD
ATOM     60  C   UNL A   1      42.952  31.895  29.420  1.00  0.00     0.074 A 
ATOM     61  C   UNL A   1      42.202  32.771  30.295  1.00  0.00     0.031 C 
ATOM     62  C   UNL A   1      44.176  32.193  28.915  1.00  0.00     0.034 A 
BRANCH  49  63
ATOM     63  C   UNL A   1      46.680  27.676  25.523  1.00  0.00     0.023 A 
ATOM     64  C   UNL A   1      46.910  27.999  24.175  1.00  0.00     0.031 A 
ATOM     65  C   UNL A   1      47.641  26.895  26.190  1.00  0.00     0.131 A 
ATOM     66  C   UNL A   1      48.053  27.509  23.525  1.00  0.00     0.055 A 
ATOM     67  C   UNL A   1      48.807  26.463  25.556  1.00  0.00     0.041 A 
ATOM     68  F   UNL A   1      47.462  26.543  27.473  1.00  0.00    -0.206 F 
ATOM     69  C   UNL A   1      49.015  26.764  24.213  1.00  0.00     0.022 A 
BRANCH  66  70
ATOM     70  S   UNL A   1      48.227  27.787  21.742  1.00  0.00     0.124 S 
ATOM     71  O   UNL A   1      48.572  26.450  21.267  1.00  0.00    -0.237 OA
ATOM     72  O   UNL A   1      46.904  28.275  21.368  1.00  0.00    -0.237 OA
ATOM     73  O   UNL A   1      49.303  28.772  21.651  1.00  0.00    -0.744 OA
ENDBRANCH  66  70
ENDBRANCH  49  63
BRANCH  50  74
ATOM     74  C   UNL A   1      38.782  30.409  31.031  1.00  0.00     0.023 A 
ATOM     75  C   UNL A   1      37.639  31.068  30.555  1.00  0.00     0.031 A 
ATOM     76  C   UNL A   1      38.883  30.182  32.415  1.00  0.00     0.131 A 
ATOM     77  C   UNL A   1      36.670  31.533  31.461  1.00  0.00     0.055 A 
ATOM     78  C   UNL A   1      37.888  30.589  33.305  1.00  0.00     0.041 A 
ATOM     79  F   UNL A   1      39.956  29.555  32.925  1.00  0.00    -0.206 F 
ATOM     80  C   UNL A   1      36.782  31.285  32.831  1.00  0.00     0.022 A 
BRANCH  77  81
ATOM     81  S   UNL A   1      35.323  32.571  30.833  1.00  0.00     0.124 S 
ATOM     82  O   UNL A   1      34.324  32.431  31.886  1.00  0.00    -0.237 OA
ATOM     83  O   UNL A   1      35.971  33.875  30.730  1.00  0.00    -0.237 OA
ATOM     84  O   UNL A   1      34.978  31.946  29.558  1.00  0.00    -0.744 OA
ENDBRANCH  77  81
ENDBRANCH  50  74
BRANCH  62  85
ATOM     85  C   UNL A   1      44.762  33.530  29.285  1.00  0.00     0.023 A 
ATOM     86  C   UNL A   1      44.576  34.663  28.473  1.00  0.00     0.031 A 
ATOM     87  C   UNL A   1      45.519  33.675  30.461  1.00  0.00     0.131 A 
ATOM     88  C   UNL A   1      45.175  35.882  28.826  1.00  0.00     0.055 A 
ATOM     89  C   UNL A   1      46.065  34.903  30.836  1.00  0.00     0.041 A 
ATOM     90  F   UNL A   1      45.731  32.625  31.270  1.00  0.00    -0.206 F 
ATOM     91  C   UNL A   1      45.903  36.012  30.011  1.00  0.00     0.022 A 
BRANCH  88  92
ATOM     92  S   UNL A   1      45.047  37.280  27.679  1.00  0.00     0.124 S 
ATOM     93  O   UNL A   1      46.018  36.920  26.651  1.00  0.00    -0.237 OA
ATOM     94  O   UNL A   1      43.645  37.230  27.277  1.00  0.00    -0.237 OA
ATOM     95  O   UNL A   1      45.412  38.433  28.501  1.00  0.00    -0.744 OA
ENDBRANCH  88  92
ENDBRANCH  62  85
ENDBRANCH  36  37
ENDBRANCH  28  31
ENDBRANCH  26  27
ENDBRANCH   1  26
TORSDOF 16
ENDMDL
