MODEL 1
REMARK VINA RESULT:     -11.9      0.000      0.000
REMARK SMILES O=C(CC[NH+]1CCN(C(=O)c2n[nH]c3ccccc23)CC1)NCCCCNC(=O)c1ccc(-c2c3nc(c(-c4cc(S(=O)(=O)[O-])ccc4F)c4ccc([nH]4)c(-c4cc(S(=O)(=O)[O-])ccc4F)c4nc(c(-c5cc(S(=O)(=O)[O-])ccc5F)c5ccc2[nH]5)C=C4)C=C3)cc1
REMARK SMILES IDX 24 1 23 2 22 3 1 4 2 5 3 7 4 8 5 9 6 10 21 11 7 13 20 14
REMARK SMILES IDX 8 15 9 16 10 17 11 18 12 19 19 20 13 21 14 22 18 23 15 25
REMARK SMILES IDX 17 26 16 27 25 28 26 29 27 30 28 31 29 33 30 34 31 35 92 36
REMARK SMILES IDX 32 37 91 38 33 39 34 40 35 41 85 42 36 43 90 44 84 45 86 46
REMARK SMILES IDX 37 47 89 48 83 49 82 50 38 52 70 53 50 54 69 55 51 56 54 57
REMARK SMILES IDX 68 58 87 59 52 60 53 61 67 63 88 64 55 65 39 66 40 67 48 68
REMARK SMILES IDX 41 69 47 70 49 71 46 72 42 73 43 74 44 75 45 76 71 77 72 78
REMARK SMILES IDX 80 79 73 80 79 81 81 82 78 83 74 84 75 85 76 86 77 87 56 88
REMARK SMILES IDX 57 89 65 90 58 91 64 92 66 93 63 94 59 95 60 96 61 97 62 98
REMARK H PARENT 22 6 5 12 13 24 27 32 86 51 54 62
REMARK Flexibility Score: inf
ROOT
ATOM      1  C   UNL A   1      33.528  28.637  24.601  1.00  0.00     0.023 C 
ENDROOT
BRANCH   1   2
ATOM      2  C   UNL A   1      32.110  29.208  24.537  1.00  0.00     0.116 C 
BRANCH   2   3
ATOM      3  N   UNL A   1      31.077  28.222  24.810  1.00  0.00    -0.356 N 
ATOM      4  O   UNL A   1      30.060  28.394  22.759  1.00  0.00    -0.275 OA
ATOM      5  C   UNL A   1      30.166  27.835  23.847  1.00  0.00     0.225 C 
ATOM      6  H   UNL A   1      31.024  27.820  25.707  1.00  0.00     0.163 HD
BRANCH   5   7
ATOM      7  C   UNL A   1      29.318  26.631  24.223  1.00  0.00     0.161 C 
BRANCH   7   8
ATOM      8  C   UNL A   1      30.044  25.689  25.204  1.00  0.00     0.272 C 
BRANCH   8   9
ATOM      9  N   UNL A   1      30.190  24.299  24.722  1.00  0.00    -0.332 N 
ATOM     10  C   UNL A   1      30.530  24.247  23.270  1.00  0.00     0.284 C 
ATOM     11  C   UNL A   1      31.217  23.531  25.458  1.00  0.00     0.284 C 
ATOM     12  H   UNL A   1      29.279  23.871  24.886  1.00  0.00     0.348 HD
ATOM     13  C   UNL A   1      32.004  24.573  22.891  1.00  0.00     0.181 C 
ATOM     14  C   UNL A   1      32.643  24.035  25.199  1.00  0.00     0.181 C 
ATOM     15  N   UNL A   1      32.948  23.893  23.774  1.00  0.00    -0.326 N 
ATOM     16  C   UNL A   1      34.006  23.135  23.258  1.00  0.00     0.275 C 
ATOM     17  O   UNL A   1      34.291  23.114  22.067  1.00  0.00    -0.267 OA
BRANCH  16  18
ATOM     18  C   UNL A   1      34.712  22.309  24.250  1.00  0.00     0.157 A 
ATOM     19  N   UNL A   1      34.424  21.007  24.448  1.00  0.00    -0.169 NA
ATOM     20  C   UNL A   1      35.919  22.685  24.911  1.00  0.00     0.033 A 
ATOM     21  N   UNL A   1      35.447  20.567  25.204  1.00  0.00    -0.277 N 
ATOM     22  C   UNL A   1      36.423  21.499  25.430  1.00  0.00     0.066 A 
ATOM     23  C   UNL A   1      36.682  23.863  25.012  1.00  0.00     0.013 A 
ATOM     24  H   UNL A   1      35.490  19.652  25.563  1.00  0.00     0.190 HD
ATOM     25  C   UNL A   1      37.685  21.407  26.020  1.00  0.00     0.028 A 
ATOM     26  C   UNL A   1      37.947  23.797  25.598  1.00  0.00     0.001 A 
ATOM     27  C   UNL A   1      38.434  22.586  26.087  1.00  0.00     0.002 A 
ENDBRANCH  16  18
ENDBRANCH   8   9
ENDBRANCH   7   8
ENDBRANCH   5   7
ENDBRANCH   2   3
ENDBRANCH   1   2
BRANCH   1  28
ATOM     28  C   UNL A   1      34.133  28.535  26.007  1.00  0.00     0.023 C 
BRANCH  28  29
ATOM     29  C   UNL A   1      33.428  29.358  27.088  1.00  0.00     0.116 C 
BRANCH  29  30
ATOM     30  N   UNL A   1      33.851  30.751  27.112  1.00  0.00    -0.352 N 
ATOM     31  C   UNL A   1      35.022  31.305  27.588  1.00  0.00     0.251 C 
ATOM     32  H   UNL A   1      33.208  31.392  26.732  1.00  0.00     0.163 HD
ATOM     33  O   UNL A   1      35.136  32.527  27.634  1.00  0.00    -0.269 OA
BRANCH  31  34
ATOM     34  C   UNL A   1      36.128  30.440  28.073  1.00  0.00     0.039 A 
ATOM     35  C   UNL A   1      37.281  30.298  27.293  1.00  0.00     0.014 A 
ATOM     36  C   UNL A   1      36.040  29.776  29.298  1.00  0.00     0.014 A 
ATOM     37  C   UNL A   1      38.375  29.574  27.785  1.00  0.00     0.010 A 
ATOM     38  C   UNL A   1      37.154  29.110  29.812  1.00  0.00     0.010 A 
ATOM     39  C   UNL A   1      38.341  29.016  29.075  1.00  0.00    -0.014 A 
BRANCH  39  40
ATOM     40  C   UNL A   1      39.564  28.466  29.722  1.00  0.00     0.031 A 
ATOM     41  C   UNL A   1      40.182  29.095  30.944  1.00  0.00     0.074 A 
ATOM     42  C   UNL A   1      40.226  27.472  29.096  1.00  0.00     0.049 A 
ATOM     43  N   UNL A   1      41.283  28.763  31.574  1.00  0.00    -0.248 NA
ATOM     44  C   UNL A   1      39.519  30.286  31.491  1.00  0.00     0.031 C 
ATOM     45  C   UNL A   1      39.845  26.876  27.810  1.00  0.00     0.029 A 
ATOM     46  N   UNL A   1      41.361  26.792  29.450  1.00  0.00    -0.354 N 
ATOM     47  C   UNL A   1      41.498  29.755  32.524  1.00  0.00     0.074 A 
ATOM     48  C   UNL A   1      40.396  30.688  32.403  1.00  0.00     0.031 C 
ATOM     49  C   UNL A   1      40.697  25.881  27.517  1.00  0.00     0.029 A 
ATOM     50  C   UNL A   1      41.684  25.776  28.584  1.00  0.00     0.049 A 
ATOM     51  H   UNL A   1      41.894  27.010  30.249  1.00  0.00     0.167 HD
ATOM     52  C   UNL A   1      42.526  29.882  33.403  1.00  0.00     0.034 A 
ATOM     53  C   UNL A   1      42.642  24.834  28.656  1.00  0.00     0.034 A 
ATOM     54  C   UNL A   1      43.560  28.895  33.597  1.00  0.00     0.049 A 
ATOM     55  C   UNL A   1      43.570  24.808  29.830  1.00  0.00     0.074 A 
ATOM     56  C   UNL A   1      44.555  28.862  34.562  1.00  0.00     0.029 A 
ATOM     57  N   UNL A   1      43.726  27.757  32.824  1.00  0.00    -0.354 N 
ATOM     58  N   UNL A   1      43.708  25.696  30.782  1.00  0.00    -0.248 NA
ATOM     59  C   UNL A   1      44.447  23.637  29.952  1.00  0.00     0.031 C 
ATOM     60  C   UNL A   1      45.330  27.711  34.362  1.00  0.00     0.029 A 
ATOM     61  C   UNL A   1      44.799  27.014  33.290  1.00  0.00     0.049 A 
ATOM     62  H   UNL A   1      43.162  27.512  32.055  1.00  0.00     0.167 HD
ATOM     63  C   UNL A   1      44.695  25.194  31.620  1.00  0.00     0.074 A 
ATOM     64  C   UNL A   1      45.104  23.916  31.071  1.00  0.00     0.031 C 
ATOM     65  C   UNL A   1      45.214  25.748  32.741  1.00  0.00     0.034 A 
BRANCH  52  66
ATOM     66  C   UNL A   1      42.609  31.159  34.195  1.00  0.00     0.023 A 
ATOM     67  C   UNL A   1      42.124  31.260  35.508  1.00  0.00     0.031 A 
ATOM     68  C   UNL A   1      43.189  32.301  33.611  1.00  0.00     0.131 A 
ATOM     69  C   UNL A   1      42.173  32.494  36.174  1.00  0.00     0.055 A 
ATOM     70  C   UNL A   1      43.290  33.509  34.301  1.00  0.00     0.041 A 
ATOM     71  F   UNL A   1      43.656  32.260  32.353  1.00  0.00    -0.206 F 
ATOM     72  C   UNL A   1      42.771  33.614  35.588  1.00  0.00     0.022 A 
BRANCH  69  73
ATOM     73  S   UNL A   1      41.357  32.642  37.786  1.00  0.00     0.124 S 
ATOM     74  O   UNL A   1      42.123  31.693  38.591  1.00  0.00    -0.237 OA
ATOM     75  O   UNL A   1      41.549  34.051  38.109  1.00  0.00    -0.237 OA
ATOM     76  O   UNL A   1      39.977  32.247  37.511  1.00  0.00    -0.744 OA
ENDBRANCH  69  73
ENDBRANCH  52  66
BRANCH  53  77
ATOM     77  C   UNL A   1      42.707  23.783  27.617  1.00  0.00     0.023 A 
ATOM     78  C   UNL A   1      43.721  23.818  26.650  1.00  0.00     0.031 A 
ATOM     79  C   UNL A   1      41.787  22.726  27.595  1.00  0.00     0.131 A 
ATOM     80  C   UNL A   1      43.786  22.812  25.678  1.00  0.00     0.055 A 
ATOM     81  C   UNL A   1      41.859  21.722  26.630  1.00  0.00     0.041 A 
ATOM     82  F   UNL A   1      40.821  22.649  28.523  1.00  0.00    -0.206 F 
ATOM     83  C   UNL A   1      42.862  21.763  25.661  1.00  0.00     0.022 A 
BRANCH  80  84
ATOM     84  S   UNL A   1      45.107  22.891  24.441  1.00  0.00     0.124 S 
ATOM     85  O   UNL A   1      45.230  24.329  24.223  1.00  0.00    -0.237 OA
ATOM     86  O   UNL A   1      46.217  22.253  25.144  1.00  0.00    -0.237 OA
ATOM     87  O   UNL A   1      44.568  22.131  23.318  1.00  0.00    -0.744 OA
ENDBRANCH  80  84
ENDBRANCH  53  77
BRANCH  65  88
ATOM     88  C   UNL A   1      46.271  24.959  33.454  1.00  0.00     0.023 A 
ATOM     89  C   UNL A   1      47.632  25.133  33.159  1.00  0.00     0.031 A 
ATOM     90  C   UNL A   1      45.908  23.999  34.413  1.00  0.00     0.131 A 
ATOM     91  C   UNL A   1      48.589  24.327  33.794  1.00  0.00     0.055 A 
ATOM     92  C   UNL A   1      46.865  23.217  35.060  1.00  0.00     0.041 A 
ATOM     93  F   UNL A   1      44.616  23.795  34.718  1.00  0.00    -0.206 F 
ATOM     94  C   UNL A   1      48.214  23.373  34.746  1.00  0.00     0.022 A 
BRANCH  91  95
ATOM     95  S   UNL A   1      50.330  24.497  33.314  1.00  0.00     0.124 S 
ATOM     96  O   UNL A   1      50.986  24.682  34.605  1.00  0.00    -0.237 OA
ATOM     97  O   UNL A   1      50.593  23.230  32.640  1.00  0.00    -0.237 OA
ATOM     98  O   UNL A   1      50.333  25.674  32.446  1.00  0.00    -0.744 OA
ENDBRANCH  91  95
ENDBRANCH  65  88
ENDBRANCH  39  40
ENDBRANCH  31  34
ENDBRANCH  29  30
ENDBRANCH  28  29
ENDBRANCH   1  28
TORSDOF 17
ENDMDL
MODEL 2
REMARK VINA RESULT:     -11.8      2.328      2.857
REMARK SMILES O=C(CC[NH+]1CCN(C(=O)c2n[nH]c3ccccc23)CC1)NCCCCNC(=O)c1ccc(-c2c3nc(c(-c4cc(S(=O)(=O)[O-])ccc4F)c4ccc([nH]4)c(-c4cc(S(=O)(=O)[O-])ccc4F)c4nc(c(-c5cc(S(=O)(=O)[O-])ccc5F)c5ccc2[nH]5)C=C4)C=C3)cc1
REMARK SMILES IDX 24 1 23 2 22 3 1 4 2 5 3 7 4 8 5 9 6 10 21 11 7 13 20 14
REMARK SMILES IDX 8 15 9 16 10 17 11 18 12 19 19 20 13 21 14 22 18 23 15 25
REMARK SMILES IDX 17 26 16 27 25 28 26 29 27 30 28 31 29 33 30 34 31 35 92 36
REMARK SMILES IDX 32 37 91 38 33 39 34 40 35 41 85 42 36 43 90 44 84 45 86 46
REMARK SMILES IDX 37 47 89 48 83 49 82 50 38 52 70 53 50 54 69 55 51 56 54 57
REMARK SMILES IDX 68 58 87 59 52 60 53 61 67 63 88 64 55 65 39 66 40 67 48 68
REMARK SMILES IDX 41 69 47 70 49 71 46 72 42 73 43 74 44 75 45 76 71 77 72 78
REMARK SMILES IDX 80 79 73 80 79 81 81 82 78 83 74 84 75 85 76 86 77 87 56 88
REMARK SMILES IDX 57 89 65 90 58 91 64 92 66 93 63 94 59 95 60 96 61 97 62 98
REMARK H PARENT 22 6 5 12 13 24 27 32 86 51 54 62
REMARK Flexibility Score: inf
ROOT
ATOM      1  C   UNL A   1      33.270  28.837  24.339  1.00  0.00     0.023 C 
ENDROOT
BRANCH   1   2
ATOM      2  C   UNL A   1      31.864  29.338  24.008  1.00  0.00     0.116 C 
BRANCH   2   3
ATOM      3  N   UNL A   1      30.826  28.351  24.254  1.00  0.00    -0.356 N 
ATOM      4  O   UNL A   1      30.840  27.479  22.130  1.00  0.00    -0.275 OA
ATOM      5  C   UNL A   1      30.449  27.433  23.293  1.00  0.00     0.225 C 
ATOM      6  H   UNL A   1      30.377  28.337  25.130  1.00  0.00     0.163 HD
BRANCH   5   7
ATOM      7  C   UNL A   1      29.530  26.331  23.794  1.00  0.00     0.161 C 
BRANCH   7   8
ATOM      8  C   UNL A   1      30.249  24.971  23.890  1.00  0.00     0.272 C 
BRANCH   8   9
ATOM      9  N   UNL A   1      31.659  25.054  24.326  1.00  0.00    -0.332 N 
ATOM     10  C   UNL A   1      31.781  25.064  25.814  1.00  0.00     0.284 C 
ATOM     11  C   UNL A   1      32.497  23.952  23.808  1.00  0.00     0.284 C 
ATOM     12  H   UNL A   1      31.998  25.934  23.939  1.00  0.00     0.348 HD
ATOM     13  C   UNL A   1      31.600  23.696  26.534  1.00  0.00     0.181 C 
ATOM     14  C   UNL A   1      32.132  22.587  24.409  1.00  0.00     0.181 C 
ATOM     15  N   UNL A   1      32.339  22.633  25.857  1.00  0.00    -0.326 N 
ATOM     16  C   UNL A   1      33.204  21.788  26.565  1.00  0.00     0.275 C 
ATOM     17  O   UNL A   1      33.284  21.789  27.787  1.00  0.00    -0.267 OA
BRANCH  16  18
ATOM     18  C   UNL A   1      34.064  20.943  25.721  1.00  0.00     0.157 A 
ATOM     19  N   UNL A   1      35.400  21.108  25.649  1.00  0.00    -0.169 NA
ATOM     20  C   UNL A   1      33.653  19.722  25.106  1.00  0.00     0.033 A 
ATOM     21  N   UNL A   1      35.823  19.997  25.018  1.00  0.00    -0.277 N 
ATOM     22  C   UNL A   1      34.838  19.085  24.759  1.00  0.00     0.066 A 
ATOM     23  C   UNL A   1      32.429  19.052  24.928  1.00  0.00     0.013 A 
ATOM     24  H   UNL A   1      36.764  19.853  24.768  1.00  0.00     0.190 HD
ATOM     25  C   UNL A   1      34.878  17.778  24.271  1.00  0.00     0.028 A 
ATOM     26  C   UNL A   1      32.443  17.744  24.441  1.00  0.00     0.001 A 
ATOM     27  C   UNL A   1      33.651  17.123  24.125  1.00  0.00     0.002 A 
ENDBRANCH  16  18
ENDBRANCH   8   9
ENDBRANCH   7   8
ENDBRANCH   5   7
ENDBRANCH   2   3
ENDBRANCH   1   2
BRANCH   1  28
ATOM     28  C   UNL A   1      33.441  28.237  25.742  1.00  0.00     0.023 C 
BRANCH  28  29
ATOM     29  C   UNL A   1      34.469  28.935  26.636  1.00  0.00     0.116 C 
BRANCH  29  30
ATOM     30  N   UNL A   1      34.165  30.341  26.864  1.00  0.00    -0.352 N 
ATOM     31  C   UNL A   1      34.754  31.237  27.732  1.00  0.00     0.251 C 
ATOM     32  H   UNL A   1      33.431  30.706  26.318  1.00  0.00     0.163 HD
ATOM     33  O   UNL A   1      34.264  32.355  27.869  1.00  0.00    -0.269 OA
BRANCH  31  34
ATOM     34  C   UNL A   1      35.950  30.851  28.524  1.00  0.00     0.039 A 
ATOM     35  C   UNL A   1      35.853  29.808  29.451  1.00  0.00     0.014 A 
ATOM     36  C   UNL A   1      37.171  31.505  28.351  1.00  0.00     0.014 A 
ATOM     37  C   UNL A   1      36.996  29.362  30.127  1.00  0.00     0.010 A 
ATOM     38  C   UNL A   1      38.319  31.017  28.976  1.00  0.00     0.010 A 
ATOM     39  C   UNL A   1      38.254  29.930  29.856  1.00  0.00    -0.014 A 
BRANCH  39  40
ATOM     40  C   UNL A   1      39.513  29.318  30.360  1.00  0.00     0.031 A 
ATOM     41  C   UNL A   1      40.209  29.814  31.602  1.00  0.00     0.074 A 
ATOM     42  C   UNL A   1      40.132  28.401  29.590  1.00  0.00     0.049 A 
ATOM     43  N   UNL A   1      41.347  29.421  32.121  1.00  0.00    -0.248 NA
ATOM     44  C   UNL A   1      39.585  30.936  32.315  1.00  0.00     0.031 C 
ATOM     45  C   UNL A   1      39.670  27.945  28.274  1.00  0.00     0.029 A 
ATOM     46  N   UNL A   1      41.286  27.691  29.796  1.00  0.00    -0.354 N 
ATOM     47  C   UNL A   1      41.624  30.305  33.159  1.00  0.00     0.074 A 
ATOM     48  C   UNL A   1      40.519  31.241  33.209  1.00  0.00     0.031 C 
ATOM     49  C   UNL A   1      40.499  26.992  27.821  1.00  0.00     0.029 A 
ATOM     50  C   UNL A   1      41.551  26.776  28.807  1.00  0.00     0.049 A 
ATOM     51  H   UNL A   1      41.869  27.824  30.579  1.00  0.00     0.167 HD
ATOM     52  C   UNL A   1      42.705  30.340  33.979  1.00  0.00     0.034 A 
ATOM     53  C   UNL A   1      42.509  25.837  28.715  1.00  0.00     0.034 A 
ATOM     54  C   UNL A   1      43.747  29.343  33.999  1.00  0.00     0.049 A 
ATOM     55  C   UNL A   1      43.509  25.688  29.819  1.00  0.00     0.074 A 
ATOM     56  C   UNL A   1      44.802  29.211  34.891  1.00  0.00     0.029 A 
ATOM     57  N   UNL A   1      43.862  28.297  33.099  1.00  0.00    -0.354 N 
ATOM     58  N   UNL A   1      43.710  26.469  30.852  1.00  0.00    -0.248 NA
ATOM     59  C   UNL A   1      44.390  24.515  29.759  1.00  0.00     0.031 C 
ATOM     60  C   UNL A   1      45.560  28.091  34.518  1.00  0.00     0.029 A 
ATOM     61  C   UNL A   1      44.960  27.512  33.413  1.00  0.00     0.049 A 
ATOM     62  H   UNL A   1      43.249  28.134  32.345  1.00  0.00     0.167 HD
ATOM     63  C   UNL A   1      44.747  25.883  31.566  1.00  0.00     0.074 A 
ATOM     64  C   UNL A   1      45.117  24.674  30.857  1.00  0.00     0.031 C 
ATOM     65  C   UNL A   1      45.336  26.315  32.706  1.00  0.00     0.034 A 
BRANCH  52  66
ATOM     66  C   UNL A   1      42.841  31.525  34.898  1.00  0.00     0.023 A 
ATOM     67  C   UNL A   1      42.303  31.534  36.194  1.00  0.00     0.031 A 
ATOM     68  C   UNL A   1      43.528  32.671  34.455  1.00  0.00     0.131 A 
ATOM     69  C   UNL A   1      42.408  32.690  36.982  1.00  0.00     0.055 A 
ATOM     70  C   UNL A   1      43.682  33.795  35.266  1.00  0.00     0.041 A 
ATOM     71  F   UNL A   1      44.050  32.717  33.219  1.00  0.00    -0.206 F 
ATOM     72  C   UNL A   1      43.111  33.814  36.536  1.00  0.00     0.022 A 
BRANCH  69  73
ATOM     73  S   UNL A   1      41.529  32.743  38.567  1.00  0.00     0.124 S 
ATOM     74  O   UNL A   1      42.231  31.709  39.325  1.00  0.00    -0.237 OA
ATOM     75  O   UNL A   1      41.750  34.116  39.005  1.00  0.00    -0.237 OA
ATOM     76  O   UNL A   1      40.151  32.417  38.207  1.00  0.00    -0.744 OA
ENDBRANCH  69  73
ENDBRANCH  52  66
BRANCH  53  77
ATOM     77  C   UNL A   1      42.507  24.905  27.567  1.00  0.00     0.023 A 
ATOM     78  C   UNL A   1      41.723  23.744  27.611  1.00  0.00     0.031 A 
ATOM     79  C   UNL A   1      43.256  25.172  26.412  1.00  0.00     0.131 A 
ATOM     80  C   UNL A   1      41.713  22.873  26.515  1.00  0.00     0.055 A 
ATOM     81  C   UNL A   1      43.238  24.306  25.320  1.00  0.00     0.041 A 
ATOM     82  F   UNL A   1      43.995  26.288  26.328  1.00  0.00    -0.206 F 
ATOM     83  C   UNL A   1      42.466  23.145  25.369  1.00  0.00     0.022 A 
BRANCH  80  84
ATOM     84  S   UNL A   1      40.691  21.380  26.609  1.00  0.00     0.124 S 
ATOM     85  O   UNL A   1      40.715  21.087  28.038  1.00  0.00    -0.237 OA
ATOM     86  O   UNL A   1      39.417  21.853  26.073  1.00  0.00    -0.237 OA
ATOM     87  O   UNL A   1      41.402  20.427  25.762  1.00  0.00    -0.744 OA
ENDBRANCH  80  84
ENDBRANCH  53  77
BRANCH  65  88
ATOM     88  C   UNL A   1      46.434  25.459  33.261  1.00  0.00     0.023 A 
ATOM     89  C   UNL A   1      46.160  24.417  34.162  1.00  0.00     0.031 A 
ATOM     90  C   UNL A   1      47.772  25.711  32.913  1.00  0.00     0.131 A 
ATOM     91  C   UNL A   1      47.218  23.682  34.718  1.00  0.00     0.055 A 
ATOM     92  C   UNL A   1      48.818  24.961  33.449  1.00  0.00     0.041 A 
ATOM     93  F   UNL A   1      48.078  26.703  32.062  1.00  0.00    -0.206 F 
ATOM     94  C   UNL A   1      48.545  23.945  34.362  1.00  0.00     0.022 A 
BRANCH  91  95
ATOM     95  S   UNL A   1      46.843  22.416  35.961  1.00  0.00     0.124 S 
ATOM     96  O   UNL A   1      46.727  21.211  35.144  1.00  0.00    -0.237 OA
ATOM     97  O   UNL A   1      48.007  22.484  36.837  1.00  0.00    -0.237 OA
ATOM     98  O   UNL A   1      45.590  22.880  36.556  1.00  0.00    -0.744 OA
ENDBRANCH  91  95
ENDBRANCH  65  88
ENDBRANCH  39  40
ENDBRANCH  31  34
ENDBRANCH  29  30
ENDBRANCH  28  29
ENDBRANCH   1  28
TORSDOF 17
ENDMDL
MODEL 3
REMARK VINA RESULT:     -11.7      1.870      2.391
REMARK SMILES O=C(CC[NH+]1CCN(C(=O)c2n[nH]c3ccccc23)CC1)NCCCCNC(=O)c1ccc(-c2c3nc(c(-c4cc(S(=O)(=O)[O-])ccc4F)c4ccc([nH]4)c(-c4cc(S(=O)(=O)[O-])ccc4F)c4nc(c(-c5cc(S(=O)(=O)[O-])ccc5F)c5ccc2[nH]5)C=C4)C=C3)cc1
REMARK SMILES IDX 24 1 23 2 22 3 1 4 2 5 3 7 4 8 5 9 6 10 21 11 7 13 20 14
REMARK SMILES IDX 8 15 9 16 10 17 11 18 12 19 19 20 13 21 14 22 18 23 15 25
REMARK SMILES IDX 17 26 16 27 25 28 26 29 27 30 28 31 29 33 30 34 31 35 92 36
REMARK SMILES IDX 32 37 91 38 33 39 34 40 35 41 85 42 36 43 90 44 84 45 86 46
REMARK SMILES IDX 37 47 89 48 83 49 82 50 38 52 70 53 50 54 69 55 51 56 54 57
REMARK SMILES IDX 68 58 87 59 52 60 53 61 67 63 88 64 55 65 39 66 40 67 48 68
REMARK SMILES IDX 41 69 47 70 49 71 46 72 42 73 43 74 44 75 45 76 71 77 72 78
REMARK SMILES IDX 80 79 73 80 79 81 81 82 78 83 74 84 75 85 76 86 77 87 56 88
REMARK SMILES IDX 57 89 65 90 58 91 64 92 66 93 63 94 59 95 60 96 61 97 62 98
REMARK H PARENT 22 6 5 12 13 24 27 32 86 51 54 62
REMARK Flexibility Score: inf
ROOT
ATOM      1  C   UNL A   1      31.458  31.474  26.533  1.00  0.00     0.023 C 
ENDROOT
BRANCH   1   2
ATOM      2  C   UNL A   1      30.633  31.318  25.254  1.00  0.00     0.116 C 
BRANCH   2   3
ATOM      3  N   UNL A   1      30.959  30.120  24.499  1.00  0.00    -0.356 N 
ATOM      4  O   UNL A   1      29.037  30.122  23.241  1.00  0.00    -0.275 OA
ATOM      5  C   UNL A   1      30.149  29.659  23.479  1.00  0.00     0.225 C 
ATOM      6  H   UNL A   1      31.779  29.623  24.720  1.00  0.00     0.163 HD
BRANCH   5   7
ATOM      7  C   UNL A   1      30.756  28.544  22.642  1.00  0.00     0.161 C 
BRANCH   7   8
ATOM      8  C   UNL A   1      30.557  27.157  23.286  1.00  0.00     0.272 C 
BRANCH   8   9
ATOM      9  N   UNL A   1      31.506  26.848  24.377  1.00  0.00    -0.332 N 
ATOM     10  C   UNL A   1      30.817  26.740  25.697  1.00  0.00     0.284 C 
ATOM     11  C   UNL A   1      32.265  25.600  24.156  1.00  0.00     0.284 C 
ATOM     12  H   UNL A   1      32.158  27.632  24.383  1.00  0.00     0.348 HD
ATOM     13  C   UNL A   1      30.028  25.425  25.962  1.00  0.00     0.181 C 
ATOM     14  C   UNL A   1      31.386  24.343  24.228  1.00  0.00     0.181 C 
ATOM     15  N   UNL A   1      30.797  24.249  25.564  1.00  0.00    -0.326 N 
ATOM     16  C   UNL A   1      30.975  23.170  26.439  1.00  0.00     0.275 C 
ATOM     17  O   UNL A   1      30.391  23.079  27.511  1.00  0.00    -0.267 OA
BRANCH  16  18
ATOM     18  C   UNL A   1      31.974  22.182  26.001  1.00  0.00     0.157 A 
ATOM     19  N   UNL A   1      31.651  21.098  25.268  1.00  0.00    -0.169 NA
ATOM     20  C   UNL A   1      33.387  22.373  26.059  1.00  0.00     0.033 A 
ATOM     21  N   UNL A   1      32.843  20.628  24.855  1.00  0.00    -0.277 N 
ATOM     22  C   UNL A   1      33.910  21.405  25.212  1.00  0.00     0.066 A 
ATOM     23  C   UNL A   1      34.247  23.327  26.634  1.00  0.00     0.013 A 
ATOM     24  H   UNL A   1      32.937  19.796  24.337  1.00  0.00     0.190 HD
ATOM     25  C   UNL A   1      35.261  21.354  24.864  1.00  0.00     0.028 A 
ATOM     26  C   UNL A   1      35.602  23.297  26.302  1.00  0.00     0.001 A 
ATOM     27  C   UNL A   1      36.092  22.328  25.428  1.00  0.00     0.002 A 
ENDBRANCH  16  18
ENDBRANCH   8   9
ENDBRANCH   7   8
ENDBRANCH   5   7
ENDBRANCH   2   3
ENDBRANCH   1   2
BRANCH   1  28
ATOM     28  C   UNL A   1      32.390  30.300  26.861  1.00  0.00     0.023 C 
BRANCH  28  29
ATOM     29  C   UNL A   1      33.813  30.685  27.275  1.00  0.00     0.116 C 
BRANCH  29  30
ATOM     30  N   UNL A   1      33.856  31.840  28.160  1.00  0.00    -0.352 N 
ATOM     31  C   UNL A   1      34.777  32.164  29.135  1.00  0.00     0.251 C 
ATOM     32  H   UNL A   1      33.121  32.485  28.046  1.00  0.00     0.163 HD
ATOM     33  O   UNL A   1      34.566  33.127  29.868  1.00  0.00    -0.269 OA
BRANCH  31  34
ATOM     34  C   UNL A   1      36.000  31.343  29.327  1.00  0.00     0.039 A 
ATOM     35  C   UNL A   1      37.232  31.833  28.880  1.00  0.00     0.014 A 
ATOM     36  C   UNL A   1      35.943  30.098  29.955  1.00  0.00     0.014 A 
ATOM     37  C   UNL A   1      38.409  31.121  29.149  1.00  0.00     0.010 A 
ATOM     38  C   UNL A   1      37.121  29.423  30.277  1.00  0.00     0.010 A 
ATOM     39  C   UNL A   1      38.369  29.933  29.898  1.00  0.00    -0.014 A 
BRANCH  39  40
ATOM     40  C   UNL A   1      39.610  29.292  30.414  1.00  0.00     0.031 A 
ATOM     41  C   UNL A   1      40.286  29.749  31.682  1.00  0.00     0.074 A 
ATOM     42  C   UNL A   1      40.233  28.385  29.636  1.00  0.00     0.049 A 
ATOM     43  N   UNL A   1      41.406  29.328  32.216  1.00  0.00    -0.248 NA
ATOM     44  C   UNL A   1      39.661  30.862  32.409  1.00  0.00     0.031 C 
ATOM     45  C   UNL A   1      39.793  27.967  28.300  1.00  0.00     0.029 A 
ATOM     46  N   UNL A   1      41.373  27.655  29.849  1.00  0.00    -0.354 N 
ATOM     47  C   UNL A   1      41.673  30.184  33.279  1.00  0.00     0.074 A 
ATOM     48  C   UNL A   1      40.579  31.134  33.328  1.00  0.00     0.031 C 
ATOM     49  C   UNL A   1      40.619  27.014  27.842  1.00  0.00     0.029 A 
ATOM     50  C   UNL A   1      41.647  26.760  28.844  1.00  0.00     0.049 A 
ATOM     51  H   UNL A   1      41.941  27.762  30.647  1.00  0.00     0.167 HD
ATOM     52  C   UNL A   1      42.737  30.186  34.123  1.00  0.00     0.034 A 
ATOM     53  C   UNL A   1      42.595  25.811  28.750  1.00  0.00     0.034 A 
ATOM     54  C   UNL A   1      43.765  29.174  34.141  1.00  0.00     0.049 A 
ATOM     55  C   UNL A   1      43.569  25.622  29.871  1.00  0.00     0.074 A 
ATOM     56  C   UNL A   1      44.799  29.006  35.051  1.00  0.00     0.029 A 
ATOM     57  N   UNL A   1      43.885  28.148  33.218  1.00  0.00    -0.354 N 
ATOM     58  N   UNL A   1      43.758  26.375  30.926  1.00  0.00    -0.248 NA
ATOM     59  C   UNL A   1      44.435  24.439  29.801  1.00  0.00     0.031 C 
ATOM     60  C   UNL A   1      45.550  27.886  34.668  1.00  0.00     0.029 A 
ATOM     61  C   UNL A   1      44.967  27.341  33.537  1.00  0.00     0.049 A 
ATOM     62  H   UNL A   1      43.287  28.011  32.448  1.00  0.00     0.167 HD
ATOM     63  C   UNL A   1      44.771  25.759  31.647  1.00  0.00     0.074 A 
ATOM     64  C   UNL A   1      45.141  24.562  30.917  1.00  0.00     0.031 C 
ATOM     65  C   UNL A   1      45.342  26.156  32.809  1.00  0.00     0.034 A 
BRANCH  52  66
ATOM     66  C   UNL A   1      42.869  31.346  35.073  1.00  0.00     0.023 A 
ATOM     67  C   UNL A   1      42.105  31.446  36.245  1.00  0.00     0.031 A 
ATOM     68  C   UNL A   1      43.785  32.375  34.786  1.00  0.00     0.131 A 
ATOM     69  C   UNL A   1      42.227  32.582  37.060  1.00  0.00     0.055 A 
ATOM     70  C   UNL A   1      43.946  33.473  35.632  1.00  0.00     0.041 A 
ATOM     71  F   UNL A   1      44.530  32.334  33.670  1.00  0.00    -0.206 F 
ATOM     72  C   UNL A   1      43.156  33.586  36.773  1.00  0.00     0.022 A 
BRANCH  69  73
ATOM     73  S   UNL A   1      41.084  32.777  38.454  1.00  0.00     0.124 S 
ATOM     74  O   UNL A   1      41.030  34.231  38.587  1.00  0.00    -0.237 OA
ATOM     75  O   UNL A   1      39.872  32.135  37.961  1.00  0.00    -0.237 OA
ATOM     76  O   UNL A   1      41.757  32.081  39.549  1.00  0.00    -0.744 OA
ENDBRANCH  69  73
ENDBRANCH  52  66
BRANCH  53  77
ATOM     77  C   UNL A   1      42.604  24.906  27.580  1.00  0.00     0.023 A 
ATOM     78  C   UNL A   1      41.847  23.727  27.602  1.00  0.00     0.031 A 
ATOM     79  C   UNL A   1      43.339  25.217  26.427  1.00  0.00     0.131 A 
ATOM     80  C   UNL A   1      41.848  22.882  26.486  1.00  0.00     0.055 A 
ATOM     81  C   UNL A   1      43.332  24.376  25.314  1.00  0.00     0.041 A 
ATOM     82  F   UNL A   1      44.052  26.351  26.364  1.00  0.00    -0.206 F 
ATOM     83  C   UNL A   1      42.587  23.198  25.341  1.00  0.00     0.022 A 
BRANCH  80  84
ATOM     84  S   UNL A   1      40.861  21.364  26.551  1.00  0.00     0.124 S 
ATOM     85  O   UNL A   1      39.628  21.779  25.890  1.00  0.00    -0.237 OA
ATOM     86  O   UNL A   1      41.700  20.426  25.811  1.00  0.00    -0.237 OA
ATOM     87  O   UNL A   1      40.745  21.095  27.982  1.00  0.00    -0.744 OA
ENDBRANCH  80  84
ENDBRANCH  53  77
BRANCH  65  88
ATOM     88  C   UNL A   1      46.416  25.272  33.367  1.00  0.00     0.023 A 
ATOM     89  C   UNL A   1      47.761  25.439  32.998  1.00  0.00     0.031 A 
ATOM     90  C   UNL A   1      46.086  24.229  34.249  1.00  0.00     0.131 A 
ATOM     91  C   UNL A   1      48.730  24.548  33.483  1.00  0.00     0.055 A 
ATOM     92  C   UNL A   1      47.057  23.362  34.748  1.00  0.00     0.041 A 
ATOM     93  F   UNL A   1      44.811  24.030  34.619  1.00  0.00    -0.206 F 
ATOM     94  C   UNL A   1      48.386  23.513  34.360  1.00  0.00     0.022 A 
BRANCH  91  95
ATOM     95  S   UNL A   1      50.441  24.719  32.905  1.00  0.00     0.124 S 
ATOM     96  O   UNL A   1      50.710  23.396  32.351  1.00  0.00    -0.237 OA
ATOM     97  O   UNL A   1      50.335  25.806  31.937  1.00  0.00    -0.237 OA
ATOM     98  O   UNL A   1      51.184  25.043  34.122  1.00  0.00    -0.744 OA
ENDBRANCH  91  95
ENDBRANCH  65  88
ENDBRANCH  39  40
ENDBRANCH  31  34
ENDBRANCH  29  30
ENDBRANCH  28  29
ENDBRANCH   1  28
TORSDOF 17
ENDMDL
