MODEL 1
REMARK VINA RESULT:     -11.6      0.000      0.000
REMARK SMILES C=CCn1c(=S)[nH]c2cc(C(=O)NCCCCNC(=O)c3ccc(-c4c5nc(c(-c6cc(S(=O)(=O)[O-])ccc6F)c6ccc([nH]6)c(-c6cc(S(=O)(=O)[O-])ccc6F)c6nc(c(-c7cc(S(=O)(=O)[O-])ccc7F)c7ccc4[nH]7)C=C6)C=C5)cc3)ccc2c1=O
REMARK SMILES IDX 16 1 15 2 14 3 13 4 11 5 12 6 10 8 4 9 5 10 87 11 6 12 7 13
REMARK SMILES IDX 86 14 88 15 8 16 85 18 9 19 84 20 3 21 2 22 1 23 17 24 18 25
REMARK SMILES IDX 19 26 20 28 21 29 22 30 83 31 23 32 82 33 24 34 25 35 26 36
REMARK SMILES IDX 76 37 27 38 81 39 75 40 77 41 28 42 80 43 74 44 73 45 29 47
REMARK SMILES IDX 61 48 41 49 60 50 42 51 45 52 59 53 78 54 43 55 44 56 58 58
REMARK SMILES IDX 79 59 46 60 30 61 31 62 39 63 32 64 38 65 40 66 37 67 33 68
REMARK SMILES IDX 34 69 35 70 36 71 62 72 63 73 71 74 64 75 70 76 72 77 69 78
REMARK SMILES IDX 65 79 66 80 67 81 68 82 47 83 48 84 56 85 49 86 55 87 57 88
REMARK SMILES IDX 54 89 50 90 51 91 52 92 53 93
REMARK H PARENT 13 7 7 17 18 27 77 46 45 57
REMARK Flexibility Score: inf
ROOT
ATOM      1  C   UNL A   1      31.683  29.370  25.702  1.00  0.00     0.023 C 
ENDROOT
BRANCH   1   2
ATOM      2  C   UNL A   1      30.840  30.031  24.613  1.00  0.00     0.023 C 
BRANCH   2   3
ATOM      3  C   UNL A   1      30.659  29.191  23.345  1.00  0.00     0.116 C 
BRANCH   3   4
ATOM      4  N   UNL A   1      29.549  28.269  23.484  1.00  0.00    -0.352 N 
ATOM      5  C   UNL A   1      29.491  26.903  23.577  1.00  0.00     0.251 C 
ATOM      6  O   UNL A   1      28.382  26.392  23.739  1.00  0.00    -0.269 OA
ATOM      7  H   UNL A   1      28.669  28.708  23.517  1.00  0.00     0.163 HD
BRANCH   5   8
ATOM      8  C   UNL A   1      30.685  26.005  23.530  1.00  0.00     0.041 A 
ATOM      9  N   UNL A   1      34.278  22.735  24.965  1.00  0.00    -0.281 N 
ATOM     10  C   UNL A   1      33.408  22.840  26.051  1.00  0.00     0.180 A 
ATOM     11  C   UNL A   1      34.058  23.378  23.740  1.00  0.00     0.262 A 
ATOM     12  S   UNL A   1      33.528  22.055  27.529  1.00  0.00    -0.040 S 
ATOM     13  N   UNL A   1      32.331  23.677  25.903  1.00  0.00    -0.332 N 
ATOM     14  C   UNL A   1      32.891  24.265  23.647  1.00  0.00     0.064 A 
ATOM     15  O   UNL A   1      34.779  23.254  22.751  1.00  0.00    -0.269 OA
ATOM     16  C   UNL A   1      32.064  24.407  24.748  1.00  0.00     0.054 A 
ATOM     17  H   UNL A   1      31.709  23.766  26.660  1.00  0.00     0.169 HD
ATOM     18  C   UNL A   1      32.612  24.957  22.471  1.00  0.00     0.017 A 
ATOM     19  C   UNL A   1      30.969  25.272  24.699  1.00  0.00     0.040 A 
ATOM     20  C   UNL A   1      31.505  25.806  22.414  1.00  0.00     0.015 A 
BRANCH   9  21
ATOM     21  C   UNL A   1      35.505  21.936  25.023  1.00  0.00     0.155 C 
BRANCH  21  22
ATOM     22  C   UNL A   1      36.576  22.743  25.709  1.00  0.00    -0.013 C 
ATOM     23  C   UNL A   1      37.430  23.573  25.098  1.00  0.00     0.006 C 
ENDBRANCH  21  22
ENDBRANCH   9  21
ENDBRANCH   5   8
ENDBRANCH   3   4
ENDBRANCH   2   3
ENDBRANCH   1   2
BRANCH   1  24
ATOM     24  C   UNL A   1      32.896  30.175  26.143  1.00  0.00     0.116 C 
BRANCH  24  25
ATOM     25  N   UNL A   1      32.574  31.519  26.600  1.00  0.00    -0.352 N 
ATOM     26  C   UNL A   1      33.322  32.338  27.419  1.00  0.00     0.251 C 
ATOM     27  H   UNL A   1      31.717  31.888  26.286  1.00  0.00     0.163 HD
ATOM     28  O   UNL A   1      32.871  33.411  27.795  1.00  0.00    -0.269 OA
BRANCH  26  29
ATOM     29  C   UNL A   1      34.649  31.868  27.874  1.00  0.00     0.039 A 
ATOM     30  C   UNL A   1      34.818  30.556  28.315  1.00  0.00     0.014 A 
ATOM     31  C   UNL A   1      35.715  32.771  27.925  1.00  0.00     0.014 A 
ATOM     32  C   UNL A   1      35.987  30.200  28.973  1.00  0.00     0.010 A 
ATOM     33  C   UNL A   1      36.929  32.378  28.498  1.00  0.00     0.010 A 
ATOM     34  C   UNL A   1      37.058  31.105  29.072  1.00  0.00    -0.014 A 
BRANCH  34  35
ATOM     35  C   UNL A   1      38.303  30.659  29.750  1.00  0.00     0.031 A 
ATOM     36  C   UNL A   1      38.610  31.052  31.168  1.00  0.00     0.074 A 
ATOM     37  C   UNL A   1      39.120  29.812  29.092  1.00  0.00     0.049 A 
ATOM     38  N   UNL A   1      39.583  30.639  31.940  1.00  0.00    -0.248 NA
ATOM     39  C   UNL A   1      37.722  32.038  31.804  1.00  0.00     0.031 C 
ATOM     40  C   UNL A   1      38.926  29.383  27.706  1.00  0.00     0.029 A 
ATOM     41  N   UNL A   1      40.236  29.129  29.500  1.00  0.00    -0.354 N 
ATOM     42  C   UNL A   1      39.434  31.318  33.145  1.00  0.00     0.074 A 
ATOM     43  C   UNL A   1      38.298  32.201  32.988  1.00  0.00     0.031 C 
ATOM     44  C   UNL A   1      39.836  28.448  27.405  1.00  0.00     0.029 A 
ATOM     45  C   UNL A   1      40.724  28.261  28.549  1.00  0.00     0.049 A 
ATOM     46  H   UNL A   1      40.649  29.247  30.385  1.00  0.00     0.167 HD
ATOM     47  C   UNL A   1      40.167  31.200  34.277  1.00  0.00     0.034 A 
ATOM     48  C   UNL A   1      41.766  27.406  28.589  1.00  0.00     0.034 A 
ATOM     49  C   UNL A   1      41.289  30.305  34.421  1.00  0.00     0.049 A 
ATOM     50  C   UNL A   1      42.563  27.296  29.860  1.00  0.00     0.074 A 
ATOM     51  C   UNL A   1      42.073  30.089  35.540  1.00  0.00     0.029 A 
ATOM     52  N   UNL A   1      41.787  29.477  33.423  1.00  0.00    -0.354 N 
ATOM     53  N   UNL A   1      42.369  27.901  31.008  1.00  0.00    -0.248 NA
ATOM     54  C   UNL A   1      43.718  26.389  29.846  1.00  0.00     0.031 C 
ATOM     55  C   UNL A   1      43.077  29.179  35.204  1.00  0.00     0.029 A 
ATOM     56  C   UNL A   1      42.884  28.773  33.893  1.00  0.00     0.049 A 
ATOM     57  H   UNL A   1      41.414  29.402  32.514  1.00  0.00     0.167 HD
ATOM     58  C   UNL A   1      43.380  27.453  31.852  1.00  0.00     0.074 A 
ATOM     59  C   UNL A   1      44.149  26.485  31.096  1.00  0.00     0.031 C 
ATOM     60  C   UNL A   1      43.657  27.822  33.128  1.00  0.00     0.034 A 
BRANCH  47  61
ATOM     61  C   UNL A   1      39.789  32.041  35.473  1.00  0.00     0.023 A 
ATOM     62  C   UNL A   1      38.906  31.531  36.444  1.00  0.00     0.031 A 
ATOM     63  C   UNL A   1      40.197  33.382  35.587  1.00  0.00     0.131 A 
ATOM     64  C   UNL A   1      38.435  32.367  37.466  1.00  0.00     0.055 A 
ATOM     65  C   UNL A   1      39.757  34.198  36.630  1.00  0.00     0.041 A 
ATOM     66  F   UNL A   1      41.040  33.916  34.687  1.00  0.00    -0.206 F 
ATOM     67  C   UNL A   1      38.861  33.695  37.568  1.00  0.00     0.022 A 
BRANCH  64  68
ATOM     68  S   UNL A   1      37.208  31.784  38.669  1.00  0.00     0.124 S 
ATOM     69  O   UNL A   1      37.012  30.398  38.249  1.00  0.00    -0.237 OA
ATOM     70  O   UNL A   1      37.915  31.959  39.934  1.00  0.00    -0.237 OA
ATOM     71  O   UNL A   1      36.064  32.664  38.457  1.00  0.00    -0.744 OA
ENDBRANCH  64  68
ENDBRANCH  47  61
BRANCH  48  72
ATOM     72  C   UNL A   1      42.055  26.562  27.392  1.00  0.00     0.023 A 
ATOM     73  C   UNL A   1      41.668  25.209  27.354  1.00  0.00     0.031 A 
ATOM     74  C   UNL A   1      42.830  27.056  26.331  1.00  0.00     0.131 A 
ATOM     75  C   UNL A   1      42.130  24.381  26.324  1.00  0.00     0.055 A 
ATOM     76  C   UNL A   1      43.220  26.246  25.264  1.00  0.00     0.041 A 
ATOM     77  F   UNL A   1      43.235  28.336  26.329  1.00  0.00    -0.206 F 
ATOM     78  C   UNL A   1      42.889  24.895  25.269  1.00  0.00     0.022 A 
BRANCH  75  79
ATOM     79  S   UNL A   1      41.901  22.582  26.410  1.00  0.00     0.124 S 
ATOM     80  O   UNL A   1      42.639  22.240  27.622  1.00  0.00    -0.237 OA
ATOM     81  O   UNL A   1      40.447  22.470  26.504  1.00  0.00    -0.237 OA
ATOM     82  O   UNL A   1      42.477  22.102  25.160  1.00  0.00    -0.744 OA
ENDBRANCH  75  79
ENDBRANCH  48  72
BRANCH  60  83
ATOM     83  C   UNL A   1      44.867  27.212  33.796  1.00  0.00     0.023 A 
ATOM     84  C   UNL A   1      44.754  26.008  34.515  1.00  0.00     0.031 A 
ATOM     85  C   UNL A   1      46.101  27.884  33.813  1.00  0.00     0.131 A 
ATOM     86  C   UNL A   1      45.851  25.526  35.242  1.00  0.00     0.055 A 
ATOM     87  C   UNL A   1      47.204  27.377  34.501  1.00  0.00     0.041 A 
ATOM     88  F   UNL A   1      46.256  29.042  33.151  1.00  0.00    -0.206 F 
ATOM     89  C   UNL A   1      47.078  26.198  35.230  1.00  0.00     0.022 A 
BRANCH  86  90
ATOM     90  S   UNL A   1      45.705  24.056  36.296  1.00  0.00     0.124 S 
ATOM     91  O   UNL A   1      45.515  24.651  37.616  1.00  0.00    -0.237 OA
ATOM     92  O   UNL A   1      44.531  23.390  35.737  1.00  0.00    -0.237 OA
ATOM     93  O   UNL A   1      46.971  23.357  36.102  1.00  0.00    -0.744 OA
ENDBRANCH  86  90
ENDBRANCH  60  83
ENDBRANCH  34  35
ENDBRANCH  26  29
ENDBRANCH  24  25
ENDBRANCH   1  24
TORSDOF 16
ENDMDL
MODEL 2
REMARK VINA RESULT:     -11.6      1.585      2.132
REMARK SMILES C=CCn1c(=S)[nH]c2cc(C(=O)NCCCCNC(=O)c3ccc(-c4c5nc(c(-c6cc(S(=O)(=O)[O-])ccc6F)c6ccc([nH]6)c(-c6cc(S(=O)(=O)[O-])ccc6F)c6nc(c(-c7cc(S(=O)(=O)[O-])ccc7F)c7ccc4[nH]7)C=C6)C=C5)cc3)ccc2c1=O
REMARK SMILES IDX 16 1 15 2 14 3 13 4 11 5 12 6 10 8 4 9 5 10 87 11 6 12 7 13
REMARK SMILES IDX 86 14 88 15 8 16 85 18 9 19 84 20 3 21 2 22 1 23 17 24 18 25
REMARK SMILES IDX 19 26 20 28 21 29 22 30 83 31 23 32 82 33 24 34 25 35 26 36
REMARK SMILES IDX 76 37 27 38 81 39 75 40 77 41 28 42 80 43 74 44 73 45 29 47
REMARK SMILES IDX 61 48 41 49 60 50 42 51 45 52 59 53 78 54 43 55 44 56 58 58
REMARK SMILES IDX 79 59 46 60 30 61 31 62 39 63 32 64 38 65 40 66 37 67 33 68
REMARK SMILES IDX 34 69 35 70 36 71 62 72 63 73 71 74 64 75 70 76 72 77 69 78
REMARK SMILES IDX 65 79 66 80 67 81 68 82 47 83 48 84 56 85 49 86 55 87 57 88
REMARK SMILES IDX 54 89 50 90 51 91 52 92 53 93
REMARK H PARENT 13 7 7 17 18 27 77 46 45 57
REMARK Flexibility Score: inf
ROOT
ATOM      1  C   UNL A   1      31.458  31.769  26.832  1.00  0.00     0.023 C 
ENDROOT
BRANCH   1   2
ATOM      2  C   UNL A   1      31.824  30.287  26.803  1.00  0.00     0.023 C 
BRANCH   2   3
ATOM      3  C   UNL A   1      32.555  29.832  25.536  1.00  0.00     0.116 C 
BRANCH   3   4
ATOM      4  N   UNL A   1      31.619  29.554  24.465  1.00  0.00    -0.352 N 
ATOM      5  C   UNL A   1      31.092  28.384  23.981  1.00  0.00     0.251 C 
ATOM      6  O   UNL A   1      30.265  28.468  23.072  1.00  0.00    -0.269 OA
ATOM      7  H   UNL A   1      31.303  30.358  23.994  1.00  0.00     0.163 HD
BRANCH   5   8
ATOM      8  C   UNL A   1      31.430  27.027  24.508  1.00  0.00     0.041 A 
ATOM      9  N   UNL A   1      33.851  22.637  25.232  1.00  0.00    -0.281 N 
ATOM     10  C   UNL A   1      34.666  23.381  24.378  1.00  0.00     0.180 A 
ATOM     11  C   UNL A   1      32.666  23.135  25.790  1.00  0.00     0.262 A 
ATOM     12  S   UNL A   1      36.138  22.918  23.720  1.00  0.00    -0.040 S 
ATOM     13  N   UNL A   1      34.222  24.632  24.033  1.00  0.00    -0.332 N 
ATOM     14  C   UNL A   1      32.242  24.479  25.375  1.00  0.00     0.064 A 
ATOM     15  O   UNL A   1      31.962  22.519  26.589  1.00  0.00    -0.269 OA
ATOM     16  C   UNL A   1      33.029  25.188  24.485  1.00  0.00     0.054 A 
ATOM     17  H   UNL A   1      34.783  25.170  23.429  1.00  0.00     0.169 HD
ATOM     18  C   UNL A   1      31.066  25.040  25.868  1.00  0.00     0.017 A 
ATOM     19  C   UNL A   1      32.631  26.453  24.046  1.00  0.00     0.040 A 
ATOM     20  C   UNL A   1      30.678  26.314  25.447  1.00  0.00     0.015 A 
BRANCH   9  21
ATOM     21  C   UNL A   1      34.172  21.260  25.614  1.00  0.00     0.155 C 
BRANCH  21  22
ATOM     22  C   UNL A   1      33.568  20.322  24.602  1.00  0.00    -0.013 C 
ATOM     23  C   UNL A   1      32.678  19.359  24.873  1.00  0.00     0.006 C 
ENDBRANCH  21  22
ENDBRANCH   9  21
ENDBRANCH   5   8
ENDBRANCH   3   4
ENDBRANCH   2   3
ENDBRANCH   1   2
BRANCH   1  24
ATOM     24  C   UNL A   1      32.648  32.716  26.881  1.00  0.00     0.116 C 
BRANCH  24  25
ATOM     25  N   UNL A   1      32.413  33.914  27.672  1.00  0.00    -0.352 N 
ATOM     26  C   UNL A   1      33.164  34.399  28.722  1.00  0.00     0.251 C 
ATOM     27  H   UNL A   1      31.620  34.444  27.428  1.00  0.00     0.163 HD
ATOM     28  O   UNL A   1      32.783  35.374  29.354  1.00  0.00    -0.269 OA
BRANCH  26  29
ATOM     29  C   UNL A   1      34.404  33.685  29.098  1.00  0.00     0.039 A 
ATOM     30  C   UNL A   1      34.341  32.519  29.861  1.00  0.00     0.014 A 
ATOM     31  C   UNL A   1      35.642  34.228  28.742  1.00  0.00     0.014 A 
ATOM     32  C   UNL A   1      35.502  32.003  30.420  1.00  0.00     0.010 A 
ATOM     33  C   UNL A   1      36.818  33.645  29.224  1.00  0.00     0.010 A 
ATOM     34  C   UNL A   1      36.756  32.557  30.108  1.00  0.00    -0.014 A 
BRANCH  34  35
ATOM     35  C   UNL A   1      37.970  31.940  30.702  1.00  0.00     0.031 A 
ATOM     36  C   UNL A   1      38.381  32.219  32.121  1.00  0.00     0.074 A 
ATOM     37  C   UNL A   1      38.658  31.046  29.963  1.00  0.00     0.049 A 
ATOM     38  N   UNL A   1      39.334  31.660  32.822  1.00  0.00    -0.248 NA
ATOM     39  C   UNL A   1      37.638  33.261  32.847  1.00  0.00     0.031 C 
ATOM     40  C   UNL A   1      38.357  30.717  28.569  1.00  0.00     0.029 A 
ATOM     41  N   UNL A   1      39.706  30.223  30.281  1.00  0.00    -0.354 N 
ATOM     42  C   UNL A   1      39.315  32.284  34.065  1.00  0.00     0.074 A 
ATOM     43  C   UNL A   1      38.280  33.294  34.008  1.00  0.00     0.031 C 
ATOM     44  C   UNL A   1      39.142  29.706  28.177  1.00  0.00     0.029 A 
ATOM     45  C   UNL A   1      40.053  29.361  29.266  1.00  0.00     0.049 A 
ATOM     46  H   UNL A   1      40.169  30.247  31.150  1.00  0.00     0.167 HD
ATOM     47  C   UNL A   1      40.079  32.026  35.153  1.00  0.00     0.034 A 
ATOM     48  C   UNL A   1      40.992  28.395  29.211  1.00  0.00     0.034 A 
ATOM     49  C   UNL A   1      41.098  31.006  35.196  1.00  0.00     0.049 A 
ATOM     50  C   UNL A   1      41.826  28.128  30.435  1.00  0.00     0.074 A 
ATOM     51  C   UNL A   1      41.901  30.644  36.263  1.00  0.00     0.029 A 
ATOM     52  N   UNL A   1      41.456  30.184  34.136  1.00  0.00    -0.354 N 
ATOM     53  N   UNL A   1      41.752  28.688  31.620  1.00  0.00    -0.248 NA
ATOM     54  C   UNL A   1      42.870  27.103  30.319  1.00  0.00     0.031 C 
ATOM     55  C   UNL A   1      42.781  29.649  35.833  1.00  0.00     0.029 A 
ATOM     56  C   UNL A   1      42.487  29.339  34.515  1.00  0.00     0.049 A 
ATOM     57  H   UNL A   1      41.038  30.200  33.244  1.00  0.00     0.167 HD
ATOM     58  C   UNL A   1      42.742  28.085  32.389  1.00  0.00     0.074 A 
ATOM     59  C   UNL A   1      43.364  27.082  31.550  1.00  0.00     0.031 C 
ATOM     60  C   UNL A   1      43.113  28.352  33.667  1.00  0.00     0.034 A 
BRANCH  47  61
ATOM     61  C   UNL A   1      39.850  32.836  36.406  1.00  0.00     0.023 A 
ATOM     62  C   UNL A   1      38.950  32.380  37.388  1.00  0.00     0.031 A 
ATOM     63  C   UNL A   1      40.420  34.111  36.570  1.00  0.00     0.131 A 
ATOM     64  C   UNL A   1      38.622  33.206  38.471  1.00  0.00     0.055 A 
ATOM     65  C   UNL A   1      40.120  34.914  37.672  1.00  0.00     0.041 A 
ATOM     66  F   UNL A   1      41.285  34.593  35.662  1.00  0.00    -0.206 F 
ATOM     67  C   UNL A   1      39.207  34.467  38.622  1.00  0.00     0.022 A 
BRANCH  64  68
ATOM     68  S   UNL A   1      37.380  32.705  39.696  1.00  0.00     0.124 S 
ATOM     69  O   UNL A   1      37.450  33.801  40.659  1.00  0.00    -0.237 OA
ATOM     70  O   UNL A   1      36.162  32.657  38.891  1.00  0.00    -0.237 OA
ATOM     71  O   UNL A   1      37.867  31.419  40.182  1.00  0.00    -0.744 OA
ENDBRANCH  64  68
ENDBRANCH  47  61
BRANCH  48  72
ATOM     72  C   UNL A   1      41.132  27.591  27.962  1.00  0.00     0.023 A 
ATOM     73  C   UNL A   1      40.731  26.242  27.924  1.00  0.00     0.031 A 
ATOM     74  C   UNL A   1      41.783  28.117  26.835  1.00  0.00     0.131 A 
ATOM     75  C   UNL A   1      41.062  25.447  26.820  1.00  0.00     0.055 A 
ATOM     76  C   UNL A   1      42.039  27.342  25.703  1.00  0.00     0.041 A 
ATOM     77  F   UNL A   1      42.197  29.394  26.828  1.00  0.00    -0.206 F 
ATOM     78  C   UNL A   1      41.698  25.993  25.701  1.00  0.00     0.022 A 
BRANCH  75  79
ATOM     79  S   UNL A   1      40.828  23.648  26.872  1.00  0.00     0.124 S 
ATOM     80  O   UNL A   1      41.749  23.192  25.836  1.00  0.00    -0.237 OA
ATOM     81  O   UNL A   1      41.219  23.336  28.246  1.00  0.00    -0.237 OA
ATOM     82  O   UNL A   1      39.410  23.477  26.580  1.00  0.00    -0.744 OA
ENDBRANCH  75  79
ENDBRANCH  48  72
BRANCH  60  83
ATOM     83  C   UNL A   1      44.275  27.577  34.243  1.00  0.00     0.023 A 
ATOM     84  C   UNL A   1      44.051  26.412  35.000  1.00  0.00     0.031 A 
ATOM     85  C   UNL A   1      45.592  28.058  34.137  1.00  0.00     0.131 A 
ATOM     86  C   UNL A   1      45.125  25.781  35.641  1.00  0.00     0.055 A 
ATOM     87  C   UNL A   1      46.665  27.401  34.740  1.00  0.00     0.041 A 
ATOM     88  F   UNL A   1      45.855  29.173  33.435  1.00  0.00    -0.206 F 
ATOM     89  C   UNL A   1      46.432  26.264  35.507  1.00  0.00     0.022 A 
BRANCH  86  90
ATOM     90  S   UNL A   1      44.859  24.362  36.740  1.00  0.00     0.124 S 
ATOM     91  O   UNL A   1      46.210  24.106  37.233  1.00  0.00    -0.237 OA
ATOM     92  O   UNL A   1      43.928  24.905  37.727  1.00  0.00    -0.237 OA
ATOM     93  O   UNL A   1      44.310  23.335  35.862  1.00  0.00    -0.744 OA
ENDBRANCH  86  90
ENDBRANCH  60  83
ENDBRANCH  34  35
ENDBRANCH  26  29
ENDBRANCH  24  25
ENDBRANCH   1  24
TORSDOF 16
ENDMDL
MODEL 3
REMARK VINA RESULT:     -11.6      5.196     10.370
REMARK SMILES C=CCn1c(=S)[nH]c2cc(C(=O)NCCCCNC(=O)c3ccc(-c4c5nc(c(-c6cc(S(=O)(=O)[O-])ccc6F)c6ccc([nH]6)c(-c6cc(S(=O)(=O)[O-])ccc6F)c6nc(c(-c7cc(S(=O)(=O)[O-])ccc7F)c7ccc4[nH]7)C=C6)C=C5)cc3)ccc2c1=O
REMARK SMILES IDX 16 1 15 2 14 3 13 4 11 5 12 6 10 8 4 9 5 10 87 11 6 12 7 13
REMARK SMILES IDX 86 14 88 15 8 16 85 18 9 19 84 20 3 21 2 22 1 23 17 24 18 25
REMARK SMILES IDX 19 26 20 28 21 29 22 30 83 31 23 32 82 33 24 34 25 35 26 36
REMARK SMILES IDX 76 37 27 38 81 39 75 40 77 41 28 42 80 43 74 44 73 45 29 47
REMARK SMILES IDX 61 48 41 49 60 50 42 51 45 52 59 53 78 54 43 55 44 56 58 58
REMARK SMILES IDX 79 59 46 60 30 61 31 62 39 63 32 64 38 65 40 66 37 67 33 68
REMARK SMILES IDX 34 69 35 70 36 71 62 72 63 73 71 74 64 75 70 76 72 77 69 78
REMARK SMILES IDX 65 79 66 80 67 81 68 82 47 83 48 84 56 85 49 86 55 87 57 88
REMARK SMILES IDX 54 89 50 90 51 91 52 92 53 93
REMARK H PARENT 13 7 7 17 18 27 77 46 45 57
REMARK Flexibility Score: inf
ROOT
ATOM      1  C   UNL A   1      35.214  21.882  25.740  1.00  0.00     0.023 C 
ENDROOT
BRANCH   1   2
ATOM      2  C   UNL A   1      34.985  20.572  24.988  1.00  0.00     0.023 C 
BRANCH   2   3
ATOM      3  C   UNL A   1      33.557  20.025  25.074  1.00  0.00     0.116 C 
BRANCH   3   4
ATOM      4  N   UNL A   1      32.840  20.239  23.832  1.00  0.00    -0.352 N 
ATOM      5  C   UNL A   1      32.176  21.326  23.326  1.00  0.00     0.251 C 
ATOM      6  O   UNL A   1      31.695  21.222  22.197  1.00  0.00    -0.269 OA
ATOM      7  H   UNL A   1      32.827  19.453  23.240  1.00  0.00     0.163 HD
BRANCH   5   8
ATOM      8  C   UNL A   1      32.033  22.632  24.039  1.00  0.00     0.041 A 
ATOM      9  N   UNL A   1      32.510  27.545  25.178  1.00  0.00    -0.281 N 
ATOM     10  C   UNL A   1      33.127  27.383  23.937  1.00  0.00     0.180 A 
ATOM     11  C   UNL A   1      31.844  26.508  25.844  1.00  0.00     0.262 A 
ATOM     12  S   UNL A   1      33.878  28.567  23.014  1.00  0.00    -0.040 S 
ATOM     13  N   UNL A   1      33.123  26.120  23.403  1.00  0.00    -0.332 N 
ATOM     14  C   UNL A   1      31.882  25.177  25.224  1.00  0.00     0.064 A 
ATOM     15  O   UNL A   1      31.244  26.640  26.910  1.00  0.00    -0.269 OA
ATOM     16  C   UNL A   1      32.544  25.015  24.020  1.00  0.00     0.054 A 
ATOM     17  H   UNL A   1      33.557  25.987  22.530  1.00  0.00     0.169 HD
ATOM     18  C   UNL A   1      31.262  24.088  25.832  1.00  0.00     0.017 A 
ATOM     19  C   UNL A   1      32.627  23.753  23.427  1.00  0.00     0.040 A 
ATOM     20  C   UNL A   1      31.326  22.830  25.229  1.00  0.00     0.015 A 
BRANCH   9  21
ATOM     21  C   UNL A   1      32.512  28.825  25.890  1.00  0.00     0.155 C 
BRANCH  21  22
ATOM     22  C   UNL A   1      33.783  28.931  26.692  1.00  0.00    -0.013 C 
ATOM     23  C   UNL A   1      34.193  30.022  27.351  1.00  0.00     0.006 C 
ENDBRANCH  21  22
ENDBRANCH   9  21
ENDBRANCH   5   8
ENDBRANCH   3   4
ENDBRANCH   2   3
ENDBRANCH   1   2
BRANCH   1  24
ATOM     24  C   UNL A   1      36.665  22.333  25.802  1.00  0.00     0.116 C 
BRANCH  24  25
ATOM     25  N   UNL A   1      37.624  21.242  25.705  1.00  0.00    -0.352 N 
ATOM     26  C   UNL A   1      38.965  21.260  26.024  1.00  0.00     0.251 C 
ATOM     27  H   UNL A   1      37.271  20.386  25.372  1.00  0.00     0.163 HD
ATOM     28  O   UNL A   1      39.666  20.284  25.797  1.00  0.00    -0.269 OA
BRANCH  26  29
ATOM     29  C   UNL A   1      39.544  22.498  26.592  1.00  0.00     0.039 A 
ATOM     30  C   UNL A   1      39.169  23.744  26.091  1.00  0.00     0.014 A 
ATOM     31  C   UNL A   1      40.523  22.403  27.585  1.00  0.00     0.014 A 
ATOM     32  C   UNL A   1      39.897  24.871  26.446  1.00  0.00     0.010 A 
ATOM     33  C   UNL A   1      41.186  23.557  28.016  1.00  0.00     0.010 A 
ATOM     34  C   UNL A   1      40.913  24.794  27.414  1.00  0.00    -0.014 A 
BRANCH  34  35
ATOM     35  C   UNL A   1      41.633  26.039  27.787  1.00  0.00     0.031 A 
ATOM     36  C   UNL A   1      43.000  26.351  27.245  1.00  0.00     0.074 A 
ATOM     37  C   UNL A   1      40.993  26.938  28.563  1.00  0.00     0.049 A 
ATOM     38  N   UNL A   1      43.700  27.449  27.370  1.00  0.00    -0.248 NA
ATOM     39  C   UNL A   1      43.675  25.298  26.469  1.00  0.00     0.031 C 
ATOM     40  C   UNL A   1      39.673  26.727  29.158  1.00  0.00     0.029 A 
ATOM     41  N   UNL A   1      41.332  28.210  28.944  1.00  0.00    -0.354 N 
ATOM     42  C   UNL A   1      44.898  27.221  26.702  1.00  0.00     0.074 A 
ATOM     43  C   UNL A   1      44.847  25.863  26.206  1.00  0.00     0.031 C 
ATOM     44  C   UNL A   1      39.276  27.857  29.757  1.00  0.00     0.029 A 
ATOM     45  C   UNL A   1      40.341  28.851  29.652  1.00  0.00     0.049 A 
ATOM     46  H   UNL A   1      42.199  28.625  28.733  1.00  0.00     0.167 HD
ATOM     47  C   UNL A   1      45.934  28.072  26.509  1.00  0.00     0.034 A 
ATOM     48  C   UNL A   1      40.286  30.100  30.158  1.00  0.00     0.034 A 
ATOM     49  C   UNL A   1      45.963  29.428  27.000  1.00  0.00     0.049 A 
ATOM     50  C   UNL A   1      41.451  31.025  29.929  1.00  0.00     0.074 A 
ATOM     51  C   UNL A   1      46.952  30.380  26.826  1.00  0.00     0.029 A 
ATOM     52  N   UNL A   1      44.965  30.030  27.755  1.00  0.00    -0.354 N 
ATOM     53  N   UNL A   1      42.549  30.811  29.243  1.00  0.00    -0.248 NA
ATOM     54  C   UNL A   1      41.373  32.358  30.538  1.00  0.00     0.031 C 
ATOM     55  C   UNL A   1      46.581  31.532  27.522  1.00  0.00     0.029 A 
ATOM     56  C   UNL A   1      45.329  31.327  28.078  1.00  0.00     0.049 A 
ATOM     57  H   UNL A   1      44.121  29.597  28.022  1.00  0.00     0.167 HD
ATOM     58  C   UNL A   1      43.295  31.980  29.342  1.00  0.00     0.074 A 
ATOM     59  C   UNL A   1      42.498  32.915  30.109  1.00  0.00     0.031 C 
ATOM     60  C   UNL A   1      44.535  32.248  28.857  1.00  0.00     0.034 A 
BRANCH  47  61
ATOM     61  C   UNL A   1      47.129  27.590  25.722  1.00  0.00     0.023 A 
ATOM     62  C   UNL A   1      47.269  27.938  24.366  1.00  0.00     0.031 A 
ATOM     63  C   UNL A   1      48.056  26.687  26.275  1.00  0.00     0.131 A 
ATOM     64  C   UNL A   1      48.292  27.363  23.600  1.00  0.00     0.055 A 
ATOM     65  C   UNL A   1      49.096  26.148  25.518  1.00  0.00     0.041 A 
ATOM     66  F   UNL A   1      47.966  26.323  27.565  1.00  0.00    -0.206 F 
ATOM     67  C   UNL A   1      49.210  26.475  24.170  1.00  0.00     0.022 A 
BRANCH  64  68
ATOM     68  S   UNL A   1      48.438  27.695  21.822  1.00  0.00     0.124 S 
ATOM     69  O   UNL A   1      47.082  28.120  21.485  1.00  0.00    -0.237 OA
ATOM     70  O   UNL A   1      49.449  28.749  21.792  1.00  0.00    -0.237 OA
ATOM     71  O   UNL A   1      48.846  26.413  21.259  1.00  0.00    -0.744 OA
ENDBRANCH  64  68
ENDBRANCH  47  61
BRANCH  48  72
ATOM     72  C   UNL A   1      39.054  30.536  30.878  1.00  0.00     0.023 A 
ATOM     73  C   UNL A   1      38.061  31.283  30.219  1.00  0.00     0.031 A 
ATOM     74  C   UNL A   1      38.913  30.324  32.259  1.00  0.00     0.131 A 
ATOM     75  C   UNL A   1      37.020  31.863  30.956  1.00  0.00     0.055 A 
ATOM     76  C   UNL A   1      37.830  30.835  32.976  1.00  0.00     0.041 A 
ATOM     77  F   UNL A   1      39.841  29.629  32.935  1.00  0.00    -0.206 F 
ATOM     78  C   UNL A   1      36.889  31.628  32.328  1.00  0.00     0.022 A 
BRANCH  75  79
ATOM     79  S   UNL A   1      35.905  33.071  30.188  1.00  0.00     0.124 S 
ATOM     80  O   UNL A   1      34.690  32.285  29.997  1.00  0.00    -0.237 OA
ATOM     81  O   UNL A   1      35.831  34.106  31.217  1.00  0.00    -0.237 OA
ATOM     82  O   UNL A   1      36.606  33.461  28.970  1.00  0.00    -0.744 OA
ENDBRANCH  75  79
ENDBRANCH  48  72
BRANCH  60  83
ATOM     83  C   UNL A   1      45.140  33.598  29.168  1.00  0.00     0.023 A 
ATOM     84  C   UNL A   1      45.086  34.639  28.222  1.00  0.00     0.031 A 
ATOM     85  C   UNL A   1      45.867  33.812  30.351  1.00  0.00     0.131 A 
ATOM     86  C   UNL A   1      45.767  35.838  28.467  1.00  0.00     0.055 A 
ATOM     87  C   UNL A   1      46.506  35.024  30.611  1.00  0.00     0.041 A 
ATOM     88  F   UNL A   1      45.957  32.845  31.280  1.00  0.00    -0.206 F 
ATOM     89  C   UNL A   1      46.469  36.040  29.660  1.00  0.00     0.022 A 
BRANCH  86  90
ATOM     90  S   UNL A   1      45.841  37.148  27.214  1.00  0.00     0.124 S 
ATOM     91  O   UNL A   1      46.734  38.117  27.844  1.00  0.00    -0.237 OA
ATOM     92  O   UNL A   1      46.399  36.443  26.062  1.00  0.00    -0.237 OA
ATOM     93  O   UNL A   1      44.454  37.577  27.072  1.00  0.00    -0.744 OA
ENDBRANCH  86  90
ENDBRANCH  60  83
ENDBRANCH  34  35
ENDBRANCH  26  29
ENDBRANCH  24  25
ENDBRANCH   1  24
TORSDOF 16
ENDMDL
