MODEL 1
REMARK VINA RESULT:     -11.4      0.000      0.000
REMARK SMILES CC[C@](C)(NC(=O)CCOc1ccc(Cl)c(Cl)c1)C(=O)NCCCCNC(=O)c1ccc(-c2c3nc(c(-c4cc(S(=O)(=O)[O-])ccc4F)c4ccc([nH]4)c(-c4cc(S(=O)(=O)[O-])ccc4F)c4nc(c(-c5cc(S(=O)(=O)[O-])ccc5F)c5ccc2[nH]5)C=C4)C=C3)cc1
REMARK SMILES IDX 22 1 21 2 19 3 20 4 3 6 4 7 2 8 1 9 5 10 6 11 7 13 8 14 9 15
REMARK SMILES IDX 10 16 11 17 12 18 18 19 13 20 16 21 14 22 17 23 15 24 23 25
REMARK SMILES IDX 24 26 25 27 26 28 27 29 28 31 29 32 30 33 91 34 31 35 90 36
REMARK SMILES IDX 32 37 33 38 34 39 84 40 35 41 89 42 83 43 85 44 36 45 88 46
REMARK SMILES IDX 82 47 81 48 37 50 69 51 49 52 68 53 50 54 53 55 67 56 86 57
REMARK SMILES IDX 51 58 52 59 66 61 87 62 54 63 38 64 39 65 47 66 40 67 46 68
REMARK SMILES IDX 48 69 45 70 41 71 42 72 43 73 44 74 70 75 71 76 79 77 72 78
REMARK SMILES IDX 78 79 80 80 77 81 73 82 74 83 75 84 76 85 55 86 56 87 64 88
REMARK SMILES IDX 57 89 63 90 65 91 62 92 58 93 59 94 60 95 61 96
REMARK H PARENT 21 5 5 12 26 30 85 49 53 60
REMARK Flexibility Score: inf
ROOT
ATOM      1  C   UNL A   1      34.419  24.581  23.574  1.00  0.00     0.116 C 
ENDROOT
BRANCH   1   2
ATOM      2  N   UNL A   1      33.075  24.574  23.025  1.00  0.00    -0.354 N 
ATOM      3  C   UNL A   1      31.891  24.990  23.565  1.00  0.00     0.245 C 
ATOM      4  O   UNL A   1      30.913  25.042  22.814  1.00  0.00    -0.272 OA
ATOM      5  H   UNL A   1      33.004  24.209  22.114  1.00  0.00     0.163 HD
BRANCH   3   6
ATOM      6  C   UNL A   1      31.807  25.479  25.038  1.00  0.00     0.116 C 
ATOM      7  C   UNL A   1      30.356  25.575  25.525  1.00  0.00     0.045 C 
BRANCH   6   8
ATOM      8  C   UNL A   1      32.454  26.897  25.119  1.00  0.00     0.035 C 
ATOM      9  C   UNL A   1      33.390  27.122  26.308  1.00  0.00     0.007 C 
ENDBRANCH   6   8
BRANCH   6  10
ATOM     10  N   UNL A   1      32.540  24.544  25.933  1.00  0.00    -0.342 N 
ATOM     11  C   UNL A   1      32.342  23.218  26.201  1.00  0.00     0.224 C 
ATOM     12  H   UNL A   1      33.297  24.949  26.414  1.00  0.00     0.164 HD
ATOM     13  O   UNL A   1      33.025  22.716  27.098  1.00  0.00    -0.275 OA
BRANCH  11  14
ATOM     14  C   UNL A   1      31.424  22.358  25.349  1.00  0.00     0.141 C 
BRANCH  14  15
ATOM     15  C   UNL A   1      32.112  21.210  24.616  1.00  0.00     0.239 C 
BRANCH  15  16
ATOM     16  O   UNL A   1      31.780  19.918  25.139  1.00  0.00    -0.493 OA
BRANCH  16  17
ATOM     17  C   UNL A   1      32.674  18.900  24.967  1.00  0.00     0.120 A 
ATOM     18  C   UNL A   1      34.002  19.048  24.577  1.00  0.00     0.048 A 
ATOM     19  C   UNL A   1      32.193  17.625  25.277  1.00  0.00     0.068 A 
ATOM     20  C   UNL A   1      34.881  17.967  24.638  1.00  0.00     0.026 A 
ATOM     21  C   UNL A   1      33.065  16.531  25.316  1.00  0.00     0.063 A 
ATOM     22  C   UNL A   1      34.421  16.710  25.027  1.00  0.00     0.059 A 
ATOM     23  Cl  UNL A   1      32.417  15.000  25.788  1.00  0.00    -0.083 Cl
ATOM     24  Cl  UNL A   1      35.580  15.438  25.159  1.00  0.00    -0.083 Cl
ENDBRANCH  16  17
ENDBRANCH  15  16
ENDBRANCH  14  15
ENDBRANCH  11  14
ENDBRANCH   6  10
ENDBRANCH   3   6
ENDBRANCH   1   2
BRANCH   1  25
ATOM     25  C   UNL A   1      35.260  23.370  23.178  1.00  0.00     0.023 C 
BRANCH  25  26
ATOM     26  C   UNL A   1      35.273  22.232  24.189  1.00  0.00     0.023 C 
BRANCH  26  27
ATOM     27  C   UNL A   1      36.349  22.358  25.254  1.00  0.00     0.116 C 
BRANCH  27  28
ATOM     28  N   UNL A   1      37.212  21.188  25.330  1.00  0.00    -0.352 N 
ATOM     29  C   UNL A   1      38.509  21.120  25.766  1.00  0.00     0.251 C 
ATOM     30  H   UNL A   1      36.813  20.338  25.032  1.00  0.00     0.163 HD
ATOM     31  O   UNL A   1      39.142  20.073  25.681  1.00  0.00    -0.269 OA
BRANCH  29  32
ATOM     32  C   UNL A   1      39.131  22.348  26.289  1.00  0.00     0.039 A 
ATOM     33  C   UNL A   1      40.271  22.238  27.084  1.00  0.00     0.014 A 
ATOM     34  C   UNL A   1      38.641  23.597  25.899  1.00  0.00     0.014 A 
ATOM     35  C   UNL A   1      40.962  23.393  27.444  1.00  0.00     0.010 A 
ATOM     36  C   UNL A   1      39.380  24.735  26.182  1.00  0.00     0.010 A 
ATOM     37  C   UNL A   1      40.539  24.645  26.966  1.00  0.00    -0.014 A 
BRANCH  37  38
ATOM     38  C   UNL A   1      41.275  25.884  27.312  1.00  0.00     0.031 A 
ATOM     39  C   UNL A   1      40.587  26.939  28.132  1.00  0.00     0.074 A 
ATOM     40  C   UNL A   1      42.520  26.078  26.838  1.00  0.00     0.049 A 
ATOM     41  N   UNL A   1      41.007  28.130  28.471  1.00  0.00    -0.248 NA
ATOM     42  C   UNL A   1      39.225  26.628  28.594  1.00  0.00     0.031 C 
ATOM     43  C   UNL A   1      43.258  25.139  25.989  1.00  0.00     0.029 A 
ATOM     44  N   UNL A   1      43.383  27.132  26.993  1.00  0.00    -0.354 N 
ATOM     45  C   UNL A   1      39.957  28.713  29.172  1.00  0.00     0.074 A 
ATOM     46  C   UNL A   1      38.855  27.776  29.138  1.00  0.00     0.031 C 
ATOM     47  C   UNL A   1      44.472  25.650  25.722  1.00  0.00     0.029 A 
ATOM     48  C   UNL A   1      44.583  26.965  26.342  1.00  0.00     0.049 A 
ATOM     49  H   UNL A   1      43.164  27.933  27.521  1.00  0.00     0.167 HD
ATOM     50  C   UNL A   1      39.927  29.907  29.813  1.00  0.00     0.034 A 
ATOM     51  C   UNL A   1      45.646  27.787  26.254  1.00  0.00     0.034 A 
ATOM     52  C   UNL A   1      41.047  30.812  29.849  1.00  0.00     0.049 A 
ATOM     53  C   UNL A   1      45.594  29.111  26.976  1.00  0.00     0.074 A 
ATOM     54  C   UNL A   1      41.156  32.026  30.503  1.00  0.00     0.029 A 
ATOM     55  N   UNL A   1      42.259  30.601  29.200  1.00  0.00    -0.354 N 
ATOM     56  N   UNL A   1      44.611  29.629  27.678  1.00  0.00    -0.248 NA
ATOM     57  C   UNL A   1      46.795  29.949  26.909  1.00  0.00     0.031 C 
ATOM     58  C   UNL A   1      42.409  32.574  30.203  1.00  0.00     0.029 A 
ATOM     59  C   UNL A   1      43.111  31.670  29.421  1.00  0.00     0.049 A 
ATOM     60  H   UNL A   1      42.478  29.805  28.662  1.00  0.00     0.167 HD
ATOM     61  C   UNL A   1      45.090  30.844  28.158  1.00  0.00     0.074 A 
ATOM     62  C   UNL A   1      46.452  30.970  27.680  1.00  0.00     0.031 C 
ATOM     63  C   UNL A   1      44.464  31.773  28.925  1.00  0.00     0.034 A 
BRANCH  50  64
ATOM     64  C   UNL A   1      38.639  30.289  30.502  1.00  0.00     0.023 A 
ATOM     65  C   UNL A   1      37.651  31.048  29.847  1.00  0.00     0.031 A 
ATOM     66  C   UNL A   1      38.414  29.937  31.843  1.00  0.00     0.131 A 
ATOM     67  C   UNL A   1      36.531  31.504  30.558  1.00  0.00     0.055 A 
ATOM     68  C   UNL A   1      37.253  30.320  32.520  1.00  0.00     0.041 A 
ATOM     69  F   UNL A   1      39.329  29.234  32.529  1.00  0.00    -0.206 F 
ATOM     70  C   UNL A   1      36.312  31.123  31.882  1.00  0.00     0.022 A 
BRANCH  67  71
ATOM     71  S   UNL A   1      35.450  32.731  29.771  1.00  0.00     0.124 S 
ATOM     72  O   UNL A   1      35.182  32.101  28.480  1.00  0.00    -0.237 OA
ATOM     73  O   UNL A   1      34.324  32.799  30.695  1.00  0.00    -0.237 OA
ATOM     74  O   UNL A   1      36.282  33.931  29.711  1.00  0.00    -0.744 OA
ENDBRANCH  67  71
ENDBRANCH  50  64
BRANCH  51  75
ATOM     75  C   UNL A   1      46.845  27.394  25.458  1.00  0.00     0.023 A 
ATOM     76  C   UNL A   1      47.010  27.828  24.133  1.00  0.00     0.031 A 
ATOM     77  C   UNL A   1      47.828  26.549  26.001  1.00  0.00     0.131 A 
ATOM     78  C   UNL A   1      48.105  27.378  23.380  1.00  0.00     0.055 A 
ATOM     79  C   UNL A   1      48.943  26.144  25.265  1.00  0.00     0.041 A 
ATOM     80  F   UNL A   1      47.725  26.112  27.267  1.00  0.00    -0.206 F 
ATOM     81  C   UNL A   1      49.079  26.549  23.940  1.00  0.00     0.022 A 
BRANCH  78  82
ATOM     82  S   UNL A   1      48.195  27.827  21.624  1.00  0.00     0.124 S 
ATOM     83  O   UNL A   1      48.383  26.527  20.993  1.00  0.00    -0.237 OA
ATOM     84  O   UNL A   1      46.901  28.465  21.410  1.00  0.00    -0.237 OA
ATOM     85  O   UNL A   1      49.348  28.725  21.563  1.00  0.00    -0.744 OA
ENDBRANCH  78  82
ENDBRANCH  51  75
BRANCH  63  86
ATOM     86  C   UNL A   1      45.272  32.981  29.326  1.00  0.00     0.023 A 
ATOM     87  C   UNL A   1      45.352  34.121  28.509  1.00  0.00     0.031 A 
ATOM     88  C   UNL A   1      45.977  32.985  30.544  1.00  0.00     0.131 A 
ATOM     89  C   UNL A   1      46.165  35.197  28.891  1.00  0.00     0.055 A 
ATOM     90  C   UNL A   1      46.736  34.084  30.947  1.00  0.00     0.041 A 
ATOM     91  F   UNL A   1      45.935  31.922  31.361  1.00  0.00    -0.206 F 
ATOM     92  C   UNL A   1      46.843  35.193  30.113  1.00  0.00     0.022 A 
BRANCH  89  93
ATOM     93  S   UNL A   1      46.395  36.569  27.727  1.00  0.00     0.124 S 
ATOM     94  O   UNL A   1      45.157  37.322  27.897  1.00  0.00    -0.237 OA
ATOM     95  O   UNL A   1      47.605  37.208  28.234  1.00  0.00    -0.237 OA
ATOM     96  O   UNL A   1      46.544  35.901  26.435  1.00  0.00    -0.744 OA
ENDBRANCH  89  93
ENDBRANCH  63  86
ENDBRANCH  37  38
ENDBRANCH  29  32
ENDBRANCH  27  28
ENDBRANCH  26  27
ENDBRANCH  25  26
ENDBRANCH   1  25
TORSDOF 20
ENDMDL
MODEL 2
REMARK VINA RESULT:     -11.1      5.767      8.431
REMARK SMILES CC[C@](C)(NC(=O)CCOc1ccc(Cl)c(Cl)c1)C(=O)NCCCCNC(=O)c1ccc(-c2c3nc(c(-c4cc(S(=O)(=O)[O-])ccc4F)c4ccc([nH]4)c(-c4cc(S(=O)(=O)[O-])ccc4F)c4nc(c(-c5cc(S(=O)(=O)[O-])ccc5F)c5ccc2[nH]5)C=C4)C=C3)cc1
REMARK SMILES IDX 22 1 21 2 19 3 20 4 3 6 4 7 2 8 1 9 5 10 6 11 7 13 8 14 9 15
REMARK SMILES IDX 10 16 11 17 12 18 18 19 13 20 16 21 14 22 17 23 15 24 23 25
REMARK SMILES IDX 24 26 25 27 26 28 27 29 28 31 29 32 30 33 91 34 31 35 90 36
REMARK SMILES IDX 32 37 33 38 34 39 84 40 35 41 89 42 83 43 85 44 36 45 88 46
REMARK SMILES IDX 82 47 81 48 37 50 69 51 49 52 68 53 50 54 53 55 67 56 86 57
REMARK SMILES IDX 51 58 52 59 66 61 87 62 54 63 38 64 39 65 47 66 40 67 46 68
REMARK SMILES IDX 48 69 45 70 41 71 42 72 43 73 44 74 70 75 71 76 79 77 72 78
REMARK SMILES IDX 78 79 80 80 77 81 73 82 74 83 75 84 76 85 55 86 56 87 64 88
REMARK SMILES IDX 57 89 63 90 65 91 62 92 58 93 59 94 60 95 61 96
REMARK H PARENT 21 5 5 12 26 30 85 49 53 60
REMARK Flexibility Score: inf
ROOT
ATOM      1  C   UNL A   1      34.605  29.339  27.438  1.00  0.00     0.116 C 
ENDROOT
BRANCH   1   2
ATOM      2  N   UNL A   1      33.316  28.909  27.950  1.00  0.00    -0.354 N 
ATOM      3  C   UNL A   1      32.273  28.288  27.324  1.00  0.00     0.245 C 
ATOM      4  O   UNL A   1      31.356  27.867  28.035  1.00  0.00    -0.272 OA
ATOM      5  H   UNL A   1      33.169  29.097  28.905  1.00  0.00     0.163 HD
BRANCH   3   6
ATOM      6  C   UNL A   1      32.292  28.031  25.792  1.00  0.00     0.116 C 
ATOM      7  C   UNL A   1      33.450  27.114  25.381  1.00  0.00     0.045 C 
BRANCH   6   8
ATOM      8  C   UNL A   1      32.464  29.404  25.069  1.00  0.00     0.035 C 
ATOM      9  C   UNL A   1      31.207  30.272  25.006  1.00  0.00     0.007 C 
ENDBRANCH   6   8
BRANCH   6  10
ATOM     10  N   UNL A   1      31.017  27.397  25.361  1.00  0.00    -0.342 N 
ATOM     11  C   UNL A   1      30.610  26.092  25.390  1.00  0.00     0.224 C 
ATOM     12  H   UNL A   1      30.354  28.023  24.991  1.00  0.00     0.164 HD
ATOM     13  O   UNL A   1      29.539  25.823  24.837  1.00  0.00    -0.275 OA
BRANCH  11  14
ATOM     14  C   UNL A   1      31.363  25.036  26.181  1.00  0.00     0.141 C 
BRANCH  14  15
ATOM     15  C   UNL A   1      31.594  23.721  25.443  1.00  0.00     0.239 C 
BRANCH  15  16
ATOM     16  O   UNL A   1      32.948  23.256  25.514  1.00  0.00    -0.493 OA
BRANCH  16  17
ATOM     17  C   UNL A   1      33.188  21.926  25.321  1.00  0.00     0.120 A 
ATOM     18  C   UNL A   1      32.220  20.958  25.072  1.00  0.00     0.048 A 
ATOM     19  C   UNL A   1      34.536  21.557  25.323  1.00  0.00     0.068 A 
ATOM     20  C   UNL A   1      32.591  19.672  24.681  1.00  0.00     0.026 A 
ATOM     21  C   UNL A   1      34.915  20.260  24.956  1.00  0.00     0.063 A 
ATOM     22  C   UNL A   1      33.939  19.324  24.602  1.00  0.00     0.059 A 
ATOM     23  Cl  UNL A   1      36.603  19.898  24.900  1.00  0.00    -0.083 Cl
ATOM     24  Cl  UNL A   1      34.326  17.741  24.033  1.00  0.00    -0.083 Cl
ENDBRANCH  16  17
ENDBRANCH  15  16
ENDBRANCH  14  15
ENDBRANCH  11  14
ENDBRANCH   6  10
ENDBRANCH   3   6
ENDBRANCH   1   2
BRANCH   1  25
ATOM     25  C   UNL A   1      34.971  30.776  27.800  1.00  0.00     0.023 C 
BRANCH  25  26
ATOM     26  C   UNL A   1      33.800  31.748  27.857  1.00  0.00     0.023 C 
BRANCH  26  27
ATOM     27  C   UNL A   1      34.193  33.206  27.693  1.00  0.00     0.116 C 
BRANCH  27  28
ATOM     28  N   UNL A   1      33.438  34.099  28.560  1.00  0.00    -0.352 N 
ATOM     29  C   UNL A   1      33.654  34.376  29.885  1.00  0.00     0.251 C 
ATOM     30  H   UNL A   1      32.675  34.562  28.142  1.00  0.00     0.163 HD
ATOM     31  O   UNL A   1      32.870  35.081  30.511  1.00  0.00    -0.269 OA
BRANCH  29  32
ATOM     32  C   UNL A   1      34.822  33.765  30.540  1.00  0.00     0.039 A 
ATOM     33  C   UNL A   1      34.625  32.667  31.376  1.00  0.00     0.014 A 
ATOM     34  C   UNL A   1      36.109  34.218  30.234  1.00  0.00     0.014 A 
ATOM     35  C   UNL A   1      35.734  31.980  31.866  1.00  0.00     0.010 A 
ATOM     36  C   UNL A   1      37.206  33.479  30.649  1.00  0.00     0.010 A 
ATOM     37  C   UNL A   1      37.029  32.361  31.478  1.00  0.00    -0.014 A 
BRANCH  37  38
ATOM     38  C   UNL A   1      38.221  31.627  31.963  1.00  0.00     0.031 A 
ATOM     39  C   UNL A   1      38.814  31.993  33.295  1.00  0.00     0.074 A 
ATOM     40  C   UNL A   1      38.794  30.691  31.183  1.00  0.00     0.049 A 
ATOM     41  N   UNL A   1      39.900  31.546  33.869  1.00  0.00    -0.248 NA
ATOM     42  C   UNL A   1      38.111  33.032  34.063  1.00  0.00     0.031 C 
ATOM     43  C   UNL A   1      38.329  30.299  29.851  1.00  0.00     0.029 A 
ATOM     44  N   UNL A   1      39.898  29.905  31.392  1.00  0.00    -0.354 N 
ATOM     45  C   UNL A   1      40.019  32.261  35.056  1.00  0.00     0.074 A 
ATOM     46  C   UNL A   1      38.939  33.224  35.078  1.00  0.00     0.031 C 
ATOM     47  C   UNL A   1      39.126  29.327  29.375  1.00  0.00     0.029 A 
ATOM     48  C   UNL A   1      40.182  29.059  30.346  1.00  0.00     0.049 A 
ATOM     49  H   UNL A   1      40.437  29.944  32.215  1.00  0.00     0.167 HD
ATOM     50  C   UNL A   1      40.926  32.106  36.050  1.00  0.00     0.034 A 
ATOM     51  C   UNL A   1      41.184  28.174  30.190  1.00  0.00     0.034 A 
ATOM     52  C   UNL A   1      41.980  31.123  36.012  1.00  0.00     0.049 A 
ATOM     53  C   UNL A   1      42.183  28.014  31.310  1.00  0.00     0.074 A 
ATOM     54  C   UNL A   1      42.930  30.837  36.976  1.00  0.00     0.029 A 
ATOM     55  N   UNL A   1      42.223  30.263  34.947  1.00  0.00    -0.354 N 
ATOM     56  N   UNL A   1      42.254  28.663  32.450  1.00  0.00    -0.248 NA
ATOM     57  C   UNL A   1      43.222  26.995  31.129  1.00  0.00     0.031 C 
ATOM     58  C   UNL A   1      43.780  29.846  36.472  1.00  0.00     0.029 A 
ATOM     59  C   UNL A   1      43.318  29.462  35.222  1.00  0.00     0.049 A 
ATOM     60  H   UNL A   1      41.692  30.229  34.118  1.00  0.00     0.167 HD
ATOM     61  C   UNL A   1      43.332  28.108  33.134  1.00  0.00     0.074 A 
ATOM     62  C   UNL A   1      43.866  27.063  32.285  1.00  0.00     0.031 C 
ATOM     63  C   UNL A   1      43.836  28.431  34.353  1.00  0.00     0.034 A 
BRANCH  50  64
ATOM     64  C   UNL A   1      40.815  33.031  37.239  1.00  0.00     0.023 A 
ATOM     65  C   UNL A   1      40.162  32.636  38.421  1.00  0.00     0.031 A 
ATOM     66  C   UNL A   1      41.321  34.340  37.175  1.00  0.00     0.131 A 
ATOM     67  C   UNL A   1      39.954  33.564  39.452  1.00  0.00     0.055 A 
ATOM     68  C   UNL A   1      41.189  35.233  38.242  1.00  0.00     0.041 A 
ATOM     69  F   UNL A   1      41.934  34.784  36.067  1.00  0.00    -0.206 F 
ATOM     70  C   UNL A   1      40.487  34.851  39.382  1.00  0.00     0.022 A 
BRANCH  67  71
ATOM     71  S   UNL A   1      38.843  33.109  40.812  1.00  0.00     0.124 S 
ATOM     72  O   UNL A   1      38.639  31.685  40.561  1.00  0.00    -0.237 OA
ATOM     73  O   UNL A   1      39.633  33.444  41.991  1.00  0.00    -0.237 OA
ATOM     74  O   UNL A   1      37.668  33.948  40.589  1.00  0.00    -0.744 OA
ENDBRANCH  67  71
ENDBRANCH  50  64
BRANCH  51  75
ATOM     75  C   UNL A   1      41.301  27.373  28.937  1.00  0.00     0.023 A 
ATOM     76  C   UNL A   1      42.281  27.668  27.977  1.00  0.00     0.031 A 
ATOM     77  C   UNL A   1      40.411  26.319  28.667  1.00  0.00     0.131 A 
ATOM     78  C   UNL A   1      42.318  26.952  26.770  1.00  0.00     0.055 A 
ATOM     79  C   UNL A   1      40.483  25.575  27.488  1.00  0.00     0.041 A 
ATOM     80  F   UNL A   1      39.461  25.986  29.557  1.00  0.00    -0.206 F 
ATOM     81  C   UNL A   1      41.433  25.900  26.524  1.00  0.00     0.022 A 
BRANCH  78  82
ATOM     82  S   UNL A   1      43.490  27.472  25.487  1.00  0.00     0.124 S 
ATOM     83  O   UNL A   1      44.273  26.258  25.289  1.00  0.00    -0.237 OA
ATOM     84  O   UNL A   1      42.597  27.846  24.396  1.00  0.00    -0.237 OA
ATOM     85  O   UNL A   1      44.206  28.583  26.112  1.00  0.00    -0.744 OA
ENDBRANCH  78  82
ENDBRANCH  51  75
BRANCH  63  86
ATOM     86  C   UNL A   1      44.996  27.606  34.849  1.00  0.00     0.023 A 
ATOM     87  C   UNL A   1      44.804  26.369  35.486  1.00  0.00     0.031 A 
ATOM     88  C   UNL A   1      46.314  28.072  34.686  1.00  0.00     0.131 A 
ATOM     89  C   UNL A   1      45.907  25.664  35.987  1.00  0.00     0.055 A 
ATOM     90  C   UNL A   1      47.411  27.337  35.133  1.00  0.00     0.041 A 
ATOM     91  F   UNL A   1      46.553  29.247  34.085  1.00  0.00    -0.206 F 
ATOM     92  C   UNL A   1      47.210  26.131  35.800  1.00  0.00     0.022 A 
BRANCH  89  93
ATOM     93  S   UNL A   1      45.610  24.168  36.968  1.00  0.00     0.124 S 
ATOM     94  O   UNL A   1      45.095  24.721  38.217  1.00  0.00    -0.237 OA
ATOM     95  O   UNL A   1      44.646  23.442  36.147  1.00  0.00    -0.237 OA
ATOM     96  O   UNL A   1      46.931  23.550  37.061  1.00  0.00    -0.744 OA
ENDBRANCH  89  93
ENDBRANCH  63  86
ENDBRANCH  37  38
ENDBRANCH  29  32
ENDBRANCH  27  28
ENDBRANCH  26  27
ENDBRANCH  25  26
ENDBRANCH   1  25
TORSDOF 20
ENDMDL
MODEL 3
REMARK VINA RESULT:     -10.9      5.588      8.548
REMARK SMILES CC[C@](C)(NC(=O)CCOc1ccc(Cl)c(Cl)c1)C(=O)NCCCCNC(=O)c1ccc(-c2c3nc(c(-c4cc(S(=O)(=O)[O-])ccc4F)c4ccc([nH]4)c(-c4cc(S(=O)(=O)[O-])ccc4F)c4nc(c(-c5cc(S(=O)(=O)[O-])ccc5F)c5ccc2[nH]5)C=C4)C=C3)cc1
REMARK SMILES IDX 22 1 21 2 19 3 20 4 3 6 4 7 2 8 1 9 5 10 6 11 7 13 8 14 9 15
REMARK SMILES IDX 10 16 11 17 12 18 18 19 13 20 16 21 14 22 17 23 15 24 23 25
REMARK SMILES IDX 24 26 25 27 26 28 27 29 28 31 29 32 30 33 91 34 31 35 90 36
REMARK SMILES IDX 32 37 33 38 34 39 84 40 35 41 89 42 83 43 85 44 36 45 88 46
REMARK SMILES IDX 82 47 81 48 37 50 69 51 49 52 68 53 50 54 53 55 67 56 86 57
REMARK SMILES IDX 51 58 52 59 66 61 87 62 54 63 38 64 39 65 47 66 40 67 46 68
REMARK SMILES IDX 48 69 45 70 41 71 42 72 43 73 44 74 70 75 71 76 79 77 72 78
REMARK SMILES IDX 78 79 80 80 77 81 73 82 74 83 75 84 76 85 55 86 56 87 64 88
REMARK SMILES IDX 57 89 63 90 65 91 62 92 58 93 59 94 60 95 61 96
REMARK H PARENT 21 5 5 12 26 30 85 49 53 60
REMARK Flexibility Score: inf
ROOT
ATOM      1  C   UNL A   1      34.506  29.520  27.275  1.00  0.00     0.116 C 
ENDROOT
BRANCH   1   2
ATOM      2  N   UNL A   1      33.277  28.980  27.829  1.00  0.00    -0.354 N 
ATOM      3  C   UNL A   1      32.300  28.220  27.251  1.00  0.00     0.245 C 
ATOM      4  O   UNL A   1      31.443  27.737  27.996  1.00  0.00    -0.272 OA
ATOM      5  H   UNL A   1      33.122  29.197  28.776  1.00  0.00     0.163 HD
BRANCH   3   6
ATOM      6  C   UNL A   1      32.329  27.892  25.732  1.00  0.00     0.116 C 
ATOM      7  C   UNL A   1      33.496  26.966  25.370  1.00  0.00     0.045 C 
BRANCH   6   8
ATOM      8  C   UNL A   1      32.493  29.230  24.947  1.00  0.00     0.035 C 
ATOM      9  C   UNL A   1      31.344  30.227  25.106  1.00  0.00     0.007 C 
ENDBRANCH   6   8
BRANCH   6  10
ATOM     10  N   UNL A   1      31.062  27.227  25.326  1.00  0.00    -0.342 N 
ATOM     11  C   UNL A   1      30.643  26.761  24.110  1.00  0.00     0.224 C 
ATOM     12  H   UNL A   1      30.413  27.102  26.056  1.00  0.00     0.164 HD
ATOM     13  O   UNL A   1      29.475  26.370  24.029  1.00  0.00    -0.275 OA
BRANCH  11  14
ATOM     14  C   UNL A   1      31.600  26.599  22.942  1.00  0.00     0.141 C 
BRANCH  14  15
ATOM     15  C   UNL A   1      31.630  25.205  22.322  1.00  0.00     0.239 C 
BRANCH  15  16
ATOM     16  O   UNL A   1      32.946  24.771  21.957  1.00  0.00    -0.493 OA
BRANCH  16  17
ATOM     17  C   UNL A   1      33.593  23.897  22.783  1.00  0.00     0.120 A 
ATOM     18  C   UNL A   1      34.770  24.161  23.476  1.00  0.00     0.048 A 
ATOM     19  C   UNL A   1      32.954  22.667  22.968  1.00  0.00     0.068 A 
ATOM     20  C   UNL A   1      35.228  23.277  24.454  1.00  0.00     0.026 A 
ATOM     21  C   UNL A   1      33.423  21.765  23.929  1.00  0.00     0.063 A 
ATOM     22  C   UNL A   1      34.546  22.087  24.698  1.00  0.00     0.059 A 
ATOM     23  Cl  UNL A   1      32.536  20.300  24.162  1.00  0.00    -0.083 Cl
ATOM     24  Cl  UNL A   1      35.122  21.081  25.977  1.00  0.00    -0.083 Cl
ENDBRANCH  16  17
ENDBRANCH  15  16
ENDBRANCH  14  15
ENDBRANCH  11  14
ENDBRANCH   6  10
ENDBRANCH   3   6
ENDBRANCH   1   2
BRANCH   1  25
ATOM     25  C   UNL A   1      34.835  30.933  27.751  1.00  0.00     0.023 C 
BRANCH  25  26
ATOM     26  C   UNL A   1      33.637  31.861  27.903  1.00  0.00     0.023 C 
BRANCH  26  27
ATOM     27  C   UNL A   1      33.942  33.322  27.624  1.00  0.00     0.116 C 
BRANCH  27  28
ATOM     28  N   UNL A   1      33.288  34.227  28.558  1.00  0.00    -0.352 N 
ATOM     29  C   UNL A   1      33.620  34.484  29.862  1.00  0.00     0.251 C 
ATOM     30  H   UNL A   1      32.509  34.718  28.208  1.00  0.00     0.163 HD
ATOM     31  O   UNL A   1      32.911  35.205  30.556  1.00  0.00    -0.269 OA
BRANCH  29  32
ATOM     32  C   UNL A   1      34.819  33.831  30.414  1.00  0.00     0.039 A 
ATOM     33  C   UNL A   1      34.657  32.739  31.265  1.00  0.00     0.014 A 
ATOM     34  C   UNL A   1      36.089  34.240  29.998  1.00  0.00     0.014 A 
ATOM     35  C   UNL A   1      35.779  32.012  31.658  1.00  0.00     0.010 A 
ATOM     36  C   UNL A   1      37.191  33.463  30.317  1.00  0.00     0.010 A 
ATOM     37  C   UNL A   1      37.048  32.349  31.159  1.00  0.00    -0.014 A 
BRANCH  37  38
ATOM     38  C   UNL A   1      38.251  31.574  31.540  1.00  0.00     0.031 A 
ATOM     39  C   UNL A   1      38.942  31.884  32.838  1.00  0.00     0.074 A 
ATOM     40  C   UNL A   1      38.747  30.649  30.696  1.00  0.00     0.049 A 
ATOM     41  N   UNL A   1      40.053  31.395  33.323  1.00  0.00    -0.248 NA
ATOM     42  C   UNL A   1      38.320  32.915  33.683  1.00  0.00     0.031 C 
ATOM     43  C   UNL A   1      38.183  30.309  29.387  1.00  0.00     0.029 A 
ATOM     44  N   UNL A   1      39.842  29.832  30.806  1.00  0.00    -0.354 N 
ATOM     45  C   UNL A   1      40.270  32.070  34.519  1.00  0.00     0.074 A 
ATOM     46  C   UNL A   1      39.219  33.056  34.644  1.00  0.00     0.031 C 
ATOM     47  C   UNL A   1      38.922  29.335  28.830  1.00  0.00     0.029 A 
ATOM     48  C   UNL A   1      40.033  29.012  29.718  1.00  0.00     0.049 A 
ATOM     49  H   UNL A   1      40.437  29.833  31.590  1.00  0.00     0.167 HD
ATOM     50  C   UNL A   1      41.239  31.863  35.444  1.00  0.00     0.034 A 
ATOM     51  C   UNL A   1      41.000  28.109  29.468  1.00  0.00     0.034 A 
ATOM     52  C   UNL A   1      42.262  30.859  35.305  1.00  0.00     0.049 A 
ATOM     53  C   UNL A   1      42.068  27.892  30.512  1.00  0.00     0.074 A 
ATOM     54  C   UNL A   1      43.268  30.521  36.193  1.00  0.00     0.029 A 
ATOM     55  N   UNL A   1      42.411  30.026  34.202  1.00  0.00    -0.354 N 
ATOM     56  N   UNL A   1      42.233  28.504  31.663  1.00  0.00    -0.248 NA
ATOM     57  C   UNL A   1      43.067  26.855  30.231  1.00  0.00     0.031 C 
ATOM     58  C   UNL A   1      44.056  29.526  35.603  1.00  0.00     0.029 A 
ATOM     59  C   UNL A   1      43.502  29.192  34.378  1.00  0.00     0.049 A 
ATOM     60  H   UNL A   1      41.824  30.030  33.410  1.00  0.00     0.167 HD
ATOM     61  C   UNL A   1      43.340  27.904  32.255  1.00  0.00     0.074 A 
ATOM     62  C   UNL A   1      43.789  26.872  31.341  1.00  0.00     0.031 C 
ATOM     63  C   UNL A   1      43.933  28.176  33.445  1.00  0.00     0.034 A 
BRANCH  50  64
ATOM     64  C   UNL A   1      41.231  32.754  36.664  1.00  0.00     0.023 A 
ATOM     65  C   UNL A   1      40.388  32.494  37.760  1.00  0.00     0.031 A 
ATOM     66  C   UNL A   1      42.038  33.903  36.715  1.00  0.00     0.131 A 
ATOM     67  C   UNL A   1      40.304  33.415  38.815  1.00  0.00     0.055 A 
ATOM     68  C   UNL A   1      42.014  34.771  37.810  1.00  0.00     0.041 A 
ATOM     69  F   UNL A   1      42.846  34.218  35.691  1.00  0.00    -0.206 F 
ATOM     70  C   UNL A   1      41.131  34.538  38.861  1.00  0.00     0.022 A 
BRANCH  67  71
ATOM     71  S   UNL A   1      38.986  33.203  40.044  1.00  0.00     0.124 S 
ATOM     72  O   UNL A   1      37.798  33.160  39.195  1.00  0.00    -0.237 OA
ATOM     73  O   UNL A   1      39.355  31.949  40.690  1.00  0.00    -0.237 OA
ATOM     74  O   UNL A   1      39.104  34.395  40.880  1.00  0.00    -0.744 OA
ENDBRANCH  67  71
ENDBRANCH  50  64
BRANCH  51  75
ATOM     75  C   UNL A   1      41.011  27.345  28.188  1.00  0.00     0.023 A 
ATOM     76  C   UNL A   1      40.527  26.029  28.125  1.00  0.00     0.031 A 
ATOM     77  C   UNL A   1      41.538  27.909  27.013  1.00  0.00     0.131 A 
ATOM     78  C   UNL A   1      40.623  25.303  26.927  1.00  0.00     0.055 A 
ATOM     79  C   UNL A   1      41.585  27.202  25.810  1.00  0.00     0.041 A 
ATOM     80  F   UNL A   1      42.006  29.168  27.014  1.00  0.00    -0.206 F 
ATOM     81  C   UNL A   1      41.138  25.885  25.766  1.00  0.00     0.022 A 
BRANCH  78  82
ATOM     82  S   UNL A   1      40.139  23.555  26.929  1.00  0.00     0.124 S 
ATOM     83  O   UNL A   1      38.739  23.633  26.529  1.00  0.00    -0.237 OA
ATOM     84  O   UNL A   1      41.058  22.986  25.949  1.00  0.00    -0.237 OA
ATOM     85  O   UNL A   1      40.372  23.141  28.312  1.00  0.00    -0.744 OA
ENDBRANCH  78  82
ENDBRANCH  51  75
BRANCH  63  86
ATOM     86  C   UNL A   1      45.104  27.310  33.836  1.00  0.00     0.023 A 
ATOM     87  C   UNL A   1      44.932  26.124  34.569  1.00  0.00     0.031 A 
ATOM     88  C   UNL A   1      46.410  27.685  33.474  1.00  0.00     0.131 A 
ATOM     89  C   UNL A   1      46.053  25.381  34.965  1.00  0.00     0.055 A 
ATOM     90  C   UNL A   1      47.517  26.909  33.820  1.00  0.00     0.041 A 
ATOM     91  F   UNL A   1      46.631  28.808  32.775  1.00  0.00    -0.206 F 
ATOM     92  C   UNL A   1      47.342  25.756  34.581  1.00  0.00     0.022 A 
BRANCH  89  93
ATOM     93  S   UNL A   1      45.809  23.962  36.068  1.00  0.00     0.124 S 
ATOM     94  O   UNL A   1      45.987  24.566  37.384  1.00  0.00    -0.237 OA
ATOM     95  O   UNL A   1      44.452  23.540  35.739  1.00  0.00    -0.237 OA
ATOM     96  O   UNL A   1      46.862  23.030  35.666  1.00  0.00    -0.744 OA
ENDBRANCH  89  93
ENDBRANCH  63  86
ENDBRANCH  37  38
ENDBRANCH  29  32
ENDBRANCH  27  28
ENDBRANCH  26  27
ENDBRANCH  25  26
ENDBRANCH   1  25
TORSDOF 20
ENDMDL
