MODEL 1
REMARK VINA RESULT:     -12.9      0.000      0.000
REMARK SMILES COc1cccc(C(=O)N2[C@@H](C(=O)NCCCCNC(=O)c3ccc(-c4c5nc(c(-c6cc(S(=O)(=O)[O-])ccc6F)c6ccc([nH]6)c(-c6cc(S(=O)(=O)[O-])ccc6F)c6nc(c(-c7cc(S(=O)(=O)[O-])ccc7F)c7ccc4[nH]7)C=C6)C=C5)cc3)CS[C@@H]2c2ccccc2Cl)c1
REMARK SMILES IDX 16 1 15 2 14 3 12 4 13 5 11 7 10 8 87 9 85 10 86 11 8 12
REMARK SMILES IDX 9 13 7 14 3 15 4 16 95 17 5 18 6 19 2 20 1 21 88 22 89 23
REMARK SMILES IDX 93 24 90 25 92 26 94 27 91 28 17 29 18 30 19 31 20 32 21 34
REMARK SMILES IDX 22 35 23 36 84 37 24 38 83 39 25 40 26 41 27 42 77 43 28 44
REMARK SMILES IDX 82 45 76 46 78 47 29 48 81 49 75 50 74 51 30 53 62 54 42 55
REMARK SMILES IDX 61 56 43 57 46 58 60 59 79 60 44 61 45 62 59 64 80 65 47 66
REMARK SMILES IDX 31 67 32 68 40 69 33 70 39 71 41 72 38 73 34 74 35 75 36 76
REMARK SMILES IDX 37 77 63 78 64 79 72 80 65 81 71 82 73 83 70 84 66 85 67 86
REMARK SMILES IDX 68 87 69 88 48 89 49 90 57 91 50 92 56 93 58 94 55 95 51 96
REMARK SMILES IDX 52 97 53 98 54 99
REMARK H PARENT 14 6 19 33 78 52 46 63
REMARK Flexibility Score: inf
ROOT
ATOM      1  C   UNL A   1      32.615  30.045  26.611  1.00  0.00     0.023 C 
ENDROOT
BRANCH   1   2
ATOM      2  C   UNL A   1      31.957  29.615  25.304  1.00  0.00     0.116 C 
BRANCH   2   3
ATOM      3  N   UNL A   1      32.899  29.584  24.210  1.00  0.00    -0.354 N 
ATOM      4  C   UNL A   1      33.469  28.531  23.559  1.00  0.00     0.243 C 
ATOM      5  O   UNL A   1      34.455  28.790  22.855  1.00  0.00    -0.273 OA
ATOM      6  H   UNL A   1      33.175  30.469  23.880  1.00  0.00     0.163 HD
BRANCH   4   7
ATOM      7  C   UNL A   1      33.090  27.052  23.825  1.00  0.00     0.186 C 
ATOM      8  N   UNL A   1      31.675  26.651  23.665  1.00  0.00    -0.310 N 
ATOM      9  C   UNL A   1      31.230  25.621  24.597  1.00  0.00     0.176 C 
ATOM     10  C   UNL A   1      33.550  26.701  25.246  1.00  0.00     0.107 C 
ATOM     11  S   UNL A   1      32.049  26.220  26.148  1.00  0.00    -0.129 SA
BRANCH   8  12
ATOM     12  C   UNL A   1      30.995  27.124  22.549  1.00  0.00     0.255 C 
ATOM     13  O   UNL A   1      31.349  26.802  21.414  1.00  0.00    -0.269 OA
BRANCH  12  14
ATOM     14  C   UNL A   1      29.969  28.215  22.660  1.00  0.00     0.043 A 
ATOM     15  C   UNL A   1      29.062  30.386  22.040  1.00  0.00     0.119 A 
ATOM     16  C   UNL A   1      27.811  30.017  22.526  1.00  0.00     0.046 A 
ATOM     17  C   UNL A   1      30.139  29.496  22.118  1.00  0.00     0.060 A 
ATOM     18  C   UNL A   1      27.622  28.746  23.061  1.00  0.00     0.005 A 
ATOM     19  C   UNL A   1      28.694  27.851  23.126  1.00  0.00     0.014 A 
BRANCH  15  20
ATOM     20  O   UNL A   1      29.162  31.650  21.523  1.00  0.00    -0.497 OA
ATOM     21  C   UNL A   1      27.930  32.178  21.035  1.00  0.00     0.278 C 
ENDBRANCH  15  20
ENDBRANCH  12  14
ENDBRANCH   8  12
BRANCH   9  22
ATOM     22  C   UNL A   1      31.630  24.150  24.383  1.00  0.00     0.003 A 
ATOM     23  C   UNL A   1      32.405  23.885  23.216  1.00  0.00     0.008 A 
ATOM     24  C   UNL A   1      31.329  23.036  25.182  1.00  0.00     0.047 A 
ATOM     25  C   UNL A   1      32.739  22.593  22.804  1.00  0.00     0.001 A 
ATOM     26  C   UNL A   1      31.658  21.733  24.758  1.00  0.00     0.021 A 
ATOM     27  Cl  UNL A   1      30.605  23.108  26.741  1.00  0.00    -0.084 Cl
ATOM     28  C   UNL A   1      32.340  21.509  23.566  1.00  0.00     0.002 A 
ENDBRANCH   9  22
ENDBRANCH   4   7
ENDBRANCH   2   3
ENDBRANCH   1   2
BRANCH   1  29
ATOM     29  C   UNL A   1      32.152  31.404  27.140  1.00  0.00     0.023 C 
BRANCH  29  30
ATOM     30  C   UNL A   1      33.260  32.435  27.345  1.00  0.00     0.116 C 
BRANCH  30  31
ATOM     31  N   UNL A   1      32.765  33.762  27.672  1.00  0.00    -0.352 N 
ATOM     32  C   UNL A   1      33.244  34.645  28.611  1.00  0.00     0.251 C 
ATOM     33  H   UNL A   1      31.986  34.069  27.154  1.00  0.00     0.163 HD
ATOM     34  O   UNL A   1      32.670  35.716  28.787  1.00  0.00    -0.269 OA
BRANCH  32  35
ATOM     35  C   UNL A   1      34.402  34.258  29.447  1.00  0.00     0.039 A 
ATOM     36  C   UNL A   1      34.161  33.575  30.642  1.00  0.00     0.014 A 
ATOM     37  C   UNL A   1      35.711  34.504  29.026  1.00  0.00     0.014 A 
ATOM     38  C   UNL A   1      35.234  33.060  31.372  1.00  0.00     0.010 A 
ATOM     39  C   UNL A   1      36.777  33.939  29.724  1.00  0.00     0.010 A 
ATOM     40  C   UNL A   1      36.548  33.200  30.895  1.00  0.00    -0.014 A 
BRANCH  40  41
ATOM     41  C   UNL A   1      37.688  32.560  31.598  1.00  0.00     0.031 A 
ATOM     42  C   UNL A   1      38.413  31.406  30.966  1.00  0.00     0.074 A 
ATOM     43  C   UNL A   1      38.025  32.979  32.833  1.00  0.00     0.049 A 
ATOM     44  N   UNL A   1      39.390  30.679  31.445  1.00  0.00    -0.248 NA
ATOM     45  C   UNL A   1      37.958  30.999  29.629  1.00  0.00     0.031 C 
ATOM     46  C   UNL A   1      37.362  34.057  33.570  1.00  0.00     0.029 A 
ATOM     47  N   UNL A   1      39.003  32.545  33.693  1.00  0.00    -0.354 N 
ATOM     48  C   UNL A   1      39.662  29.722  30.473  1.00  0.00     0.074 A 
ATOM     49  C   UNL A   1      38.704  29.928  29.406  1.00  0.00     0.031 C 
ATOM     50  C   UNL A   1      37.965  34.214  34.760  1.00  0.00     0.029 A 
ATOM     51  C   UNL A   1      39.034  33.228  34.888  1.00  0.00     0.049 A 
ATOM     52  H   UNL A   1      39.625  31.814  33.475  1.00  0.00     0.167 HD
ATOM     53  C   UNL A   1      40.633  28.776  30.461  1.00  0.00     0.034 A 
ATOM     54  C   UNL A   1      39.829  33.072  35.963  1.00  0.00     0.034 A 
ATOM     55  C   UNL A   1      41.583  28.587  31.531  1.00  0.00     0.049 A 
ATOM     56  C   UNL A   1      40.900  32.014  35.930  1.00  0.00     0.074 A 
ATOM     57  C   UNL A   1      42.629  27.684  31.610  1.00  0.00     0.029 A 
ATOM     58  N   UNL A   1      41.599  29.313  32.715  1.00  0.00    -0.354 N 
ATOM     59  N   UNL A   1      41.175  31.147  34.982  1.00  0.00    -0.248 NA
ATOM     60  C   UNL A   1      41.779  31.925  37.103  1.00  0.00     0.031 C 
ATOM     61  C   UNL A   1      43.246  27.831  32.859  1.00  0.00     0.029 A 
ATOM     62  C   UNL A   1      42.624  28.867  33.536  1.00  0.00     0.049 A 
ATOM     63  H   UNL A   1      40.973  30.038  32.940  1.00  0.00     0.167 HD
ATOM     64  C   UNL A   1      42.278  30.430  35.436  1.00  0.00     0.074 A 
ATOM     65  C   UNL A   1      42.623  30.972  36.732  1.00  0.00     0.031 C 
ATOM     66  C   UNL A   1      42.949  29.417  34.830  1.00  0.00     0.034 A 
BRANCH  53  67
ATOM     67  C   UNL A   1      40.690  27.865  29.258  1.00  0.00     0.023 A 
ATOM     68  C   UNL A   1      41.609  28.083  28.216  1.00  0.00     0.031 A 
ATOM     69  C   UNL A   1      39.785  26.799  29.124  1.00  0.00     0.131 A 
ATOM     70  C   UNL A   1      41.546  27.305  27.052  1.00  0.00     0.055 A 
ATOM     71  C   UNL A   1      39.782  25.974  27.997  1.00  0.00     0.041 A 
ATOM     72  F   UNL A   1      38.872  26.553  30.076  1.00  0.00    -0.206 F 
ATOM     73  C   UNL A   1      40.655  26.235  26.944  1.00  0.00     0.022 A 
BRANCH  70  74
ATOM     74  S   UNL A   1      42.542  27.808  25.622  1.00  0.00     0.124 S 
ATOM     75  O   UNL A   1      42.495  26.605  24.793  1.00  0.00    -0.237 OA
ATOM     76  O   UNL A   1      41.809  28.961  25.114  1.00  0.00    -0.237 OA
ATOM     77  O   UNL A   1      43.850  28.105  26.202  1.00  0.00    -0.744 OA
ENDBRANCH  70  74
ENDBRANCH  53  67
BRANCH  54  78
ATOM     78  C   UNL A   1      39.653  33.937  37.164  1.00  0.00     0.023 A 
ATOM     79  C   UNL A   1      38.998  33.458  38.309  1.00  0.00     0.031 A 
ATOM     80  C   UNL A   1      40.103  35.269  37.168  1.00  0.00     0.131 A 
ATOM     81  C   UNL A   1      38.770  34.315  39.395  1.00  0.00     0.055 A 
ATOM     82  C   UNL A   1      39.913  36.106  38.268  1.00  0.00     0.041 A 
ATOM     83  F   UNL A   1      40.745  35.772  36.102  1.00  0.00    -0.206 F 
ATOM     84  C   UNL A   1      39.232  35.634  39.387  1.00  0.00     0.022 A 
BRANCH  81  85
ATOM     85  S   UNL A   1      37.794  33.703  40.796  1.00  0.00     0.124 S 
ATOM     86  O   UNL A   1      36.775  32.904  40.122  1.00  0.00    -0.237 OA
ATOM     87  O   UNL A   1      38.793  32.961  41.557  1.00  0.00    -0.237 OA
ATOM     88  O   UNL A   1      37.309  34.925  41.432  1.00  0.00    -0.744 OA
ENDBRANCH  81  85
ENDBRANCH  54  78
BRANCH  66  89
ATOM     89  C   UNL A   1      44.155  28.874  35.553  1.00  0.00     0.023 A 
ATOM     90  C   UNL A   1      44.054  27.807  36.463  1.00  0.00     0.031 A 
ATOM     91  C   UNL A   1      45.420  29.448  35.341  1.00  0.00     0.131 A 
ATOM     92  C   UNL A   1      45.190  27.380  37.166  1.00  0.00     0.055 A 
ATOM     93  C   UNL A   1      46.557  28.986  36.005  1.00  0.00     0.041 A 
ATOM     94  F   UNL A   1      45.571  30.470  34.483  1.00  0.00    -0.206 F 
ATOM     95  C   UNL A   1      46.443  27.954  36.932  1.00  0.00     0.022 A 
BRANCH  92  96
ATOM     96  S   UNL A   1      44.996  26.117  38.453  1.00  0.00     0.124 S 
ATOM     97  O   UNL A   1      44.753  24.913  37.663  1.00  0.00    -0.237 OA
ATOM     98  O   UNL A   1      46.279  26.176  39.144  1.00  0.00    -0.237 OA
ATOM     99  O   UNL A   1      43.851  26.590  39.229  1.00  0.00    -0.744 OA
ENDBRANCH  92  96
ENDBRANCH  66  89
ENDBRANCH  40  41
ENDBRANCH  32  35
ENDBRANCH  30  31
ENDBRANCH  29  30
ENDBRANCH   1  29
TORSDOF 18
ENDMDL
MODEL 2
REMARK VINA RESULT:     -12.9      1.601      7.516
REMARK SMILES COc1cccc(C(=O)N2[C@@H](C(=O)NCCCCNC(=O)c3ccc(-c4c5nc(c(-c6cc(S(=O)(=O)[O-])ccc6F)c6ccc([nH]6)c(-c6cc(S(=O)(=O)[O-])ccc6F)c6nc(c(-c7cc(S(=O)(=O)[O-])ccc7F)c7ccc4[nH]7)C=C6)C=C5)cc3)CS[C@@H]2c2ccccc2Cl)c1
REMARK SMILES IDX 16 1 15 2 14 3 12 4 13 5 11 7 10 8 87 9 85 10 86 11 8 12
REMARK SMILES IDX 9 13 7 14 3 15 4 16 95 17 5 18 6 19 2 20 1 21 88 22 89 23
REMARK SMILES IDX 93 24 90 25 92 26 94 27 91 28 17 29 18 30 19 31 20 32 21 34
REMARK SMILES IDX 22 35 23 36 84 37 24 38 83 39 25 40 26 41 27 42 77 43 28 44
REMARK SMILES IDX 82 45 76 46 78 47 29 48 81 49 75 50 74 51 30 53 62 54 42 55
REMARK SMILES IDX 61 56 43 57 46 58 60 59 79 60 44 61 45 62 59 64 80 65 47 66
REMARK SMILES IDX 31 67 32 68 40 69 33 70 39 71 41 72 38 73 34 74 35 75 36 76
REMARK SMILES IDX 37 77 63 78 64 79 72 80 65 81 71 82 73 83 70 84 66 85 67 86
REMARK SMILES IDX 68 87 69 88 48 89 49 90 57 91 50 92 56 93 58 94 55 95 51 96
REMARK SMILES IDX 52 97 53 98 54 99
REMARK H PARENT 14 6 19 33 78 52 46 63
REMARK Flexibility Score: inf
ROOT
ATOM      1  C   UNL A   1      32.096  30.371  26.851  1.00  0.00     0.023 C 
ENDROOT
BRANCH   1   2
ATOM      2  C   UNL A   1      31.610  29.571  25.646  1.00  0.00     0.116 C 
BRANCH   2   3
ATOM      3  N   UNL A   1      32.531  29.652  24.538  1.00  0.00    -0.354 N 
ATOM      4  C   UNL A   1      33.153  28.670  23.826  1.00  0.00     0.243 C 
ATOM      5  O   UNL A   1      34.108  29.024  23.121  1.00  0.00    -0.273 OA
ATOM      6  H   UNL A   1      32.746  30.568  24.248  1.00  0.00     0.163 HD
BRANCH   4   7
ATOM      7  C   UNL A   1      32.871  27.159  24.025  1.00  0.00     0.186 C 
ATOM      8  N   UNL A   1      31.494  26.668  23.801  1.00  0.00    -0.310 N 
ATOM      9  C   UNL A   1      31.093  25.573  24.679  1.00  0.00     0.176 C 
ATOM     10  C   UNL A   1      33.310  26.786  25.447  1.00  0.00     0.107 C 
ATOM     11  S   UNL A   1      31.818  26.166  26.278  1.00  0.00    -0.129 SA
BRANCH   8  12
ATOM     12  C   UNL A   1      30.818  27.135  22.681  1.00  0.00     0.255 C 
ATOM     13  O   UNL A   1      31.189  26.824  21.548  1.00  0.00    -0.269 OA
BRANCH  12  14
ATOM     14  C   UNL A   1      29.775  28.209  22.787  1.00  0.00     0.043 A 
ATOM     15  C   UNL A   1      28.821  30.353  22.142  1.00  0.00     0.119 A 
ATOM     16  C   UNL A   1      27.583  29.971  22.649  1.00  0.00     0.046 A 
ATOM     17  C   UNL A   1      29.914  29.485  22.221  1.00  0.00     0.060 A 
ATOM     18  C   UNL A   1      27.423  28.706  23.208  1.00  0.00     0.005 A 
ATOM     19  C   UNL A   1      28.511  27.831  23.274  1.00  0.00     0.014 A 
BRANCH  15  20
ATOM     20  O   UNL A   1      28.892  31.610  21.604  1.00  0.00    -0.497 OA
ATOM     21  C   UNL A   1      28.697  32.661  22.549  1.00  0.00     0.278 C 
ENDBRANCH  15  20
ENDBRANCH  12  14
ENDBRANCH   8  12
BRANCH   9  22
ATOM     22  C   UNL A   1      31.603  24.143  24.425  1.00  0.00     0.003 A 
ATOM     23  C   UNL A   1      32.386  23.968  23.247  1.00  0.00     0.008 A 
ATOM     24  C   UNL A   1      31.395  22.989  25.197  1.00  0.00     0.047 A 
ATOM     25  C   UNL A   1      32.815  22.715  22.800  1.00  0.00     0.001 A 
ATOM     26  C   UNL A   1      31.819  21.727  24.738  1.00  0.00     0.021 A 
ATOM     27  Cl  UNL A   1      30.680  22.967  26.762  1.00  0.00    -0.084 Cl
ATOM     28  C   UNL A   1      32.507  21.586  23.537  1.00  0.00     0.002 A 
ENDBRANCH   9  22
ENDBRANCH   4   7
ENDBRANCH   2   3
ENDBRANCH   1   2
BRANCH   1  29
ATOM     29  C   UNL A   1      31.546  31.797  26.933  1.00  0.00     0.023 C 
BRANCH  29  30
ATOM     30  C   UNL A   1      32.569  32.904  26.692  1.00  0.00     0.116 C 
BRANCH  30  31
ATOM     31  N   UNL A   1      32.402  34.050  27.572  1.00  0.00    -0.352 N 
ATOM     32  C   UNL A   1      33.181  34.426  28.641  1.00  0.00     0.251 C 
ATOM     33  H   UNL A   1      31.633  34.632  27.376  1.00  0.00     0.163 HD
ATOM     34  O   UNL A   1      32.864  35.408  29.307  1.00  0.00    -0.269 OA
BRANCH  32  35
ATOM     35  C   UNL A   1      34.347  33.597  29.017  1.00  0.00     0.039 A 
ATOM     36  C   UNL A   1      35.625  34.139  28.864  1.00  0.00     0.014 A 
ATOM     37  C   UNL A   1      34.180  32.328  29.578  1.00  0.00     0.014 A 
ATOM     38  C   UNL A   1      36.733  33.445  29.354  1.00  0.00     0.010 A 
ATOM     39  C   UNL A   1      35.279  31.664  30.120  1.00  0.00     0.010 A 
ATOM     40  C   UNL A   1      36.563  32.223  30.026  1.00  0.00    -0.014 A 
BRANCH  40  41
ATOM     41  C   UNL A   1      37.717  31.529  30.654  1.00  0.00     0.031 A 
ATOM     42  C   UNL A   1      38.110  31.849  32.068  1.00  0.00     0.074 A 
ATOM     43  C   UNL A   1      38.445  30.661  29.926  1.00  0.00     0.049 A 
ATOM     44  N   UNL A   1      39.118  31.397  32.770  1.00  0.00    -0.248 NA
ATOM     45  C   UNL A   1      37.274  32.829  32.776  1.00  0.00     0.031 C 
ATOM     46  C   UNL A   1      38.190  30.308  28.527  1.00  0.00     0.029 A 
ATOM     47  N   UNL A   1      39.554  29.923  30.255  1.00  0.00    -0.354 N 
ATOM     48  C   UNL A   1      39.044  32.043  33.999  1.00  0.00     0.074 A 
ATOM     49  C   UNL A   1      37.927  32.962  33.920  1.00  0.00     0.031 C 
ATOM     50  C   UNL A   1      39.102  29.407  28.126  1.00  0.00     0.029 A 
ATOM     51  C   UNL A   1      40.027  29.143  29.224  1.00  0.00     0.049 A 
ATOM     52  H   UNL A   1      39.973  29.949  31.145  1.00  0.00     0.167 HD
ATOM     53  C   UNL A   1      39.821  31.870  35.097  1.00  0.00     0.034 A 
ATOM     54  C   UNL A   1      41.087  28.314  29.169  1.00  0.00     0.034 A 
ATOM     55  C   UNL A   1      40.928  30.947  35.160  1.00  0.00     0.049 A 
ATOM     56  C   UNL A   1      41.937  28.138  30.400  1.00  0.00     0.074 A 
ATOM     57  C   UNL A   1      41.760  30.664  36.230  1.00  0.00     0.029 A 
ATOM     58  N   UNL A   1      41.362  30.156  34.104  1.00  0.00    -0.354 N 
ATOM     59  N   UNL A   1      41.826  28.722  31.571  1.00  0.00    -0.248 NA
ATOM     60  C   UNL A   1      43.045  27.179  30.307  1.00  0.00     0.031 C 
ATOM     61  C   UNL A   1      42.725  29.741  35.808  1.00  0.00     0.029 A 
ATOM     62  C   UNL A   1      42.459  29.400  34.491  1.00  0.00     0.049 A 
ATOM     63  H   UNL A   1      40.952  30.134  33.210  1.00  0.00     0.167 HD
ATOM     64  C   UNL A   1      42.833  28.177  32.362  1.00  0.00     0.074 A 
ATOM     65  C   UNL A   1      43.532  27.212  31.540  1.00  0.00     0.031 C 
ATOM     66  C   UNL A   1      43.147  28.446  33.654  1.00  0.00     0.034 A 
BRANCH  53  67
ATOM     67  C   UNL A   1      39.503  32.720  36.303  1.00  0.00     0.023 A 
ATOM     68  C   UNL A   1      38.694  32.238  37.347  1.00  0.00     0.031 A 
ATOM     69  C   UNL A   1      39.970  34.042  36.390  1.00  0.00     0.131 A 
ATOM     70  C   UNL A   1      38.304  33.095  38.386  1.00  0.00     0.055 A 
ATOM     71  C   UNL A   1      39.646  34.867  37.471  1.00  0.00     0.041 A 
ATOM     72  F   UNL A   1      40.730  34.565  35.416  1.00  0.00    -0.206 F 
ATOM     73  C   UNL A   1      38.795  34.400  38.468  1.00  0.00     0.022 A 
BRANCH  70  74
ATOM     74  S   UNL A   1      37.028  32.527  39.543  1.00  0.00     0.124 S 
ATOM     75  O   UNL A   1      35.811  32.724  38.759  1.00  0.00    -0.237 OA
ATOM     76  O   UNL A   1      37.414  31.143  39.786  1.00  0.00    -0.237 OA
ATOM     77  O   UNL A   1      37.177  33.427  40.686  1.00  0.00    -0.744 OA
ENDBRANCH  70  74
ENDBRANCH  53  67
BRANCH  54  78
ATOM     78  C   UNL A   1      41.409  27.582  27.913  1.00  0.00     0.023 A 
ATOM     79  C   UNL A   1      41.227  26.193  27.820  1.00  0.00     0.031 A 
ATOM     80  C   UNL A   1      41.940  28.255  26.799  1.00  0.00     0.131 A 
ATOM     81  C   UNL A   1      41.615  25.513  26.656  1.00  0.00     0.055 A 
ATOM     82  C   UNL A   1      42.284  27.581  25.626  1.00  0.00     0.041 A 
ATOM     83  F   UNL A   1      42.123  29.585  26.833  1.00  0.00    -0.206 F 
ATOM     84  C   UNL A   1      42.134  26.199  25.554  1.00  0.00     0.022 A 
BRANCH  81  85
ATOM     85  S   UNL A   1      41.501  23.703  26.628  1.00  0.00     0.124 S 
ATOM     86  O   UNL A   1      42.091  23.347  27.915  1.00  0.00    -0.237 OA
ATOM     87  O   UNL A   1      40.062  23.494  26.502  1.00  0.00    -0.237 OA
ATOM     88  O   UNL A   1      42.288  23.331  25.456  1.00  0.00    -0.744 OA
ENDBRANCH  81  85
ENDBRANCH  54  78
BRANCH  66  89
ATOM     89  C   UNL A   1      44.267  27.641  34.263  1.00  0.00     0.023 A 
ATOM     90  C   UNL A   1      44.026  26.433  34.940  1.00  0.00     0.031 A 
ATOM     91  C   UNL A   1      45.592  28.102  34.178  1.00  0.00     0.131 A 
ATOM     92  C   UNL A   1      45.089  25.752  35.551  1.00  0.00     0.055 A 
ATOM     93  C   UNL A   1      46.653  27.395  34.744  1.00  0.00     0.041 A 
ATOM     94  F   UNL A   1      45.875  29.250  33.542  1.00  0.00    -0.206 F 
ATOM     95  C   UNL A   1      46.402  26.219  35.446  1.00  0.00     0.022 A 
BRANCH  92  96
ATOM     96  S   UNL A   1      44.724  24.289  36.559  1.00  0.00     0.124 S 
ATOM     97  O   UNL A   1      43.786  23.562  35.710  1.00  0.00    -0.237 OA
ATOM     98  O   UNL A   1      46.042  23.682  36.717  1.00  0.00    -0.237 OA
ATOM     99  O   UNL A   1      44.149  24.848  37.781  1.00  0.00    -0.744 OA
ENDBRANCH  92  96
ENDBRANCH  66  89
ENDBRANCH  40  41
ENDBRANCH  32  35
ENDBRANCH  30  31
ENDBRANCH  29  30
ENDBRANCH   1  29
TORSDOF 18
ENDMDL
MODEL 3
REMARK VINA RESULT:     -12.4      2.600      7.851
REMARK SMILES COc1cccc(C(=O)N2[C@@H](C(=O)NCCCCNC(=O)c3ccc(-c4c5nc(c(-c6cc(S(=O)(=O)[O-])ccc6F)c6ccc([nH]6)c(-c6cc(S(=O)(=O)[O-])ccc6F)c6nc(c(-c7cc(S(=O)(=O)[O-])ccc7F)c7ccc4[nH]7)C=C6)C=C5)cc3)CS[C@@H]2c2ccccc2Cl)c1
REMARK SMILES IDX 16 1 15 2 14 3 12 4 13 5 11 7 10 8 87 9 85 10 86 11 8 12
REMARK SMILES IDX 9 13 7 14 3 15 4 16 95 17 5 18 6 19 2 20 1 21 88 22 89 23
REMARK SMILES IDX 93 24 90 25 92 26 94 27 91 28 17 29 18 30 19 31 20 32 21 34
REMARK SMILES IDX 22 35 23 36 84 37 24 38 83 39 25 40 26 41 27 42 77 43 28 44
REMARK SMILES IDX 82 45 76 46 78 47 29 48 81 49 75 50 74 51 30 53 62 54 42 55
REMARK SMILES IDX 61 56 43 57 46 58 60 59 79 60 44 61 45 62 59 64 80 65 47 66
REMARK SMILES IDX 31 67 32 68 40 69 33 70 39 71 41 72 38 73 34 74 35 75 36 76
REMARK SMILES IDX 37 77 63 78 64 79 72 80 65 81 71 82 73 83 70 84 66 85 67 86
REMARK SMILES IDX 68 87 69 88 48 89 49 90 57 91 50 92 56 93 58 94 55 95 51 96
REMARK SMILES IDX 52 97 53 98 54 99
REMARK H PARENT 14 6 19 33 78 52 46 63
REMARK Flexibility Score: inf
ROOT
ATOM      1  C   UNL A   1      31.934  28.710  27.596  1.00  0.00     0.023 C 
ENDROOT
BRANCH   1   2
ATOM      2  C   UNL A   1      32.112  27.439  26.770  1.00  0.00     0.116 C 
BRANCH   2   3
ATOM      3  N   UNL A   1      31.037  26.501  26.985  1.00  0.00    -0.354 N 
ATOM      4  C   UNL A   1      30.915  25.191  26.626  1.00  0.00     0.243 C 
ATOM      5  O   UNL A   1      29.776  24.710  26.683  1.00  0.00    -0.273 OA
ATOM      6  H   UNL A   1      30.263  26.865  27.473  1.00  0.00     0.163 HD
BRANCH   4   7
ATOM      7  C   UNL A   1      32.055  24.376  25.962  1.00  0.00     0.186 C 
ATOM      8  N   UNL A   1      31.792  23.739  24.654  1.00  0.00    -0.310 N 
ATOM      9  C   UNL A   1      32.468  22.461  24.458  1.00  0.00     0.176 C 
ATOM     10  C   UNL A   1      32.501  23.300  26.961  1.00  0.00     0.107 C 
ATOM     11  S   UNL A   1      32.217  21.709  26.133  1.00  0.00    -0.129 SA
BRANCH   8  12
ATOM     12  C   UNL A   1      31.124  24.491  23.694  1.00  0.00     0.255 C 
ATOM     13  O   UNL A   1      30.312  23.961  22.935  1.00  0.00    -0.269 OA
BRANCH  12  14
ATOM     14  C   UNL A   1      31.529  25.903  23.385  1.00  0.00     0.043 A 
ATOM     15  C   UNL A   1      31.125  28.303  23.373  1.00  0.00     0.119 A 
ATOM     16  C   UNL A   1      32.489  28.545  23.242  1.00  0.00     0.046 A 
ATOM     17  C   UNL A   1      30.645  26.990  23.431  1.00  0.00     0.060 A 
ATOM     18  C   UNL A   1      33.383  27.479  23.203  1.00  0.00     0.005 A 
ATOM     19  C   UNL A   1      32.905  26.167  23.275  1.00  0.00     0.014 A 
BRANCH  15  20
ATOM     20  O   UNL A   1      30.315  29.406  23.411  1.00  0.00    -0.497 OA
ATOM     21  C   UNL A   1      29.818  29.808  22.135  1.00  0.00     0.278 C 
ENDBRANCH  15  20
ENDBRANCH  12  14
ENDBRANCH   8  12
BRANCH   9  22
ATOM     22  C   UNL A   1      33.972  22.415  24.134  1.00  0.00     0.003 A 
ATOM     23  C   UNL A   1      34.788  21.745  25.093  1.00  0.00     0.008 A 
ATOM     24  C   UNL A   1      34.646  22.949  23.025  1.00  0.00     0.047 A 
ATOM     25  C   UNL A   1      36.183  21.726  25.020  1.00  0.00     0.001 A 
ATOM     26  C   UNL A   1      36.053  22.936  22.960  1.00  0.00     0.021 A 
ATOM     27  Cl  UNL A   1      33.881  23.605  21.630  1.00  0.00    -0.084 Cl
ATOM     28  C   UNL A   1      36.820  22.348  23.961  1.00  0.00     0.002 A 
ENDBRANCH   9  22
ENDBRANCH   4   7
ENDBRANCH   2   3
ENDBRANCH   1   2
BRANCH   1  29
ATOM     29  C   UNL A   1      31.367  29.900  26.820  1.00  0.00     0.023 C 
BRANCH  29  30
ATOM     30  C   UNL A   1      32.406  30.879  26.279  1.00  0.00     0.116 C 
BRANCH  30  31
ATOM     31  N   UNL A   1      32.253  32.231  26.793  1.00  0.00    -0.352 N 
ATOM     32  C   UNL A   1      33.120  32.947  27.585  1.00  0.00     0.251 C 
ATOM     33  H   UNL A   1      31.422  32.694  26.540  1.00  0.00     0.163 HD
ATOM     34  O   UNL A   1      32.805  34.071  27.967  1.00  0.00    -0.269 OA
BRANCH  32  35
ATOM     35  C   UNL A   1      34.385  32.321  28.027  1.00  0.00     0.039 A 
ATOM     36  C   UNL A   1      35.522  33.125  28.139  1.00  0.00     0.014 A 
ATOM     37  C   UNL A   1      34.434  30.973  28.393  1.00  0.00     0.014 A 
ATOM     38  C   UNL A   1      36.687  32.599  28.701  1.00  0.00     0.010 A 
ATOM     39  C   UNL A   1      35.578  30.467  29.008  1.00  0.00     0.010 A 
ATOM     40  C   UNL A   1      36.710  31.279  29.181  1.00  0.00    -0.014 A 
BRANCH  40  41
ATOM     41  C   UNL A   1      37.902  30.743  29.885  1.00  0.00     0.031 A 
ATOM     42  C   UNL A   1      38.200  31.166  31.295  1.00  0.00     0.074 A 
ATOM     43  C   UNL A   1      38.748  29.926  29.227  1.00  0.00     0.049 A 
ATOM     44  N   UNL A   1      39.219  30.857  32.055  1.00  0.00    -0.248 NA
ATOM     45  C   UNL A   1      37.236  32.081  31.922  1.00  0.00     0.031 C 
ATOM     46  C   UNL A   1      38.591  29.485  27.839  1.00  0.00     0.029 A 
ATOM     47  N   UNL A   1      39.914  29.326  29.634  1.00  0.00    -0.354 N 
ATOM     48  C   UNL A   1      39.026  31.545  33.248  1.00  0.00     0.074 A 
ATOM     49  C   UNL A   1      37.822  32.335  33.082  1.00  0.00     0.031 C 
ATOM     50  C   UNL A   1      39.609  28.670  27.518  1.00  0.00     0.029 A 
ATOM     51  C   UNL A   1      40.510  28.557  28.661  1.00  0.00     0.049 A 
ATOM     52  H   UNL A   1      40.290  29.437  30.537  1.00  0.00     0.167 HD
ATOM     53  C   UNL A   1      39.769  31.507  34.381  1.00  0.00     0.034 A 
ATOM     54  C   UNL A   1      41.653  27.845  28.686  1.00  0.00     0.034 A 
ATOM     55  C   UNL A   1      40.964  30.711  34.530  1.00  0.00     0.049 A 
ATOM     56  C   UNL A   1      42.464  27.816  29.955  1.00  0.00     0.074 A 
ATOM     57  C   UNL A   1      41.775  30.568  35.643  1.00  0.00     0.029 A 
ATOM     58  N   UNL A   1      41.523  29.925  33.531  1.00  0.00    -0.354 N 
ATOM     59  N   UNL A   1      42.242  28.437  31.091  1.00  0.00    -0.248 NA
ATOM     60  C   UNL A   1      43.670  26.978  29.951  1.00  0.00     0.031 C 
ATOM     61  C   UNL A   1      42.849  29.736  35.303  1.00  0.00     0.029 A 
ATOM     62  C   UNL A   1      42.676  29.309  33.996  1.00  0.00     0.049 A 
ATOM     63  H   UNL A   1      41.156  29.819  32.625  1.00  0.00     0.167 HD
ATOM     64  C   UNL A   1      43.267  28.039  31.945  1.00  0.00     0.074 A 
ATOM     65  C   UNL A   1      44.097  27.119  31.198  1.00  0.00     0.031 C 
ATOM     66  C   UNL A   1      43.496  28.398  33.233  1.00  0.00     0.034 A 
BRANCH  53  67
ATOM     67  C   UNL A   1      39.313  32.371  35.531  1.00  0.00     0.023 A 
ATOM     68  C   UNL A   1      39.703  33.718  35.636  1.00  0.00     0.031 A 
ATOM     69  C   UNL A   1      38.523  31.834  36.561  1.00  0.00     0.131 A 
ATOM     70  C   UNL A   1      39.377  34.455  36.783  1.00  0.00     0.055 A 
ATOM     71  C   UNL A   1      38.131  32.598  37.663  1.00  0.00     0.041 A 
ATOM     72  F   UNL A   1      38.135  30.549  36.527  1.00  0.00    -0.206 F 
ATOM     73  C   UNL A   1      38.573  33.912  37.787  1.00  0.00     0.022 A 
BRANCH  70  74
ATOM     74  S   UNL A   1      40.147  36.082  37.013  1.00  0.00     0.124 S 
ATOM     75  O   UNL A   1      41.532  35.714  37.300  1.00  0.00    -0.237 OA
ATOM     76  O   UNL A   1      39.912  36.727  35.727  1.00  0.00    -0.237 OA
ATOM     77  O   UNL A   1      39.414  36.652  38.141  1.00  0.00    -0.744 OA
ENDBRANCH  70  74
ENDBRANCH  53  67
BRANCH  54  78
ATOM     78  C   UNL A   1      42.103  27.095  27.480  1.00  0.00     0.023 A 
ATOM     79  C   UNL A   1      41.904  25.710  27.375  1.00  0.00     0.031 A 
ATOM     80  C   UNL A   1      42.774  27.748  26.432  1.00  0.00     0.131 A 
ATOM     81  C   UNL A   1      42.410  25.012  26.269  1.00  0.00     0.055 A 
ATOM     82  C   UNL A   1      43.237  27.057  25.311  1.00  0.00     0.041 A 
ATOM     83  F   UNL A   1      42.980  29.074  26.479  1.00  0.00    -0.206 F 
ATOM     84  C   UNL A   1      43.067  25.678  25.231  1.00  0.00     0.022 A 
BRANCH  81  85
ATOM     85  S   UNL A   1      42.261  23.205  26.239  1.00  0.00     0.124 S 
ATOM     86  O   UNL A   1      43.082  22.819  27.381  1.00  0.00    -0.237 OA
ATOM     87  O   UNL A   1      40.821  23.019  26.389  1.00  0.00    -0.237 OA
ATOM     88  O   UNL A   1      42.800  22.841  24.931  1.00  0.00    -0.744 OA
ENDBRANCH  81  85
ENDBRANCH  54  78
BRANCH  66  89
ATOM     89  C   UNL A   1      44.668  27.746  33.922  1.00  0.00     0.023 A 
ATOM     90  C   UNL A   1      44.525  26.556  34.658  1.00  0.00     0.031 A 
ATOM     91  C   UNL A   1      45.941  28.336  33.854  1.00  0.00     0.131 A 
ATOM     92  C   UNL A   1      45.628  26.023  35.341  1.00  0.00     0.055 A 
ATOM     93  C   UNL A   1      47.046  27.773  34.493  1.00  0.00     0.041 A 
ATOM     94  F   UNL A   1      46.131  29.472  33.164  1.00  0.00    -0.206 F 
ATOM     95  C   UNL A   1      46.890  26.617  35.251  1.00  0.00     0.022 A 
BRANCH  92  96
ATOM     96  S   UNL A   1      45.374  24.584  36.416  1.00  0.00     0.124 S 
ATOM     97  O   UNL A   1      44.359  25.073  37.343  1.00  0.00    -0.237 OA
ATOM     98  O   UNL A   1      44.936  23.562  35.472  1.00  0.00    -0.237 OA
ATOM     99  O   UNL A   1      46.694  24.359  37.004  1.00  0.00    -0.744 OA
ENDBRANCH  92  96
ENDBRANCH  66  89
ENDBRANCH  40  41
ENDBRANCH  32  35
ENDBRANCH  30  31
ENDBRANCH  29  30
ENDBRANCH   1  29
TORSDOF 18
ENDMDL
