MODEL 1
REMARK VINA RESULT:     -12.7      0.000      0.000
REMARK SMILES Cc1ccc2c(c1C)O[C@@H](C(=O)NCCCCNC(=O)c1ccc(-c3c4nc(c(-c5cc(S(=O)(=O)[O-])ccc5F)c5ccc([nH]5)c(-c5cc(S(=O)(=O)[O-])ccc5F)c5nc(c(-c6cc(S(=O)(=O)[O-])ccc6F)c6ccc3[nH]6)C=C5)C=C4)cc1)CC2=O
REMARK SMILES IDX 17 1 16 2 15 3 14 4 13 5 11 6 12 7 10 9 1 10 2 11 3 12 7 13
REMARK SMILES IDX 4 14 6 15 8 16 5 17 9 18 85 19 84 20 86 21 18 22 19 23 20 25
REMARK SMILES IDX 21 26 22 27 83 28 23 29 82 30 24 31 25 32 26 33 76 34 27 35
REMARK SMILES IDX 81 36 75 37 77 38 28 39 80 40 74 41 73 42 29 44 61 45 41 46
REMARK SMILES IDX 60 47 42 48 45 49 59 50 78 51 43 52 44 53 58 55 79 56 46 57
REMARK SMILES IDX 30 58 31 59 39 60 32 61 38 62 40 63 37 64 33 65 34 66 35 67
REMARK SMILES IDX 36 68 62 69 63 70 71 71 64 72 70 73 72 74 69 75 65 76 66 77
REMARK SMILES IDX 67 78 68 79 47 80 48 81 56 82 49 83 55 84 57 85 54 86 50 87
REMARK SMILES IDX 51 88 52 89 53 90
REMARK H PARENT 13 8 18 24 77 43 45 54
REMARK Flexibility Score: inf
ROOT
ATOM      1  C   UNL A   1      32.775  29.938  26.052  1.00  0.00     0.116 C 
ENDROOT
BRANCH   1   2
ATOM      2  C   UNL A   1      31.641  28.941  26.267  1.00  0.00     0.023 C 
BRANCH   2   3
ATOM      3  C   UNL A   1      32.082  27.506  26.555  1.00  0.00     0.023 C 
BRANCH   3   4
ATOM      4  C   UNL A   1      31.039  26.451  26.184  1.00  0.00     0.116 C 
BRANCH   4   5
ATOM      5  N   UNL A   1      31.279  25.181  26.840  1.00  0.00    -0.353 N 
ATOM      6  C   UNL A   1      32.114  24.147  26.569  1.00  0.00     0.261 C 
ATOM      7  O   UNL A   1      32.141  23.232  27.402  1.00  0.00    -0.271 OA
ATOM      8  H   UNL A   1      30.724  25.041  27.640  1.00  0.00     0.163 HD
BRANCH   6   9
ATOM      9  C   UNL A   1      32.956  24.019  25.275  1.00  0.00     0.269 C 
ATOM     10  C   UNL A   1      34.391  18.131  24.459  1.00  0.00     0.045 C 
ATOM     11  C   UNL A   1      34.651  19.610  24.584  1.00  0.00    -0.044 A 
ATOM     12  C   UNL A   1      35.895  20.002  25.111  1.00  0.00     0.005 A 
ATOM     13  C   UNL A   1      33.675  20.594  24.309  1.00  0.00    -0.005 A 
ATOM     14  C   UNL A   1      36.175  21.342  25.364  1.00  0.00     0.016 A 
ATOM     15  C   UNL A   1      33.941  21.938  24.656  1.00  0.00     0.134 A 
ATOM     16  C   UNL A   1      32.313  20.247  23.759  1.00  0.00     0.049 C 
ATOM     17  C   UNL A   1      35.188  22.305  25.152  1.00  0.00     0.060 A 
ATOM     18  O   UNL A   1      32.896  22.808  24.544  1.00  0.00    -0.479 OA
ATOM     19  C   UNL A   1      35.441  23.701  25.534  1.00  0.00     0.170 C 
ATOM     20  C   UNL A   1      34.318  24.679  25.397  1.00  0.00     0.136 C 
ATOM     21  O   UNL A   1      36.555  24.050  25.914  1.00  0.00    -0.294 OA
ENDBRANCH   6   9
ENDBRANCH   4   5
ENDBRANCH   3   4
ENDBRANCH   2   3
ENDBRANCH   1   2
BRANCH   1  22
ATOM     22  N   UNL A   1      32.487  31.282  26.534  1.00  0.00    -0.352 N 
ATOM     23  C   UNL A   1      33.292  32.061  27.338  1.00  0.00     0.251 C 
ATOM     24  H   UNL A   1      31.628  31.675  26.257  1.00  0.00     0.163 HD
ATOM     25  O   UNL A   1      32.934  33.171  27.715  1.00  0.00    -0.269 OA
BRANCH  23  26
ATOM     26  C   UNL A   1      34.588  31.498  27.763  1.00  0.00     0.039 A 
ATOM     27  C   UNL A   1      35.678  32.355  27.929  1.00  0.00     0.014 A 
ATOM     28  C   UNL A   1      34.669  30.153  28.134  1.00  0.00     0.014 A 
ATOM     29  C   UNL A   1      36.837  31.876  28.543  1.00  0.00     0.010 A 
ATOM     30  C   UNL A   1      35.805  29.694  28.794  1.00  0.00     0.010 A 
ATOM     31  C   UNL A   1      36.893  30.553  29.013  1.00  0.00    -0.014 A 
BRANCH  31  32
ATOM     32  C   UNL A   1      38.072  30.053  29.762  1.00  0.00     0.031 A 
ATOM     33  C   UNL A   1      38.300  30.491  31.179  1.00  0.00     0.074 A 
ATOM     34  C   UNL A   1      38.981  29.276  29.140  1.00  0.00     0.049 A 
ATOM     35  N   UNL A   1      39.285  30.192  31.984  1.00  0.00    -0.248 NA
ATOM     36  C   UNL A   1      37.307  31.409  31.757  1.00  0.00     0.031 C 
ATOM     37  C   UNL A   1      38.902  28.840  27.746  1.00  0.00     0.029 A 
ATOM     38  N   UNL A   1      40.154  28.727  29.595  1.00  0.00    -0.354 N 
ATOM     39  C   UNL A   1      39.043  30.899  33.154  1.00  0.00     0.074 A 
ATOM     40  C   UNL A   1      37.843  31.677  32.939  1.00  0.00     0.031 C 
ATOM     41  C   UNL A   1      39.969  28.076  27.465  1.00  0.00     0.029 A 
ATOM     42  C   UNL A   1      40.821  27.985  28.648  1.00  0.00     0.049 A 
ATOM     43  H   UNL A   1      40.488  28.854  30.512  1.00  0.00     0.167 HD
ATOM     44  C   UNL A   1      39.744  30.882  34.310  1.00  0.00     0.034 A 
ATOM     45  C   UNL A   1      41.982  27.302  28.726  1.00  0.00     0.034 A 
ATOM     46  C   UNL A   1      40.912  30.074  34.529  1.00  0.00     0.049 A 
ATOM     47  C   UNL A   1      42.727  27.266  30.035  1.00  0.00     0.074 A 
ATOM     48  C   UNL A   1      41.629  29.906  35.700  1.00  0.00     0.029 A 
ATOM     49  N   UNL A   1      41.537  29.301  33.562  1.00  0.00    -0.354 N 
ATOM     50  N   UNL A   1      42.416  27.837  31.175  1.00  0.00    -0.248 NA
ATOM     51  C   UNL A   1      43.974  26.487  30.077  1.00  0.00     0.031 C 
ATOM     52  C   UNL A   1      42.709  29.062  35.433  1.00  0.00     0.029 A 
ATOM     53  C   UNL A   1      42.645  28.672  34.103  1.00  0.00     0.049 A 
ATOM     54  H   UNL A   1      41.237  29.214  32.628  1.00  0.00     0.167 HD
ATOM     55  C   UNL A   1      43.410  27.467  32.075  1.00  0.00     0.074 A 
ATOM     56  C   UNL A   1      44.330  26.613  31.351  1.00  0.00     0.031 C 
ATOM     57  C   UNL A   1      43.545  27.805  33.381  1.00  0.00     0.034 A 
BRANCH  44  58
ATOM     58  C   UNL A   1      39.257  31.741  35.445  1.00  0.00     0.023 A 
ATOM     59  C   UNL A   1      38.500  31.172  36.484  1.00  0.00     0.031 A 
ATOM     60  C   UNL A   1      39.479  33.129  35.458  1.00  0.00     0.131 A 
ATOM     61  C   UNL A   1      37.986  31.994  37.495  1.00  0.00     0.055 A 
ATOM     62  C   UNL A   1      38.990  33.939  36.482  1.00  0.00     0.041 A 
ATOM     63  F   UNL A   1      40.201  33.712  34.488  1.00  0.00    -0.206 F 
ATOM     64  C   UNL A   1      38.234  33.372  37.504  1.00  0.00     0.022 A 
BRANCH  61  65
ATOM     65  S   UNL A   1      36.966  31.312  38.829  1.00  0.00     0.124 S 
ATOM     66  O   UNL A   1      37.854  31.444  39.983  1.00  0.00    -0.237 OA
ATOM     67  O   UNL A   1      35.815  32.212  38.821  1.00  0.00    -0.237 OA
ATOM     68  O   UNL A   1      36.701  29.942  38.405  1.00  0.00    -0.744 OA
ENDBRANCH  61  65
ENDBRANCH  44  58
BRANCH  45  69
ATOM     69  C   UNL A   1      42.445  26.527  27.541  1.00  0.00     0.023 A 
ATOM     70  C   UNL A   1      42.078  25.184  27.356  1.00  0.00     0.031 A 
ATOM     71  C   UNL A   1      43.357  27.099  26.636  1.00  0.00     0.131 A 
ATOM     72  C   UNL A   1      42.662  24.441  26.321  1.00  0.00     0.055 A 
ATOM     73  C   UNL A   1      43.894  26.371  25.573  1.00  0.00     0.041 A 
ATOM     74  F   UNL A   1      43.744  28.375  26.785  1.00  0.00    -0.206 F 
ATOM     75  C   UNL A   1      43.555  25.031  25.419  1.00  0.00     0.022 A 
BRANCH  72  76
ATOM     76  S   UNL A   1      42.341  22.663  26.157  1.00  0.00     0.124 S 
ATOM     77  O   UNL A   1      42.905  22.364  24.843  1.00  0.00    -0.237 OA
ATOM     78  O   UNL A   1      43.081  22.126  27.297  1.00  0.00    -0.237 OA
ATOM     79  O   UNL A   1      40.889  22.567  26.252  1.00  0.00    -0.744 OA
ENDBRANCH  72  76
ENDBRANCH  45  69
BRANCH  57  80
ATOM     80  C   UNL A   1      44.719  27.260  34.152  1.00  0.00     0.023 A 
ATOM     81  C   UNL A   1      44.588  26.056  34.870  1.00  0.00     0.031 A 
ATOM     82  C   UNL A   1      45.894  28.012  34.314  1.00  0.00     0.131 A 
ATOM     83  C   UNL A   1      45.600  25.661  35.753  1.00  0.00     0.055 A 
ATOM     84  C   UNL A   1      46.916  27.594  35.166  1.00  0.00     0.041 A 
ATOM     85  F   UNL A   1      46.057  29.171  33.655  1.00  0.00    -0.206 F 
ATOM     86  C   UNL A   1      46.766  26.420  35.901  1.00  0.00     0.022 A 
BRANCH  83  87
ATOM     87  S   UNL A   1      45.409  24.188  36.795  1.00  0.00     0.124 S 
ATOM     88  O   UNL A   1      44.610  23.312  35.941  1.00  0.00    -0.237 OA
ATOM     89  O   UNL A   1      46.795  23.772  36.993  1.00  0.00    -0.237 OA
ATOM     90  O   UNL A   1      44.726  24.685  37.984  1.00  0.00    -0.744 OA
ENDBRANCH  83  87
ENDBRANCH  57  80
ENDBRANCH  31  32
ENDBRANCH  23  26
ENDBRANCH   1  22
TORSDOF 14
ENDMDL
MODEL 2
REMARK VINA RESULT:     -12.4      1.751      2.339
REMARK SMILES Cc1ccc2c(c1C)O[C@@H](C(=O)NCCCCNC(=O)c1ccc(-c3c4nc(c(-c5cc(S(=O)(=O)[O-])ccc5F)c5ccc([nH]5)c(-c5cc(S(=O)(=O)[O-])ccc5F)c5nc(c(-c6cc(S(=O)(=O)[O-])ccc6F)c6ccc3[nH]6)C=C5)C=C4)cc1)CC2=O
REMARK SMILES IDX 17 1 16 2 15 3 14 4 13 5 11 6 12 7 10 9 1 10 2 11 3 12 7 13
REMARK SMILES IDX 4 14 6 15 8 16 5 17 9 18 85 19 84 20 86 21 18 22 19 23 20 25
REMARK SMILES IDX 21 26 22 27 83 28 23 29 82 30 24 31 25 32 26 33 76 34 27 35
REMARK SMILES IDX 81 36 75 37 77 38 28 39 80 40 74 41 73 42 29 44 61 45 41 46
REMARK SMILES IDX 60 47 42 48 45 49 59 50 78 51 43 52 44 53 58 55 79 56 46 57
REMARK SMILES IDX 30 58 31 59 39 60 32 61 38 62 40 63 37 64 33 65 34 66 35 67
REMARK SMILES IDX 36 68 62 69 63 70 71 71 64 72 70 73 72 74 69 75 65 76 66 77
REMARK SMILES IDX 67 78 68 79 47 80 48 81 56 82 49 83 55 84 57 85 54 86 50 87
REMARK SMILES IDX 51 88 52 89 53 90
REMARK H PARENT 13 8 18 24 77 43 45 54
REMARK Flexibility Score: inf
ROOT
ATOM      1  C   UNL A   1      32.362  30.907  26.441  1.00  0.00     0.116 C 
ENDROOT
BRANCH   1   2
ATOM      2  C   UNL A   1      31.294  30.445  25.454  1.00  0.00     0.023 C 
BRANCH   2   3
ATOM      3  C   UNL A   1      31.499  29.042  24.883  1.00  0.00     0.023 C 
BRANCH   3   4
ATOM      4  C   UNL A   1      32.824  28.862  24.140  1.00  0.00     0.116 C 
BRANCH   4   5
ATOM      5  N   UNL A   1      32.897  27.597  23.438  1.00  0.00    -0.353 N 
ATOM      6  C   UNL A   1      33.195  26.335  23.839  1.00  0.00     0.261 C 
ATOM      7  O   UNL A   1      33.070  25.446  22.987  1.00  0.00    -0.271 OA
ATOM      8  H   UNL A   1      32.690  27.668  22.478  1.00  0.00     0.163 HD
BRANCH   6   9
ATOM      9  C   UNL A   1      33.738  25.970  25.242  1.00  0.00     0.269 C 
ATOM     10  C   UNL A   1      36.130  20.348  25.001  1.00  0.00     0.045 C 
ATOM     11  C   UNL A   1      35.256  21.453  25.534  1.00  0.00    -0.044 A 
ATOM     12  C   UNL A   1      34.039  21.079  26.132  1.00  0.00     0.005 A 
ATOM     13  C   UNL A   1      35.547  22.825  25.357  1.00  0.00    -0.005 A 
ATOM     14  C   UNL A   1      33.122  22.040  26.549  1.00  0.00     0.016 A 
ATOM     15  C   UNL A   1      34.568  23.783  25.703  1.00  0.00     0.134 A 
ATOM     16  C   UNL A   1      36.825  23.300  24.709  1.00  0.00     0.049 C 
ATOM     17  C   UNL A   1      33.382  23.390  26.316  1.00  0.00     0.060 A 
ATOM     18  O   UNL A   1      34.827  25.071  25.335  1.00  0.00    -0.479 OA
ATOM     19  C   UNL A   1      32.362  24.395  26.645  1.00  0.00     0.170 C 
ATOM     20  C   UNL A   1      32.635  25.817  26.274  1.00  0.00     0.136 C 
ATOM     21  O   UNL A   1      31.339  24.070  27.242  1.00  0.00    -0.294 OA
ENDBRANCH   6   9
ENDBRANCH   4   5
ENDBRANCH   3   4
ENDBRANCH   2   3
ENDBRANCH   1   2
BRANCH   1  22
ATOM     22  N   UNL A   1      32.209  32.287  26.882  1.00  0.00    -0.352 N 
ATOM     23  C   UNL A   1      33.111  33.022  27.621  1.00  0.00     0.251 C 
ATOM     24  H   UNL A   1      31.374  32.742  26.627  1.00  0.00     0.163 HD
ATOM     25  O   UNL A   1      32.866  34.171  27.970  1.00  0.00    -0.269 OA
BRANCH  23  26
ATOM     26  C   UNL A   1      34.374  32.365  28.013  1.00  0.00     0.039 A 
ATOM     27  C   UNL A   1      35.527  33.142  28.155  1.00  0.00     0.014 A 
ATOM     28  C   UNL A   1      34.367  31.016  28.378  1.00  0.00     0.014 A 
ATOM     29  C   UNL A   1      36.662  32.578  28.740  1.00  0.00     0.010 A 
ATOM     30  C   UNL A   1      35.483  30.475  29.010  1.00  0.00     0.010 A 
ATOM     31  C   UNL A   1      36.635  31.252  29.205  1.00  0.00    -0.014 A 
BRANCH  31  32
ATOM     32  C   UNL A   1      37.793  30.666  29.923  1.00  0.00     0.031 A 
ATOM     33  C   UNL A   1      38.067  31.057  31.346  1.00  0.00     0.074 A 
ATOM     34  C   UNL A   1      38.644  29.851  29.270  1.00  0.00     0.049 A 
ATOM     35  N   UNL A   1      39.044  30.682  32.128  1.00  0.00    -0.248 NA
ATOM     36  C   UNL A   1      37.139  32.019  31.960  1.00  0.00     0.031 C 
ATOM     37  C   UNL A   1      38.518  29.452  27.868  1.00  0.00     0.029 A 
ATOM     38  N   UNL A   1      39.789  29.223  29.694  1.00  0.00    -0.354 N 
ATOM     39  C   UNL A   1      38.862  31.374  33.317  1.00  0.00     0.074 A 
ATOM     40  C   UNL A   1      37.707  32.227  33.138  1.00  0.00     0.031 C 
ATOM     41  C   UNL A   1      39.534  28.633  27.553  1.00  0.00     0.029 A 
ATOM     42  C   UNL A   1      40.396  28.464  28.721  1.00  0.00     0.049 A 
ATOM     43  H   UNL A   1      40.142  29.308  30.608  1.00  0.00     0.167 HD
ATOM     44  C   UNL A   1      39.578  31.290  34.462  1.00  0.00     0.034 A 
ATOM     45  C   UNL A   1      41.514  27.711  28.764  1.00  0.00     0.034 A 
ATOM     46  C   UNL A   1      40.698  30.408  34.644  1.00  0.00     0.049 A 
ATOM     47  C   UNL A   1      42.275  27.601  30.060  1.00  0.00     0.074 A 
ATOM     48  C   UNL A   1      41.420  30.171  35.799  1.00  0.00     0.029 A 
ATOM     49  N   UNL A   1      41.261  29.622  33.650  1.00  0.00    -0.354 N 
ATOM     50  N   UNL A   1      42.015  28.164  31.217  1.00  0.00    -0.248 NA
ATOM     51  C   UNL A   1      43.474  26.749  30.065  1.00  0.00     0.031 C 
ATOM     52  C   UNL A   1      42.444  29.271  35.496  1.00  0.00     0.029 A 
ATOM     53  C   UNL A   1      42.338  28.916  34.160  1.00  0.00     0.049 A 
ATOM     54  H   UNL A   1      40.943  29.574  32.719  1.00  0.00     0.167 HD
ATOM     55  C   UNL A   1      42.999  27.714  32.093  1.00  0.00     0.074 A 
ATOM     56  C   UNL A   1      43.855  26.824  31.336  1.00  0.00     0.031 C 
ATOM     57  C   UNL A   1      43.173  28.013  33.403  1.00  0.00     0.034 A 
BRANCH  44  58
ATOM     58  C   UNL A   1      39.159  32.150  35.622  1.00  0.00     0.023 A 
ATOM     59  C   UNL A   1      39.679  33.450  35.758  1.00  0.00     0.031 A 
ATOM     60  C   UNL A   1      38.307  31.659  36.626  1.00  0.00     0.131 A 
ATOM     61  C   UNL A   1      39.343  34.214  36.883  1.00  0.00     0.055 A 
ATOM     62  C   UNL A   1      37.953  32.434  37.729  1.00  0.00     0.041 A 
ATOM     63  F   UNL A   1      37.785  30.426  36.533  1.00  0.00    -0.206 F 
ATOM     64  C   UNL A   1      38.476  33.717  37.863  1.00  0.00     0.022 A 
BRANCH  61  65
ATOM     65  S   UNL A   1      40.025  35.875  37.124  1.00  0.00     0.124 S 
ATOM     66  O   UNL A   1      41.451  35.595  37.284  1.00  0.00    -0.237 OA
ATOM     67  O   UNL A   1      39.657  36.539  35.875  1.00  0.00    -0.237 OA
ATOM     68  O   UNL A   1      39.351  36.362  38.322  1.00  0.00    -0.744 OA
ENDBRANCH  61  65
ENDBRANCH  44  58
BRANCH  45  69
ATOM     69  C   UNL A   1      41.913  26.938  27.556  1.00  0.00     0.023 A 
ATOM     70  C   UNL A   1      41.687  25.554  27.465  1.00  0.00     0.031 A 
ATOM     71  C   UNL A   1      42.629  27.564  26.521  1.00  0.00     0.131 A 
ATOM     72  C   UNL A   1      42.220  24.833  26.388  1.00  0.00     0.055 A 
ATOM     73  C   UNL A   1      43.110  26.852  25.422  1.00  0.00     0.041 A 
ATOM     74  F   UNL A   1      42.878  28.882  26.575  1.00  0.00    -0.206 F 
ATOM     75  C   UNL A   1      42.915  25.476  25.357  1.00  0.00     0.022 A 
BRANCH  72  76
ATOM     76  S   UNL A   1      42.094  23.024  26.326  1.00  0.00     0.124 S 
ATOM     77  O   UNL A   1      40.656  22.807  26.462  1.00  0.00    -0.237 OA
ATOM     78  O   UNL A   1      42.654  22.737  25.008  1.00  0.00    -0.237 OA
ATOM     79  O   UNL A   1      42.903  22.587  27.458  1.00  0.00    -0.744 OA
ENDBRANCH  72  76
ENDBRANCH  45  69
BRANCH  57  80
ATOM     80  C   UNL A   1      44.323  27.382  34.144  1.00  0.00     0.023 A 
ATOM     81  C   UNL A   1      44.165  26.113  34.734  1.00  0.00     0.031 A 
ATOM     82  C   UNL A   1      45.500  28.102  34.408  1.00  0.00     0.131 A 
ATOM     83  C   UNL A   1      45.152  25.622  35.596  1.00  0.00     0.055 A 
ATOM     84  C   UNL A   1      46.497  27.590  35.239  1.00  0.00     0.041 A 
ATOM     85  F   UNL A   1      45.688  29.319  33.874  1.00  0.00    -0.206 F 
ATOM     86  C   UNL A   1      46.320  26.350  35.848  1.00  0.00     0.022 A 
BRANCH  83  87
ATOM     87  S   UNL A   1      44.925  24.054  36.480  1.00  0.00     0.124 S 
ATOM     88  O   UNL A   1      43.704  23.534  35.869  1.00  0.00    -0.237 OA
ATOM     89  O   UNL A   1      46.148  23.332  36.142  1.00  0.00    -0.237 OA
ATOM     90  O   UNL A   1      44.796  24.453  37.878  1.00  0.00    -0.744 OA
ENDBRANCH  83  87
ENDBRANCH  57  80
ENDBRANCH  31  32
ENDBRANCH  23  26
ENDBRANCH   1  22
TORSDOF 14
ENDMDL
MODEL 3
REMARK VINA RESULT:     -12.4      0.956      1.832
REMARK SMILES Cc1ccc2c(c1C)O[C@@H](C(=O)NCCCCNC(=O)c1ccc(-c3c4nc(c(-c5cc(S(=O)(=O)[O-])ccc5F)c5ccc([nH]5)c(-c5cc(S(=O)(=O)[O-])ccc5F)c5nc(c(-c6cc(S(=O)(=O)[O-])ccc6F)c6ccc3[nH]6)C=C5)C=C4)cc1)CC2=O
REMARK SMILES IDX 17 1 16 2 15 3 14 4 13 5 11 6 12 7 10 9 1 10 2 11 3 12 7 13
REMARK SMILES IDX 4 14 6 15 8 16 5 17 9 18 85 19 84 20 86 21 18 22 19 23 20 25
REMARK SMILES IDX 21 26 22 27 83 28 23 29 82 30 24 31 25 32 26 33 76 34 27 35
REMARK SMILES IDX 81 36 75 37 77 38 28 39 80 40 74 41 73 42 29 44 61 45 41 46
REMARK SMILES IDX 60 47 42 48 45 49 59 50 78 51 43 52 44 53 58 55 79 56 46 57
REMARK SMILES IDX 30 58 31 59 39 60 32 61 38 62 40 63 37 64 33 65 34 66 35 67
REMARK SMILES IDX 36 68 62 69 63 70 71 71 64 72 70 73 72 74 69 75 65 76 66 77
REMARK SMILES IDX 67 78 68 79 47 80 48 81 56 82 49 83 55 84 57 85 54 86 50 87
REMARK SMILES IDX 51 88 52 89 53 90
REMARK H PARENT 13 8 18 24 77 43 45 54
REMARK Flexibility Score: inf
ROOT
ATOM      1  C   UNL A   1      32.463  30.245  26.246  1.00  0.00     0.116 C 
ENDROOT
BRANCH   1   2
ATOM      2  C   UNL A   1      31.516  29.777  25.145  1.00  0.00     0.023 C 
BRANCH   2   3
ATOM      3  C   UNL A   1      31.898  28.457  24.475  1.00  0.00     0.023 C 
BRANCH   3   4
ATOM      4  C   UNL A   1      33.369  28.373  24.065  1.00  0.00     0.116 C 
BRANCH   4   5
ATOM      5  N   UNL A   1      33.638  27.244  23.199  1.00  0.00    -0.353 N 
ATOM      6  C   UNL A   1      33.699  25.907  23.418  1.00  0.00     0.261 C 
ATOM      7  O   UNL A   1      33.860  25.194  22.419  1.00  0.00    -0.271 OA
ATOM      8  H   UNL A   1      33.812  27.499  22.264  1.00  0.00     0.163 HD
BRANCH   6   9
ATOM      9  C   UNL A   1      33.654  25.248  24.820  1.00  0.00     0.269 C 
ATOM     10  C   UNL A   1      37.693  20.660  24.947  1.00  0.00     0.045 C 
ATOM     11  C   UNL A   1      36.350  21.320  25.120  1.00  0.00    -0.044 A 
ATOM     12  C   UNL A   1      35.210  20.519  24.932  1.00  0.00     0.005 A 
ATOM     13  C   UNL A   1      36.192  22.707  25.344  1.00  0.00    -0.005 A 
ATOM     14  C   UNL A   1      33.933  21.073  24.963  1.00  0.00     0.016 A 
ATOM     15  C   UNL A   1      34.897  23.267  25.283  1.00  0.00     0.134 A 
ATOM     16  C   UNL A   1      37.370  23.631  25.538  1.00  0.00     0.049 C 
ATOM     17  C   UNL A   1      33.782  22.450  25.120  1.00  0.00     0.060 A 
ATOM     18  O   UNL A   1      34.826  24.629  25.317  1.00  0.00    -0.479 OA
ATOM     19  C   UNL A   1      32.443  23.050  25.030  1.00  0.00     0.170 C 
ATOM     20  C   UNL A   1      32.339  24.540  25.090  1.00  0.00     0.136 C 
ATOM     21  O   UNL A   1      31.446  22.337  24.950  1.00  0.00    -0.294 OA
ENDBRANCH   6   9
ENDBRANCH   4   5
ENDBRANCH   3   4
ENDBRANCH   2   3
ENDBRANCH   1   2
BRANCH   1  22
ATOM     22  N   UNL A   1      32.242  31.618  26.679  1.00  0.00    -0.352 N 
ATOM     23  C   UNL A   1      33.103  32.399  27.420  1.00  0.00     0.251 C 
ATOM     24  H   UNL A   1      31.388  32.031  26.416  1.00  0.00     0.163 HD
ATOM     25  O   UNL A   1      32.801  33.536  27.762  1.00  0.00    -0.269 OA
BRANCH  23  26
ATOM     26  C   UNL A   1      34.393  31.804  27.824  1.00  0.00     0.039 A 
ATOM     27  C   UNL A   1      35.503  32.637  27.985  1.00  0.00     0.014 A 
ATOM     28  C   UNL A   1      34.450  30.455  28.182  1.00  0.00     0.014 A 
ATOM     29  C   UNL A   1      36.658  32.128  28.580  1.00  0.00     0.010 A 
ATOM     30  C   UNL A   1      35.584  29.966  28.823  1.00  0.00     0.010 A 
ATOM     31  C   UNL A   1      36.693  30.800  29.037  1.00  0.00    -0.014 A 
BRANCH  31  32
ATOM     32  C   UNL A   1      37.870  30.269  29.766  1.00  0.00     0.031 A 
ATOM     33  C   UNL A   1      38.117  30.678  31.189  1.00  0.00     0.074 A 
ATOM     34  C   UNL A   1      38.761  29.489  29.123  1.00  0.00     0.049 A 
ATOM     35  N   UNL A   1      39.104  30.349  31.980  1.00  0.00    -0.248 NA
ATOM     36  C   UNL A   1      37.143  31.601  31.792  1.00  0.00     0.031 C 
ATOM     37  C   UNL A   1      38.663  29.079  27.722  1.00  0.00     0.029 A 
ATOM     38  N   UNL A   1      39.930  28.914  29.558  1.00  0.00    -0.354 N 
ATOM     39  C   UNL A   1      38.883  31.039  33.164  1.00  0.00     0.074 A 
ATOM     40  C   UNL A   1      37.694  31.839  32.973  1.00  0.00     0.031 C 
ATOM     41  C   UNL A   1      39.716  28.303  27.418  1.00  0.00     0.029 A 
ATOM     42  C   UNL A   1      40.576  28.178  28.593  1.00  0.00     0.049 A 
ATOM     43  H   UNL A   1      40.273  29.019  30.474  1.00  0.00     0.167 HD
ATOM     44  C   UNL A   1      39.594  30.991  34.314  1.00  0.00     0.034 A 
ATOM     45  C   UNL A   1      41.727  27.476  28.648  1.00  0.00     0.034 A 
ATOM     46  C   UNL A   1      40.751  30.161  34.508  1.00  0.00     0.049 A 
ATOM     47  C   UNL A   1      42.483  27.405  29.949  1.00  0.00     0.074 A 
ATOM     48  C   UNL A   1      41.475  29.961  35.670  1.00  0.00     0.029 A 
ATOM     49  N   UNL A   1      41.355  29.395  33.522  1.00  0.00    -0.354 N 
ATOM     50  N   UNL A   1      42.190  27.961  31.102  1.00  0.00    -0.248 NA
ATOM     51  C   UNL A   1      43.717  26.606  29.967  1.00  0.00     0.031 C 
ATOM     52  C   UNL A   1      42.539  29.106  35.378  1.00  0.00     0.029 A 
ATOM     53  C   UNL A   1      42.458  28.740  34.042  1.00  0.00     0.049 A 
ATOM     54  H   UNL A   1      41.046  29.329  32.589  1.00  0.00     0.167 HD
ATOM     55  C   UNL A   1      43.186  27.559  31.987  1.00  0.00     0.074 A 
ATOM     56  C   UNL A   1      44.086  26.704  31.239  1.00  0.00     0.031 C 
ATOM     57  C   UNL A   1      43.338  27.872  33.296  1.00  0.00     0.034 A 
BRANCH  44  58
ATOM     58  C   UNL A   1      39.130  31.838  35.467  1.00  0.00     0.023 A 
ATOM     59  C   UNL A   1      38.405  31.254  36.522  1.00  0.00     0.031 A 
ATOM     60  C   UNL A   1      39.342  33.227  35.486  1.00  0.00     0.131 A 
ATOM     61  C   UNL A   1      37.911  32.064  37.552  1.00  0.00     0.055 A 
ATOM     62  C   UNL A   1      38.873  34.025  36.528  1.00  0.00     0.041 A 
ATOM     63  F   UNL A   1      40.033  33.823  34.501  1.00  0.00    -0.206 F 
ATOM     64  C   UNL A   1      38.149  33.444  37.566  1.00  0.00     0.022 A 
BRANCH  61  65
ATOM     65  S   UNL A   1      36.933  31.364  38.907  1.00  0.00     0.124 S 
ATOM     66  O   UNL A   1      36.732  29.989  38.453  1.00  0.00    -0.237 OA
ATOM     67  O   UNL A   1      37.836  31.519  40.045  1.00  0.00    -0.237 OA
ATOM     68  O   UNL A   1      35.730  32.189  38.936  1.00  0.00    -0.744 OA
ENDBRANCH  61  65
ENDBRANCH  44  58
BRANCH  45  69
ATOM     69  C   UNL A   1      42.168  26.715  27.446  1.00  0.00     0.023 A 
ATOM     70  C   UNL A   1      41.904  25.341  27.312  1.00  0.00     0.031 A 
ATOM     71  C   UNL A   1      42.959  27.339  26.466  1.00  0.00     0.131 A 
ATOM     72  C   UNL A   1      42.473  24.626  26.249  1.00  0.00     0.055 A 
ATOM     73  C   UNL A   1      43.478  26.635  25.379  1.00  0.00     0.041 A 
ATOM     74  F   UNL A   1      43.245  28.647  26.563  1.00  0.00    -0.206 F 
ATOM     75  C   UNL A   1      43.245  25.267  25.273  1.00  0.00     0.022 A 
BRANCH  72  76
ATOM     76  S   UNL A   1      42.295  22.824  26.140  1.00  0.00     0.124 S 
ATOM     77  O   UNL A   1      40.849  22.647  26.242  1.00  0.00    -0.237 OA
ATOM     78  O   UNL A   1      42.873  22.552  24.826  1.00  0.00    -0.237 OA
ATOM     79  O   UNL A   1      43.067  22.334  27.277  1.00  0.00    -0.744 OA
ENDBRANCH  72  76
ENDBRANCH  45  69
BRANCH  57  80
ATOM     80  C   UNL A   1      44.509  27.295  34.048  1.00  0.00     0.023 A 
ATOM     81  C   UNL A   1      44.396  26.033  34.662  1.00  0.00     0.031 A 
ATOM     82  C   UNL A   1      45.660  28.061  34.298  1.00  0.00     0.131 A 
ATOM     83  C   UNL A   1      45.399  25.593  35.533  1.00  0.00     0.055 A 
ATOM     84  C   UNL A   1      46.675  27.600  35.137  1.00  0.00     0.041 A 
ATOM     85  F   UNL A   1      45.806  29.273  33.740  1.00  0.00    -0.206 F 
ATOM     86  C   UNL A   1      46.541  26.366  35.770  1.00  0.00     0.022 A 
BRANCH  83  87
ATOM     87  S   UNL A   1      45.227  24.035  36.446  1.00  0.00     0.124 S 
ATOM     88  O   UNL A   1      46.537  23.420  36.250  1.00  0.00    -0.237 OA
ATOM     89  O   UNL A   1      44.955  24.504  37.802  1.00  0.00    -0.237 OA
ATOM     90  O   UNL A   1      44.119  23.357  35.780  1.00  0.00    -0.744 OA
ENDBRANCH  83  87
ENDBRANCH  57  80
ENDBRANCH  31  32
ENDBRANCH  23  26
ENDBRANCH   1  22
TORSDOF 14
ENDMDL
