MODEL 1
REMARK VINA RESULT:     -11.7      0.000      0.000
REMARK SMILES Cc1ccc(F)c(O[C@H]2CC[C@]([NH2+]C(C)C)(C(=O)NCCCCNC(=O)c3ccc(-c4c5nc(c(-c6cc(S(=O)(=O)[O-])ccc6F)c6ccc([nH]6)c(-c6cc(S(=O)(=O)[O-])ccc6F)c6nc(c(-c7cc(S(=O)(=O)[O-])ccc7F)c7ccc4[nH]7)C=C6)C=C5)cc3)C2)c1
REMARK SMILES IDX 22 1 21 2 20 3 19 4 17 5 18 6 12 8 9 9 10 10 90 11 11 12
REMARK SMILES IDX 8 13 7 14 1 15 2 16 3 17 91 18 4 19 5 20 6 21 13 22 14 25
REMARK SMILES IDX 15 26 16 27 23 28 24 29 25 30 26 32 27 33 28 34 89 35 29 36
REMARK SMILES IDX 88 37 30 38 31 39 32 40 82 41 33 42 87 43 81 44 83 45 34 46
REMARK SMILES IDX 86 47 80 48 79 49 35 51 67 52 47 53 66 54 48 55 51 56 65 57
REMARK SMILES IDX 84 58 49 59 50 60 64 62 85 63 52 64 36 65 37 66 45 67 38 68
REMARK SMILES IDX 44 69 46 70 43 71 39 72 40 73 41 74 42 75 68 76 69 77 77 78
REMARK SMILES IDX 70 79 76 80 78 81 75 82 71 83 72 84 73 85 74 86 53 87 54 88
REMARK SMILES IDX 62 89 55 90 61 91 63 92 60 93 56 94 57 95 58 96 59 97
REMARK H PARENT 19 7 13 23 13 24 24 31 83 50 51 61
REMARK Flexibility Score: inf
ROOT
ATOM      1  C   UNL A   1      31.042  31.926  26.378  1.00  0.00     0.023 C 
ENDROOT
BRANCH   1   2
ATOM      2  C   UNL A   1      31.173  30.747  25.417  1.00  0.00     0.023 C 
BRANCH   2   3
ATOM      3  C   UNL A   1      32.355  29.822  25.693  1.00  0.00     0.116 C 
BRANCH   3   4
ATOM      4  N   UNL A   1      33.191  29.618  24.527  1.00  0.00    -0.351 N 
ATOM      5  C   UNL A   1      33.567  28.500  23.836  1.00  0.00     0.281 C 
ATOM      6  O   UNL A   1      34.344  28.724  22.901  1.00  0.00    -0.268 OA
ATOM      7  H   UNL A   1      33.561  30.452  24.158  1.00  0.00     0.163 HD
BRANCH   5   8
ATOM      8  C   UNL A   1      33.074  27.061  24.224  1.00  0.00     0.179 C 
ATOM      9  C   UNL A   1      33.467  25.310  25.894  1.00  0.00     0.180 C 
ATOM     10  C   UNL A   1      34.520  25.119  24.810  1.00  0.00     0.052 C 
ATOM     11  C   UNL A   1      33.055  26.777  25.743  1.00  0.00     0.124 C 
ATOM     12  C   UNL A   1      34.087  26.020  23.655  1.00  0.00     0.083 C 
BRANCH   9  13
ATOM     13  O   UNL A   1      32.304  24.516  25.641  1.00  0.00    -0.487 OA
BRANCH  13  14
ATOM     14  C   UNL A   1      32.458  23.176  25.420  1.00  0.00     0.155 A 
ATOM     15  C   UNL A   1      31.989  21.050  22.290  1.00  0.00     0.044 C 
ATOM     16  C   UNL A   1      32.295  21.453  23.701  1.00  0.00    -0.047 A 
ATOM     17  C   UNL A   1      32.743  20.500  24.622  1.00  0.00     0.007 A 
ATOM     18  C   UNL A   1      32.157  22.787  24.110  1.00  0.00     0.053 A 
ATOM     19  C   UNL A   1      33.034  20.877  25.932  1.00  0.00     0.043 A 
ATOM     20  C   UNL A   1      32.887  22.205  26.325  1.00  0.00     0.165 A 
ATOM     21  F   UNL A   1      33.189  22.507  27.596  1.00  0.00    -0.203 F 
ENDBRANCH  13  14
ENDBRANCH   9  13
BRANCH   8  22
ATOM     22  N   UNL A   1      31.779  26.671  23.588  1.00  0.00    -0.332 N 
ATOM     23  H   UNL A   1      31.722  25.654  23.652  1.00  0.00     0.347 HD
ATOM     24  H   UNL A   1      31.851  27.098  22.665  1.00  0.00     0.347 HD
BRANCH  22  25
ATOM     25  C   UNL A   1      30.501  27.190  24.080  1.00  0.00     0.176 C 
ATOM     26  C   UNL A   1      29.966  28.116  22.977  1.00  0.00     0.075 C 
ATOM     27  C   UNL A   1      29.445  26.129  24.385  1.00  0.00     0.075 C 
ENDBRANCH  22  25
ENDBRANCH   8  22
ENDBRANCH   5   8
ENDBRANCH   3   4
ENDBRANCH   2   3
ENDBRANCH   1   2
BRANCH   1  28
ATOM     28  C   UNL A   1      32.357  32.485  26.908  1.00  0.00     0.116 C 
BRANCH  28  29
ATOM     29  N   UNL A   1      32.238  33.837  27.436  1.00  0.00    -0.352 N 
ATOM     30  C   UNL A   1      33.039  34.465  28.361  1.00  0.00     0.251 C 
ATOM     31  H   UNL A   1      31.488  34.370  27.085  1.00  0.00     0.163 HD
ATOM     32  O   UNL A   1      32.737  35.577  28.782  1.00  0.00    -0.269 OA
BRANCH  30  33
ATOM     33  C   UNL A   1      34.235  33.763  28.868  1.00  0.00     0.039 A 
ATOM     34  C   UNL A   1      35.500  34.265  28.553  1.00  0.00     0.014 A 
ATOM     35  C   UNL A   1      34.102  32.646  29.696  1.00  0.00     0.014 A 
ATOM     36  C   UNL A   1      36.633  33.689  29.132  1.00  0.00     0.010 A 
ATOM     37  C   UNL A   1      35.224  32.121  30.327  1.00  0.00     0.010 A 
ATOM     38  C   UNL A   1      36.501  32.637  30.052  1.00  0.00    -0.014 A 
BRANCH  38  39
ATOM     39  C   UNL A   1      37.680  32.038  30.727  1.00  0.00     0.031 A 
ATOM     40  C   UNL A   1      38.484  30.985  30.015  1.00  0.00     0.074 A 
ATOM     41  C   UNL A   1      37.973  32.373  32.000  1.00  0.00     0.049 A 
ATOM     42  N   UNL A   1      39.455  30.234  30.466  1.00  0.00    -0.248 NA
ATOM     43  C   UNL A   1      38.117  30.718  28.616  1.00  0.00     0.031 C 
ATOM     44  C   UNL A   1      37.246  33.356  32.805  1.00  0.00     0.029 A 
ATOM     45  N   UNL A   1      38.950  31.910  32.846  1.00  0.00    -0.354 N 
ATOM     46  C   UNL A   1      39.798  29.389  29.416  1.00  0.00     0.074 A 
ATOM     47  C   UNL A   1      38.890  29.683  28.328  1.00  0.00     0.031 C 
ATOM     48  C   UNL A   1      37.811  33.432  34.022  1.00  0.00     0.029 A 
ATOM     49  C   UNL A   1      38.908  32.473  34.101  1.00  0.00     0.049 A 
ATOM     50  H   UNL A   1      39.619  31.239  32.580  1.00  0.00     0.167 HD
ATOM     51  C   UNL A   1      40.792  28.468  29.358  1.00  0.00     0.034 A 
ATOM     52  C   UNL A   1      39.657  32.229  35.195  1.00  0.00     0.034 A 
ATOM     53  C   UNL A   1      41.701  28.205  30.446  1.00  0.00     0.049 A 
ATOM     54  C   UNL A   1      40.753  31.195  35.111  1.00  0.00     0.074 A 
ATOM     55  C   UNL A   1      42.773  27.330  30.484  1.00  0.00     0.029 A 
ATOM     56  N   UNL A   1      41.645  28.817  31.693  1.00  0.00    -0.354 N 
ATOM     57  N   UNL A   1      41.086  30.426  34.101  1.00  0.00    -0.248 NA
ATOM     58  C   UNL A   1      41.578  31.004  36.311  1.00  0.00     0.031 C 
ATOM     59  C   UNL A   1      43.328  27.371  31.767  1.00  0.00     0.029 A 
ATOM     60  C   UNL A   1      42.651  28.324  32.510  1.00  0.00     0.049 A 
ATOM     61  H   UNL A   1      40.988  29.500  31.957  1.00  0.00     0.167 HD
ATOM     62  C   UNL A   1      42.187  29.690  34.532  1.00  0.00     0.074 A 
ATOM     63  C   UNL A   1      42.460  30.108  35.892  1.00  0.00     0.031 C 
ATOM     64  C   UNL A   1      42.912  28.758  33.862  1.00  0.00     0.034 A 
BRANCH  51  65
ATOM     65  C   UNL A   1      40.921  27.669  28.084  1.00  0.00     0.023 A 
ATOM     66  C   UNL A   1      40.433  26.353  27.986  1.00  0.00     0.031 A 
ATOM     67  C   UNL A   1      41.574  28.212  26.964  1.00  0.00     0.131 A 
ATOM     68  C   UNL A   1      40.681  25.599  26.831  1.00  0.00     0.055 A 
ATOM     69  C   UNL A   1      41.741  27.484  25.784  1.00  0.00     0.041 A 
ATOM     70  F   UNL A   1      42.080  29.455  27.003  1.00  0.00    -0.206 F 
ATOM     71  C   UNL A   1      41.309  26.163  25.719  1.00  0.00     0.022 A 
BRANCH  68  72
ATOM     72  S   UNL A   1      40.308  23.824  26.862  1.00  0.00     0.124 S 
ATOM     73  O   UNL A   1      40.314  23.547  28.297  1.00  0.00    -0.237 OA
ATOM     74  O   UNL A   1      39.008  23.763  26.205  1.00  0.00    -0.237 OA
ATOM     75  O   UNL A   1      41.413  23.228  26.115  1.00  0.00    -0.744 OA
ENDBRANCH  68  72
ENDBRANCH  51  65
BRANCH  52  76
ATOM     76  C   UNL A   1      39.402  32.965  36.467  1.00  0.00     0.023 A 
ATOM     77  C   UNL A   1      38.562  32.428  37.454  1.00  0.00     0.031 A 
ATOM     78  C   UNL A   1      39.962  34.235  36.695  1.00  0.00     0.131 A 
ATOM     79  C   UNL A   1      38.265  33.178  38.604  1.00  0.00     0.055 A 
ATOM     80  C   UNL A   1      39.705  34.955  37.863  1.00  0.00     0.041 A 
ATOM     81  F   UNL A   1      40.779  34.791  35.785  1.00  0.00    -0.206 F 
ATOM     82  C   UNL A   1      38.840  34.432  38.820  1.00  0.00     0.022 A 
BRANCH  79  83
ATOM     83  S   UNL A   1      37.048  32.521  39.777  1.00  0.00     0.124 S 
ATOM     84  O   UNL A   1      37.616  31.215  40.093  1.00  0.00    -0.237 OA
ATOM     85  O   UNL A   1      37.089  33.515  40.844  1.00  0.00    -0.237 OA
ATOM     86  O   UNL A   1      35.809  32.492  39.001  1.00  0.00    -0.744 OA
ENDBRANCH  79  83
ENDBRANCH  52  76
BRANCH  64  87
ATOM     87  C   UNL A   1      44.114  28.183  34.567  1.00  0.00     0.023 A 
ATOM     88  C   UNL A   1      44.040  27.001  35.322  1.00  0.00     0.031 A 
ATOM     89  C   UNL A   1      45.358  28.833  34.470  1.00  0.00     0.131 A 
ATOM     90  C   UNL A   1      45.181  26.527  35.988  1.00  0.00     0.055 A 
ATOM     91  C   UNL A   1      46.501  28.328  35.090  1.00  0.00     0.041 A 
ATOM     92  F   UNL A   1      45.483  29.966  33.760  1.00  0.00    -0.206 F 
ATOM     93  C   UNL A   1      46.413  27.175  35.863  1.00  0.00     0.022 A 
BRANCH  90  94
ATOM     94  S   UNL A   1      45.020  25.087  37.078  1.00  0.00     0.124 S 
ATOM     95  O   UNL A   1      44.430  25.676  38.275  1.00  0.00    -0.237 OA
ATOM     96  O   UNL A   1      44.151  24.205  36.306  1.00  0.00    -0.237 OA
ATOM     97  O   UNL A   1      46.397  24.618  37.233  1.00  0.00    -0.744 OA
ENDBRANCH  90  94
ENDBRANCH  64  87
ENDBRANCH  38  39
ENDBRANCH  30  33
ENDBRANCH  28  29
ENDBRANCH   1  28
TORSDOF 18
ENDMDL
MODEL 2
REMARK VINA RESULT:     -11.6      1.588      2.009
REMARK SMILES Cc1ccc(F)c(O[C@H]2CC[C@]([NH2+]C(C)C)(C(=O)NCCCCNC(=O)c3ccc(-c4c5nc(c(-c6cc(S(=O)(=O)[O-])ccc6F)c6ccc([nH]6)c(-c6cc(S(=O)(=O)[O-])ccc6F)c6nc(c(-c7cc(S(=O)(=O)[O-])ccc7F)c7ccc4[nH]7)C=C6)C=C5)cc3)C2)c1
REMARK SMILES IDX 22 1 21 2 20 3 19 4 17 5 18 6 12 8 9 9 10 10 90 11 11 12
REMARK SMILES IDX 8 13 7 14 1 15 2 16 3 17 91 18 4 19 5 20 6 21 13 22 14 25
REMARK SMILES IDX 15 26 16 27 23 28 24 29 25 30 26 32 27 33 28 34 89 35 29 36
REMARK SMILES IDX 88 37 30 38 31 39 32 40 82 41 33 42 87 43 81 44 83 45 34 46
REMARK SMILES IDX 86 47 80 48 79 49 35 51 67 52 47 53 66 54 48 55 51 56 65 57
REMARK SMILES IDX 84 58 49 59 50 60 64 62 85 63 52 64 36 65 37 66 45 67 38 68
REMARK SMILES IDX 44 69 46 70 43 71 39 72 40 73 41 74 42 75 68 76 69 77 77 78
REMARK SMILES IDX 70 79 76 80 78 81 75 82 71 83 72 84 73 85 74 86 53 87 54 88
REMARK SMILES IDX 62 89 55 90 61 91 63 92 60 93 56 94 57 95 58 96 59 97
REMARK H PARENT 19 7 13 23 13 24 24 31 83 50 51 61
REMARK Flexibility Score: inf
ROOT
ATOM      1  C   UNL A   1      32.022  31.349  26.749  1.00  0.00     0.023 C 
ENDROOT
BRANCH   1   2
ATOM      2  C   UNL A   1      32.165  29.849  26.994  1.00  0.00     0.023 C 
BRANCH   2   3
ATOM      3  C   UNL A   1      33.442  29.226  26.436  1.00  0.00     0.116 C 
BRANCH   3   4
ATOM      4  N   UNL A   1      33.602  29.456  25.014  1.00  0.00    -0.351 N 
ATOM      5  C   UNL A   1      33.472  28.647  23.920  1.00  0.00     0.281 C 
ATOM      6  O   UNL A   1      33.741  29.202  22.849  1.00  0.00    -0.268 OA
ATOM      7  H   UNL A   1      33.854  30.381  24.792  1.00  0.00     0.163 HD
BRANCH   5   8
ATOM      8  C   UNL A   1      33.049  27.139  24.031  1.00  0.00     0.179 C 
ATOM      9  C   UNL A   1      34.034  24.897  24.138  1.00  0.00     0.180 C 
ATOM     10  C   UNL A   1      33.936  25.257  22.660  1.00  0.00     0.052 C 
ATOM     11  C   UNL A   1      34.023  26.257  24.842  1.00  0.00     0.124 C 
ATOM     12  C   UNL A   1      33.069  26.513  22.602  1.00  0.00     0.083 C 
BRANCH   9  13
ATOM     13  O   UNL A   1      32.876  24.182  24.580  1.00  0.00    -0.487 OA
BRANCH  13  14
ATOM     14  C   UNL A   1      32.978  22.836  24.795  1.00  0.00     0.155 A 
ATOM     15  C   UNL A   1      36.000  20.521  25.002  1.00  0.00     0.044 C 
ATOM     16  C   UNL A   1      34.584  21.013  25.009  1.00  0.00    -0.047 A 
ATOM     17  C   UNL A   1      33.534  20.127  25.274  1.00  0.00     0.007 A 
ATOM     18  C   UNL A   1      34.294  22.363  24.772  1.00  0.00     0.053 A 
ATOM     19  C   UNL A   1      32.218  20.586  25.287  1.00  0.00     0.043 A 
ATOM     20  C   UNL A   1      31.946  21.930  25.045  1.00  0.00     0.165 A 
ATOM     21  F   UNL A   1      30.661  22.313  25.077  1.00  0.00    -0.203 F 
ENDBRANCH  13  14
ENDBRANCH   9  13
BRANCH   8  22
ATOM     22  N   UNL A   1      31.638  26.936  24.480  1.00  0.00    -0.332 N 
ATOM     23  H   UNL A   1      31.427  27.700  25.122  1.00  0.00     0.347 HD
ATOM     24  H   UNL A   1      31.659  25.984  24.845  1.00  0.00     0.347 HD
BRANCH  22  25
ATOM     25  C   UNL A   1      30.532  26.883  23.521  1.00  0.00     0.176 C 
ATOM     26  C   UNL A   1      29.681  25.668  23.921  1.00  0.00     0.075 C 
ATOM     27  C   UNL A   1      29.639  28.121  23.493  1.00  0.00     0.075 C 
ENDBRANCH  22  25
ENDBRANCH   8  22
ENDBRANCH   5   8
ENDBRANCH   3   4
ENDBRANCH   2   3
ENDBRANCH   1   2
BRANCH   1  28
ATOM     28  C   UNL A   1      33.152  32.210  27.301  1.00  0.00     0.116 C 
BRANCH  28  29
ATOM     29  N   UNL A   1      32.744  33.577  27.597  1.00  0.00    -0.352 N 
ATOM     30  C   UNL A   1      33.239  34.426  28.560  1.00  0.00     0.251 C 
ATOM     31  H   UNL A   1      32.022  33.940  27.035  1.00  0.00     0.163 HD
ATOM     32  O   UNL A   1      32.709  35.515  28.750  1.00  0.00    -0.269 OA
BRANCH  30  33
ATOM     33  C   UNL A   1      34.383  33.986  29.383  1.00  0.00     0.039 A 
ATOM     34  C   UNL A   1      34.152  33.135  30.466  1.00  0.00     0.014 A 
ATOM     35  C   UNL A   1      35.684  34.371  29.049  1.00  0.00     0.014 A 
ATOM     36  C   UNL A   1      35.237  32.608  31.171  1.00  0.00     0.010 A 
ATOM     37  C   UNL A   1      36.762  33.790  29.706  1.00  0.00     0.010 A 
ATOM     38  C   UNL A   1      36.550  32.902  30.773  1.00  0.00    -0.014 A 
BRANCH  38  39
ATOM     39  C   UNL A   1      37.726  32.316  31.466  1.00  0.00     0.031 A 
ATOM     40  C   UNL A   1      38.477  31.185  30.820  1.00  0.00     0.074 A 
ATOM     41  C   UNL A   1      38.061  32.736  32.703  1.00  0.00     0.049 A 
ATOM     42  N   UNL A   1      39.434  30.437  31.306  1.00  0.00    -0.248 NA
ATOM     43  C   UNL A   1      38.068  30.825  29.454  1.00  0.00     0.031 C 
ATOM     44  C   UNL A   1      37.386  33.802  33.446  1.00  0.00     0.029 A 
ATOM     45  N   UNL A   1      39.042  32.306  33.560  1.00  0.00    -0.354 N 
ATOM     46  C   UNL A   1      39.723  29.503  30.316  1.00  0.00     0.074 A 
ATOM     47  C   UNL A   1      38.798  29.745  29.229  1.00  0.00     0.031 C 
ATOM     48  C   UNL A   1      37.983  33.951  34.640  1.00  0.00     0.029 A 
ATOM     49  C   UNL A   1      39.050  32.964  34.768  1.00  0.00     0.049 A 
ATOM     50  H   UNL A   1      39.682  31.594  33.331  1.00  0.00     0.167 HD
ATOM     51  C   UNL A   1      40.685  28.547  30.308  1.00  0.00     0.034 A 
ATOM     52  C   UNL A   1      39.817  32.779  35.862  1.00  0.00     0.034 A 
ATOM     53  C   UNL A   1      41.611  28.337  31.392  1.00  0.00     0.049 A 
ATOM     54  C   UNL A   1      40.875  31.704  35.834  1.00  0.00     0.074 A 
ATOM     55  C   UNL A   1      42.654  27.430  31.474  1.00  0.00     0.029 A 
ATOM     56  N   UNL A   1      41.606  29.043  32.589  1.00  0.00    -0.354 N 
ATOM     57  N   UNL A   1      41.159  30.849  34.878  1.00  0.00    -0.248 NA
ATOM     58  C   UNL A   1      41.723  31.576  37.026  1.00  0.00     0.031 C 
ATOM     59  C   UNL A   1      43.242  27.549  32.737  1.00  0.00     0.029 A 
ATOM     60  C   UNL A   1      42.614  28.579  33.420  1.00  0.00     0.049 A 
ATOM     61  H   UNL A   1      40.978  29.766  32.815  1.00  0.00     0.167 HD
ATOM     62  C   UNL A   1      42.245  30.111  35.340  1.00  0.00     0.074 A 
ATOM     63  C   UNL A   1      42.565  30.621  36.657  1.00  0.00     0.031 C 
ATOM     64  C   UNL A   1      42.923  29.106  34.728  1.00  0.00     0.034 A 
BRANCH  51  65
ATOM     65  C   UNL A   1      40.756  27.649  29.096  1.00  0.00     0.023 A 
ATOM     66  C   UNL A   1      41.691  27.869  28.069  1.00  0.00     0.031 A 
ATOM     67  C   UNL A   1      39.854  26.582  28.946  1.00  0.00     0.131 A 
ATOM     68  C   UNL A   1      41.646  27.092  26.903  1.00  0.00     0.055 A 
ATOM     69  C   UNL A   1      39.872  25.756  27.819  1.00  0.00     0.041 A 
ATOM     70  F   UNL A   1      38.925  26.334  29.883  1.00  0.00    -0.206 F 
ATOM     71  C   UNL A   1      40.760  26.020  26.781  1.00  0.00     0.022 A 
BRANCH  68  72
ATOM     72  S   UNL A   1      42.657  27.602  25.486  1.00  0.00     0.124 S 
ATOM     73  O   UNL A   1      41.920  28.767  25.002  1.00  0.00    -0.237 OA
ATOM     74  O   UNL A   1      43.950  27.875  26.103  1.00  0.00    -0.237 OA
ATOM     75  O   UNL A   1      42.621  26.439  24.602  1.00  0.00    -0.744 OA
ENDBRANCH  68  72
ENDBRANCH  51  65
BRANCH  52  76
ATOM     76  C   UNL A   1      39.617  33.617  37.078  1.00  0.00     0.023 A 
ATOM     77  C   UNL A   1      39.038  33.079  38.237  1.00  0.00     0.031 A 
ATOM     78  C   UNL A   1      39.964  34.980  37.085  1.00  0.00     0.131 A 
ATOM     79  C   UNL A   1      38.778  33.909  39.339  1.00  0.00     0.055 A 
ATOM     80  C   UNL A   1      39.751  35.790  38.202  1.00  0.00     0.041 A 
ATOM     81  F   UNL A   1      40.529  35.543  36.004  1.00  0.00    -0.206 F 
ATOM     82  C   UNL A   1      39.141  35.258  39.334  1.00  0.00     0.022 A 
BRANCH  79  83
ATOM     83  S   UNL A   1      37.879  33.216  40.755  1.00  0.00     0.124 S 
ATOM     84  O   UNL A   1      38.529  31.919  40.912  1.00  0.00    -0.237 OA
ATOM     85  O   UNL A   1      38.149  34.200  41.797  1.00  0.00    -0.237 OA
ATOM     86  O   UNL A   1      36.494  33.168  40.288  1.00  0.00    -0.744 OA
ENDBRANCH  79  83
ENDBRANCH  52  76
BRANCH  64  87
ATOM     87  C   UNL A   1      44.122  28.545  35.449  1.00  0.00     0.023 A 
ATOM     88  C   UNL A   1      44.006  27.526  36.408  1.00  0.00     0.031 A 
ATOM     89  C   UNL A   1      45.407  29.041  35.158  1.00  0.00     0.131 A 
ATOM     90  C   UNL A   1      45.151  27.063  37.075  1.00  0.00     0.055 A 
ATOM     91  C   UNL A   1      46.546  28.539  35.787  1.00  0.00     0.041 A 
ATOM     92  F   UNL A   1      45.573  30.014  34.249  1.00  0.00    -0.206 F 
ATOM     93  C   UNL A   1      46.420  27.553  36.759  1.00  0.00     0.022 A 
BRANCH  90  94
ATOM     94  S   UNL A   1      44.952  25.858  38.416  1.00  0.00     0.124 S 
ATOM     95  O   UNL A   1      44.568  24.653  37.688  1.00  0.00    -0.237 OA
ATOM     96  O   UNL A   1      46.279  25.841  39.022  1.00  0.00    -0.237 OA
ATOM     97  O   UNL A   1      43.900  26.441  39.248  1.00  0.00    -0.744 OA
ENDBRANCH  90  94
ENDBRANCH  64  87
ENDBRANCH  38  39
ENDBRANCH  30  33
ENDBRANCH  28  29
ENDBRANCH   1  28
TORSDOF 18
ENDMDL
MODEL 3
REMARK VINA RESULT:     -11.4      5.752     11.084
REMARK SMILES Cc1ccc(F)c(O[C@H]2CC[C@]([NH2+]C(C)C)(C(=O)NCCCCNC(=O)c3ccc(-c4c5nc(c(-c6cc(S(=O)(=O)[O-])ccc6F)c6ccc([nH]6)c(-c6cc(S(=O)(=O)[O-])ccc6F)c6nc(c(-c7cc(S(=O)(=O)[O-])ccc7F)c7ccc4[nH]7)C=C6)C=C5)cc3)C2)c1
REMARK SMILES IDX 22 1 21 2 20 3 19 4 17 5 18 6 12 8 9 9 10 10 90 11 11 12
REMARK SMILES IDX 8 13 7 14 1 15 2 16 3 17 91 18 4 19 5 20 6 21 13 22 14 25
REMARK SMILES IDX 15 26 16 27 23 28 24 29 25 30 26 32 27 33 28 34 89 35 29 36
REMARK SMILES IDX 88 37 30 38 31 39 32 40 82 41 33 42 87 43 81 44 83 45 34 46
REMARK SMILES IDX 86 47 80 48 79 49 35 51 67 52 47 53 66 54 48 55 51 56 65 57
REMARK SMILES IDX 84 58 49 59 50 60 64 62 85 63 52 64 36 65 37 66 45 67 38 68
REMARK SMILES IDX 44 69 46 70 43 71 39 72 40 73 41 74 42 75 68 76 69 77 77 78
REMARK SMILES IDX 70 79 76 80 78 81 75 82 71 83 72 84 73 85 74 86 53 87 54 88
REMARK SMILES IDX 62 89 55 90 61 91 63 92 60 93 56 94 57 95 58 96 59 97
REMARK H PARENT 19 7 13 23 13 24 24 31 83 50 51 61
REMARK Flexibility Score: inf
ROOT
ATOM      1  C   UNL A   1      37.608  19.509  24.722  1.00  0.00     0.023 C 
ENDROOT
BRANCH   1   2
ATOM      2  C   UNL A   1      36.207  20.052  24.993  1.00  0.00     0.023 C 
BRANCH   2   3
ATOM      3  C   UNL A   1      36.155  21.529  25.375  1.00  0.00     0.116 C 
BRANCH   3   4
ATOM      4  N   UNL A   1      35.381  21.769  26.577  1.00  0.00    -0.351 N 
ATOM      5  C   UNL A   1      34.317  22.580  26.853  1.00  0.00     0.281 C 
ATOM      6  O   UNL A   1      33.951  22.548  28.032  1.00  0.00    -0.268 OA
ATOM      7  H   UNL A   1      35.684  21.240  27.351  1.00  0.00     0.163 HD
BRANCH   5   8
ATOM      8  C   UNL A   1      33.647  23.493  25.765  1.00  0.00     0.179 C 
ATOM      9  C   UNL A   1      34.020  25.600  24.568  1.00  0.00     0.180 C 
ATOM     10  C   UNL A   1      33.359  25.964  25.892  1.00  0.00     0.052 C 
ATOM     11  C   UNL A   1      34.645  24.229  24.842  1.00  0.00     0.124 C 
ATOM     12  C   UNL A   1      32.878  24.643  26.487  1.00  0.00     0.083 C 
BRANCH   9  13
ATOM     13  O   UNL A   1      33.051  25.424  23.530  1.00  0.00    -0.487 OA
BRANCH  13  14
ATOM     14  C   UNL A   1      32.160  26.431  23.285  1.00  0.00     0.155 A 
ATOM     15  C   UNL A   1      28.397  26.683  23.845  1.00  0.00     0.044 C 
ATOM     16  C   UNL A   1      29.804  27.035  23.464  1.00  0.00    -0.047 A 
ATOM     17  C   UNL A   1      30.099  28.310  22.969  1.00  0.00     0.007 A 
ATOM     18  C   UNL A   1      30.841  26.106  23.619  1.00  0.00     0.053 A 
ATOM     19  C   UNL A   1      31.408  28.639  22.621  1.00  0.00     0.043 A 
ATOM     20  C   UNL A   1      32.427  27.703  22.776  1.00  0.00     0.165 A 
ATOM     21  F   UNL A   1      33.667  28.080  22.431  1.00  0.00    -0.203 F 
ENDBRANCH  13  14
ENDBRANCH   9  13
BRANCH   8  22
ATOM     22  N   UNL A   1      32.583  22.809  24.970  1.00  0.00    -0.332 N 
ATOM     23  H   UNL A   1      32.045  23.546  24.514  1.00  0.00     0.347 HD
ATOM     24  H   UNL A   1      32.121  22.231  25.672  1.00  0.00     0.347 HD
BRANCH  22  25
ATOM     25  C   UNL A   1      32.917  21.834  23.928  1.00  0.00     0.176 C 
ATOM     26  C   UNL A   1      32.536  20.458  24.495  1.00  0.00     0.075 C 
ATOM     27  C   UNL A   1      32.194  22.035  22.598  1.00  0.00     0.075 C 
ENDBRANCH  22  25
ENDBRANCH   8  22
ENDBRANCH   5   8
ENDBRANCH   3   4
ENDBRANCH   2   3
ENDBRANCH   1   2
BRANCH   1  28
ATOM     28  C   UNL A   1      38.725  20.148  25.539  1.00  0.00     0.116 C 
BRANCH  28  29
ATOM     29  N   UNL A   1      39.858  19.262  25.761  1.00  0.00    -0.352 N 
ATOM     30  C   UNL A   1      41.134  19.589  26.160  1.00  0.00     0.251 C 
ATOM     31  H   UNL A   1      39.690  18.304  25.607  1.00  0.00     0.163 HD
ATOM     32  O   UNL A   1      42.007  18.729  26.197  1.00  0.00    -0.269 OA
BRANCH  30  33
ATOM     33  C   UNL A   1      41.440  20.994  26.496  1.00  0.00     0.039 A 
ATOM     34  C   UNL A   1      41.539  21.363  27.840  1.00  0.00     0.014 A 
ATOM     35  C   UNL A   1      41.684  21.927  25.485  1.00  0.00     0.014 A 
ATOM     36  C   UNL A   1      41.956  22.655  28.170  1.00  0.00     0.010 A 
ATOM     37  C   UNL A   1      42.167  23.187  25.815  1.00  0.00     0.010 A 
ATOM     38  C   UNL A   1      42.309  23.565  27.161  1.00  0.00    -0.014 A 
BRANCH  38  39
ATOM     39  C   UNL A   1      42.809  24.927  27.478  1.00  0.00     0.031 A 
ATOM     40  C   UNL A   1      41.887  25.918  28.133  1.00  0.00     0.074 A 
ATOM     41  C   UNL A   1      44.050  25.297  27.101  1.00  0.00     0.049 A 
ATOM     42  N   UNL A   1      42.067  27.193  28.366  1.00  0.00    -0.248 NA
ATOM     43  C   UNL A   1      40.570  25.412  28.546  1.00  0.00     0.031 C 
ATOM     44  C   UNL A   1      45.022  24.434  26.429  1.00  0.00     0.029 A 
ATOM     45  N   UNL A   1      44.699  26.501  27.216  1.00  0.00    -0.354 N 
ATOM     46  C   UNL A   1      40.878  27.645  28.929  1.00  0.00     0.074 A 
ATOM     47  C   UNL A   1      39.968  26.520  28.946  1.00  0.00     0.031 C 
ATOM     48  C   UNL A   1      46.148  25.132  26.205  1.00  0.00     0.029 A 
ATOM     49  C   UNL A   1      45.963  26.502  26.671  1.00  0.00     0.049 A 
ATOM     50  H   UNL A   1      44.298  27.290  27.646  1.00  0.00     0.167 HD
ATOM     51  C   UNL A   1      40.583  28.879  29.407  1.00  0.00     0.034 A 
ATOM     52  C   UNL A   1      46.861  27.500  26.547  1.00  0.00     0.034 A 
ATOM     53  C   UNL A   1      41.512  29.982  29.401  1.00  0.00     0.049 A 
ATOM     54  C   UNL A   1      46.508  28.867  27.078  1.00  0.00     0.074 A 
ATOM     55  C   UNL A   1      41.337  31.262  29.900  1.00  0.00     0.029 A 
ATOM     56  N   UNL A   1      42.794  29.937  28.868  1.00  0.00    -0.354 N 
ATOM     57  N   UNL A   1      45.392  29.273  27.638  1.00  0.00    -0.248 NA
ATOM     58  C   UNL A   1      47.539  29.908  26.971  1.00  0.00     0.031 C 
ATOM     59  C   UNL A   1      42.489  32.003  29.619  1.00  0.00     0.029 A 
ATOM     60  C   UNL A   1      43.412  31.170  29.009  1.00  0.00     0.049 A 
ATOM     61  H   UNL A   1      43.204  29.145  28.450  1.00  0.00     0.167 HD
ATOM     62  C   UNL A   1      45.604  30.604  27.986  1.00  0.00     0.074 A 
ATOM     63  C   UNL A   1      46.953  30.932  27.574  1.00  0.00     0.031 C 
ATOM     64  C   UNL A   1      44.762  31.476  28.598  1.00  0.00     0.034 A 
BRANCH  51  65
ATOM     65  C   UNL A   1      39.190  29.096  29.949  1.00  0.00     0.023 A 
ATOM     66  C   UNL A   1      38.182  29.696  29.174  1.00  0.00     0.031 A 
ATOM     67  C   UNL A   1      38.875  28.733  31.270  1.00  0.00     0.131 A 
ATOM     68  C   UNL A   1      36.939  29.994  29.750  1.00  0.00     0.055 A 
ATOM     69  C   UNL A   1      37.605  28.953  31.811  1.00  0.00     0.041 A 
ATOM     70  F   UNL A   1      39.800  28.174  32.066  1.00  0.00    -0.206 F 
ATOM     71  C   UNL A   1      36.634  29.604  31.055  1.00  0.00     0.022 A 
BRANCH  68  72
ATOM     72  S   UNL A   1      35.784  31.037  28.819  1.00  0.00     0.124 S 
ATOM     73  O   UNL A   1      35.091  31.743  29.894  1.00  0.00    -0.237 OA
ATOM     74  O   UNL A   1      36.678  31.844  27.997  1.00  0.00    -0.237 OA
ATOM     75  O   UNL A   1      34.964  30.073  28.087  1.00  0.00    -0.744 OA
ENDBRANCH  68  72
ENDBRANCH  51  65
BRANCH  52  76
ATOM     76  C   UNL A   1      48.177  27.256  25.890  1.00  0.00     0.023 A 
ATOM     77  C   UNL A   1      48.335  27.428  24.506  1.00  0.00     0.031 A 
ATOM     78  C   UNL A   1      49.285  26.808  26.630  1.00  0.00     0.131 A 
ATOM     79  C   UNL A   1      49.558  27.107  23.896  1.00  0.00     0.055 A 
ATOM     80  C   UNL A   1      50.515  26.539  26.026  1.00  0.00     0.041 A 
ATOM     81  F   UNL A   1      49.191  26.634  27.958  1.00  0.00    -0.206 F 
ATOM     82  C   UNL A   1      50.653  26.675  24.648  1.00  0.00     0.022 A 
BRANCH  79  83
ATOM     83  S   UNL A   1      49.671  27.184  22.087  1.00  0.00     0.124 S 
ATOM     84  O   UNL A   1      48.695  26.177  21.685  1.00  0.00    -0.237 OA
ATOM     85  O   UNL A   1      49.310  28.572  21.820  1.00  0.00    -0.237 OA
ATOM     86  O   UNL A   1      51.067  26.842  21.819  1.00  0.00    -0.744 OA
ENDBRANCH  79  83
ENDBRANCH  52  76
BRANCH  64  87
ATOM     87  C   UNL A   1      45.305  32.844  28.924  1.00  0.00     0.023 A 
ATOM     88  C   UNL A   1      45.300  33.890  27.986  1.00  0.00     0.031 A 
ATOM     89  C   UNL A   1      45.829  33.101  30.204  1.00  0.00     0.131 A 
ATOM     90  C   UNL A   1      45.849  35.135  28.329  1.00  0.00     0.055 A 
ATOM     91  C   UNL A   1      46.325  34.356  30.555  1.00  0.00     0.041 A 
ATOM     92  F   UNL A   1      45.857  32.136  31.136  1.00  0.00    -0.206 F 
ATOM     93  C   UNL A   1      46.347  35.378  29.612  1.00  0.00     0.022 A 
BRANCH  90  94
ATOM     94  S   UNL A   1      45.969  36.417  27.052  1.00  0.00     0.124 S 
ATOM     95  O   UNL A   1      46.064  35.624  25.831  1.00  0.00    -0.237 OA
ATOM     96  O   UNL A   1      44.727  37.160  27.236  1.00  0.00    -0.237 OA
ATOM     97  O   UNL A   1      47.184  37.148  27.412  1.00  0.00    -0.744 OA
ENDBRANCH  90  94
ENDBRANCH  64  87
ENDBRANCH  38  39
ENDBRANCH  30  33
ENDBRANCH  28  29
ENDBRANCH   1  28
TORSDOF 18
ENDMDL
