MODEL 1
REMARK VINA RESULT:     -12.5      0.000      0.000
REMARK SMILES Cc1ccccc1Sc1cncc(C(=O)NCCCCNC(=O)c2ccc(-c3c4nc(c(-c5cc(S(=O)(=O)[O-])ccc5F)c5ccc([nH]5)c(-c5cc(S(=O)(=O)[O-])ccc5F)c5nc(c(-c6cc(S(=O)(=O)[O-])ccc6F)c6ccc3[nH]6)C=C5)C=C4)cc2)n1
REMARK SMILES IDX 19 1 18 2 17 3 16 4 14 5 15 6 13 8 9 9 10 10 87 11 11 12
REMARK SMILES IDX 12 13 8 14 7 15 1 16 2 17 3 18 4 19 6 20 5 21 20 22 21 23
REMARK SMILES IDX 22 24 23 26 24 27 25 28 86 29 26 30 85 31 27 32 28 33 29 34
REMARK SMILES IDX 79 35 30 36 84 37 78 38 80 39 31 40 83 41 77 42 76 43 32 45
REMARK SMILES IDX 64 46 44 47 63 48 45 49 48 50 62 51 81 52 46 53 47 54 61 56
REMARK SMILES IDX 82 57 49 58 33 59 34 60 42 61 35 62 41 63 43 64 40 65 36 66
REMARK SMILES IDX 37 67 38 68 39 69 65 70 66 71 74 72 67 73 73 74 75 75 72 76
REMARK SMILES IDX 68 77 69 78 70 79 71 80 50 81 51 82 59 83 52 84 58 85 60 86
REMARK SMILES IDX 57 87 53 88 54 89 55 90 56 91
REMARK H PARENT 16 7 21 25 80 44 48 55
REMARK Flexibility Score: inf
ROOT
ATOM      1  C   UNL A   1      38.579  21.463  25.583  1.00  0.00     0.023 C 
ENDROOT
BRANCH   1   2
ATOM      2  C   UNL A   1      37.182  21.518  24.949  1.00  0.00     0.023 C 
BRANCH   2   3
ATOM      3  C   UNL A   1      36.040  21.850  25.920  1.00  0.00     0.116 C 
BRANCH   3   4
ATOM      4  N   UNL A   1      34.878  20.979  25.722  1.00  0.00    -0.351 N 
ATOM      5  C   UNL A   1      33.526  21.237  25.735  1.00  0.00     0.271 C 
ATOM      6  O   UNL A   1      32.754  20.300  25.512  1.00  0.00    -0.267 OA
ATOM      7  H   UNL A   1      35.107  20.036  25.548  1.00  0.00     0.163 HD
BRANCH   5   8
ATOM      8  C   UNL A   1      32.953  22.589  25.990  1.00  0.00     0.147 A 
ATOM      9  C   UNL A   1      32.774  24.828  25.485  1.00  0.00     0.120 A 
ATOM     10  C   UNL A   1      31.780  24.956  26.449  1.00  0.00     0.146 A 
ATOM     11  N   UNL A   1      33.381  23.642  25.262  1.00  0.00    -0.233 NA
ATOM     12  N   UNL A   1      31.381  23.930  27.243  1.00  0.00    -0.259 NA
ATOM     13  C   UNL A   1      31.984  22.740  26.976  1.00  0.00     0.145 A 
BRANCH   9  14
ATOM     14  S   UNL A   1      33.217  26.153  24.423  1.00  0.00    -0.068 SA
BRANCH  14  15
ATOM     15  C   UNL A   1      33.075  27.699  25.313  1.00  0.00     0.017 A 
ATOM     16  C   UNL A   1      30.963  28.743  24.255  1.00  0.00     0.045 C 
ATOM     17  C   UNL A   1      32.153  28.756  25.170  1.00  0.00    -0.037 A 
ATOM     18  C   UNL A   1      32.328  29.927  25.942  1.00  0.00     0.004 A 
ATOM     19  C   UNL A   1      33.355  30.043  26.877  1.00  0.00     0.000 A 
ATOM     20  C   UNL A   1      34.087  27.833  26.291  1.00  0.00     0.016 A 
ATOM     21  C   UNL A   1      34.226  28.985  27.065  1.00  0.00     0.001 A 
ENDBRANCH  14  15
ENDBRANCH   9  14
ENDBRANCH   5   8
ENDBRANCH   3   4
ENDBRANCH   2   3
ENDBRANCH   1   2
BRANCH   1  22
ATOM     22  C   UNL A   1      39.018  22.756  26.264  1.00  0.00     0.116 C 
BRANCH  22  23
ATOM     23  N   UNL A   1      40.451  22.940  26.424  1.00  0.00    -0.352 N 
ATOM     24  C   UNL A   1      41.161  24.119  26.613  1.00  0.00     0.251 C 
ATOM     25  H   UNL A   1      40.992  22.118  26.395  1.00  0.00     0.163 HD
ATOM     26  O   UNL A   1      42.379  24.136  26.572  1.00  0.00    -0.269 OA
BRANCH  24  27
ATOM     27  C   UNL A   1      40.423  25.354  27.002  1.00  0.00     0.039 A 
ATOM     28  C   UNL A   1      40.736  26.530  26.308  1.00  0.00     0.014 A 
ATOM     29  C   UNL A   1      39.634  25.414  28.147  1.00  0.00     0.014 A 
ATOM     30  C   UNL A   1      40.471  27.768  26.893  1.00  0.00     0.010 A 
ATOM     31  C   UNL A   1      39.455  26.633  28.775  1.00  0.00     0.010 A 
ATOM     32  C   UNL A   1      39.931  27.804  28.178  1.00  0.00    -0.014 A 
BRANCH  32  33
ATOM     33  C   UNL A   1      39.989  28.986  29.032  1.00  0.00     0.031 A 
ATOM     34  C   UNL A   1      38.918  29.999  29.028  1.00  0.00     0.074 A 
ATOM     35  C   UNL A   1      41.028  29.150  29.879  1.00  0.00     0.049 A 
ATOM     36  N   UNL A   1      39.119  31.255  29.252  1.00  0.00    -0.248 NA
ATOM     37  C   UNL A   1      37.524  29.673  28.753  1.00  0.00     0.031 C 
ATOM     38  C   UNL A   1      41.154  30.133  30.952  1.00  0.00     0.029 A 
ATOM     39  N   UNL A   1      42.297  28.590  29.774  1.00  0.00    -0.354 N 
ATOM     40  C   UNL A   1      37.890  31.832  29.458  1.00  0.00     0.074 A 
ATOM     41  C   UNL A   1      36.926  30.830  29.055  1.00  0.00     0.031 C 
ATOM     42  C   UNL A   1      42.454  30.302  31.234  1.00  0.00     0.029 A 
ATOM     43  C   UNL A   1      43.215  29.531  30.268  1.00  0.00     0.049 A 
ATOM     44  H   UNL A   1      42.512  27.698  29.418  1.00  0.00     0.167 HD
ATOM     45  C   UNL A   1      37.790  33.028  30.100  1.00  0.00     0.034 A 
ATOM     46  C   UNL A   1      44.220  30.010  29.481  1.00  0.00     0.034 A 
ATOM     47  C   UNL A   1      39.089  33.543  30.524  1.00  0.00     0.049 A 
ATOM     48  C   UNL A   1      44.162  31.508  29.278  1.00  0.00     0.074 A 
ATOM     49  C   UNL A   1      39.738  33.558  31.748  1.00  0.00     0.029 A 
ATOM     50  N   UNL A   1      40.039  33.901  29.574  1.00  0.00    -0.354 N 
ATOM     51  N   UNL A   1      43.122  32.246  29.554  1.00  0.00    -0.248 NA
ATOM     52  C   UNL A   1      45.264  32.291  28.730  1.00  0.00     0.031 C 
ATOM     53  C   UNL A   1      41.095  33.900  31.525  1.00  0.00     0.029 A 
ATOM     54  C   UNL A   1      41.269  34.114  30.170  1.00  0.00     0.049 A 
ATOM     55  H   UNL A   1      39.861  33.991  28.610  1.00  0.00     0.167 HD
ATOM     56  C   UNL A   1      43.374  33.556  29.221  1.00  0.00     0.074 A 
ATOM     57  C   UNL A   1      44.742  33.530  28.731  1.00  0.00     0.031 C 
ATOM     58  C   UNL A   1      42.423  34.529  29.378  1.00  0.00     0.034 A 
BRANCH  45  59
ATOM     59  C   UNL A   1      36.473  33.545  30.620  1.00  0.00     0.023 A 
ATOM     60  C   UNL A   1      35.579  34.202  29.751  1.00  0.00     0.031 A 
ATOM     61  C   UNL A   1      36.062  33.444  31.963  1.00  0.00     0.131 A 
ATOM     62  C   UNL A   1      34.409  34.814  30.233  1.00  0.00     0.055 A 
ATOM     63  C   UNL A   1      34.925  34.098  32.455  1.00  0.00     0.041 A 
ATOM     64  F   UNL A   1      36.745  32.694  32.843  1.00  0.00    -0.206 F 
ATOM     65  C   UNL A   1      34.098  34.802  31.590  1.00  0.00     0.022 A 
BRANCH  62  66
ATOM     66  S   UNL A   1      33.294  35.624  29.054  1.00  0.00     0.124 S 
ATOM     67  O   UNL A   1      34.224  36.341  28.187  1.00  0.00    -0.237 OA
ATOM     68  O   UNL A   1      32.599  34.489  28.456  1.00  0.00    -0.237 OA
ATOM     69  O   UNL A   1      32.462  36.477  29.904  1.00  0.00    -0.744 OA
ENDBRANCH  62  66
ENDBRANCH  45  59
BRANCH  46  70
ATOM     70  C   UNL A   1      44.717  29.003  28.498  1.00  0.00     0.023 A 
ATOM     71  C   UNL A   1      45.519  27.958  29.011  1.00  0.00     0.031 A 
ATOM     72  C   UNL A   1      44.109  28.810  27.251  1.00  0.00     0.131 A 
ATOM     73  C   UNL A   1      45.532  26.704  28.385  1.00  0.00     0.055 A 
ATOM     74  C   UNL A   1      44.200  27.580  26.584  1.00  0.00     0.041 A 
ATOM     75  F   UNL A   1      43.314  29.753  26.724  1.00  0.00    -0.206 F 
ATOM     76  C   UNL A   1      44.871  26.506  27.173  1.00  0.00     0.022 A 
BRANCH  73  77
ATOM     77  S   UNL A   1      46.153  25.275  29.329  1.00  0.00     0.124 S 
ATOM     78  O   UNL A   1      45.258  24.210  28.892  1.00  0.00    -0.237 OA
ATOM     79  O   UNL A   1      47.540  25.174  28.878  1.00  0.00    -0.237 OA
ATOM     80  O   UNL A   1      46.009  25.694  30.722  1.00  0.00    -0.744 OA
ENDBRANCH  73  77
ENDBRANCH  46  70
BRANCH  58  81
ATOM     81  C   UNL A   1      42.493  35.974  28.905  1.00  0.00     0.023 A 
ATOM     82  C   UNL A   1      43.237  36.976  29.544  1.00  0.00     0.031 A 
ATOM     83  C   UNL A   1      41.827  36.387  27.719  1.00  0.00     0.131 A 
ATOM     84  C   UNL A   1      43.249  38.303  29.067  1.00  0.00     0.055 A 
ATOM     85  C   UNL A   1      41.893  37.688  27.209  1.00  0.00     0.041 A 
ATOM     86  F   UNL A   1      41.084  35.543  26.989  1.00  0.00    -0.206 F 
ATOM     87  C   UNL A   1      42.598  38.662  27.891  1.00  0.00     0.022 A 
BRANCH  84  88
ATOM     88  S   UNL A   1      44.099  39.563  30.054  1.00  0.00     0.124 S 
ATOM     89  O   UNL A   1      45.341  38.880  30.408  1.00  0.00    -0.237 OA
ATOM     90  O   UNL A   1      44.232  40.665  29.106  1.00  0.00    -0.237 OA
ATOM     91  O   UNL A   1      43.184  39.806  31.166  1.00  0.00    -0.744 OA
ENDBRANCH  84  88
ENDBRANCH  58  81
ENDBRANCH  32  33
ENDBRANCH  24  27
ENDBRANCH  22  23
ENDBRANCH   1  22
TORSDOF 16
ENDMDL
MODEL 2
REMARK VINA RESULT:     -12.4      4.089     10.647
REMARK SMILES Cc1ccccc1Sc1cncc(C(=O)NCCCCNC(=O)c2ccc(-c3c4nc(c(-c5cc(S(=O)(=O)[O-])ccc5F)c5ccc([nH]5)c(-c5cc(S(=O)(=O)[O-])ccc5F)c5nc(c(-c6cc(S(=O)(=O)[O-])ccc6F)c6ccc3[nH]6)C=C5)C=C4)cc2)n1
REMARK SMILES IDX 19 1 18 2 17 3 16 4 14 5 15 6 13 8 9 9 10 10 87 11 11 12
REMARK SMILES IDX 12 13 8 14 7 15 1 16 2 17 3 18 4 19 6 20 5 21 20 22 21 23
REMARK SMILES IDX 22 24 23 26 24 27 25 28 86 29 26 30 85 31 27 32 28 33 29 34
REMARK SMILES IDX 79 35 30 36 84 37 78 38 80 39 31 40 83 41 77 42 76 43 32 45
REMARK SMILES IDX 64 46 44 47 63 48 45 49 48 50 62 51 81 52 46 53 47 54 61 56
REMARK SMILES IDX 82 57 49 58 33 59 34 60 42 61 35 62 41 63 43 64 40 65 36 66
REMARK SMILES IDX 37 67 38 68 39 69 65 70 66 71 74 72 67 73 73 74 75 75 72 76
REMARK SMILES IDX 68 77 69 78 70 79 71 80 50 81 51 82 59 83 52 84 58 85 60 86
REMARK SMILES IDX 57 87 53 88 54 89 55 90 56 91
REMARK H PARENT 16 7 21 25 80 44 48 55
REMARK Flexibility Score: inf
ROOT
ATOM      1  C   UNL A   1      32.726  30.697  27.253  1.00  0.00     0.023 C 
ENDROOT
BRANCH   1   2
ATOM      2  C   UNL A   1      32.264  30.233  25.864  1.00  0.00     0.023 C 
BRANCH   2   3
ATOM      3  C   UNL A   1      31.778  28.779  25.792  1.00  0.00     0.116 C 
BRANCH   3   4
ATOM      4  N   UNL A   1      31.235  28.444  24.473  1.00  0.00    -0.351 N 
ATOM      5  C   UNL A   1      30.799  27.254  23.936  1.00  0.00     0.271 C 
ATOM      6  O   UNL A   1      30.361  27.263  22.782  1.00  0.00    -0.267 OA
ATOM      7  H   UNL A   1      31.172  29.211  23.858  1.00  0.00     0.163 HD
BRANCH   5   8
ATOM      8  C   UNL A   1      30.815  25.964  24.683  1.00  0.00     0.147 A 
ATOM      9  C   UNL A   1      31.535  23.791  24.934  1.00  0.00     0.120 A 
ATOM     10  C   UNL A   1      30.877  23.725  26.157  1.00  0.00     0.146 A 
ATOM     11  N   UNL A   1      31.493  24.911  24.179  1.00  0.00    -0.233 NA
ATOM     12  N   UNL A   1      30.131  24.745  26.654  1.00  0.00    -0.259 NA
ATOM     13  C   UNL A   1      30.132  25.871  25.890  1.00  0.00     0.145 A 
BRANCH   9  14
ATOM     14  S   UNL A   1      32.552  22.485  24.352  1.00  0.00    -0.068 SA
BRANCH  14  15
ATOM     15  C   UNL A   1      34.261  22.845  24.742  1.00  0.00     0.017 A 
ATOM     16  C   UNL A   1      34.234  22.878  27.324  1.00  0.00     0.045 C 
ATOM     17  C   UNL A   1      34.893  23.045  25.985  1.00  0.00    -0.037 A 
ATOM     18  C   UNL A   1      36.255  23.422  26.008  1.00  0.00     0.004 A 
ATOM     19  C   UNL A   1      37.002  23.549  24.839  1.00  0.00     0.000 A 
ATOM     20  C   UNL A   1      35.051  22.950  23.574  1.00  0.00     0.016 A 
ATOM     21  C   UNL A   1      36.402  23.293  23.618  1.00  0.00     0.001 A 
ENDBRANCH  14  15
ENDBRANCH   9  14
ENDBRANCH   5   8
ENDBRANCH   3   4
ENDBRANCH   2   3
ENDBRANCH   1   2
BRANCH   1  22
ATOM     22  C   UNL A   1      34.163  30.321  27.601  1.00  0.00     0.116 C 
BRANCH  22  23
ATOM     23  N   UNL A   1      34.882  31.259  28.448  1.00  0.00    -0.352 N 
ATOM     24  C   UNL A   1      36.029  31.047  29.202  1.00  0.00     0.251 C 
ATOM     25  H   UNL A   1      34.504  32.166  28.495  1.00  0.00     0.163 HD
ATOM     26  O   UNL A   1      36.430  31.886  29.991  1.00  0.00    -0.269 OA
BRANCH  24  27
ATOM     27  C   UNL A   1      36.853  29.833  28.942  1.00  0.00     0.039 A 
ATOM     28  C   UNL A   1      37.119  28.996  30.033  1.00  0.00     0.014 A 
ATOM     29  C   UNL A   1      37.530  29.642  27.741  1.00  0.00     0.014 A 
ATOM     30  C   UNL A   1      38.224  28.145  29.998  1.00  0.00     0.010 A 
ATOM     31  C   UNL A   1      38.679  28.873  27.734  1.00  0.00     0.010 A 
ATOM     32  C   UNL A   1      39.062  28.176  28.883  1.00  0.00    -0.014 A 
BRANCH  32  33
ATOM     33  C   UNL A   1      40.426  27.656  28.900  1.00  0.00     0.031 A 
ATOM     34  C   UNL A   1      40.739  26.285  28.458  1.00  0.00     0.074 A 
ATOM     35  C   UNL A   1      41.441  28.455  29.293  1.00  0.00     0.049 A 
ATOM     36  N   UNL A   1      41.700  25.576  28.949  1.00  0.00    -0.248 NA
ATOM     37  C   UNL A   1      39.973  25.593  27.428  1.00  0.00     0.031 C 
ATOM     38  C   UNL A   1      42.874  28.196  29.170  1.00  0.00     0.029 A 
ATOM     39  N   UNL A   1      41.362  29.578  30.109  1.00  0.00    -0.354 N 
ATOM     40  C   UNL A   1      41.877  24.500  28.115  1.00  0.00     0.074 A 
ATOM     41  C   UNL A   1      40.729  24.507  27.234  1.00  0.00     0.031 C 
ATOM     42  C   UNL A   1      43.528  28.948  30.069  1.00  0.00     0.029 A 
ATOM     43  C   UNL A   1      42.532  29.620  30.884  1.00  0.00     0.049 A 
ATOM     44  H   UNL A   1      40.621  30.226  30.138  1.00  0.00     0.167 HD
ATOM     45  C   UNL A   1      43.046  23.802  28.131  1.00  0.00     0.034 A 
ATOM     46  C   UNL A   1      42.472  29.596  32.246  1.00  0.00     0.034 A 
ATOM     47  C   UNL A   1      44.012  24.353  29.077  1.00  0.00     0.049 A 
ATOM     48  C   UNL A   1      43.181  28.408  32.859  1.00  0.00     0.074 A 
ATOM     49  C   UNL A   1      45.127  25.159  28.917  1.00  0.00     0.029 A 
ATOM     50  N   UNL A   1      43.741  24.327  30.441  1.00  0.00    -0.354 N 
ATOM     51  N   UNL A   1      43.556  27.352  32.189  1.00  0.00    -0.248 NA
ATOM     52  C   UNL A   1      43.508  28.307  34.276  1.00  0.00     0.031 C 
ATOM     53  C   UNL A   1      45.510  25.643  30.194  1.00  0.00     0.029 A 
ATOM     54  C   UNL A   1      44.643  25.115  31.133  1.00  0.00     0.049 A 
ATOM     55  H   UNL A   1      43.009  23.817  30.857  1.00  0.00     0.167 HD
ATOM     56  C   UNL A   1      44.136  26.440  33.039  1.00  0.00     0.074 A 
ATOM     57  C   UNL A   1      44.101  27.101  34.332  1.00  0.00     0.031 C 
ATOM     58  C   UNL A   1      44.580  25.225  32.587  1.00  0.00     0.034 A 
BRANCH  45  59
ATOM     59  C   UNL A   1      43.405  22.827  27.039  1.00  0.00     0.023 A 
ATOM     60  C   UNL A   1      42.854  21.530  27.041  1.00  0.00     0.031 A 
ATOM     61  C   UNL A   1      44.304  23.111  25.993  1.00  0.00     0.131 A 
ATOM     62  C   UNL A   1      43.274  20.556  26.118  1.00  0.00     0.055 A 
ATOM     63  C   UNL A   1      44.764  22.128  25.106  1.00  0.00     0.041 A 
ATOM     64  F   UNL A   1      44.758  24.357  25.788  1.00  0.00    -0.206 F 
ATOM     65  C   UNL A   1      44.259  20.837  25.176  1.00  0.00     0.022 A 
BRANCH  62  66
ATOM     66  S   UNL A   1      42.506  18.913  26.166  1.00  0.00     0.124 S 
ATOM     67  O   UNL A   1      43.339  18.153  25.240  1.00  0.00    -0.237 OA
ATOM     68  O   UNL A   1      42.620  18.560  27.576  1.00  0.00    -0.237 OA
ATOM     69  O   UNL A   1      41.141  19.164  25.702  1.00  0.00    -0.744 OA
ENDBRANCH  62  66
ENDBRANCH  45  59
BRANCH  46  70
ATOM     70  C   UNL A   1      41.257  30.274  32.786  1.00  0.00     0.023 A 
ATOM     71  C   UNL A   1      41.228  31.685  32.702  1.00  0.00     0.031 A 
ATOM     72  C   UNL A   1      40.039  29.604  32.957  1.00  0.00     0.131 A 
ATOM     73  C   UNL A   1      40.007  32.362  32.591  1.00  0.00     0.055 A 
ATOM     74  C   UNL A   1      38.821  30.297  32.935  1.00  0.00     0.041 A 
ATOM     75  F   UNL A   1      39.997  28.265  33.014  1.00  0.00    -0.206 F 
ATOM     76  C   UNL A   1      38.798  31.675  32.701  1.00  0.00     0.022 A 
BRANCH  73  77
ATOM     77  S   UNL A   1      40.025  34.082  31.990  1.00  0.00     0.124 S 
ATOM     78  O   UNL A   1      40.176  33.900  30.551  1.00  0.00    -0.237 OA
ATOM     79  O   UNL A   1      38.731  34.591  32.440  1.00  0.00    -0.237 OA
ATOM     80  O   UNL A   1      41.170  34.675  32.678  1.00  0.00    -0.744 OA
ENDBRANCH  73  77
ENDBRANCH  46  70
BRANCH  58  81
ATOM     81  C   UNL A   1      45.085  24.057  33.422  1.00  0.00     0.023 A 
ATOM     82  C   UNL A   1      46.405  23.925  33.875  1.00  0.00     0.031 A 
ATOM     83  C   UNL A   1      44.201  23.028  33.847  1.00  0.00     0.131 A 
ATOM     84  C   UNL A   1      46.817  22.810  34.633  1.00  0.00     0.055 A 
ATOM     85  C   UNL A   1      44.595  21.956  34.655  1.00  0.00     0.041 A 
ATOM     86  F   UNL A   1      42.904  23.017  33.506  1.00  0.00    -0.206 F 
ATOM     87  C   UNL A   1      45.917  21.834  35.044  1.00  0.00     0.022 A 
BRANCH  84  88
ATOM     88  S   UNL A   1      48.578  22.643  35.026  1.00  0.00     0.124 S 
ATOM     89  O   UNL A   1      48.854  21.274  34.597  1.00  0.00    -0.237 OA
ATOM     90  O   UNL A   1      49.181  23.694  34.213  1.00  0.00    -0.237 OA
ATOM     91  O   UNL A   1      48.633  22.864  36.469  1.00  0.00    -0.744 OA
ENDBRANCH  84  88
ENDBRANCH  58  81
ENDBRANCH  32  33
ENDBRANCH  24  27
ENDBRANCH  22  23
ENDBRANCH   1  22
TORSDOF 16
ENDMDL
MODEL 3
REMARK VINA RESULT:     -12.2      4.309     10.254
REMARK SMILES Cc1ccccc1Sc1cncc(C(=O)NCCCCNC(=O)c2ccc(-c3c4nc(c(-c5cc(S(=O)(=O)[O-])ccc5F)c5ccc([nH]5)c(-c5cc(S(=O)(=O)[O-])ccc5F)c5nc(c(-c6cc(S(=O)(=O)[O-])ccc6F)c6ccc3[nH]6)C=C5)C=C4)cc2)n1
REMARK SMILES IDX 19 1 18 2 17 3 16 4 14 5 15 6 13 8 9 9 10 10 87 11 11 12
REMARK SMILES IDX 12 13 8 14 7 15 1 16 2 17 3 18 4 19 6 20 5 21 20 22 21 23
REMARK SMILES IDX 22 24 23 26 24 27 25 28 86 29 26 30 85 31 27 32 28 33 29 34
REMARK SMILES IDX 79 35 30 36 84 37 78 38 80 39 31 40 83 41 77 42 76 43 32 45
REMARK SMILES IDX 64 46 44 47 63 48 45 49 48 50 62 51 81 52 46 53 47 54 61 56
REMARK SMILES IDX 82 57 49 58 33 59 34 60 42 61 35 62 41 63 43 64 40 65 36 66
REMARK SMILES IDX 37 67 38 68 39 69 65 70 66 71 74 72 67 73 73 74 75 75 72 76
REMARK SMILES IDX 68 77 69 78 70 79 71 80 50 81 51 82 59 83 52 84 58 85 60 86
REMARK SMILES IDX 57 87 53 88 54 89 55 90 56 91
REMARK H PARENT 16 7 21 25 80 44 48 55
REMARK Flexibility Score: inf
ROOT
ATOM      1  C   UNL A   1      32.980  30.788  27.355  1.00  0.00     0.023 C 
ENDROOT
BRANCH   1   2
ATOM      2  C   UNL A   1      33.096  29.481  26.558  1.00  0.00     0.023 C 
BRANCH   2   3
ATOM      3  C   UNL A   1      32.365  29.475  25.208  1.00  0.00     0.116 C 
BRANCH   3   4
ATOM      4  N   UNL A   1      33.297  29.450  24.078  1.00  0.00    -0.351 N 
ATOM      5  C   UNL A   1      33.727  28.424  23.266  1.00  0.00     0.271 C 
ATOM      6  O   UNL A   1      34.516  28.695  22.357  1.00  0.00    -0.267 OA
ATOM      7  H   UNL A   1      33.688  30.328  23.858  1.00  0.00     0.163 HD
BRANCH   5   8
ATOM      8  C   UNL A   1      33.277  27.012  23.425  1.00  0.00     0.147 A 
ATOM      9  C   UNL A   1      33.258  25.022  24.583  1.00  0.00     0.120 A 
ATOM     10  C   UNL A   1      32.320  24.521  23.686  1.00  0.00     0.146 A 
ATOM     11  N   UNL A   1      33.757  26.270  24.445  1.00  0.00    -0.233 NA
ATOM     12  N   UNL A   1      31.874  25.220  22.612  1.00  0.00    -0.259 NA
ATOM     13  C   UNL A   1      32.367  26.485  22.515  1.00  0.00     0.145 A 
BRANCH   9  14
ATOM     14  S   UNL A   1      33.760  24.123  26.003  1.00  0.00    -0.068 SA
BRANCH  14  15
ATOM     15  C   UNL A   1      35.161  23.090  25.587  1.00  0.00     0.017 A 
ATOM     16  C   UNL A   1      34.015  20.970  24.657  1.00  0.00     0.045 C 
ATOM     17  C   UNL A   1      35.209  21.777  25.080  1.00  0.00    -0.037 A 
ATOM     18  C   UNL A   1      36.466  21.145  24.934  1.00  0.00     0.004 A 
ATOM     19  C   UNL A   1      37.657  21.804  25.229  1.00  0.00     0.000 A 
ATOM     20  C   UNL A   1      36.387  23.744  25.848  1.00  0.00     0.016 A 
ATOM     21  C   UNL A   1      37.618  23.115  25.669  1.00  0.00     0.001 A 
ENDBRANCH  14  15
ENDBRANCH   9  14
ENDBRANCH   5   8
ENDBRANCH   3   4
ENDBRANCH   2   3
ENDBRANCH   1   2
BRANCH   1  22
ATOM     22  C   UNL A   1      34.270  31.600  27.432  1.00  0.00     0.116 C 
BRANCH  22  23
ATOM     23  N   UNL A   1      34.635  32.096  28.749  1.00  0.00    -0.352 N 
ATOM     24  C   UNL A   1      35.418  31.487  29.721  1.00  0.00     0.251 C 
ATOM     25  H   UNL A   1      34.279  32.982  28.984  1.00  0.00     0.163 HD
ATOM     26  O   UNL A   1      35.508  31.955  30.844  1.00  0.00    -0.269 OA
BRANCH  24  27
ATOM     27  C   UNL A   1      36.264  30.319  29.344  1.00  0.00     0.039 A 
ATOM     28  C   UNL A   1      36.717  29.497  30.384  1.00  0.00     0.014 A 
ATOM     29  C   UNL A   1      36.785  30.167  28.062  1.00  0.00     0.014 A 
ATOM     30  C   UNL A   1      37.851  28.707  30.195  1.00  0.00     0.010 A 
ATOM     31  C   UNL A   1      37.962  29.462  27.896  1.00  0.00     0.010 A 
ATOM     32  C   UNL A   1      38.531  28.785  28.978  1.00  0.00    -0.014 A 
BRANCH  32  33
ATOM     33  C   UNL A   1      39.911  28.341  28.810  1.00  0.00     0.031 A 
ATOM     34  C   UNL A   1      40.242  26.934  28.521  1.00  0.00     0.074 A 
ATOM     35  C   UNL A   1      40.917  29.239  28.881  1.00  0.00     0.049 A 
ATOM     36  N   UNL A   1      41.328  26.358  28.918  1.00  0.00    -0.248 NA
ATOM     37  C   UNL A   1      39.358  26.052  27.769  1.00  0.00     0.031 C 
ATOM     38  C   UNL A   1      42.319  29.033  28.526  1.00  0.00     0.029 A 
ATOM     39  N   UNL A   1      40.901  30.472  29.524  1.00  0.00    -0.354 N 
ATOM     40  C   UNL A   1      41.433  25.173  28.231  1.00  0.00     0.074 A 
ATOM     41  C   UNL A   1      40.147  24.987  27.594  1.00  0.00     0.031 C 
ATOM     42  C   UNL A   1      43.066  29.947  29.163  1.00  0.00     0.029 A 
ATOM     43  C   UNL A   1      42.187  30.691  30.047  1.00  0.00     0.049 A 
ATOM     44  H   UNL A   1      40.131  31.080  29.599  1.00  0.00     0.167 HD
ATOM     45  C   UNL A   1      42.635  24.543  28.125  1.00  0.00     0.034 A 
ATOM     46  C   UNL A   1      42.377  30.879  31.384  1.00  0.00     0.034 A 
ATOM     47  C   UNL A   1      43.711  25.281  28.778  1.00  0.00     0.049 A 
ATOM     48  C   UNL A   1      43.274  29.837  32.016  1.00  0.00     0.074 A 
ATOM     49  C   UNL A   1      44.715  26.104  28.292  1.00  0.00     0.029 A 
ATOM     50  N   UNL A   1      43.696  25.458  30.158  1.00  0.00    -0.354 N 
ATOM     51  N   UNL A   1      43.601  28.709  31.449  1.00  0.00    -0.248 NA
ATOM     52  C   UNL A   1      43.860  29.977  33.344  1.00  0.00     0.031 C 
ATOM     53  C   UNL A   1      45.285  26.801  29.387  1.00  0.00     0.029 A 
ATOM     54  C   UNL A   1      44.645  26.387  30.542  1.00  0.00     0.049 A 
ATOM     55  H   UNL A   1      43.093  24.986  30.776  1.00  0.00     0.167 HD
ATOM     56  C   UNL A   1      44.393  27.970  32.295  1.00  0.00     0.074 A 
ATOM     57  C   UNL A   1      44.543  28.825  33.461  1.00  0.00     0.031 C 
ATOM     58  C   UNL A   1      44.840  26.722  31.949  1.00  0.00     0.034 A 
BRANCH  45  59
ATOM     59  C   UNL A   1      42.863  23.426  27.139  1.00  0.00     0.023 A 
ATOM     60  C   UNL A   1      42.274  22.163  27.352  1.00  0.00     0.031 A 
ATOM     61  C   UNL A   1      43.673  23.540  25.993  1.00  0.00     0.131 A 
ATOM     62  C   UNL A   1      42.578  21.067  26.527  1.00  0.00     0.055 A 
ATOM     63  C   UNL A   1      44.020  22.437  25.201  1.00  0.00     0.041 A 
ATOM     64  F   UNL A   1      44.146  24.731  25.593  1.00  0.00    -0.206 F 
ATOM     65  C   UNL A   1      43.483  21.187  25.476  1.00  0.00     0.022 A 
BRANCH  62  66
ATOM     66  S   UNL A   1      41.766  19.476  26.848  1.00  0.00     0.124 S 
ATOM     67  O   UNL A   1      42.901  18.584  27.058  1.00  0.00    -0.237 OA
ATOM     68  O   UNL A   1      40.954  19.776  28.023  1.00  0.00    -0.237 OA
ATOM     69  O   UNL A   1      41.006  19.230  25.622  1.00  0.00    -0.744 OA
ENDBRANCH  62  66
ENDBRANCH  45  59
BRANCH  46  70
ATOM     70  C   UNL A   1      41.231  31.575  32.041  1.00  0.00     0.023 A 
ATOM     71  C   UNL A   1      40.537  30.851  33.037  1.00  0.00     0.031 A 
ATOM     72  C   UNL A   1      41.096  32.969  32.030  1.00  0.00     0.131 A 
ATOM     73  C   UNL A   1      39.906  31.525  34.091  1.00  0.00     0.055 A 
ATOM     74  C   UNL A   1      40.386  33.635  33.039  1.00  0.00     0.041 A 
ATOM     75  F   UNL A   1      41.752  33.713  31.129  1.00  0.00    -0.206 F 
ATOM     76  C   UNL A   1      39.831  32.918  34.102  1.00  0.00     0.022 A 
BRANCH  73  77
ATOM     77  S   UNL A   1      39.471  30.577  35.584  1.00  0.00     0.124 S 
ATOM     78  O   UNL A   1      40.472  29.517  35.574  1.00  0.00    -0.237 OA
ATOM     79  O   UNL A   1      39.604  31.575  36.645  1.00  0.00    -0.237 OA
ATOM     80  O   UNL A   1      38.095  30.154  35.335  1.00  0.00    -0.744 OA
ENDBRANCH  73  77
ENDBRANCH  46  70
BRANCH  58  81
ATOM     81  C   UNL A   1      45.575  25.726  32.834  1.00  0.00     0.023 A 
ATOM     82  C   UNL A   1      44.946  24.702  33.557  1.00  0.00     0.031 A 
ATOM     83  C   UNL A   1      46.992  25.747  32.937  1.00  0.00     0.131 A 
ATOM     84  C   UNL A   1      45.680  23.819  34.375  1.00  0.00     0.055 A 
ATOM     85  C   UNL A   1      47.726  24.829  33.695  1.00  0.00     0.041 A 
ATOM     86  F   UNL A   1      47.739  26.658  32.296  1.00  0.00    -0.206 F 
ATOM     87  C   UNL A   1      47.069  23.861  34.433  1.00  0.00     0.022 A 
BRANCH  84  88
ATOM     88  S   UNL A   1      44.765  22.639  35.403  1.00  0.00     0.124 S 
ATOM     89  O   UNL A   1      43.380  22.963  35.072  1.00  0.00    -0.237 OA
ATOM     90  O   UNL A   1      45.249  21.354  34.909  1.00  0.00    -0.237 OA
ATOM     91  O   UNL A   1      45.175  22.976  36.764  1.00  0.00    -0.744 OA
ENDBRANCH  84  88
ENDBRANCH  58  81
ENDBRANCH  32  33
ENDBRANCH  24  27
ENDBRANCH  22  23
ENDBRANCH   1  22
TORSDOF 16
ENDMDL
