MODEL 1
REMARK VINA RESULT:     -10.0      0.000      0.000
REMARK SMILES CC(C)CN(C)/C=C\C(=O)NCCCCNC(=O)c1ccc(-c2c3nc(c(-c4cc(S(=O)(=O)[O-])ccc4F)c4ccc([nH]4)c(-c4cc(S(=O)(=O)[O-])ccc4F)c4nc(c(-c5cc(S(=O)(=O)[O-])ccc5F)c5ccc2[nH]5)C=C4)C=C3)cc1
REMARK SMILES IDX 13 1 12 2 11 3 9 4 10 5 8 7 7 8 5 9 6 10 4 11 2 12 1 13 3 14
REMARK SMILES IDX 14 15 15 16 16 17 17 18 18 20 19 21 20 22 81 23 21 24 80 25
REMARK SMILES IDX 22 26 23 27 24 28 74 29 25 30 79 31 73 32 75 33 26 34 78 35
REMARK SMILES IDX 72 36 71 37 27 39 59 40 39 41 58 42 40 43 43 44 57 45 76 46
REMARK SMILES IDX 41 47 42 48 56 50 77 51 44 52 28 53 29 54 37 55 30 56 36 57
REMARK SMILES IDX 38 58 35 59 31 60 32 61 33 62 34 63 60 64 61 65 69 66 62 67
REMARK SMILES IDX 68 68 70 69 67 70 63 71 64 72 65 73 66 74 45 75 46 76 54 77
REMARK SMILES IDX 47 78 53 79 55 80 52 81 48 82 49 83 50 84 51 85
REMARK H PARENT 11 6 16 19 75 38 43 49
REMARK Flexibility Score: inf
ROOT
ATOM      1  C   UNL A   1      31.803  27.776  26.613  1.00  0.00     0.023 C 
ENDROOT
BRANCH   1   2
ATOM      2  C   UNL A   1      31.218  26.736  25.655  1.00  0.00     0.116 C 
BRANCH   2   3
ATOM      3  N   UNL A   1      31.590  26.861  24.255  1.00  0.00    -0.353 N 
ATOM      4  C   UNL A   1      31.193  26.114  23.184  1.00  0.00     0.245 C 
ATOM      5  O   UNL A   1      31.314  26.560  22.044  1.00  0.00    -0.270 OA
ATOM      6  H   UNL A   1      32.218  27.592  24.051  1.00  0.00     0.163 HD
BRANCH   4   7
ATOM      7  C   UNL A   1      30.597  24.774  23.377  1.00  0.00     0.088 C 
ATOM      8  C   UNL A   1      31.261  23.622  23.554  1.00  0.00     0.086 C 
BRANCH   8   9
ATOM      9  N   UNL A   1      32.620  23.328  23.603  1.00  0.00    -0.380 N 
ATOM     10  C   UNL A   1      33.342  23.178  22.331  1.00  0.00     0.143 C 
BRANCH   9  11
ATOM     11  C   UNL A   1      33.230  22.735  24.808  1.00  0.00     0.118 C 
BRANCH  11  12
ATOM     12  C   UNL A   1      33.637  23.651  25.952  1.00  0.00     0.002 C 
ATOM     13  C   UNL A   1      34.499  22.908  26.968  1.00  0.00     0.009 C 
ATOM     14  C   UNL A   1      34.461  24.787  25.310  1.00  0.00     0.009 C 
ENDBRANCH  11  12
ENDBRANCH   9  11
ENDBRANCH   8   9
ENDBRANCH   4   7
ENDBRANCH   2   3
ENDBRANCH   1   2
BRANCH   1  15
ATOM     15  C   UNL A   1      33.309  27.699  26.872  1.00  0.00     0.023 C 
BRANCH  15  16
ATOM     16  C   UNL A   1      34.102  28.648  26.001  1.00  0.00     0.116 C 
BRANCH  16  17
ATOM     17  N   UNL A   1      33.829  30.041  26.341  1.00  0.00    -0.352 N 
ATOM     18  C   UNL A   1      34.397  30.827  27.312  1.00  0.00     0.251 C 
ATOM     19  H   UNL A   1      33.136  30.479  25.796  1.00  0.00     0.163 HD
ATOM     20  O   UNL A   1      33.883  31.885  27.630  1.00  0.00    -0.269 OA
BRANCH  18  21
ATOM     21  C   UNL A   1      35.633  30.345  27.951  1.00  0.00     0.039 A 
ATOM     22  C   UNL A   1      35.569  29.741  29.205  1.00  0.00     0.014 A 
ATOM     23  C   UNL A   1      36.844  30.460  27.266  1.00  0.00     0.014 A 
ATOM     24  C   UNL A   1      36.733  29.212  29.753  1.00  0.00     0.010 A 
ATOM     25  C   UNL A   1      37.959  29.803  27.740  1.00  0.00     0.010 A 
ATOM     26  C   UNL A   1      37.926  29.216  29.010  1.00  0.00    -0.014 A 
BRANCH  26  27
ATOM     27  C   UNL A   1      39.185  28.683  29.567  1.00  0.00     0.031 A 
ATOM     28  C   UNL A   1      39.749  29.306  30.815  1.00  0.00     0.074 A 
ATOM     29  C   UNL A   1      39.828  27.696  28.917  1.00  0.00     0.049 A 
ATOM     30  N   UNL A   1      40.869  29.044  31.435  1.00  0.00    -0.248 NA
ATOM     31  C   UNL A   1      38.975  30.404  31.420  1.00  0.00     0.031 C 
ATOM     32  C   UNL A   1      39.384  27.079  27.663  1.00  0.00     0.029 A 
ATOM     33  N   UNL A   1      40.988  27.037  29.218  1.00  0.00    -0.354 N 
ATOM     34  C   UNL A   1      40.939  29.958  32.481  1.00  0.00     0.074 A 
ATOM     35  C   UNL A   1      39.804  30.842  32.353  1.00  0.00     0.031 C 
ATOM     36  C   UNL A   1      40.235  26.094  27.335  1.00  0.00     0.029 A 
ATOM     37  C   UNL A   1      41.309  26.048  28.319  1.00  0.00     0.049 A 
ATOM     38  H   UNL A   1      41.541  27.251  30.004  1.00  0.00     0.167 HD
ATOM     39  C   UNL A   1      41.846  30.024  33.483  1.00  0.00     0.034 A 
ATOM     40  C   UNL A   1      42.358  25.205  28.299  1.00  0.00     0.034 A 
ATOM     41  C   UNL A   1      42.950  29.107  33.594  1.00  0.00     0.049 A 
ATOM     42  C   UNL A   1      43.362  25.299  29.420  1.00  0.00     0.074 A 
ATOM     43  C   UNL A   1      43.908  29.024  34.586  1.00  0.00     0.029 A 
ATOM     44  N   UNL A   1      43.244  28.110  32.669  1.00  0.00    -0.354 N 
ATOM     45  N   UNL A   1      43.385  26.127  30.441  1.00  0.00    -0.248 NA
ATOM     46  C   UNL A   1      44.470  24.339  29.395  1.00  0.00     0.031 C 
ATOM     47  C   UNL A   1      44.823  28.032  34.223  1.00  0.00     0.029 A 
ATOM     48  C   UNL A   1      44.388  27.430  33.051  1.00  0.00     0.049 A 
ATOM     49  H   UNL A   1      42.716  27.917  31.860  1.00  0.00     0.167 HD
ATOM     50  C   UNL A   1      44.494  25.765  31.198  1.00  0.00     0.074 A 
ATOM     51  C   UNL A   1      45.101  24.634  30.523  1.00  0.00     0.031 C 
ATOM     52  C   UNL A   1      44.970  26.311  32.348  1.00  0.00     0.034 A 
BRANCH  39  53
ATOM     53  C   UNL A   1      41.682  31.128  34.502  1.00  0.00     0.023 A 
ATOM     54  C   UNL A   1      40.639  31.115  35.448  1.00  0.00     0.031 A 
ATOM     55  C   UNL A   1      42.548  32.234  34.498  1.00  0.00     0.131 A 
ATOM     56  C   UNL A   1      40.436  32.223  36.284  1.00  0.00     0.055 A 
ATOM     57  C   UNL A   1      42.396  33.291  35.398  1.00  0.00     0.041 A 
ATOM     58  F   UNL A   1      43.545  32.320  33.603  1.00  0.00    -0.206 F 
ATOM     59  C   UNL A   1      41.325  33.299  36.286  1.00  0.00     0.022 A 
BRANCH  56  60
ATOM     60  S   UNL A   1      38.900  32.311  37.245  1.00  0.00     0.124 S 
ATOM     61  O   UNL A   1      38.251  33.482  36.657  1.00  0.00    -0.237 OA
ATOM     62  O   UNL A   1      38.274  31.025  36.961  1.00  0.00    -0.237 OA
ATOM     63  O   UNL A   1      39.363  32.492  38.619  1.00  0.00    -0.744 OA
ENDBRANCH  56  60
ENDBRANCH  39  53
BRANCH  40  64
ATOM     64  C   UNL A   1      42.506  24.208  27.201  1.00  0.00     0.023 A 
ATOM     65  C   UNL A   1      41.923  22.935  27.296  1.00  0.00     0.031 A 
ATOM     66  C   UNL A   1      43.251  24.505  26.046  1.00  0.00     0.131 A 
ATOM     67  C   UNL A   1      42.136  21.990  26.280  1.00  0.00     0.055 A 
ATOM     68  C   UNL A   1      43.411  23.582  25.011  1.00  0.00     0.041 A 
ATOM     69  F   UNL A   1      43.825  25.711  25.899  1.00  0.00    -0.206 F 
ATOM     70  C   UNL A   1      42.862  22.310  25.131  1.00  0.00     0.022 A 
BRANCH  67  71
ATOM     71  S   UNL A   1      41.522  20.300  26.525  1.00  0.00     0.124 S 
ATOM     72  O   UNL A   1      42.111  19.955  27.814  1.00  0.00    -0.237 OA
ATOM     73  O   UNL A   1      40.076  20.498  26.511  1.00  0.00    -0.237 OA
ATOM     74  O   UNL A   1      42.061  19.574  25.377  1.00  0.00    -0.744 OA
ENDBRANCH  67  71
ENDBRANCH  40  64
BRANCH  52  75
ATOM     75  C   UNL A   1      46.181  25.655  32.963  1.00  0.00     0.023 A 
ATOM     76  C   UNL A   1      46.064  24.601  33.883  1.00  0.00     0.031 A 
ATOM     77  C   UNL A   1      47.471  26.094  32.614  1.00  0.00     0.131 A 
ATOM     78  C   UNL A   1      47.216  24.061  34.471  1.00  0.00     0.055 A 
ATOM     79  C   UNL A   1      48.616  25.503  33.147  1.00  0.00     0.041 A 
ATOM     80  F   UNL A   1      47.639  27.100  31.740  1.00  0.00    -0.206 F 
ATOM     81  C   UNL A   1      48.491  24.489  34.093  1.00  0.00     0.022 A 
BRANCH  78  82
ATOM     82  S   UNL A   1      47.022  22.861  35.816  1.00  0.00     0.124 S 
ATOM     83  O   UNL A   1      47.912  21.784  35.391  1.00  0.00    -0.237 OA
ATOM     84  O   UNL A   1      47.456  23.624  36.981  1.00  0.00    -0.237 OA
ATOM     85  O   UNL A   1      45.597  22.537  35.782  1.00  0.00    -0.744 OA
ENDBRANCH  78  82
ENDBRANCH  52  75
ENDBRANCH  26  27
ENDBRANCH  18  21
ENDBRANCH  16  17
ENDBRANCH  15  16
ENDBRANCH   1  15
TORSDOF 17
ENDMDL
MODEL 2
REMARK VINA RESULT:      -9.9      3.390      9.164
REMARK SMILES CC(C)CN(C)/C=C\C(=O)NCCCCNC(=O)c1ccc(-c2c3nc(c(-c4cc(S(=O)(=O)[O-])ccc4F)c4ccc([nH]4)c(-c4cc(S(=O)(=O)[O-])ccc4F)c4nc(c(-c5cc(S(=O)(=O)[O-])ccc5F)c5ccc2[nH]5)C=C4)C=C3)cc1
REMARK SMILES IDX 13 1 12 2 11 3 9 4 10 5 8 7 7 8 5 9 6 10 4 11 2 12 1 13 3 14
REMARK SMILES IDX 14 15 15 16 16 17 17 18 18 20 19 21 20 22 81 23 21 24 80 25
REMARK SMILES IDX 22 26 23 27 24 28 74 29 25 30 79 31 73 32 75 33 26 34 78 35
REMARK SMILES IDX 72 36 71 37 27 39 59 40 39 41 58 42 40 43 43 44 57 45 76 46
REMARK SMILES IDX 41 47 42 48 56 50 77 51 44 52 28 53 29 54 37 55 30 56 36 57
REMARK SMILES IDX 38 58 35 59 31 60 32 61 33 62 34 63 60 64 61 65 69 66 62 67
REMARK SMILES IDX 68 68 70 69 67 70 63 71 64 72 65 73 66 74 45 75 46 76 54 77
REMARK SMILES IDX 47 78 53 79 55 80 52 81 48 82 49 83 50 84 51 85
REMARK H PARENT 11 6 16 19 75 38 43 49
REMARK Flexibility Score: inf
ROOT
ATOM      1  C   UNL A   1      31.787  30.723  26.183  1.00  0.00     0.023 C 
ENDROOT
BRANCH   1   2
ATOM      2  C   UNL A   1      33.127  30.040  26.468  1.00  0.00     0.116 C 
BRANCH   2   3
ATOM      3  N   UNL A   1      33.767  29.376  25.345  1.00  0.00    -0.353 N 
ATOM      4  C   UNL A   1      33.536  28.133  24.829  1.00  0.00     0.245 C 
ATOM      5  O   UNL A   1      33.901  27.863  23.686  1.00  0.00    -0.270 OA
ATOM      6  H   UNL A   1      34.467  29.898  24.890  1.00  0.00     0.163 HD
BRANCH   4   7
ATOM      7  C   UNL A   1      32.831  27.104  25.624  1.00  0.00     0.088 C 
ATOM      8  C   UNL A   1      31.625  26.577  25.362  1.00  0.00     0.086 C 
BRANCH   8   9
ATOM      9  N   UNL A   1      30.708  26.810  24.342  1.00  0.00    -0.380 N 
ATOM     10  C   UNL A   1      30.489  25.744  23.353  1.00  0.00     0.143 C 
BRANCH   9  11
ATOM     11  C   UNL A   1      30.315  28.181  23.967  1.00  0.00     0.118 C 
BRANCH  11  12
ATOM     12  C   UNL A   1      29.555  28.399  22.667  1.00  0.00     0.002 C 
ATOM     13  C   UNL A   1      28.070  28.623  22.932  1.00  0.00     0.009 C 
ATOM     14  C   UNL A   1      30.163  29.667  22.032  1.00  0.00     0.009 C 
ENDBRANCH  11  12
ENDBRANCH   9  11
ENDBRANCH   8   9
ENDBRANCH   4   7
ENDBRANCH   2   3
ENDBRANCH   1   2
BRANCH   1  15
ATOM     15  C   UNL A   1      31.597  32.128  26.760  1.00  0.00     0.023 C 
BRANCH  15  16
ATOM     16  C   UNL A   1      32.885  32.726  27.282  1.00  0.00     0.116 C 
BRANCH  16  17
ATOM     17  N   UNL A   1      32.679  34.078  27.791  1.00  0.00    -0.352 N 
ATOM     18  C   UNL A   1      33.238  34.690  28.885  1.00  0.00     0.251 C 
ATOM     19  H   UNL A   1      32.049  34.631  27.275  1.00  0.00     0.163 HD
ATOM     20  O   UNL A   1      32.773  35.731  29.316  1.00  0.00    -0.269 OA
BRANCH  18  21
ATOM     21  C   UNL A   1      34.400  34.043  29.517  1.00  0.00     0.039 A 
ATOM     22  C   UNL A   1      35.687  34.406  29.126  1.00  0.00     0.014 A 
ATOM     23  C   UNL A   1      34.190  33.110  30.534  1.00  0.00     0.014 A 
ATOM     24  C   UNL A   1      36.772  33.850  29.796  1.00  0.00     0.010 A 
ATOM     25  C   UNL A   1      35.258  32.680  31.293  1.00  0.00     0.010 A 
ATOM     26  C   UNL A   1      36.560  33.007  30.900  1.00  0.00    -0.014 A 
BRANCH  26  27
ATOM     27  C   UNL A   1      37.686  32.382  31.623  1.00  0.00     0.031 A 
ATOM     28  C   UNL A   1      38.457  31.278  30.952  1.00  0.00     0.074 A 
ATOM     29  C   UNL A   1      37.960  32.772  32.881  1.00  0.00     0.049 A 
ATOM     30  N   UNL A   1      39.431  30.547  31.424  1.00  0.00    -0.248 NA
ATOM     31  C   UNL A   1      38.043  30.911  29.586  1.00  0.00     0.031 C 
ATOM     32  C   UNL A   1      37.221  33.793  33.631  1.00  0.00     0.029 A 
ATOM     33  N   UNL A   1      38.933  32.361  33.751  1.00  0.00    -0.354 N 
ATOM     34  C   UNL A   1      39.725  29.627  30.423  1.00  0.00     0.074 A 
ATOM     35  C   UNL A   1      38.764  29.826  29.364  1.00  0.00     0.031 C 
ATOM     36  C   UNL A   1      37.803  33.964  34.828  1.00  0.00     0.029 A 
ATOM     37  C   UNL A   1      38.917  33.032  34.951  1.00  0.00     0.049 A 
ATOM     38  H   UNL A   1      39.582  31.654  33.537  1.00  0.00     0.167 HD
ATOM     39  C   UNL A   1      40.735  28.728  30.376  1.00  0.00     0.034 A 
ATOM     40  C   UNL A   1      39.715  32.898  36.026  1.00  0.00     0.034 A 
ATOM     41  C   UNL A   1      41.693  28.577  31.441  1.00  0.00     0.049 A 
ATOM     42  C   UNL A   1      40.830  31.885  35.958  1.00  0.00     0.074 A 
ATOM     43  C   UNL A   1      42.797  27.748  31.499  1.00  0.00     0.029 A 
ATOM     44  N   UNL A   1      41.653  29.277  32.642  1.00  0.00    -0.354 N 
ATOM     45  N   UNL A   1      41.140  31.063  34.980  1.00  0.00    -0.248 NA
ATOM     46  C   UNL A   1      41.710  31.794  37.126  1.00  0.00     0.031 C 
ATOM     47  C   UNL A   1      43.378  27.889  32.763  1.00  0.00     0.029 A 
ATOM     48  C   UNL A   1      42.693  28.873  33.462  1.00  0.00     0.049 A 
ATOM     49  H   UNL A   1      40.983  29.959  32.877  1.00  0.00     0.167 HD
ATOM     50  C   UNL A   1      42.271  30.377  35.405  1.00  0.00     0.074 A 
ATOM     51  C   UNL A   1      42.597  30.897  36.719  1.00  0.00     0.031 C 
ATOM     52  C   UNL A   1      42.984  29.408  34.772  1.00  0.00     0.034 A 
BRANCH  39  53
ATOM     53  C   UNL A   1      40.827  27.843  29.154  1.00  0.00     0.023 A 
ATOM     54  C   UNL A   1      41.803  28.050  28.161  1.00  0.00     0.031 A 
ATOM     55  C   UNL A   1      39.896  26.810  28.952  1.00  0.00     0.131 A 
ATOM     56  C   UNL A   1      41.769  27.299  26.976  1.00  0.00     0.055 A 
ATOM     57  C   UNL A   1      39.926  26.004  27.812  1.00  0.00     0.041 A 
ATOM     58  F   UNL A   1      38.923  26.581  29.848  1.00  0.00    -0.206 F 
ATOM     59  C   UNL A   1      40.855  26.257  26.807  1.00  0.00     0.022 A 
BRANCH  56  60
ATOM     60  S   UNL A   1      42.823  27.817  25.594  1.00  0.00     0.124 S 
ATOM     61  O   UNL A   1      43.866  28.572  26.285  1.00  0.00    -0.237 OA
ATOM     62  O   UNL A   1      43.234  26.543  25.014  1.00  0.00    -0.237 OA
ATOM     63  O   UNL A   1      41.931  28.623  24.763  1.00  0.00    -0.744 OA
ENDBRANCH  56  60
ENDBRANCH  39  53
BRANCH  40  64
ATOM     64  C   UNL A   1      39.498  33.739  37.238  1.00  0.00     0.023 A 
ATOM     65  C   UNL A   1      38.920  33.201  38.398  1.00  0.00     0.031 A 
ATOM     66  C   UNL A   1      39.848  35.101  37.249  1.00  0.00     0.131 A 
ATOM     67  C   UNL A   1      38.661  34.030  39.501  1.00  0.00     0.055 A 
ATOM     68  C   UNL A   1      39.644  35.908  38.369  1.00  0.00     0.041 A 
ATOM     69  F   UNL A   1      40.413  35.667  36.169  1.00  0.00    -0.206 F 
ATOM     70  C   UNL A   1      39.035  35.375  39.500  1.00  0.00     0.022 A 
BRANCH  67  71
ATOM     71  S   UNL A   1      37.746  33.341  40.908  1.00  0.00     0.124 S 
ATOM     72  O   UNL A   1      38.489  32.114  41.171  1.00  0.00    -0.237 OA
ATOM     73  O   UNL A   1      37.880  34.400  41.903  1.00  0.00    -0.237 OA
ATOM     74  O   UNL A   1      36.398  33.155  40.376  1.00  0.00    -0.744 OA
ENDBRANCH  67  71
ENDBRANCH  40  64
BRANCH  52  75
ATOM     75  C   UNL A   1      44.208  28.888  35.482  1.00  0.00     0.023 A 
ATOM     76  C   UNL A   1      44.132  27.845  36.420  1.00  0.00     0.031 A 
ATOM     77  C   UNL A   1      45.469  29.447  35.209  1.00  0.00     0.131 A 
ATOM     78  C   UNL A   1      45.288  27.434  37.097  1.00  0.00     0.055 A 
ATOM     79  C   UNL A   1      46.627  28.983  35.832  1.00  0.00     0.041 A 
ATOM     80  F   UNL A   1      45.598  30.447  34.323  1.00  0.00    -0.206 F 
ATOM     81  C   UNL A   1      46.538  27.980  36.794  1.00  0.00     0.022 A 
BRANCH  78  82
ATOM     82  S   UNL A   1      45.120  26.246  38.456  1.00  0.00     0.124 S 
ATOM     83  O   UNL A   1      46.241  26.613  39.317  1.00  0.00    -0.237 OA
ATOM     84  O   UNL A   1      43.791  26.552  38.976  1.00  0.00    -0.237 OA
ATOM     85  O   UNL A   1      45.245  24.949  37.795  1.00  0.00    -0.744 OA
ENDBRANCH  78  82
ENDBRANCH  52  75
ENDBRANCH  26  27
ENDBRANCH  18  21
ENDBRANCH  16  17
ENDBRANCH  15  16
ENDBRANCH   1  15
TORSDOF 17
ENDMDL
MODEL 3
REMARK VINA RESULT:      -9.9      1.357      1.670
REMARK SMILES CC(C)CN(C)/C=C\C(=O)NCCCCNC(=O)c1ccc(-c2c3nc(c(-c4cc(S(=O)(=O)[O-])ccc4F)c4ccc([nH]4)c(-c4cc(S(=O)(=O)[O-])ccc4F)c4nc(c(-c5cc(S(=O)(=O)[O-])ccc5F)c5ccc2[nH]5)C=C4)C=C3)cc1
REMARK SMILES IDX 13 1 12 2 11 3 9 4 10 5 8 7 7 8 5 9 6 10 4 11 2 12 1 13 3 14
REMARK SMILES IDX 14 15 15 16 16 17 17 18 18 20 19 21 20 22 81 23 21 24 80 25
REMARK SMILES IDX 22 26 23 27 24 28 74 29 25 30 79 31 73 32 75 33 26 34 78 35
REMARK SMILES IDX 72 36 71 37 27 39 59 40 39 41 58 42 40 43 43 44 57 45 76 46
REMARK SMILES IDX 41 47 42 48 56 50 77 51 44 52 28 53 29 54 37 55 30 56 36 57
REMARK SMILES IDX 38 58 35 59 31 60 32 61 33 62 34 63 60 64 61 65 69 66 62 67
REMARK SMILES IDX 68 68 70 69 67 70 63 71 64 72 65 73 66 74 45 75 46 76 54 77
REMARK SMILES IDX 47 78 53 79 55 80 52 81 48 82 49 83 50 84 51 85
REMARK H PARENT 11 6 16 19 75 38 43 49
REMARK Flexibility Score: inf
ROOT
ATOM      1  C   UNL A   1      31.737  27.872  26.568  1.00  0.00     0.023 C 
ENDROOT
BRANCH   1   2
ATOM      2  C   UNL A   1      31.131  26.813  25.644  1.00  0.00     0.116 C 
BRANCH   2   3
ATOM      3  N   UNL A   1      31.599  26.808  24.268  1.00  0.00    -0.353 N 
ATOM      4  C   UNL A   1      31.244  25.987  23.237  1.00  0.00     0.245 C 
ATOM      5  O   UNL A   1      31.458  26.330  22.076  1.00  0.00    -0.270 OA
ATOM      6  H   UNL A   1      32.267  27.497  24.048  1.00  0.00     0.163 HD
BRANCH   4   7
ATOM      7  C   UNL A   1      30.586  24.688  23.497  1.00  0.00     0.088 C 
ATOM      8  C   UNL A   1      31.193  23.505  23.674  1.00  0.00     0.086 C 
BRANCH   8   9
ATOM      9  N   UNL A   1      32.534  23.135  23.665  1.00  0.00    -0.380 N 
ATOM     10  C   UNL A   1      33.196  22.968  22.363  1.00  0.00     0.143 C 
BRANCH   9  11
ATOM     11  C   UNL A   1      33.157  22.489  24.835  1.00  0.00     0.118 C 
BRANCH  11  12
ATOM     12  C   UNL A   1      33.731  23.364  25.939  1.00  0.00     0.002 C 
ATOM     13  C   UNL A   1      34.303  24.659  25.371  1.00  0.00     0.009 C 
ATOM     14  C   UNL A   1      32.549  23.690  26.876  1.00  0.00     0.009 C 
ENDBRANCH  11  12
ENDBRANCH   9  11
ENDBRANCH   8   9
ENDBRANCH   4   7
ENDBRANCH   2   3
ENDBRANCH   1   2
BRANCH   1  15
ATOM     15  C   UNL A   1      33.233  27.746  26.867  1.00  0.00     0.023 C 
BRANCH  15  16
ATOM     16  C   UNL A   1      34.079  28.675  26.025  1.00  0.00     0.116 C 
BRANCH  16  17
ATOM     17  N   UNL A   1      33.823  30.074  26.352  1.00  0.00    -0.352 N 
ATOM     18  C   UNL A   1      34.396  30.861  27.320  1.00  0.00     0.251 C 
ATOM     19  H   UNL A   1      33.141  30.518  25.798  1.00  0.00     0.163 HD
ATOM     20  O   UNL A   1      33.895  31.929  27.625  1.00  0.00    -0.269 OA
BRANCH  18  21
ATOM     21  C   UNL A   1      35.619  30.366  27.973  1.00  0.00     0.039 A 
ATOM     22  C   UNL A   1      35.528  29.704  29.195  1.00  0.00     0.014 A 
ATOM     23  C   UNL A   1      36.848  30.528  27.329  1.00  0.00     0.014 A 
ATOM     24  C   UNL A   1      36.684  29.166  29.753  1.00  0.00     0.010 A 
ATOM     25  C   UNL A   1      37.959  29.865  27.806  1.00  0.00     0.010 A 
ATOM     26  C   UNL A   1      37.897  29.220  29.046  1.00  0.00    -0.014 A 
BRANCH  26  27
ATOM     27  C   UNL A   1      39.148  28.679  29.615  1.00  0.00     0.031 A 
ATOM     28  C   UNL A   1      39.680  29.267  30.893  1.00  0.00     0.074 A 
ATOM     29  C   UNL A   1      39.811  27.715  28.950  1.00  0.00     0.049 A 
ATOM     30  N   UNL A   1      40.787  28.995  31.529  1.00  0.00    -0.248 NA
ATOM     31  C   UNL A   1      38.886  30.343  31.512  1.00  0.00     0.031 C 
ATOM     32  C   UNL A   1      39.399  27.132  27.670  1.00  0.00     0.029 A 
ATOM     33  N   UNL A   1      40.969  27.055  29.258  1.00  0.00    -0.354 N 
ATOM     34  C   UNL A   1      40.828  29.878  32.603  1.00  0.00     0.074 A 
ATOM     35  C   UNL A   1      39.690  30.758  32.475  1.00  0.00     0.031 C 
ATOM     36  C   UNL A   1      40.263  26.162  27.331  1.00  0.00     0.029 A 
ATOM     37  C   UNL A   1      41.316  26.094  28.338  1.00  0.00     0.049 A 
ATOM     38  H   UNL A   1      41.503  27.249  30.062  1.00  0.00     0.167 HD
ATOM     39  C   UNL A   1      41.713  29.920  33.626  1.00  0.00     0.034 A 
ATOM     40  C   UNL A   1      42.371  25.258  28.316  1.00  0.00     0.034 A 
ATOM     41  C   UNL A   1      42.821  29.007  33.734  1.00  0.00     0.049 A 
ATOM     42  C   UNL A   1      43.350  25.326  29.461  1.00  0.00     0.074 A 
ATOM     43  C   UNL A   1      43.757  28.901  34.745  1.00  0.00     0.029 A 
ATOM     44  N   UNL A   1      43.141  28.040  32.787  1.00  0.00    -0.354 N 
ATOM     45  N   UNL A   1      43.345  26.123  30.506  1.00  0.00    -0.248 NA
ATOM     46  C   UNL A   1      44.464  24.374  29.433  1.00  0.00     0.031 C 
ATOM     47  C   UNL A   1      44.687  27.925  34.373  1.00  0.00     0.029 A 
ATOM     48  C   UNL A   1      44.281  27.356  33.174  1.00  0.00     0.049 A 
ATOM     49  H   UNL A   1      42.633  27.867  31.962  1.00  0.00     0.167 HD
ATOM     50  C   UNL A   1      44.439  25.747  31.276  1.00  0.00     0.074 A 
ATOM     51  C   UNL A   1      45.068  24.640  30.582  1.00  0.00     0.031 C 
ATOM     52  C   UNL A   1      44.886  26.261  32.452  1.00  0.00     0.034 A 
BRANCH  39  53
ATOM     53  C   UNL A   1      41.519  30.992  34.673  1.00  0.00     0.023 A 
ATOM     54  C   UNL A   1      40.429  30.971  35.564  1.00  0.00     0.031 A 
ATOM     55  C   UNL A   1      42.407  32.079  34.751  1.00  0.00     0.131 A 
ATOM     56  C   UNL A   1      40.206  32.055  36.427  1.00  0.00     0.055 A 
ATOM     57  C   UNL A   1      42.230  33.109  35.678  1.00  0.00     0.041 A 
ATOM     58  F   UNL A   1      43.449  32.174  33.910  1.00  0.00    -0.206 F 
ATOM     59  C   UNL A   1      41.116  33.110  36.511  1.00  0.00     0.022 A 
BRANCH  56  60
ATOM     60  S   UNL A   1      38.625  32.144  37.311  1.00  0.00     0.124 S 
ATOM     61  O   UNL A   1      38.004  33.312  36.689  1.00  0.00    -0.237 OA
ATOM     62  O   UNL A   1      38.015  30.856  37.002  1.00  0.00    -0.237 OA
ATOM     63  O   UNL A   1      39.021  32.329  38.705  1.00  0.00    -0.744 OA
ENDBRANCH  56  60
ENDBRANCH  39  53
BRANCH  40  64
ATOM     64  C   UNL A   1      42.549  24.295  27.193  1.00  0.00     0.023 A 
ATOM     65  C   UNL A   1      41.984  23.011  27.243  1.00  0.00     0.031 A 
ATOM     66  C   UNL A   1      43.307  24.635  26.058  1.00  0.00     0.131 A 
ATOM     67  C   UNL A   1      42.225  22.098  26.205  1.00  0.00     0.055 A 
ATOM     68  C   UNL A   1      43.496  23.744  25.000  1.00  0.00     0.041 A 
ATOM     69  F   UNL A   1      43.865  25.852  25.953  1.00  0.00    -0.206 F 
ATOM     70  C   UNL A   1      42.963  22.461  25.077  1.00  0.00     0.022 A 
BRANCH  67  71
ATOM     71  S   UNL A   1      41.633  20.394  26.393  1.00  0.00     0.124 S 
ATOM     72  O   UNL A   1      40.207  20.546  26.127  1.00  0.00    -0.237 OA
ATOM     73  O   UNL A   1      42.406  19.690  25.375  1.00  0.00    -0.237 OA
ATOM     74  O   UNL A   1      41.979  20.066  27.775  1.00  0.00    -0.744 OA
ENDBRANCH  67  71
ENDBRANCH  40  64
BRANCH  52  75
ATOM     75  C   UNL A   1      46.088  25.595  33.074  1.00  0.00     0.023 A 
ATOM     76  C   UNL A   1      47.398  25.926  32.691  1.00  0.00     0.031 A 
ATOM     77  C   UNL A   1      45.913  24.616  34.068  1.00  0.00     0.131 A 
ATOM     78  C   UNL A   1      48.481  25.239  33.256  1.00  0.00     0.055 A 
ATOM     79  C   UNL A   1      46.998  23.989  34.679  1.00  0.00     0.041 A 
ATOM     80  F   UNL A   1      44.681  24.260  34.470  1.00  0.00    -0.206 F 
ATOM     81  C   UNL A   1      48.292  24.289  34.263  1.00  0.00     0.022 A 
BRANCH  78  82
ATOM     82  S   UNL A   1      50.138  25.530  32.581  1.00  0.00     0.124 S 
ATOM     83  O   UNL A   1      50.991  24.927  33.602  1.00  0.00    -0.237 OA
ATOM     84  O   UNL A   1      50.083  24.829  31.302  1.00  0.00    -0.237 OA
ATOM     85  O   UNL A   1      50.220  26.987  32.488  1.00  0.00    -0.744 OA
ENDBRANCH  78  82
ENDBRANCH  52  75
ENDBRANCH  26  27
ENDBRANCH  18  21
ENDBRANCH  16  17
ENDBRANCH  15  16
ENDBRANCH   1  15
TORSDOF 17
ENDMDL
