MODEL 1
REMARK VINA RESULT:     -12.4      0.000      0.000
REMARK SMILES Cc1ccc(C#N)cc1Nc1cc(C)c(N)c(C(=O)NCCCCNC(=O)c2ccc(-c3c4nc(c(-c5cc(S(=O)(=O)[O-])ccc5F)c5ccc([nH]5)c(-c5cc(S(=O)(=O)[O-])ccc5F)c5nc(c(-c6cc(S(=O)(=O)[O-])ccc6F)c6ccc3[nH]6)C=C5)C=C4)cc2)c1
REMARK SMILES IDX 22 1 21 2 20 3 18 4 19 5 17 7 11 8 12 9 91 10 13 11 14 12
REMARK SMILES IDX 15 13 10 14 9 16 1 17 2 18 3 19 4 20 8 21 5 22 6 23 7 24
REMARK SMILES IDX 16 25 23 28 24 29 25 30 26 31 27 33 28 34 29 35 90 36 30 37
REMARK SMILES IDX 89 38 31 39 32 40 33 41 83 42 34 43 88 44 82 45 84 46 35 47
REMARK SMILES IDX 87 48 81 49 80 50 36 52 68 53 48 54 67 55 49 56 52 57 66 58
REMARK SMILES IDX 85 59 50 60 51 61 65 63 86 64 53 65 37 66 38 67 46 68 39 69
REMARK SMILES IDX 45 70 47 71 44 72 40 73 41 74 42 75 43 76 69 77 70 78 78 79
REMARK SMILES IDX 71 80 77 81 79 82 76 83 72 84 73 85 74 86 75 87 54 88 55 89
REMARK SMILES IDX 63 90 56 91 62 92 64 93 61 94 57 95 58 96 59 97 60 98
REMARK H PARENT 20 6 10 15 16 26 16 27 25 32 84 51 52 62
REMARK Flexibility Score: inf
ROOT
ATOM      1  C   UNL A   1      33.644  28.578  24.516  1.00  0.00     0.023 C 
ENDROOT
BRANCH   1   2
ATOM      2  C   UNL A   1      33.689  28.467  22.990  1.00  0.00     0.116 C 
BRANCH   2   3
ATOM      3  N   UNL A   1      32.357  28.637  22.439  1.00  0.00    -0.352 N 
ATOM      4  C   UNL A   1      31.232  27.851  22.376  1.00  0.00     0.253 C 
ATOM      5  O   UNL A   1      30.277  28.342  21.767  1.00  0.00    -0.269 OA
ATOM      6  H   UNL A   1      32.231  29.517  22.015  1.00  0.00     0.163 HD
BRANCH   4   7
ATOM      7  C   UNL A   1      31.083  26.513  23.054  1.00  0.00     0.065 A 
ATOM      8  C   UNL A   1      31.712  24.165  23.190  1.00  0.00     0.040 A 
ATOM      9  C   UNL A   1      31.122  24.071  24.443  1.00  0.00     0.031 A 
ATOM     10  C   UNL A   1      31.562  25.343  22.464  1.00  0.00     0.042 A 
ATOM     11  C   UNL A   1      30.488  25.185  25.024  1.00  0.00    -0.025 A 
ATOM     12  C   UNL A   1      29.814  24.969  26.353  1.00  0.00     0.047 C 
ATOM     13  C   UNL A   1      30.526  26.437  24.363  1.00  0.00     0.047 A 
BRANCH   8  14
ATOM     14  N   UNL A   1      32.515  23.136  22.672  1.00  0.00    -0.355 N 
ATOM     15  H   UNL A   1      32.584  23.076  21.692  1.00  0.00     0.167 HD
BRANCH  14  16
ATOM     16  C   UNL A   1      33.237  22.179  23.425  1.00  0.00     0.043 A 
ATOM     17  C   UNL A   1      35.289  23.705  23.608  1.00  0.00     0.046 C 
ATOM     18  C   UNL A   1      34.550  22.422  23.876  1.00  0.00    -0.027 A 
ATOM     19  C   UNL A   1      35.207  21.453  24.665  1.00  0.00     0.007 A 
ATOM     20  C   UNL A   1      34.596  20.241  24.985  1.00  0.00     0.020 A 
ATOM     21  C   UNL A   1      32.636  20.949  23.774  1.00  0.00     0.045 A 
ATOM     22  C   UNL A   1      33.307  19.983  24.531  1.00  0.00     0.054 A 
BRANCH  22  23
ATOM     23  C   UNL A   1      32.677  18.726  24.820  1.00  0.00     0.099 C 
ATOM     24  N   UNL A   1      32.153  17.723  25.063  1.00  0.00    -0.192 NA
ENDBRANCH  22  23
ENDBRANCH  14  16
ENDBRANCH   8  14
BRANCH  13  25
ATOM     25  N   UNL A   1      29.917  27.550  24.946  1.00  0.00    -0.398 N 
ATOM     26  H   UNL A   1      29.111  27.435  25.500  1.00  0.00     0.156 HD
ATOM     27  H   UNL A   1      30.292  28.448  24.803  1.00  0.00     0.156 HD
ENDBRANCH  13  25
ENDBRANCH   4   7
ENDBRANCH   2   3
ENDBRANCH   1   2
BRANCH   1  28
ATOM     28  C   UNL A   1      32.732  29.703  25.009  1.00  0.00     0.023 C 
BRANCH  28  29
ATOM     29  C   UNL A   1      32.763  29.919  26.515  1.00  0.00     0.116 C 
BRANCH  29  30
ATOM     30  N   UNL A   1      32.539  31.305  26.912  1.00  0.00    -0.352 N 
ATOM     31  C   UNL A   1      33.411  32.145  27.572  1.00  0.00     0.251 C 
ATOM     32  H   UNL A   1      31.661  31.685  26.681  1.00  0.00     0.163 HD
ATOM     33  O   UNL A   1      33.046  33.250  27.954  1.00  0.00    -0.269 OA
BRANCH  31  34
ATOM     34  C   UNL A   1      34.773  31.648  27.853  1.00  0.00     0.039 A 
ATOM     35  C   UNL A   1      34.966  30.293  28.119  1.00  0.00     0.014 A 
ATOM     36  C   UNL A   1      35.823  32.556  28.001  1.00  0.00     0.014 A 
ATOM     37  C   UNL A   1      36.128  29.887  28.758  1.00  0.00     0.010 A 
ATOM     38  C   UNL A   1      37.040  32.115  28.528  1.00  0.00     0.010 A 
ATOM     39  C   UNL A   1      37.179  30.792  28.982  1.00  0.00    -0.014 A 
BRANCH  39  40
ATOM     40  C   UNL A   1      38.391  30.329  29.713  1.00  0.00     0.031 A 
ATOM     41  C   UNL A   1      38.675  30.786  31.122  1.00  0.00     0.074 A 
ATOM     42  C   UNL A   1      39.207  29.431  29.122  1.00  0.00     0.049 A 
ATOM     43  N   UNL A   1      39.666  30.447  31.906  1.00  0.00    -0.248 NA
ATOM     44  C   UNL A   1      37.740  31.746  31.732  1.00  0.00     0.031 C 
ATOM     45  C   UNL A   1      39.036  28.918  27.763  1.00  0.00     0.029 A 
ATOM     46  N   UNL A   1      40.323  28.778  29.585  1.00  0.00    -0.354 N 
ATOM     47  C   UNL A   1      39.490  31.167  33.084  1.00  0.00     0.074 A 
ATOM     48  C   UNL A   1      38.315  31.987  32.903  1.00  0.00     0.031 C 
ATOM     49  C   UNL A   1      39.976  27.996  27.519  1.00  0.00     0.029 A 
ATOM     50  C   UNL A   1      40.876  27.916  28.665  1.00  0.00     0.049 A 
ATOM     51  H   UNL A   1      40.692  28.912  30.487  1.00  0.00     0.167 HD
ATOM     52  C   UNL A   1      40.235  31.131  34.213  1.00  0.00     0.034 A 
ATOM     53  C   UNL A   1      41.996  27.165  28.713  1.00  0.00     0.034 A 
ATOM     54  C   UNL A   1      41.383  30.276  34.394  1.00  0.00     0.049 A 
ATOM     55  C   UNL A   1      42.806  27.151  29.982  1.00  0.00     0.074 A 
ATOM     56  C   UNL A   1      42.165  30.136  35.527  1.00  0.00     0.029 A 
ATOM     57  N   UNL A   1      41.912  29.423  33.438  1.00  0.00    -0.354 N 
ATOM     58  N   UNL A   1      42.586  27.795  31.105  1.00  0.00    -0.248 NA
ATOM     59  C   UNL A   1      44.001  26.300  30.007  1.00  0.00     0.031 C 
ATOM     60  C   UNL A   1      43.220  29.278  35.227  1.00  0.00     0.029 A 
ATOM     61  C   UNL A   1      43.029  28.781  33.949  1.00  0.00     0.049 A 
ATOM     62  H   UNL A   1      41.548  29.291  32.532  1.00  0.00     0.167 HD
ATOM     63  C   UNL A   1      43.594  27.396  31.977  1.00  0.00     0.074 A 
ATOM     64  C   UNL A   1      44.406  26.435  31.263  1.00  0.00     0.031 C 
ATOM     65  C   UNL A   1      43.823  27.796  33.253  1.00  0.00     0.034 A 
BRANCH  52  66
ATOM     66  C   UNL A   1      39.865  32.016  35.381  1.00  0.00     0.023 A 
ATOM     67  C   UNL A   1      39.090  31.482  36.429  1.00  0.00     0.031 A 
ATOM     68  C   UNL A   1      40.077  33.404  35.352  1.00  0.00     0.131 A 
ATOM     69  C   UNL A   1      38.484  32.338  37.355  1.00  0.00     0.055 A 
ATOM     70  C   UNL A   1      39.519  34.249  36.314  1.00  0.00     0.041 A 
ATOM     71  F   UNL A   1      40.808  33.965  34.375  1.00  0.00    -0.206 F 
ATOM     72  C   UNL A   1      38.699  33.719  37.307  1.00  0.00     0.022 A 
BRANCH  69  73
ATOM     73  S   UNL A   1      37.301  31.704  38.576  1.00  0.00     0.124 S 
ATOM     74  O   UNL A   1      38.068  31.805  39.817  1.00  0.00    -0.237 OA
ATOM     75  O   UNL A   1      36.196  32.649  38.446  1.00  0.00    -0.237 OA
ATOM     76  O   UNL A   1      37.028  30.343  38.126  1.00  0.00    -0.744 OA
ENDBRANCH  69  73
ENDBRANCH  52  66
BRANCH  53  77
ATOM     77  C   UNL A   1      42.389  26.369  27.513  1.00  0.00     0.023 A 
ATOM     78  C   UNL A   1      41.950  25.039  27.370  1.00  0.00     0.031 A 
ATOM     79  C   UNL A   1      43.274  26.875  26.548  1.00  0.00     0.131 A 
ATOM     80  C   UNL A   1      42.458  24.240  26.339  1.00  0.00     0.055 A 
ATOM     81  C   UNL A   1      43.703  26.105  25.465  1.00  0.00     0.041 A 
ATOM     82  F   UNL A   1      43.738  28.131  26.646  1.00  0.00    -0.206 F 
ATOM     83  C   UNL A   1      43.311  24.772  25.369  1.00  0.00     0.022 A 
BRANCH  80  84
ATOM     84  S   UNL A   1      42.149  22.453  26.318  1.00  0.00     0.124 S 
ATOM     85  O   UNL A   1      42.652  22.072  25.002  1.00  0.00    -0.237 OA
ATOM     86  O   UNL A   1      42.947  22.001  27.456  1.00  0.00    -0.237 OA
ATOM     87  O   UNL A   1      40.705  22.350  26.498  1.00  0.00    -0.744 OA
ENDBRANCH  80  84
ENDBRANCH  53  77
BRANCH  65  88
ATOM     88  C   UNL A   1      44.968  27.176  34.022  1.00  0.00     0.023 A 
ATOM     89  C   UNL A   1      44.728  26.046  34.829  1.00  0.00     0.031 A 
ATOM     90  C   UNL A   1      46.237  27.775  34.087  1.00  0.00     0.131 A 
ATOM     91  C   UNL A   1      45.719  25.585  35.702  1.00  0.00     0.055 A 
ATOM     92  C   UNL A   1      47.247  27.267  34.906  1.00  0.00     0.041 A 
ATOM     93  F   UNL A   1      46.517  28.866  33.355  1.00  0.00    -0.206 F 
ATOM     94  C   UNL A   1      46.984  26.179  35.733  1.00  0.00     0.022 A 
BRANCH  91  95
ATOM     95  S   UNL A   1      45.367  24.275  36.908  1.00  0.00     0.124 S 
ATOM     96  O   UNL A   1      44.975  23.166  36.043  1.00  0.00    -0.237 OA
ATOM     97  O   UNL A   1      46.657  24.119  37.575  1.00  0.00    -0.237 OA
ATOM     98  O   UNL A   1      44.299  24.831  37.732  1.00  0.00    -0.744 OA
ENDBRANCH  91  95
ENDBRANCH  65  88
ENDBRANCH  39  40
ENDBRANCH  31  34
ENDBRANCH  29  30
ENDBRANCH  28  29
ENDBRANCH   1  28
TORSDOF 18
ENDMDL
MODEL 2
REMARK VINA RESULT:     -12.3      1.251      2.100
REMARK SMILES Cc1ccc(C#N)cc1Nc1cc(C)c(N)c(C(=O)NCCCCNC(=O)c2ccc(-c3c4nc(c(-c5cc(S(=O)(=O)[O-])ccc5F)c5ccc([nH]5)c(-c5cc(S(=O)(=O)[O-])ccc5F)c5nc(c(-c6cc(S(=O)(=O)[O-])ccc6F)c6ccc3[nH]6)C=C5)C=C4)cc2)c1
REMARK SMILES IDX 22 1 21 2 20 3 18 4 19 5 17 7 11 8 12 9 91 10 13 11 14 12
REMARK SMILES IDX 15 13 10 14 9 16 1 17 2 18 3 19 4 20 8 21 5 22 6 23 7 24
REMARK SMILES IDX 16 25 23 28 24 29 25 30 26 31 27 33 28 34 29 35 90 36 30 37
REMARK SMILES IDX 89 38 31 39 32 40 33 41 83 42 34 43 88 44 82 45 84 46 35 47
REMARK SMILES IDX 87 48 81 49 80 50 36 52 68 53 48 54 67 55 49 56 52 57 66 58
REMARK SMILES IDX 85 59 50 60 51 61 65 63 86 64 53 65 37 66 38 67 46 68 39 69
REMARK SMILES IDX 45 70 47 71 44 72 40 73 41 74 42 75 43 76 69 77 70 78 78 79
REMARK SMILES IDX 71 80 77 81 79 82 76 83 72 84 73 85 74 86 75 87 54 88 55 89
REMARK SMILES IDX 63 90 56 91 62 92 64 93 61 94 57 95 58 96 59 97 60 98
REMARK H PARENT 20 6 10 15 16 26 16 27 25 32 84 51 52 62
REMARK Flexibility Score: inf
ROOT
ATOM      1  C   UNL A   1      32.209  27.567  26.723  1.00  0.00     0.023 C 
ENDROOT
BRANCH   1   2
ATOM      2  C   UNL A   1      31.014  26.638  26.495  1.00  0.00     0.116 C 
BRANCH   2   3
ATOM      3  N   UNL A   1      30.882  26.335  25.082  1.00  0.00    -0.352 N 
ATOM      4  C   UNL A   1      31.458  25.419  24.234  1.00  0.00     0.253 C 
ATOM      5  O   UNL A   1      31.113  25.502  23.052  1.00  0.00    -0.269 OA
ATOM      6  H   UNL A   1      30.230  26.917  24.627  1.00  0.00     0.163 HD
BRANCH   4   7
ATOM      7  C   UNL A   1      32.387  24.316  24.671  1.00  0.00     0.065 A 
ATOM      8  C   UNL A   1      32.720  21.968  25.221  1.00  0.00     0.040 A 
ATOM      9  C   UNL A   1      34.095  22.140  25.161  1.00  0.00     0.031 A 
ATOM     10  C   UNL A   1      31.898  23.085  25.110  1.00  0.00     0.042 A 
ATOM     11  C   UNL A   1      34.650  23.401  24.871  1.00  0.00    -0.025 A 
ATOM     12  C   UNL A   1      36.152  23.507  24.899  1.00  0.00     0.047 C 
ATOM     13  C   UNL A   1      33.796  24.484  24.552  1.00  0.00     0.047 A 
BRANCH   8  14
ATOM     14  N   UNL A   1      32.137  20.693  25.314  1.00  0.00    -0.355 N 
ATOM     15  H   UNL A   1      31.464  20.562  26.020  1.00  0.00     0.167 HD
BRANCH  14  16
ATOM     16  C   UNL A   1      32.425  19.580  24.488  1.00  0.00     0.043 A 
ATOM     17  C   UNL A   1      31.864  20.880  22.351  1.00  0.00     0.046 C 
ATOM     18  C   UNL A   1      32.300  19.642  23.085  1.00  0.00    -0.027 A 
ATOM     19  C   UNL A   1      32.646  18.518  22.303  1.00  0.00     0.007 A 
ATOM     20  C   UNL A   1      33.082  17.332  22.892  1.00  0.00     0.020 A 
ATOM     21  C   UNL A   1      32.880  18.371  25.057  1.00  0.00     0.045 A 
ATOM     22  C   UNL A   1      33.192  17.253  24.275  1.00  0.00     0.054 A 
BRANCH  22  23
ATOM     23  C   UNL A   1      33.604  16.028  24.900  1.00  0.00     0.099 C 
ATOM     24  N   UNL A   1      33.943  15.034  25.386  1.00  0.00    -0.192 NA
ENDBRANCH  22  23
ENDBRANCH  14  16
ENDBRANCH   8  14
BRANCH  13  25
ATOM     25  N   UNL A   1      34.343  25.732  24.243  1.00  0.00    -0.398 N 
ATOM     26  H   UNL A   1      34.191  26.498  24.843  1.00  0.00     0.156 HD
ATOM     27  H   UNL A   1      34.881  25.845  23.427  1.00  0.00     0.156 HD
ENDBRANCH  13  25
ENDBRANCH   4   7
ENDBRANCH   2   3
ENDBRANCH   1   2
BRANCH   1  28
ATOM     28  C   UNL A   1      31.839  29.050  26.653  1.00  0.00     0.023 C 
BRANCH  28  29
ATOM     29  C   UNL A   1      33.018  29.978  26.398  1.00  0.00     0.116 C 
BRANCH  29  30
ATOM     30  N   UNL A   1      32.838  31.317  26.946  1.00  0.00    -0.352 N 
ATOM     31  C   UNL A   1      33.730  32.047  27.703  1.00  0.00     0.251 C 
ATOM     32  H   UNL A   1      31.976  31.752  26.752  1.00  0.00     0.163 HD
ATOM     33  O   UNL A   1      33.398  33.115  28.204  1.00  0.00    -0.269 OA
BRANCH  31  34
ATOM     34  C   UNL A   1      35.071  31.474  27.937  1.00  0.00     0.039 A 
ATOM     35  C   UNL A   1      35.188  30.132  28.297  1.00  0.00     0.014 A 
ATOM     36  C   UNL A   1      36.187  32.312  27.948  1.00  0.00     0.014 A 
ATOM     37  C   UNL A   1      36.360  29.691  28.892  1.00  0.00     0.010 A 
ATOM     38  C   UNL A   1      37.405  31.822  28.431  1.00  0.00     0.010 A 
ATOM     39  C   UNL A   1      37.483  30.531  28.978  1.00  0.00    -0.014 A 
BRANCH  39  40
ATOM     40  C   UNL A   1      38.707  30.035  29.666  1.00  0.00     0.031 A 
ATOM     41  C   UNL A   1      39.072  30.511  31.050  1.00  0.00     0.074 A 
ATOM     42  C   UNL A   1      39.460  29.092  29.063  1.00  0.00     0.049 A 
ATOM     43  N   UNL A   1      40.083  30.151  31.799  1.00  0.00    -0.248 NA
ATOM     44  C   UNL A   1      38.203  31.523  31.677  1.00  0.00     0.031 C 
ATOM     45  C   UNL A   1      39.209  28.556  27.725  1.00  0.00     0.029 A 
ATOM     46  N   UNL A   1      40.569  28.405  29.492  1.00  0.00    -0.354 N 
ATOM     47  C   UNL A   1      39.988  30.903  32.965  1.00  0.00     0.074 A 
ATOM     48  C   UNL A   1      38.840  31.766  32.816  1.00  0.00     0.031 C 
ATOM     49  C   UNL A   1      40.100  27.592  27.463  1.00  0.00     0.029 A 
ATOM     50  C   UNL A   1      41.046  27.501  28.570  1.00  0.00     0.049 A 
ATOM     51  H   UNL A   1      40.983  28.544  30.374  1.00  0.00     0.167 HD
ATOM     52  C   UNL A   1      40.781  30.863  34.061  1.00  0.00     0.034 A 
ATOM     53  C   UNL A   1      42.137  26.707  28.588  1.00  0.00     0.034 A 
ATOM     54  C   UNL A   1      41.901  29.967  34.212  1.00  0.00     0.049 A 
ATOM     55  C   UNL A   1      43.002  26.689  29.820  1.00  0.00     0.074 A 
ATOM     56  C   UNL A   1      42.726  29.820  35.313  1.00  0.00     0.029 A 
ATOM     57  N   UNL A   1      42.352  29.071  33.255  1.00  0.00    -0.354 N 
ATOM     58  N   UNL A   1      42.858  27.365  30.935  1.00  0.00    -0.248 NA
ATOM     59  C   UNL A   1      44.162  25.791  29.813  1.00  0.00     0.031 C 
ATOM     60  C   UNL A   1      43.732  28.914  34.989  1.00  0.00     0.029 A 
ATOM     61  C   UNL A   1      43.465  28.397  33.732  1.00  0.00     0.049 A 
ATOM     62  H   UNL A   1      41.944  28.934  32.370  1.00  0.00     0.167 HD
ATOM     63  C   UNL A   1      43.886  26.946  31.772  1.00  0.00     0.074 A 
ATOM     64  C   UNL A   1      44.627  25.938  31.046  1.00  0.00     0.031 C 
ATOM     65  C   UNL A   1      44.188  27.365  33.027  1.00  0.00     0.034 A 
BRANCH  52  66
ATOM     66  C   UNL A   1      40.497  31.788  35.222  1.00  0.00     0.023 A 
ATOM     67  C   UNL A   1      39.512  31.429  36.162  1.00  0.00     0.031 A 
ATOM     68  C   UNL A   1      41.023  33.090  35.275  1.00  0.00     0.131 A 
ATOM     69  C   UNL A   1      39.021  32.385  37.058  1.00  0.00     0.055 A 
ATOM     70  C   UNL A   1      40.572  34.023  36.211  1.00  0.00     0.041 A 
ATOM     71  F   UNL A   1      41.965  33.483  34.402  1.00  0.00    -0.206 F 
ATOM     72  C   UNL A   1      39.549  33.679  37.092  1.00  0.00     0.022 A 
BRANCH  69  73
ATOM     73  S   UNL A   1      37.599  32.021  38.124  1.00  0.00     0.124 S 
ATOM     74  O   UNL A   1      37.309  30.632  37.775  1.00  0.00    -0.237 OA
ATOM     75  O   UNL A   1      38.159  32.226  39.456  1.00  0.00    -0.237 OA
ATOM     76  O   UNL A   1      36.589  32.988  37.705  1.00  0.00    -0.744 OA
ENDBRANCH  69  73
ENDBRANCH  52  66
BRANCH  53  77
ATOM     77  C   UNL A   1      42.444  25.868  27.391  1.00  0.00     0.023 A 
ATOM     78  C   UNL A   1      41.965  24.548  27.309  1.00  0.00     0.031 A 
ATOM     79  C   UNL A   1      43.289  26.325  26.366  1.00  0.00     0.131 A 
ATOM     80  C   UNL A   1      42.395  23.708  26.274  1.00  0.00     0.055 A 
ATOM     81  C   UNL A   1      43.640  25.514  25.285  1.00  0.00     0.041 A 
ATOM     82  F   UNL A   1      43.790  27.569  26.405  1.00  0.00    -0.206 F 
ATOM     83  C   UNL A   1      43.209  24.191  25.247  1.00  0.00     0.022 A 
BRANCH  80  84
ATOM     84  S   UNL A   1      42.040  21.931  26.320  1.00  0.00     0.124 S 
ATOM     85  O   UNL A   1      40.612  21.897  26.020  1.00  0.00    -0.237 OA
ATOM     86  O   UNL A   1      42.920  21.424  25.268  1.00  0.00    -0.237 OA
ATOM     87  O   UNL A   1      42.411  21.539  27.676  1.00  0.00    -0.744 OA
ENDBRANCH  80  84
ENDBRANCH  53  77
BRANCH  65  88
ATOM     88  C   UNL A   1      45.341  26.717  33.760  1.00  0.00     0.023 A 
ATOM     89  C   UNL A   1      45.106  25.565  34.538  1.00  0.00     0.031 A 
ATOM     90  C   UNL A   1      46.614  27.307  33.822  1.00  0.00     0.131 A 
ATOM     91  C   UNL A   1      46.108  25.073  35.382  1.00  0.00     0.055 A 
ATOM     92  C   UNL A   1      47.633  26.770  34.611  1.00  0.00     0.041 A 
ATOM     93  F   UNL A   1      46.889  28.417  33.118  1.00  0.00    -0.206 F 
ATOM     94  C   UNL A   1      47.377  25.659  35.410  1.00  0.00     0.022 A 
BRANCH  91  95
ATOM     95  S   UNL A   1      45.767  23.731  36.554  1.00  0.00     0.124 S 
ATOM     96  O   UNL A   1      44.768  22.948  35.833  1.00  0.00    -0.237 OA
ATOM     97  O   UNL A   1      47.077  23.100  36.686  1.00  0.00    -0.237 OA
ATOM     98  O   UNL A   1      45.279  24.418  37.745  1.00  0.00    -0.744 OA
ENDBRANCH  91  95
ENDBRANCH  65  88
ENDBRANCH  39  40
ENDBRANCH  31  34
ENDBRANCH  29  30
ENDBRANCH  28  29
ENDBRANCH   1  28
TORSDOF 18
ENDMDL
MODEL 3
REMARK VINA RESULT:     -12.1      1.739      2.223
REMARK SMILES Cc1ccc(C#N)cc1Nc1cc(C)c(N)c(C(=O)NCCCCNC(=O)c2ccc(-c3c4nc(c(-c5cc(S(=O)(=O)[O-])ccc5F)c5ccc([nH]5)c(-c5cc(S(=O)(=O)[O-])ccc5F)c5nc(c(-c6cc(S(=O)(=O)[O-])ccc6F)c6ccc3[nH]6)C=C5)C=C4)cc2)c1
REMARK SMILES IDX 22 1 21 2 20 3 18 4 19 5 17 7 11 8 12 9 91 10 13 11 14 12
REMARK SMILES IDX 15 13 10 14 9 16 1 17 2 18 3 19 4 20 8 21 5 22 6 23 7 24
REMARK SMILES IDX 16 25 23 28 24 29 25 30 26 31 27 33 28 34 29 35 90 36 30 37
REMARK SMILES IDX 89 38 31 39 32 40 33 41 83 42 34 43 88 44 82 45 84 46 35 47
REMARK SMILES IDX 87 48 81 49 80 50 36 52 68 53 48 54 67 55 49 56 52 57 66 58
REMARK SMILES IDX 85 59 50 60 51 61 65 63 86 64 53 65 37 66 38 67 46 68 39 69
REMARK SMILES IDX 45 70 47 71 44 72 40 73 41 74 42 75 43 76 69 77 70 78 78 79
REMARK SMILES IDX 71 80 77 81 79 82 76 83 72 84 73 85 74 86 75 87 54 88 55 89
REMARK SMILES IDX 63 90 56 91 62 92 64 93 61 94 57 95 58 96 59 97 60 98
REMARK H PARENT 20 6 10 15 16 26 16 27 25 32 84 51 52 62
REMARK Flexibility Score: inf
ROOT
ATOM      1  C   UNL A   1      32.252  27.593  26.939  1.00  0.00     0.023 C 
ENDROOT
BRANCH   1   2
ATOM      2  C   UNL A   1      33.120  26.975  25.839  1.00  0.00     0.116 C 
BRANCH   2   3
ATOM      3  N   UNL A   1      32.359  26.861  24.609  1.00  0.00    -0.352 N 
ATOM      4  C   UNL A   1      31.710  25.833  23.968  1.00  0.00     0.253 C 
ATOM      5  O   UNL A   1      31.198  26.125  22.884  1.00  0.00    -0.269 OA
ATOM      6  H   UNL A   1      32.290  27.715  24.124  1.00  0.00     0.163 HD
BRANCH   4   7
ATOM      7  C   UNL A   1      31.531  24.448  24.535  1.00  0.00     0.065 A 
ATOM      8  C   UNL A   1      32.373  22.179  24.799  1.00  0.00     0.040 A 
ATOM      9  C   UNL A   1      31.451  21.946  25.810  1.00  0.00     0.031 A 
ATOM     10  C   UNL A   1      32.304  23.375  24.091  1.00  0.00     0.042 A 
ATOM     11  C   UNL A   1      30.540  22.946  26.197  1.00  0.00    -0.025 A 
ATOM     12  C   UNL A   1      29.530  22.577  27.252  1.00  0.00     0.047 C 
ATOM     13  C   UNL A   1      30.621  24.232  25.610  1.00  0.00     0.047 A 
BRANCH   8  14
ATOM     14  N   UNL A   1      33.415  21.278  24.525  1.00  0.00    -0.355 N 
ATOM     15  H   UNL A   1      34.331  21.586  24.711  1.00  0.00     0.167 HD
BRANCH  14  16
ATOM     16  C   UNL A   1      33.273  19.967  24.009  1.00  0.00     0.043 A 
ATOM     17  C   UNL A   1      31.782  20.769  22.083  1.00  0.00     0.046 C 
ATOM     18  C   UNL A   1      32.503  19.700  22.858  1.00  0.00    -0.027 A 
ATOM     19  C   UNL A   1      32.433  18.382  22.356  1.00  0.00     0.007 A 
ATOM     20  C   UNL A   1      33.086  17.328  22.992  1.00  0.00     0.020 A 
ATOM     21  C   UNL A   1      33.934  18.883  24.627  1.00  0.00     0.045 A 
ATOM     22  C   UNL A   1      33.834  17.576  24.138  1.00  0.00     0.054 A 
BRANCH  22  23
ATOM     23  C   UNL A   1      34.482  16.497  24.827  1.00  0.00     0.099 C 
ATOM     24  N   UNL A   1      35.021  15.628  25.370  1.00  0.00    -0.192 NA
ENDBRANCH  22  23
ENDBRANCH  14  16
ENDBRANCH   8  14
BRANCH  13  25
ATOM     25  N   UNL A   1      29.733  25.234  26.006  1.00  0.00    -0.398 N 
ATOM     26  H   UNL A   1      29.507  25.342  26.959  1.00  0.00     0.156 HD
ATOM     27  H   UNL A   1      29.333  25.832  25.335  1.00  0.00     0.156 HD
ENDBRANCH  13  25
ENDBRANCH   4   7
ENDBRANCH   2   3
ENDBRANCH   1   2
BRANCH   1  28
ATOM     28  C   UNL A   1      31.601  28.912  26.518  1.00  0.00     0.023 C 
BRANCH  28  29
ATOM     29  C   UNL A   1      32.584  29.970  26.038  1.00  0.00     0.116 C 
BRANCH  29  30
ATOM     30  N   UNL A   1      32.267  31.316  26.501  1.00  0.00    -0.352 N 
ATOM     31  C   UNL A   1      33.048  32.149  27.275  1.00  0.00     0.251 C 
ATOM     32  H   UNL A   1      31.391  31.673  26.228  1.00  0.00     0.163 HD
ATOM     33  O   UNL A   1      32.604  33.210  27.695  1.00  0.00    -0.269 OA
BRANCH  31  34
ATOM     34  C   UNL A   1      34.408  31.693  27.626  1.00  0.00     0.039 A 
ATOM     35  C   UNL A   1      34.620  30.352  27.940  1.00  0.00     0.014 A 
ATOM     36  C   UNL A   1      35.429  32.631  27.791  1.00  0.00     0.014 A 
ATOM     37  C   UNL A   1      35.764  29.993  28.638  1.00  0.00     0.010 A 
ATOM     38  C   UNL A   1      36.633  32.234  28.380  1.00  0.00     0.010 A 
ATOM     39  C   UNL A   1      36.783  30.929  28.878  1.00  0.00    -0.014 A 
BRANCH  39  40
ATOM     40  C   UNL A   1      37.974  30.517  29.672  1.00  0.00     0.031 A 
ATOM     41  C   UNL A   1      38.141  30.945  31.108  1.00  0.00     0.074 A 
ATOM     42  C   UNL A   1      38.879  29.689  29.110  1.00  0.00     0.049 A 
ATOM     43  N   UNL A   1      39.101  30.642  31.945  1.00  0.00    -0.248 NA
ATOM     44  C   UNL A   1      37.112  31.828  31.684  1.00  0.00     0.031 C 
ATOM     45  C   UNL A   1      38.826  29.210  27.729  1.00  0.00     0.029 A 
ATOM     46  N   UNL A   1      40.003  29.090  29.625  1.00  0.00    -0.354 N 
ATOM     47  C   UNL A   1      38.808  31.312  33.128  1.00  0.00     0.074 A 
ATOM     48  C   UNL A   1      37.598  32.065  32.896  1.00  0.00     0.031 C 
ATOM     49  C   UNL A   1      39.834  28.355  27.520  1.00  0.00     0.029 A 
ATOM     50  C   UNL A   1      40.664  28.293  28.719  1.00  0.00     0.049 A 
ATOM     51  H   UNL A   1      40.306  29.217  30.552  1.00  0.00     0.167 HD
ATOM     52  C   UNL A   1      39.482  31.286  34.301  1.00  0.00     0.034 A 
ATOM     53  C   UNL A   1      41.823  27.609  28.817  1.00  0.00     0.034 A 
ATOM     54  C   UNL A   1      40.667  30.496  34.532  1.00  0.00     0.049 A 
ATOM     55  C   UNL A   1      42.553  27.604  30.134  1.00  0.00     0.074 A 
ATOM     56  C   UNL A   1      41.384  30.367  35.708  1.00  0.00     0.029 A 
ATOM     57  N   UNL A   1      41.306  29.707  33.588  1.00  0.00    -0.354 N 
ATOM     58  N   UNL A   1      42.224  28.197  31.258  1.00  0.00    -0.248 NA
ATOM     59  C   UNL A   1      43.794  26.826  30.212  1.00  0.00     0.031 C 
ATOM     60  C   UNL A   1      42.507  29.584  35.452  1.00  0.00     0.029 A 
ATOM     61  C   UNL A   1      42.427  29.117  34.151  1.00  0.00     0.049 A 
ATOM     62  H   UNL A   1      41.008  29.582  32.658  1.00  0.00     0.167 HD
ATOM     63  C   UNL A   1      43.198  27.832  32.182  1.00  0.00     0.074 A 
ATOM     64  C   UNL A   1      44.111  26.945  31.494  1.00  0.00     0.031 C 
ATOM     65  C   UNL A   1      43.323  28.204  33.480  1.00  0.00     0.034 A 
BRANCH  52  66
ATOM     66  C   UNL A   1      38.985  32.109  35.467  1.00  0.00     0.023 A 
ATOM     67  C   UNL A   1      39.430  33.439  35.608  1.00  0.00     0.031 A 
ATOM     68  C   UNL A   1      38.273  31.531  36.530  1.00  0.00     0.131 A 
ATOM     69  C   UNL A   1      39.235  34.114  36.818  1.00  0.00     0.055 A 
ATOM     70  C   UNL A   1      38.028  32.230  37.713  1.00  0.00     0.041 A 
ATOM     71  F   UNL A   1      37.826  30.266  36.446  1.00  0.00    -0.206 F 
ATOM     72  C   UNL A   1      38.531  33.520  37.870  1.00  0.00     0.022 A 
BRANCH  69  73
ATOM     73  S   UNL A   1      39.991  35.737  37.112  1.00  0.00     0.124 S 
ATOM     74  O   UNL A   1      39.654  36.453  35.883  1.00  0.00    -0.237 OA
ATOM     75  O   UNL A   1      39.286  36.187  38.309  1.00  0.00    -0.237 OA
ATOM     76  O   UNL A   1      41.408  35.438  37.286  1.00  0.00    -0.744 OA
ENDBRANCH  69  73
ENDBRANCH  52  66
BRANCH  53  77
ATOM     77  C   UNL A   1      42.339  26.876  27.623  1.00  0.00     0.023 A 
ATOM     78  C   UNL A   1      42.097  25.497  27.479  1.00  0.00     0.031 A 
ATOM     79  C   UNL A   1      43.152  27.504  26.665  1.00  0.00     0.131 A 
ATOM     80  C   UNL A   1      42.725  24.779  26.454  1.00  0.00     0.055 A 
ATOM     81  C   UNL A   1      43.698  26.802  25.589  1.00  0.00     0.041 A 
ATOM     82  F   UNL A   1      43.430  28.813  26.765  1.00  0.00    -0.206 F 
ATOM     83  C   UNL A   1      43.502  25.427  25.492  1.00  0.00     0.022 A 
BRANCH  80  84
ATOM     84  S   UNL A   1      42.676  22.966  26.435  1.00  0.00     0.124 S 
ATOM     85  O   UNL A   1      41.438  22.686  27.155  1.00  0.00    -0.237 OA
ATOM     86  O   UNL A   1      42.653  22.684  25.001  1.00  0.00    -0.237 OA
ATOM     87  O   UNL A   1      43.907  22.581  27.119  1.00  0.00    -0.744 OA
ENDBRANCH  80  84
ENDBRANCH  53  77
BRANCH  65  88
ATOM     88  C   UNL A   1      44.454  27.631  34.303  1.00  0.00     0.023 A 
ATOM     89  C   UNL A   1      44.270  26.404  34.973  1.00  0.00     0.031 A 
ATOM     90  C   UNL A   1      45.635  28.348  34.556  1.00  0.00     0.131 A 
ATOM     91  C   UNL A   1      45.221  25.960  35.897  1.00  0.00     0.055 A 
ATOM     92  C   UNL A   1      46.615  27.866  35.425  1.00  0.00     0.041 A 
ATOM     93  F   UNL A   1      45.855  29.533  33.961  1.00  0.00    -0.206 F 
ATOM     94  C   UNL A   1      46.402  26.676  36.115  1.00  0.00     0.022 A 
BRANCH  91  95
ATOM     95  S   UNL A   1      44.910  24.503  36.933  1.00  0.00     0.124 S 
ATOM     96  O   UNL A   1      44.139  23.651  36.031  1.00  0.00    -0.237 OA
ATOM     97  O   UNL A   1      46.264  24.038  37.223  1.00  0.00    -0.237 OA
ATOM     98  O   UNL A   1      44.170  25.031  38.074  1.00  0.00    -0.744 OA
ENDBRANCH  91  95
ENDBRANCH  65  88
ENDBRANCH  39  40
ENDBRANCH  31  34
ENDBRANCH  29  30
ENDBRANCH  28  29
ENDBRANCH   1  28
TORSDOF 18
ENDMDL
