MODEL 1
REMARK VINA RESULT:     -12.4      0.000      0.000
REMARK SMILES Cc1onc(-c2ccccc2)c1C(=O)N1CCC[C@@H]1C(=O)NCCCCNC(=O)c1ccc(-c2c3nc(c(-c4cc(S(=O)(=O)[O-])ccc4F)c4ccc([nH]4)c(-c4cc(S(=O)(=O)[O-])ccc4F)c4nc(c(-c5cc(S(=O)(=O)[O-])ccc5F)c5ccc2[nH]5)C=C4)C=C3)cc1
REMARK SMILES IDX 24 1 23 2 22 3 20 4 21 5 19 7 15 8 16 9 17 10 18 11 13 12
REMARK SMILES IDX 14 13 12 14 1 15 2 16 3 17 4 18 5 19 6 20 7 21 11 22 8 23
REMARK SMILES IDX 10 24 9 25 25 26 26 27 27 28 28 29 29 31 30 32 31 33 92 34
REMARK SMILES IDX 32 35 91 36 33 37 34 38 35 39 85 40 36 41 90 42 84 43 86 44
REMARK SMILES IDX 37 45 89 46 83 47 82 48 38 50 70 51 50 52 69 53 51 54 54 55
REMARK SMILES IDX 68 56 87 57 52 58 53 59 67 61 88 62 55 63 39 64 40 65 48 66
REMARK SMILES IDX 41 67 47 68 49 69 46 70 42 71 43 72 44 73 45 74 71 75 72 76
REMARK SMILES IDX 80 77 73 78 79 79 81 80 78 81 74 82 75 83 76 84 77 85 56 86
REMARK SMILES IDX 57 87 65 88 58 89 64 90 66 91 63 92 59 93 60 94 61 95 62 96
REMARK H PARENT 22 6 27 30 86 49 54 60
REMARK Flexibility Score: inf
ROOT
ATOM      1  C   UNL A   1      31.974  27.700  27.168  1.00  0.00     0.023 C 
ENDROOT
BRANCH   1   2
ATOM      2  C   UNL A   1      32.002  27.045  25.792  1.00  0.00     0.116 C 
BRANCH   2   3
ATOM      3  N   UNL A   1      30.682  26.703  25.316  1.00  0.00    -0.354 N 
ATOM      4  C   UNL A   1      30.310  26.077  24.163  1.00  0.00     0.242 C 
ATOM      5  O   UNL A   1      29.106  26.085  23.886  1.00  0.00    -0.273 OA
ATOM      6  H   UNL A   1      29.942  26.959  25.913  1.00  0.00     0.163 HD
BRANCH   4   7
ATOM      7  C   UNL A   1      31.338  25.562  23.130  1.00  0.00     0.174 C 
ATOM      8  N   UNL A   1      32.431  24.718  23.624  1.00  0.00    -0.326 N 
ATOM      9  C   UNL A   1      33.612  24.953  22.815  1.00  0.00     0.121 C 
ATOM     10  C   UNL A   1      33.537  26.437  22.505  1.00  0.00     0.024 C 
ATOM     11  C   UNL A   1      32.036  26.724  22.403  1.00  0.00     0.037 C 
BRANCH   8  12
ATOM     12  C   UNL A   1      32.114  23.493  24.189  1.00  0.00     0.260 C 
ATOM     13  O   UNL A   1      31.616  22.610  23.480  1.00  0.00    -0.269 OA
BRANCH  12  14
ATOM     14  C   UNL A   1      32.283  23.284  25.619  1.00  0.00     0.110 A 
ATOM     15  C   UNL A   1      29.903  23.409  26.842  1.00  0.00     0.092 C 
ATOM     16  C   UNL A   1      31.358  23.247  26.654  1.00  0.00     0.147 A 
ATOM     17  O   UNL A   1      31.990  22.905  27.809  1.00  0.00    -0.360 OA
ATOM     18  N   UNL A   1      33.318  22.683  27.576  1.00  0.00    -0.079 NA
ATOM     19  C   UNL A   1      33.507  22.891  26.269  1.00  0.00     0.126 A 
BRANCH  19  20
ATOM     20  C   UNL A   1      34.837  22.703  25.705  1.00  0.00     0.004 A 
ATOM     21  C   UNL A   1      35.236  21.440  25.248  1.00  0.00     0.010 A 
ATOM     22  C   UNL A   1      35.744  23.769  25.667  1.00  0.00     0.010 A 
ATOM     23  C   UNL A   1      36.527  21.247  24.754  1.00  0.00     0.001 A 
ATOM     24  C   UNL A   1      37.037  23.572  25.178  1.00  0.00     0.001 A 
ATOM     25  C   UNL A   1      37.428  22.313  24.723  1.00  0.00     0.000 A 
ENDBRANCH  19  20
ENDBRANCH  12  14
ENDBRANCH   8  12
ENDBRANCH   4   7
ENDBRANCH   2   3
ENDBRANCH   1   2
BRANCH   1  26
ATOM     26  C   UNL A   1      31.604  29.182  27.170  1.00  0.00     0.023 C 
BRANCH  26  27
ATOM     27  C   UNL A   1      32.598  30.113  26.477  1.00  0.00     0.116 C 
BRANCH  27  28
ATOM     28  N   UNL A   1      32.408  31.519  26.805  1.00  0.00    -0.352 N 
ATOM     29  C   UNL A   1      33.269  32.373  27.456  1.00  0.00     0.251 C 
ATOM     30  H   UNL A   1      31.550  31.911  26.524  1.00  0.00     0.163 HD
ATOM     31  O   UNL A   1      32.914  33.519  27.719  1.00  0.00    -0.269 OA
BRANCH  29  32
ATOM     32  C   UNL A   1      34.595  31.877  27.876  1.00  0.00     0.039 A 
ATOM     33  C   UNL A   1      35.670  32.770  27.906  1.00  0.00     0.014 A 
ATOM     34  C   UNL A   1      34.754  30.560  28.314  1.00  0.00     0.014 A 
ATOM     35  C   UNL A   1      36.881  32.371  28.474  1.00  0.00     0.010 A 
ATOM     36  C   UNL A   1      35.944  30.181  28.928  1.00  0.00     0.010 A 
ATOM     37  C   UNL A   1      37.009  31.091  29.037  1.00  0.00    -0.014 A 
BRANCH  37  38
ATOM     38  C   UNL A   1      38.224  30.690  29.788  1.00  0.00     0.031 A 
ATOM     39  C   UNL A   1      39.174  29.686  29.205  1.00  0.00     0.074 A 
ATOM     40  C   UNL A   1      38.409  31.153  31.041  1.00  0.00     0.049 A 
ATOM     41  N   UNL A   1      40.200  29.096  29.761  1.00  0.00    -0.248 NA
ATOM     42  C   UNL A   1      38.911  29.269  27.820  1.00  0.00     0.031 C 
ATOM     43  C   UNL A   1      37.530  32.099  31.734  1.00  0.00     0.029 A 
ATOM     44  N   UNL A   1      39.384  30.870  31.963  1.00  0.00    -0.354 N 
ATOM     45  C   UNL A   1      40.695  28.218  28.803  1.00  0.00     0.074 A 
ATOM     46  C   UNL A   1      39.829  28.329  27.647  1.00  0.00     0.031 C 
ATOM     47  C   UNL A   1      38.009  32.320  32.969  1.00  0.00     0.029 A 
ATOM     48  C   UNL A   1      39.202  31.505  33.170  1.00  0.00     0.049 A 
ATOM     49  H   UNL A   1      40.142  30.270  31.780  1.00  0.00     0.167 HD
ATOM     50  C   UNL A   1      41.778  27.405  28.879  1.00  0.00     0.034 A 
ATOM     51  C   UNL A   1      39.905  31.423  34.316  1.00  0.00     0.034 A 
ATOM     52  C   UNL A   1      42.641  27.316  30.030  1.00  0.00     0.049 A 
ATOM     53  C   UNL A   1      41.102  30.515  34.377  1.00  0.00     0.074 A 
ATOM     54  C   UNL A   1      43.797  26.571  30.191  1.00  0.00     0.029 A 
ATOM     55  N   UNL A   1      42.440  27.994  31.225  1.00  0.00    -0.354 N 
ATOM     56  N   UNL A   1      41.575  29.711  33.454  1.00  0.00    -0.248 NA
ATOM     57  C   UNL A   1      41.861  30.506  35.635  1.00  0.00     0.031 C 
ATOM     58  C   UNL A   1      44.270  26.767  31.495  1.00  0.00     0.029 A 
ATOM     59  C   UNL A   1      43.437  27.670  32.133  1.00  0.00     0.049 A 
ATOM     60  H   UNL A   1      41.696  28.615  31.403  1.00  0.00     0.167 HD
ATOM     61  C   UNL A   1      42.699  29.113  34.013  1.00  0.00     0.074 A 
ATOM     62  C   UNL A   1      42.835  29.653  35.351  1.00  0.00     0.031 C 
ATOM     63  C   UNL A   1      43.546  28.206  33.468  1.00  0.00     0.034 A 
BRANCH  50  64
ATOM     64  C   UNL A   1      42.056  26.529  27.684  1.00  0.00     0.023 A 
ATOM     65  C   UNL A   1      41.623  25.192  27.638  1.00  0.00     0.031 A 
ATOM     66  C   UNL A   1      42.808  27.018  26.603  1.00  0.00     0.131 A 
ATOM     67  C   UNL A   1      42.017  24.367  26.574  1.00  0.00     0.055 A 
ATOM     68  C   UNL A   1      43.133  26.212  25.510  1.00  0.00     0.041 A 
ATOM     69  F   UNL A   1      43.262  28.281  26.602  1.00  0.00    -0.206 F 
ATOM     70  C   UNL A   1      42.751  24.873  25.499  1.00  0.00     0.022 A 
BRANCH  67  71
ATOM     71  S   UNL A   1      41.676  22.590  26.688  1.00  0.00     0.124 S 
ATOM     72  O   UNL A   1      42.108  22.123  25.372  1.00  0.00    -0.237 OA
ATOM     73  O   UNL A   1      42.508  22.180  27.814  1.00  0.00    -0.237 OA
ATOM     74  O   UNL A   1      40.235  22.530  26.921  1.00  0.00    -0.744 OA
ENDBRANCH  67  71
ENDBRANCH  50  64
BRANCH  51  75
ATOM     75  C   UNL A   1      39.483  32.202  35.510  1.00  0.00     0.023 A 
ATOM     76  C   UNL A   1      38.691  31.615  36.507  1.00  0.00     0.031 A 
ATOM     77  C   UNL A   1      39.850  33.550  35.657  1.00  0.00     0.131 A 
ATOM     78  C   UNL A   1      38.262  32.385  37.599  1.00  0.00     0.055 A 
ATOM     79  C   UNL A   1      39.447  34.303  36.759  1.00  0.00     0.041 A 
ATOM     80  F   UNL A   1      40.618  34.147  34.733  1.00  0.00    -0.206 F 
ATOM     81  C   UNL A   1      38.641  33.724  37.735  1.00  0.00     0.022 A 
BRANCH  78  82
ATOM     82  S   UNL A   1      37.160  31.623  38.820  1.00  0.00     0.124 S 
ATOM     83  O   UNL A   1      35.992  32.493  38.754  1.00  0.00    -0.237 OA
ATOM     84  O   UNL A   1      36.991  30.279  38.278  1.00  0.00    -0.237 OA
ATOM     85  O   UNL A   1      37.925  31.698  40.062  1.00  0.00    -0.744 OA
ENDBRANCH  78  82
ENDBRANCH  51  75
BRANCH  63  86
ATOM     86  C   UNL A   1      44.713  27.779  34.315  1.00  0.00     0.023 A 
ATOM     87  C   UNL A   1      44.639  26.655  35.155  1.00  0.00     0.031 A 
ATOM     88  C   UNL A   1      45.904  28.523  34.296  1.00  0.00     0.131 A 
ATOM     89  C   UNL A   1      45.729  26.328  35.976  1.00  0.00     0.055 A 
ATOM     90  C   UNL A   1      46.999  28.170  35.085  1.00  0.00     0.041 A 
ATOM     91  F   UNL A   1      46.020  29.606  33.512  1.00  0.00    -0.206 F 
ATOM     92  C   UNL A   1      46.912  27.073  35.938  1.00  0.00     0.022 A 
BRANCH  89  93
ATOM     93  S   UNL A   1      45.561  24.947  37.140  1.00  0.00     0.124 S 
ATOM     94  O   UNL A   1      44.242  25.193  37.714  1.00  0.00    -0.237 OA
ATOM     95  O   UNL A   1      45.671  23.785  36.266  1.00  0.00    -0.237 OA
ATOM     96  O   UNL A   1      46.682  25.137  38.059  1.00  0.00    -0.744 OA
ENDBRANCH  89  93
ENDBRANCH  63  86
ENDBRANCH  37  38
ENDBRANCH  29  32
ENDBRANCH  27  28
ENDBRANCH  26  27
ENDBRANCH   1  26
TORSDOF 17
ENDMDL
MODEL 2
REMARK VINA RESULT:     -12.4      1.576      2.495
REMARK SMILES Cc1onc(-c2ccccc2)c1C(=O)N1CCC[C@@H]1C(=O)NCCCCNC(=O)c1ccc(-c2c3nc(c(-c4cc(S(=O)(=O)[O-])ccc4F)c4ccc([nH]4)c(-c4cc(S(=O)(=O)[O-])ccc4F)c4nc(c(-c5cc(S(=O)(=O)[O-])ccc5F)c5ccc2[nH]5)C=C4)C=C3)cc1
REMARK SMILES IDX 24 1 23 2 22 3 20 4 21 5 19 7 15 8 16 9 17 10 18 11 13 12
REMARK SMILES IDX 14 13 12 14 1 15 2 16 3 17 4 18 5 19 6 20 7 21 11 22 8 23
REMARK SMILES IDX 10 24 9 25 25 26 26 27 27 28 28 29 29 31 30 32 31 33 92 34
REMARK SMILES IDX 32 35 91 36 33 37 34 38 35 39 85 40 36 41 90 42 84 43 86 44
REMARK SMILES IDX 37 45 89 46 83 47 82 48 38 50 70 51 50 52 69 53 51 54 54 55
REMARK SMILES IDX 68 56 87 57 52 58 53 59 67 61 88 62 55 63 39 64 40 65 48 66
REMARK SMILES IDX 41 67 47 68 49 69 46 70 42 71 43 72 44 73 45 74 71 75 72 76
REMARK SMILES IDX 80 77 73 78 79 79 81 80 78 81 74 82 75 83 76 84 77 85 56 86
REMARK SMILES IDX 57 87 65 88 58 89 64 90 66 91 63 92 59 93 60 94 61 95 62 96
REMARK H PARENT 22 6 27 30 86 49 54 60
REMARK Flexibility Score: inf
ROOT
ATOM      1  C   UNL A   1      31.798  27.654  26.951  1.00  0.00     0.023 C 
ENDROOT
BRANCH   1   2
ATOM      2  C   UNL A   1      32.156  26.267  26.430  1.00  0.00     0.116 C 
BRANCH   2   3
ATOM      3  N   UNL A   1      31.235  25.253  26.880  1.00  0.00    -0.354 N 
ATOM      4  C   UNL A   1      31.411  23.905  26.987  1.00  0.00     0.242 C 
ATOM      5  O   UNL A   1      30.402  23.223  27.201  1.00  0.00    -0.273 OA
ATOM      6  H   UNL A   1      30.348  25.583  27.153  1.00  0.00     0.163 HD
BRANCH   4   7
ATOM      7  C   UNL A   1      32.753  23.215  26.649  1.00  0.00     0.174 C 
ATOM      8  N   UNL A   1      32.724  22.114  25.680  1.00  0.00    -0.326 N 
ATOM      9  C   UNL A   1      33.756  21.155  26.025  1.00  0.00     0.121 C 
ATOM     10  C   UNL A   1      33.757  21.170  27.543  1.00  0.00     0.024 C 
ATOM     11  C   UNL A   1      33.410  22.617  27.905  1.00  0.00     0.037 C 
BRANCH   8  12
ATOM     12  C   UNL A   1      32.332  22.392  24.380  1.00  0.00     0.260 C 
ATOM     13  O   UNL A   1      31.783  21.509  23.711  1.00  0.00    -0.269 OA
BRANCH  12  14
ATOM     14  C   UNL A   1      32.646  23.683  23.785  1.00  0.00     0.110 A 
ATOM     15  C   UNL A   1      30.383  24.929  23.078  1.00  0.00     0.092 C 
ATOM     16  C   UNL A   1      31.824  24.682  23.281  1.00  0.00     0.147 A 
ATOM     17  O   UNL A   1      32.583  25.756  22.936  1.00  0.00    -0.360 OA
ATOM     18  N   UNL A   1      33.899  25.519  23.218  1.00  0.00    -0.079 NA
ATOM     19  C   UNL A   1      33.952  24.288  23.740  1.00  0.00     0.126 A 
BRANCH  19  20
ATOM     20  C   UNL A   1      35.237  23.755  24.170  1.00  0.00     0.004 A 
ATOM     21  C   UNL A   1      35.846  22.719  23.451  1.00  0.00     0.010 A 
ATOM     22  C   UNL A   1      35.847  24.237  25.335  1.00  0.00     0.010 A 
ATOM     23  C   UNL A   1      37.054  22.173  23.889  1.00  0.00     0.001 A 
ATOM     24  C   UNL A   1      37.051  23.685  25.775  1.00  0.00     0.001 A 
ATOM     25  C   UNL A   1      37.653  22.654  25.053  1.00  0.00     0.000 A 
ENDBRANCH  19  20
ENDBRANCH  12  14
ENDBRANCH   8  12
ENDBRANCH   4   7
ENDBRANCH   2   3
ENDBRANCH   1   2
BRANCH   1  26
ATOM     26  C   UNL A   1      31.687  28.739  25.881  1.00  0.00     0.023 C 
BRANCH  26  27
ATOM     27  C   UNL A   1      32.810  29.774  25.871  1.00  0.00     0.116 C 
BRANCH  27  28
ATOM     28  N   UNL A   1      32.423  31.062  26.430  1.00  0.00    -0.352 N 
ATOM     29  C   UNL A   1      33.122  31.865  27.302  1.00  0.00     0.251 C 
ATOM     30  H   UNL A   1      31.544  31.404  26.146  1.00  0.00     0.163 HD
ATOM     31  O   UNL A   1      32.607  32.893  27.735  1.00  0.00    -0.269 OA
BRANCH  29  32
ATOM     32  C   UNL A   1      34.467  31.447  27.746  1.00  0.00     0.039 A 
ATOM     33  C   UNL A   1      35.484  32.403  27.804  1.00  0.00     0.014 A 
ATOM     34  C   UNL A   1      34.696  30.138  28.177  1.00  0.00     0.014 A 
ATOM     35  C   UNL A   1      36.706  32.073  28.395  1.00  0.00     0.010 A 
ATOM     36  C   UNL A   1      35.895  29.827  28.813  1.00  0.00     0.010 A 
ATOM     37  C   UNL A   1      36.899  30.798  28.951  1.00  0.00    -0.014 A 
BRANCH  37  38
ATOM     38  C   UNL A   1      38.121  30.466  29.724  1.00  0.00     0.031 A 
ATOM     39  C   UNL A   1      39.097  29.456  29.195  1.00  0.00     0.074 A 
ATOM     40  C   UNL A   1      38.291  30.997  30.952  1.00  0.00     0.049 A 
ATOM     41  N   UNL A   1      40.135  28.920  29.783  1.00  0.00    -0.248 NA
ATOM     42  C   UNL A   1      38.849  28.964  27.833  1.00  0.00     0.031 C 
ATOM     43  C   UNL A   1      37.387  31.955  31.594  1.00  0.00     0.029 A 
ATOM     44  N   UNL A   1      39.269  30.784  31.890  1.00  0.00    -0.354 N 
ATOM     45  C   UNL A   1      40.654  28.007  28.872  1.00  0.00     0.074 A 
ATOM     46  C   UNL A   1      39.789  28.039  27.710  1.00  0.00     0.031 C 
ATOM     47  C   UNL A   1      37.857  32.250  32.817  1.00  0.00     0.029 A 
ATOM     48  C   UNL A   1      39.069  31.475  33.062  1.00  0.00     0.049 A 
ATOM     49  H   UNL A   1      40.042  30.194  31.739  1.00  0.00     0.167 HD
ATOM     50  C   UNL A   1      41.756  27.225  28.992  1.00  0.00     0.034 A 
ATOM     51  C   UNL A   1      39.769  31.468  34.212  1.00  0.00     0.034 A 
ATOM     52  C   UNL A   1      42.617  27.216  30.147  1.00  0.00     0.049 A 
ATOM     53  C   UNL A   1      40.987  30.593  34.323  1.00  0.00     0.074 A 
ATOM     54  C   UNL A   1      43.790  26.508  30.348  1.00  0.00     0.029 A 
ATOM     55  N   UNL A   1      42.396  27.949  31.306  1.00  0.00    -0.354 N 
ATOM     56  N   UNL A   1      41.482  29.755  33.442  1.00  0.00    -0.248 NA
ATOM     57  C   UNL A   1      41.742  30.666  35.580  1.00  0.00     0.031 C 
ATOM     58  C   UNL A   1      44.254  26.781  31.642  1.00  0.00     0.029 A 
ATOM     59  C   UNL A   1      43.397  27.695  32.231  1.00  0.00     0.049 A 
ATOM     60  H   UNL A   1      41.637  28.560  31.450  1.00  0.00     0.167 HD
ATOM     61  C   UNL A   1      42.618  29.214  34.034  1.00  0.00     0.074 A 
ATOM     62  C   UNL A   1      42.737  29.824  35.343  1.00  0.00     0.031 C 
ATOM     63  C   UNL A   1      43.488  28.301  33.537  1.00  0.00     0.034 A 
BRANCH  50  64
ATOM     64  C   UNL A   1      42.059  26.296  27.843  1.00  0.00     0.023 A 
ATOM     65  C   UNL A   1      41.565  24.980  27.815  1.00  0.00     0.031 A 
ATOM     66  C   UNL A   1      42.894  26.713  26.793  1.00  0.00     0.131 A 
ATOM     67  C   UNL A   1      41.979  24.102  26.803  1.00  0.00     0.055 A 
ATOM     68  C   UNL A   1      43.241  25.855  25.747  1.00  0.00     0.041 A 
ATOM     69  F   UNL A   1      43.407  27.953  26.778  1.00  0.00    -0.206 F 
ATOM     70  C   UNL A   1      42.796  24.536  25.756  1.00  0.00     0.022 A 
BRANCH  67  71
ATOM     71  S   UNL A   1      41.548  22.347  26.953  1.00  0.00     0.124 S 
ATOM     72  O   UNL A   1      40.234  22.420  27.589  1.00  0.00    -0.237 OA
ATOM     73  O   UNL A   1      41.560  21.898  25.566  1.00  0.00    -0.237 OA
ATOM     74  O   UNL A   1      42.611  21.803  27.795  1.00  0.00    -0.744 OA
ENDBRANCH  67  71
ENDBRANCH  50  64
BRANCH  51  75
ATOM     75  C   UNL A   1      39.325  32.296  35.364  1.00  0.00     0.023 A 
ATOM     76  C   UNL A   1      39.793  33.608  35.528  1.00  0.00     0.031 A 
ATOM     77  C   UNL A   1      38.442  31.778  36.327  1.00  0.00     0.131 A 
ATOM     78  C   UNL A   1      39.401  34.352  36.652  1.00  0.00     0.055 A 
ATOM     79  C   UNL A   1      38.030  32.532  37.426  1.00  0.00     0.041 A 
ATOM     80  F   UNL A   1      37.959  30.533  36.202  1.00  0.00    -0.206 F 
ATOM     81  C   UNL A   1      38.517  33.825  37.598  1.00  0.00     0.022 A 
BRANCH  78  82
ATOM     82  S   UNL A   1      40.100  36.009  36.883  1.00  0.00     0.124 S 
ATOM     83  O   UNL A   1      39.383  36.473  38.066  1.00  0.00    -0.237 OA
ATOM     84  O   UNL A   1      41.518  35.716  37.067  1.00  0.00    -0.237 OA
ATOM     85  O   UNL A   1      39.765  36.697  35.640  1.00  0.00    -0.744 OA
ENDBRANCH  78  82
ENDBRANCH  51  75
BRANCH  63  86
ATOM     86  C   UNL A   1      44.662  27.946  34.408  1.00  0.00     0.023 A 
ATOM     87  C   UNL A   1      44.611  26.867  35.307  1.00  0.00     0.031 A 
ATOM     88  C   UNL A   1      45.837  28.713  34.350  1.00  0.00     0.131 A 
ATOM     89  C   UNL A   1      45.706  26.609  36.146  1.00  0.00     0.055 A 
ATOM     90  C   UNL A   1      46.938  28.427  35.158  1.00  0.00     0.041 A 
ATOM     91  F   UNL A   1      45.932  29.755  33.509  1.00  0.00    -0.206 F 
ATOM     92  C   UNL A   1      46.872  27.376  36.069  1.00  0.00     0.022 A 
BRANCH  89  93
ATOM     93  S   UNL A   1      45.565  25.289  37.382  1.00  0.00     0.124 S 
ATOM     94  O   UNL A   1      46.566  24.333  36.920  1.00  0.00    -0.237 OA
ATOM     95  O   UNL A   1      45.875  25.988  38.624  1.00  0.00    -0.237 OA
ATOM     96  O   UNL A   1      44.179  24.845  37.252  1.00  0.00    -0.744 OA
ENDBRANCH  89  93
ENDBRANCH  63  86
ENDBRANCH  37  38
ENDBRANCH  29  32
ENDBRANCH  27  28
ENDBRANCH  26  27
ENDBRANCH   1  26
TORSDOF 17
ENDMDL
MODEL 3
REMARK VINA RESULT:     -12.3      4.999     10.093
REMARK SMILES Cc1onc(-c2ccccc2)c1C(=O)N1CCC[C@@H]1C(=O)NCCCCNC(=O)c1ccc(-c2c3nc(c(-c4cc(S(=O)(=O)[O-])ccc4F)c4ccc([nH]4)c(-c4cc(S(=O)(=O)[O-])ccc4F)c4nc(c(-c5cc(S(=O)(=O)[O-])ccc5F)c5ccc2[nH]5)C=C4)C=C3)cc1
REMARK SMILES IDX 24 1 23 2 22 3 20 4 21 5 19 7 15 8 16 9 17 10 18 11 13 12
REMARK SMILES IDX 14 13 12 14 1 15 2 16 3 17 4 18 5 19 6 20 7 21 11 22 8 23
REMARK SMILES IDX 10 24 9 25 25 26 26 27 27 28 28 29 29 31 30 32 31 33 92 34
REMARK SMILES IDX 32 35 91 36 33 37 34 38 35 39 85 40 36 41 90 42 84 43 86 44
REMARK SMILES IDX 37 45 89 46 83 47 82 48 38 50 70 51 50 52 69 53 51 54 54 55
REMARK SMILES IDX 68 56 87 57 52 58 53 59 67 61 88 62 55 63 39 64 40 65 48 66
REMARK SMILES IDX 41 67 47 68 49 69 46 70 42 71 43 72 44 73 45 74 71 75 72 76
REMARK SMILES IDX 80 77 73 78 79 79 81 80 78 81 74 82 75 83 76 84 77 85 56 86
REMARK SMILES IDX 57 87 65 88 58 89 64 90 66 91 63 92 59 93 60 94 61 95 62 96
REMARK H PARENT 22 6 27 30 86 49 54 60
REMARK Flexibility Score: inf
ROOT
ATOM      1  C   UNL A   1      35.012  20.422  24.966  1.00  0.00     0.023 C 
ENDROOT
BRANCH   1   2
ATOM      2  C   UNL A   1      33.563  20.410  25.439  1.00  0.00     0.116 C 
BRANCH   2   3
ATOM      3  N   UNL A   1      33.405  20.990  26.751  1.00  0.00    -0.354 N 
ATOM      4  C   UNL A   1      32.680  22.079  27.137  1.00  0.00     0.242 C 
ATOM      5  O   UNL A   1      32.871  22.501  28.283  1.00  0.00    -0.273 OA
ATOM      6  H   UNL A   1      33.892  20.532  27.474  1.00  0.00     0.163 HD
BRANCH   4   7
ATOM      7  C   UNL A   1      31.816  22.893  26.147  1.00  0.00     0.174 C 
ATOM      8  N   UNL A   1      32.103  24.325  26.015  1.00  0.00    -0.326 N 
ATOM      9  C   UNL A   1      30.869  25.029  25.723  1.00  0.00     0.121 C 
ATOM     10  C   UNL A   1      29.832  24.273  26.532  1.00  0.00     0.024 C 
ATOM     11  C   UNL A   1      30.323  22.823  26.513  1.00  0.00     0.037 C 
BRANCH   8  12
ATOM     12  C   UNL A   1      33.343  24.706  25.527  1.00  0.00     0.260 C 
ATOM     13  O   UNL A   1      34.338  24.601  26.254  1.00  0.00    -0.269 OA
BRANCH  12  14
ATOM     14  C   UNL A   1      33.453  25.304  24.205  1.00  0.00     0.110 A 
ATOM     15  C   UNL A   1      33.596  23.378  22.348  1.00  0.00     0.092 C 
ATOM     16  C   UNL A   1      33.542  24.727  22.945  1.00  0.00     0.147 A 
ATOM     17  O   UNL A   1      33.509  25.705  22.000  1.00  0.00    -0.360 OA
ATOM     18  N   UNL A   1      33.374  26.931  22.590  1.00  0.00    -0.079 NA
ATOM     19  C   UNL A   1      33.324  26.707  23.908  1.00  0.00     0.126 A 
BRANCH  19  20
ATOM     20  C   UNL A   1      33.154  27.835  24.813  1.00  0.00     0.004 A 
ATOM     21  C   UNL A   1      32.093  28.732  24.628  1.00  0.00     0.010 A 
ATOM     22  C   UNL A   1      34.078  28.062  25.839  1.00  0.00     0.010 A 
ATOM     23  C   UNL A   1      31.957  29.842  25.465  1.00  0.00     0.001 A 
ATOM     24  C   UNL A   1      33.944  29.176  26.670  1.00  0.00     0.001 A 
ATOM     25  C   UNL A   1      32.885  30.064  26.483  1.00  0.00     0.000 A 
ENDBRANCH  19  20
ENDBRANCH  12  14
ENDBRANCH   8  12
ENDBRANCH   4   7
ENDBRANCH   2   3
ENDBRANCH   1   2
BRANCH   1  26
ATOM     26  C   UNL A   1      35.620  21.811  24.783  1.00  0.00     0.023 C 
BRANCH  26  27
ATOM     27  C   UNL A   1      36.828  22.126  25.665  1.00  0.00     0.116 C 
BRANCH  27  28
ATOM     28  N   UNL A   1      37.864  21.103  25.623  1.00  0.00    -0.352 N 
ATOM     29  C   UNL A   1      39.170  21.188  26.046  1.00  0.00     0.251 C 
ATOM     30  H   UNL A   1      37.594  20.236  25.243  1.00  0.00     0.163 HD
ATOM     31  O   UNL A   1      39.936  20.244  25.864  1.00  0.00    -0.269 OA
BRANCH  29  32
ATOM     32  C   UNL A   1      39.648  22.440  26.667  1.00  0.00     0.039 A 
ATOM     33  C   UNL A   1      40.624  22.367  27.664  1.00  0.00     0.014 A 
ATOM     34  C   UNL A   1      39.192  23.678  26.208  1.00  0.00     0.014 A 
ATOM     35  C   UNL A   1      41.220  23.541  28.130  1.00  0.00     0.010 A 
ATOM     36  C   UNL A   1      39.824  24.842  26.634  1.00  0.00     0.010 A 
ATOM     37  C   UNL A   1      40.861  24.782  27.579  1.00  0.00    -0.014 A 
BRANCH  37  38
ATOM     38  C   UNL A   1      41.585  26.027  27.935  1.00  0.00     0.031 A 
ATOM     39  C   UNL A   1      40.875  27.129  28.665  1.00  0.00     0.074 A 
ATOM     40  C   UNL A   1      42.849  26.204  27.503  1.00  0.00     0.049 A 
ATOM     41  N   UNL A   1      41.281  28.344  28.930  1.00  0.00    -0.248 NA
ATOM     42  C   UNL A   1      39.513  26.830  29.130  1.00  0.00     0.031 C 
ATOM     43  C   UNL A   1      43.631  25.223  26.744  1.00  0.00     0.029 A 
ATOM     44  N   UNL A   1      43.691  27.281  27.616  1.00  0.00    -0.354 N 
ATOM     45  C   UNL A   1      40.216  28.966  29.573  1.00  0.00     0.074 A 
ATOM     46  C   UNL A   1      39.136  28.001  29.620  1.00  0.00     0.031 C 
ATOM     47  C   UNL A   1      44.837  25.744  26.466  1.00  0.00     0.029 A 
ATOM     48  C   UNL A   1      44.902  27.104  26.989  1.00  0.00     0.049 A 
ATOM     49  H   UNL A   1      43.452  28.104  28.101  1.00  0.00     0.167 HD
ATOM     50  C   UNL A   1      40.153  30.220  30.085  1.00  0.00     0.034 A 
ATOM     51  C   UNL A   1      45.938  27.949  26.832  1.00  0.00     0.034 A 
ATOM     52  C   UNL A   1      41.241  31.164  30.046  1.00  0.00     0.049 A 
ATOM     53  C   UNL A   1      45.846  29.335  27.409  1.00  0.00     0.074 A 
ATOM     54  C   UNL A   1      41.304  32.437  30.586  1.00  0.00     0.029 A 
ATOM     55  N   UNL A   1      42.463  30.939  29.424  1.00  0.00    -0.354 N 
ATOM     56  N   UNL A   1      44.843  29.900  28.039  1.00  0.00    -0.248 NA
ATOM     57  C   UNL A   1      47.026  30.196  27.255  1.00  0.00     0.031 C 
ATOM     58  C   UNL A   1      42.545  32.996  30.256  1.00  0.00     0.029 A 
ATOM     59  C   UNL A   1      43.276  32.055  29.550  1.00  0.00     0.049 A 
ATOM     60  H   UNL A   1      42.714  30.107  28.960  1.00  0.00     0.167 HD
ATOM     61  C   UNL A   1      45.279  31.178  28.373  1.00  0.00     0.074 A 
ATOM     62  C   UNL A   1      46.636  31.297  27.879  1.00  0.00     0.031 C 
ATOM     63  C   UNL A   1      44.620  32.160  29.035  1.00  0.00     0.034 A 
BRANCH  50  64
ATOM     64  C   UNL A   1      38.842  30.637  30.702  1.00  0.00     0.023 A 
ATOM     65  C   UNL A   1      37.815  31.206  29.927  1.00  0.00     0.031 A 
ATOM     66  C   UNL A   1      38.636  30.516  32.087  1.00  0.00     0.131 A 
ATOM     67  C   UNL A   1      36.665  31.708  30.554  1.00  0.00     0.055 A 
ATOM     68  C   UNL A   1      37.456  30.950  32.695  1.00  0.00     0.041 A 
ATOM     69  F   UNL A   1      39.589  29.997  32.876  1.00  0.00    -0.206 F 
ATOM     70  C   UNL A   1      36.469  31.565  31.930  1.00  0.00     0.022 A 
BRANCH  67  71
ATOM     71  S   UNL A   1      35.496  32.678  29.564  1.00  0.00     0.124 S 
ATOM     72  O   UNL A   1      36.172  33.972  29.495  1.00  0.00    -0.237 OA
ATOM     73  O   UNL A   1      35.435  31.924  28.317  1.00  0.00    -0.237 OA
ATOM     74  O   UNL A   1      34.273  32.663  30.364  1.00  0.00    -0.744 OA
ENDBRANCH  67  71
ENDBRANCH  50  64
BRANCH  51  75
ATOM     75  C   UNL A   1      47.146  27.522  26.078  1.00  0.00     0.023 A 
ATOM     76  C   UNL A   1      47.275  27.806  24.710  1.00  0.00     0.031 A 
ATOM     77  C   UNL A   1      48.176  26.807  26.710  1.00  0.00     0.131 A 
ATOM     78  C   UNL A   1      48.399  27.346  24.007  1.00  0.00     0.055 A 
ATOM     79  C   UNL A   1      49.306  26.379  26.015  1.00  0.00     0.041 A 
ATOM     80  F   UNL A   1      48.099  26.526  28.020  1.00  0.00    -0.206 F 
ATOM     81  C   UNL A   1      49.419  26.641  24.652  1.00  0.00     0.022 A 
BRANCH  78  82
ATOM     82  S   UNL A   1      48.490  27.647  22.222  1.00  0.00     0.124 S 
ATOM     83  O   UNL A   1      49.704  28.447  22.114  1.00  0.00    -0.237 OA
ATOM     84  O   UNL A   1      48.567  26.289  21.691  1.00  0.00    -0.237 OA
ATOM     85  O   UNL A   1      47.247  28.355  21.931  1.00  0.00    -0.744 OA
ENDBRANCH  78  82
ENDBRANCH  51  75
BRANCH  63  86
ATOM     86  C   UNL A   1      45.384  33.430  29.291  1.00  0.00     0.023 A 
ATOM     87  C   UNL A   1      45.324  34.516  28.401  1.00  0.00     0.031 A 
ATOM     88  C   UNL A   1      46.199  33.543  30.429  1.00  0.00     0.131 A 
ATOM     89  C   UNL A   1      46.102  35.658  28.644  1.00  0.00     0.055 A 
ATOM     90  C   UNL A   1      46.939  34.697  30.687  1.00  0.00     0.041 A 
ATOM     91  F   UNL A   1      46.290  32.531  31.306  1.00  0.00    -0.206 F 
ATOM     92  C   UNL A   1      46.900  35.759  29.787  1.00  0.00     0.022 A 
BRANCH  89  93
ATOM     93  S   UNL A   1      46.100  36.993  27.416  1.00  0.00     0.124 S 
ATOM     94  O   UNL A   1      46.870  36.403  26.326  1.00  0.00    -0.237 OA
ATOM     95  O   UNL A   1      44.677  37.184  27.161  1.00  0.00    -0.237 OA
ATOM     96  O   UNL A   1      46.757  38.098  28.111  1.00  0.00    -0.744 OA
ENDBRANCH  89  93
ENDBRANCH  63  86
ENDBRANCH  37  38
ENDBRANCH  29  32
ENDBRANCH  27  28
ENDBRANCH  26  27
ENDBRANCH   1  26
TORSDOF 17
ENDMDL
