MODEL 1
REMARK VINA RESULT:     -11.8      0.000      0.000
REMARK SMILES CC(C)(C[N@H+]1C[C@@H]2C[NH2+]C[C@H]2C1(C)C)C(=O)NCCCCNC(=O)c1ccc(-c2c3nc(c(-c4cc(S(=O)(=O)[O-])ccc4F)c4ccc([nH]4)c(-c4cc(S(=O)(=O)[O-])ccc4F)c4nc(c(-c5cc(S(=O)(=O)[O-])ccc5F)c5ccc2[nH]5)C=C4)C=C3)cc1
REMARK SMILES IDX 20 1 19 2 18 3 17 4 15 5 16 6 2 8 1 9 3 10 4 11 5 12 6 13
REMARK SMILES IDX 12 14 7 16 11 17 13 18 14 19 8 20 10 21 9 22 21 25 22 26
REMARK SMILES IDX 23 27 24 29 25 30 26 31 87 32 27 33 86 34 28 35 29 36 30 37
REMARK SMILES IDX 80 38 31 39 85 40 79 41 81 42 32 43 84 44 78 45 77 46 33 48
REMARK SMILES IDX 65 49 45 50 64 51 46 52 49 53 63 54 82 55 47 56 48 57 62 59
REMARK SMILES IDX 83 60 50 61 34 62 35 63 43 64 36 65 42 66 44 67 41 68 37 69
REMARK SMILES IDX 38 70 39 71 40 72 66 73 67 74 75 75 68 76 74 77 76 78 73 79
REMARK SMILES IDX 69 80 70 81 71 82 72 83 51 84 52 85 60 86 53 87 59 88 61 89
REMARK SMILES IDX 58 90 54 91 55 92 56 93 57 94
REMARK H PARENT 17 7 5 15 9 23 9 24 22 28 81 47 49 58
REMARK Flexibility Score: inf
ROOT
ATOM      1  C   UNL A   1      32.944  29.062  23.657  1.00  0.00     0.023 C 
ENDROOT
BRANCH   1   2
ATOM      2  C   UNL A   1      31.457  28.953  23.347  1.00  0.00     0.023 C 
BRANCH   2   3
ATOM      3  C   UNL A   1      31.041  27.775  22.470  1.00  0.00     0.116 C 
BRANCH   3   4
ATOM      4  N   UNL A   1      32.159  27.021  21.926  1.00  0.00    -0.355 N 
ATOM      5  C   UNL A   1      32.654  25.773  22.155  1.00  0.00     0.231 C 
ATOM      6  O   UNL A   1      33.538  25.402  21.374  1.00  0.00    -0.274 OA
ATOM      7  H   UNL A   1      32.666  27.519  21.244  1.00  0.00     0.163 HD
BRANCH   5   8
ATOM      8  C   UNL A   1      32.164  24.844  23.290  1.00  0.00     0.092 C 
ATOM      9  C   UNL A   1      30.652  24.554  23.128  1.00  0.00     0.027 C 
ATOM     10  C   UNL A   1      32.283  25.616  24.626  1.00  0.00     0.027 C 
BRANCH   8  11
ATOM     11  C   UNL A   1      32.957  23.502  23.353  1.00  0.00     0.279 C 
BRANCH  11  12
ATOM     12  N   UNL A   1      33.180  22.795  24.633  1.00  0.00    -0.329 N 
ATOM     13  C   UNL A   1      32.500  21.481  24.804  1.00  0.00     0.272 C 
ATOM     14  C   UNL A   1      34.643  22.593  25.005  1.00  0.00     0.101 C 
ATOM     15  H   UNL A   1      32.740  23.465  25.264  1.00  0.00     0.348 HD
ATOM     16  C   UNL A   1      33.599  20.514  24.510  1.00  0.00     0.114 C 
ATOM     17  C   UNL A   1      34.714  21.094  25.338  1.00  0.00     0.119 C 
ATOM     18  C   UNL A   1      35.723  23.015  23.993  1.00  0.00     0.079 C 
ATOM     19  C   UNL A   1      34.880  23.422  26.281  1.00  0.00     0.079 C 
ATOM     20  C   UNL A   1      33.641  19.074  24.930  1.00  0.00     0.270 C 
ATOM     21  C   UNL A   1      35.814  20.117  24.992  1.00  0.00     0.271 C 
ATOM     22  N   UNL A   1      35.105  18.808  24.936  1.00  0.00    -0.345 N 
ATOM     23  H   UNL A   1      35.369  18.308  24.088  1.00  0.00     0.346 HD
ATOM     24  H   UNL A   1      35.357  18.237  25.742  1.00  0.00     0.346 HD
ENDBRANCH  11  12
ENDBRANCH   8  11
ENDBRANCH   5   8
ENDBRANCH   3   4
ENDBRANCH   2   3
ENDBRANCH   1   2
BRANCH   1  25
ATOM     25  C   UNL A   1      33.260  29.227  25.134  1.00  0.00     0.116 C 
BRANCH  25  26
ATOM     26  N   UNL A   1      32.603  30.386  25.721  1.00  0.00    -0.352 N 
ATOM     27  C   UNL A   1      32.971  31.114  26.827  1.00  0.00     0.251 C 
ATOM     28  H   UNL A   1      31.786  30.690  25.265  1.00  0.00     0.163 HD
ATOM     29  O   UNL A   1      32.215  31.970  27.276  1.00  0.00    -0.269 OA
BRANCH  27  30
ATOM     30  C   UNL A   1      34.265  30.829  27.475  1.00  0.00     0.039 A 
ATOM     31  C   UNL A   1      35.188  31.864  27.637  1.00  0.00     0.014 A 
ATOM     32  C   UNL A   1      34.545  29.547  27.955  1.00  0.00     0.014 A 
ATOM     33  C   UNL A   1      36.370  31.626  28.339  1.00  0.00     0.010 A 
ATOM     34  C   UNL A   1      35.680  29.334  28.725  1.00  0.00     0.010 A 
ATOM     35  C   UNL A   1      36.608  30.368  28.917  1.00  0.00    -0.014 A 
BRANCH  35  36
ATOM     36  C   UNL A   1      37.840  30.089  29.696  1.00  0.00     0.031 A 
ATOM     37  C   UNL A   1      38.871  29.150  29.132  1.00  0.00     0.074 A 
ATOM     38  C   UNL A   1      37.991  30.614  30.928  1.00  0.00     0.049 A 
ATOM     39  N   UNL A   1      39.945  28.662  29.693  1.00  0.00    -0.248 NA
ATOM     40  C   UNL A   1      38.635  28.665  27.763  1.00  0.00     0.031 C 
ATOM     41  C   UNL A   1      37.041  31.511  31.590  1.00  0.00     0.029 A 
ATOM     42  N   UNL A   1      38.995  30.459  31.850  1.00  0.00    -0.354 N 
ATOM     43  C   UNL A   1      40.502  27.799  28.755  1.00  0.00     0.074 A 
ATOM     44  C   UNL A   1      39.609  27.781  27.617  1.00  0.00     0.031 C 
ATOM     45  C   UNL A   1      37.519  31.843  32.801  1.00  0.00     0.029 A 
ATOM     46  C   UNL A   1      38.783  31.147  33.022  1.00  0.00     0.049 A 
ATOM     47  H   UNL A   1      39.795  29.906  31.687  1.00  0.00     0.167 HD
ATOM     48  C   UNL A   1      41.666  27.107  28.828  1.00  0.00     0.034 A 
ATOM     49  C   UNL A   1      39.517  31.196  34.150  1.00  0.00     0.034 A 
ATOM     50  C   UNL A   1      42.553  27.157  29.962  1.00  0.00     0.049 A 
ATOM     51  C   UNL A   1      40.801  30.405  34.213  1.00  0.00     0.074 A 
ATOM     52  C   UNL A   1      43.774  26.529  30.132  1.00  0.00     0.029 A 
ATOM     53  N   UNL A   1      42.315  27.883  31.124  1.00  0.00    -0.354 N 
ATOM     54  N   UNL A   1      41.330  29.615  33.306  1.00  0.00    -0.248 NA
ATOM     55  C   UNL A   1      41.591  30.520  35.445  1.00  0.00     0.031 C 
ATOM     56  C   UNL A   1      44.248  26.831  31.414  1.00  0.00     0.029 A 
ATOM     57  C   UNL A   1      43.358  27.705  32.018  1.00  0.00     0.049 A 
ATOM     58  H   UNL A   1      41.521  28.443  31.287  1.00  0.00     0.167 HD
ATOM     59  C   UNL A   1      42.535  29.173  33.845  1.00  0.00     0.074 A 
ATOM     60  C   UNL A   1      42.657  29.791  35.150  1.00  0.00     0.031 C 
ATOM     61  C   UNL A   1      43.461  28.337  33.311  1.00  0.00     0.034 A 
BRANCH  48  62
ATOM     62  C   UNL A   1      42.025  26.231  27.652  1.00  0.00     0.023 A 
ATOM     63  C   UNL A   1      41.594  24.895  27.570  1.00  0.00     0.031 A 
ATOM     64  C   UNL A   1      42.835  26.725  26.613  1.00  0.00     0.131 A 
ATOM     65  C   UNL A   1      42.038  24.078  26.520  1.00  0.00     0.055 A 
ATOM     66  C   UNL A   1      43.204  25.930  25.526  1.00  0.00     0.041 A 
ATOM     67  F   UNL A   1      43.295  27.986  26.646  1.00  0.00    -0.206 F 
ATOM     68  C   UNL A   1      42.819  24.593  25.483  1.00  0.00     0.022 A 
BRANCH  65  69
ATOM     69  S   UNL A   1      41.699  22.298  26.607  1.00  0.00     0.124 S 
ATOM     70  O   UNL A   1      42.402  21.924  27.831  1.00  0.00    -0.237 OA
ATOM     71  O   UNL A   1      40.242  22.256  26.668  1.00  0.00    -0.237 OA
ATOM     72  O   UNL A   1      42.287  21.778  25.375  1.00  0.00    -0.744 OA
ENDBRANCH  65  69
ENDBRANCH  48  62
BRANCH  49  73
ATOM     73  C   UNL A   1      39.072  32.012  35.316  1.00  0.00     0.023 A 
ATOM     74  C   UNL A   1      38.493  31.405  36.441  1.00  0.00     0.031 A 
ATOM     75  C   UNL A   1      39.164  33.416  35.300  1.00  0.00     0.131 A 
ATOM     76  C   UNL A   1      37.976  32.197  37.479  1.00  0.00     0.055 A 
ATOM     77  C   UNL A   1      38.700  34.197  36.360  1.00  0.00     0.041 A 
ATOM     78  F   UNL A   1      39.714  34.049  34.252  1.00  0.00    -0.206 F 
ATOM     79  C   UNL A   1      38.087  33.588  37.451  1.00  0.00     0.022 A 
BRANCH  76  80
ATOM     80  S   UNL A   1      37.063  31.383  38.818  1.00  0.00     0.124 S 
ATOM     81  O   UNL A   1      36.940  30.021  38.309  1.00  0.00    -0.237 OA
ATOM     82  O   UNL A   1      37.964  31.566  39.951  1.00  0.00    -0.237 OA
ATOM     83  O   UNL A   1      35.816  32.140  38.888  1.00  0.00    -0.744 OA
ENDBRANCH  76  80
ENDBRANCH  49  73
BRANCH  61  84
ATOM     84  C   UNL A   1      44.714  28.100  34.117  1.00  0.00     0.023 A 
ATOM     85  C   UNL A   1      44.768  27.142  35.143  1.00  0.00     0.031 A 
ATOM     86  C   UNL A   1      45.871  28.852  33.847  1.00  0.00     0.131 A 
ATOM     87  C   UNL A   1      45.940  26.999  35.901  1.00  0.00     0.055 A 
ATOM     88  C   UNL A   1      47.052  28.664  34.567  1.00  0.00     0.041 A 
ATOM     89  F   UNL A   1      45.874  29.780  32.877  1.00  0.00    -0.206 F 
ATOM     90  C   UNL A   1      47.086  27.742  35.609  1.00  0.00     0.022 A 
BRANCH  87  91
ATOM     91  S   UNL A   1      45.920  25.883  37.331  1.00  0.00     0.124 S 
ATOM     92  O   UNL A   1      44.517  25.488  37.391  1.00  0.00    -0.237 OA
ATOM     93  O   UNL A   1      46.858  24.841  36.926  1.00  0.00    -0.237 OA
ATOM     94  O   UNL A   1      46.375  26.730  38.433  1.00  0.00    -0.744 OA
ENDBRANCH  87  91
ENDBRANCH  61  84
ENDBRANCH  35  36
ENDBRANCH  27  30
ENDBRANCH  25  26
ENDBRANCH   1  25
TORSDOF 16
ENDMDL
MODEL 2
REMARK VINA RESULT:     -11.8      2.366      3.275
REMARK SMILES CC(C)(C[N@H+]1C[C@@H]2C[NH2+]C[C@H]2C1(C)C)C(=O)NCCCCNC(=O)c1ccc(-c2c3nc(c(-c4cc(S(=O)(=O)[O-])ccc4F)c4ccc([nH]4)c(-c4cc(S(=O)(=O)[O-])ccc4F)c4nc(c(-c5cc(S(=O)(=O)[O-])ccc5F)c5ccc2[nH]5)C=C4)C=C3)cc1
REMARK SMILES IDX 20 1 19 2 18 3 17 4 15 5 16 6 2 8 1 9 3 10 4 11 5 12 6 13
REMARK SMILES IDX 12 14 7 16 11 17 13 18 14 19 8 20 10 21 9 22 21 25 22 26
REMARK SMILES IDX 23 27 24 29 25 30 26 31 87 32 27 33 86 34 28 35 29 36 30 37
REMARK SMILES IDX 80 38 31 39 85 40 79 41 81 42 32 43 84 44 78 45 77 46 33 48
REMARK SMILES IDX 65 49 45 50 64 51 46 52 49 53 63 54 82 55 47 56 48 57 62 59
REMARK SMILES IDX 83 60 50 61 34 62 35 63 43 64 36 65 42 66 44 67 41 68 37 69
REMARK SMILES IDX 38 70 39 71 40 72 66 73 67 74 75 75 68 76 74 77 76 78 73 79
REMARK SMILES IDX 69 80 70 81 71 82 72 83 51 84 52 85 60 86 53 87 59 88 61 89
REMARK SMILES IDX 58 90 54 91 55 92 56 93 57 94
REMARK H PARENT 17 7 5 15 9 23 9 24 22 28 81 47 49 58
REMARK Flexibility Score: inf
ROOT
ATOM      1  C   UNL A   1      31.915  31.679  26.524  1.00  0.00     0.023 C 
ENDROOT
BRANCH   1   2
ATOM      2  C   UNL A   1      31.812  30.195  26.851  1.00  0.00     0.023 C 
BRANCH   2   3
ATOM      3  C   UNL A   1      33.039  29.350  26.518  1.00  0.00     0.116 C 
BRANCH   3   4
ATOM      4  N   UNL A   1      33.465  29.450  25.131  1.00  0.00    -0.355 N 
ATOM      5  C   UNL A   1      33.251  28.687  24.023  1.00  0.00     0.231 C 
ATOM      6  O   UNL A   1      33.645  29.177  22.958  1.00  0.00    -0.274 OA
ATOM      7  H   UNL A   1      34.028  30.238  24.955  1.00  0.00     0.163 HD
BRANCH   5   8
ATOM      8  C   UNL A   1      32.554  27.306  24.045  1.00  0.00     0.092 C 
ATOM      9  C   UNL A   1      32.390  26.768  22.603  1.00  0.00     0.027 C 
ATOM     10  C   UNL A   1      31.111  27.506  24.566  1.00  0.00     0.027 C 
BRANCH   8  11
ATOM     11  C   UNL A   1      33.319  26.262  24.917  1.00  0.00     0.279 C 
BRANCH  11  12
ATOM     12  N   UNL A   1      33.367  24.832  24.544  1.00  0.00    -0.329 N 
ATOM     13  C   UNL A   1      34.709  24.187  24.517  1.00  0.00     0.272 C 
ATOM     14  C   UNL A   1      32.453  23.926  25.361  1.00  0.00     0.101 C 
ATOM     15  H   UNL A   1      33.032  24.906  23.584  1.00  0.00     0.348 HD
ATOM     16  C   UNL A   1      34.739  23.462  25.823  1.00  0.00     0.114 C 
ATOM     17  C   UNL A   1      33.390  22.793  25.805  1.00  0.00     0.119 C 
ATOM     18  C   UNL A   1      31.680  24.538  26.543  1.00  0.00     0.079 C 
ATOM     19  C   UNL A   1      31.401  23.379  24.377  1.00  0.00     0.079 C 
ATOM     20  C   UNL A   1      35.633  22.308  26.169  1.00  0.00     0.270 C 
ATOM     21  C   UNL A   1      33.439  22.100  27.146  1.00  0.00     0.271 C 
ATOM     22  N   UNL A   1      34.852  21.636  27.242  1.00  0.00    -0.345 N 
ATOM     23  H   UNL A   1      35.236  21.883  28.154  1.00  0.00     0.346 HD
ATOM     24  H   UNL A   1      34.898  20.624  27.132  1.00  0.00     0.346 HD
ENDBRANCH  11  12
ENDBRANCH   8  11
ENDBRANCH   5   8
ENDBRANCH   3   4
ENDBRANCH   2   3
ENDBRANCH   1   2
BRANCH   1  25
ATOM     25  C   UNL A   1      33.013  32.408  27.279  1.00  0.00     0.116 C 
BRANCH  25  26
ATOM     26  N   UNL A   1      32.654  33.782  27.601  1.00  0.00    -0.352 N 
ATOM     27  C   UNL A   1      33.151  34.590  28.594  1.00  0.00     0.251 C 
ATOM     28  H   UNL A   1      31.963  34.187  27.029  1.00  0.00     0.163 HD
ATOM     29  O   UNL A   1      32.624  35.675  28.823  1.00  0.00    -0.269 OA
BRANCH  27  30
ATOM     30  C   UNL A   1      34.300  34.122  29.392  1.00  0.00     0.039 A 
ATOM     31  C   UNL A   1      34.068  33.322  30.513  1.00  0.00     0.014 A 
ATOM     32  C   UNL A   1      35.604  34.443  29.007  1.00  0.00     0.014 A 
ATOM     33  C   UNL A   1      35.153  32.792  31.213  1.00  0.00     0.010 A 
ATOM     34  C   UNL A   1      36.678  33.847  29.652  1.00  0.00     0.010 A 
ATOM     35  C   UNL A   1      36.464  33.022  30.767  1.00  0.00    -0.014 A 
BRANCH  35  36
ATOM     36  C   UNL A   1      37.639  32.449  31.469  1.00  0.00     0.031 A 
ATOM     37  C   UNL A   1      38.388  31.307  30.838  1.00  0.00     0.074 A 
ATOM     38  C   UNL A   1      37.978  32.899  32.693  1.00  0.00     0.049 A 
ATOM     39  N   UNL A   1      39.349  30.572  31.331  1.00  0.00    -0.248 NA
ATOM     40  C   UNL A   1      37.969  30.919  29.482  1.00  0.00     0.031 C 
ATOM     41  C   UNL A   1      37.302  33.978  33.416  1.00  0.00     0.029 A 
ATOM     42  N   UNL A   1      38.968  32.495  33.552  1.00  0.00    -0.354 N 
ATOM     43  C   UNL A   1      39.636  29.622  30.355  1.00  0.00     0.074 A 
ATOM     44  C   UNL A   1      38.700  29.835  29.272  1.00  0.00     0.031 C 
ATOM     45  C   UNL A   1      37.912  34.164  34.599  1.00  0.00     0.029 A 
ATOM     46  C   UNL A   1      38.989  33.189  34.739  1.00  0.00     0.049 A 
ATOM     47  H   UNL A   1      39.606  31.775  33.338  1.00  0.00     0.167 HD
ATOM     48  C   UNL A   1      40.608  28.677  30.353  1.00  0.00     0.034 A 
ATOM     49  C   UNL A   1      39.777  33.043  35.822  1.00  0.00     0.034 A 
ATOM     50  C   UNL A   1      41.545  28.496  31.433  1.00  0.00     0.049 A 
ATOM     51  C   UNL A   1      40.842  31.974  35.803  1.00  0.00     0.074 A 
ATOM     52  C   UNL A   1      42.594  27.598  31.526  1.00  0.00     0.029 A 
ATOM     53  N   UNL A   1      41.549  29.234  32.611  1.00  0.00    -0.354 N 
ATOM     54  N   UNL A   1      41.120  31.102  34.860  1.00  0.00    -0.248 NA
ATOM     55  C   UNL A   1      41.706  31.877  36.986  1.00  0.00     0.031 C 
ATOM     56  C   UNL A   1      43.196  27.755  32.779  1.00  0.00     0.029 A 
ATOM     57  C   UNL A   1      42.570  28.799  33.441  1.00  0.00     0.049 A 
ATOM     58  H   UNL A   1      40.918  29.959  32.825  1.00  0.00     0.167 HD
ATOM     59  C   UNL A   1      42.218  30.381  35.324  1.00  0.00     0.074 A 
ATOM     60  C   UNL A   1      42.553  30.927  36.623  1.00  0.00     0.031 C 
ATOM     61  C   UNL A   1      42.891  29.363  34.730  1.00  0.00     0.034 A 
BRANCH  48  62
ATOM     62  C   UNL A   1      40.685  27.766  29.152  1.00  0.00     0.023 A 
ATOM     63  C   UNL A   1      41.619  27.982  28.122  1.00  0.00     0.031 A 
ATOM     64  C   UNL A   1      39.794  26.687  29.015  1.00  0.00     0.131 A 
ATOM     65  C   UNL A   1      41.587  27.184  26.969  1.00  0.00     0.055 A 
ATOM     66  C   UNL A   1      39.824  25.844  27.902  1.00  0.00     0.041 A 
ATOM     67  F   UNL A   1      38.866  26.443  29.955  1.00  0.00    -0.206 F 
ATOM     68  C   UNL A   1      40.714  26.100  26.863  1.00  0.00     0.022 A 
BRANCH  65  69
ATOM     69  S   UNL A   1      42.607  27.674  25.551  1.00  0.00     0.124 S 
ATOM     70  O   UNL A   1      43.890  27.951  26.194  1.00  0.00    -0.237 OA
ATOM     71  O   UNL A   1      42.559  26.490  24.702  1.00  0.00    -0.237 OA
ATOM     72  O   UNL A   1      41.917  28.849  25.023  1.00  0.00    -0.744 OA
ENDBRANCH  65  69
ENDBRANCH  48  62
BRANCH  49  73
ATOM     73  C   UNL A   1      39.601  33.917  37.018  1.00  0.00     0.023 A 
ATOM     74  C   UNL A   1      38.977  33.432  38.178  1.00  0.00     0.031 A 
ATOM     75  C   UNL A   1      40.000  35.266  37.000  1.00  0.00     0.131 A 
ATOM     76  C   UNL A   1      38.719  34.299  39.251  1.00  0.00     0.055 A 
ATOM     77  C   UNL A   1      39.791  36.111  38.091  1.00  0.00     0.041 A 
ATOM     78  F   UNL A   1      40.606  35.781  35.918  1.00  0.00    -0.206 F 
ATOM     79  C   UNL A   1      39.132  35.633  39.220  1.00  0.00     0.022 A 
BRANCH  76  80
ATOM     80  S   UNL A   1      37.739  33.683  40.647  1.00  0.00     0.124 S 
ATOM     81  O   UNL A   1      36.647  32.997  39.964  1.00  0.00    -0.237 OA
ATOM     82  O   UNL A   1      38.701  32.830  41.337  1.00  0.00    -0.237 OA
ATOM     83  O   UNL A   1      37.363  34.900  41.362  1.00  0.00    -0.744 OA
ENDBRANCH  76  80
ENDBRANCH  49  73
BRANCH  61  84
ATOM     84  C   UNL A   1      44.097  28.825  35.457  1.00  0.00     0.023 A 
ATOM     85  C   UNL A   1      43.999  27.774  36.384  1.00  0.00     0.031 A 
ATOM     86  C   UNL A   1      45.366  29.381  35.214  1.00  0.00     0.131 A 
ATOM     87  C   UNL A   1      45.142  27.347  37.076  1.00  0.00     0.055 A 
ATOM     88  C   UNL A   1      46.509  28.912  35.864  1.00  0.00     0.041 A 
ATOM     89  F   UNL A   1      45.516  30.387  34.338  1.00  0.00    -0.206 F 
ATOM     90  C   UNL A   1      46.398  27.898  36.811  1.00  0.00     0.022 A 
BRANCH  87  91
ATOM     91  S   UNL A   1      44.952  26.113  38.392  1.00  0.00     0.124 S 
ATOM     92  O   UNL A   1      44.227  26.864  39.412  1.00  0.00    -0.237 OA
ATOM     93  O   UNL A   1      44.199  25.057  37.724  1.00  0.00    -0.237 OA
ATOM     94  O   UNL A   1      46.329  25.766  38.739  1.00  0.00    -0.744 OA
ENDBRANCH  87  91
ENDBRANCH  61  84
ENDBRANCH  35  36
ENDBRANCH  27  30
ENDBRANCH  25  26
ENDBRANCH   1  25
TORSDOF 16
ENDMDL
MODEL 3
REMARK VINA RESULT:     -11.7      1.976      2.546
REMARK SMILES CC(C)(C[N@H+]1C[C@@H]2C[NH2+]C[C@H]2C1(C)C)C(=O)NCCCCNC(=O)c1ccc(-c2c3nc(c(-c4cc(S(=O)(=O)[O-])ccc4F)c4ccc([nH]4)c(-c4cc(S(=O)(=O)[O-])ccc4F)c4nc(c(-c5cc(S(=O)(=O)[O-])ccc5F)c5ccc2[nH]5)C=C4)C=C3)cc1
REMARK SMILES IDX 20 1 19 2 18 3 17 4 15 5 16 6 2 8 1 9 3 10 4 11 5 12 6 13
REMARK SMILES IDX 12 14 7 16 11 17 13 18 14 19 8 20 10 21 9 22 21 25 22 26
REMARK SMILES IDX 23 27 24 29 25 30 26 31 87 32 27 33 86 34 28 35 29 36 30 37
REMARK SMILES IDX 80 38 31 39 85 40 79 41 81 42 32 43 84 44 78 45 77 46 33 48
REMARK SMILES IDX 65 49 45 50 64 51 46 52 49 53 63 54 82 55 47 56 48 57 62 59
REMARK SMILES IDX 83 60 50 61 34 62 35 63 43 64 36 65 42 66 44 67 41 68 37 69
REMARK SMILES IDX 38 70 39 71 40 72 66 73 67 74 75 75 68 76 74 77 76 78 73 79
REMARK SMILES IDX 69 80 70 81 71 82 72 83 51 84 52 85 60 86 53 87 59 88 61 89
REMARK SMILES IDX 58 90 54 91 55 92 56 93 57 94
REMARK H PARENT 17 7 5 15 9 23 9 24 22 28 81 47 49 58
REMARK Flexibility Score: inf
ROOT
ATOM      1  C   UNL A   1      31.690  28.570  25.080  1.00  0.00     0.023 C 
ENDROOT
BRANCH   1   2
ATOM      2  C   UNL A   1      31.963  27.072  25.021  1.00  0.00     0.023 C 
BRANCH   2   3
ATOM      3  C   UNL A   1      32.254  26.392  26.356  1.00  0.00     0.116 C 
BRANCH   3   4
ATOM      4  N   UNL A   1      31.240  25.433  26.763  1.00  0.00    -0.355 N 
ATOM      5  C   UNL A   1      31.076  24.095  26.568  1.00  0.00     0.231 C 
ATOM      6  O   UNL A   1      30.158  23.573  27.213  1.00  0.00    -0.274 OA
ATOM      7  H   UNL A   1      30.516  25.837  27.295  1.00  0.00     0.163 HD
BRANCH   5   8
ATOM      8  C   UNL A   1      31.963  23.244  25.629  1.00  0.00     0.092 C 
ATOM      9  C   UNL A   1      31.862  23.771  24.177  1.00  0.00     0.027 C 
ATOM     10  C   UNL A   1      31.373  21.814  25.579  1.00  0.00     0.027 C 
BRANCH   8  11
ATOM     11  C   UNL A   1      33.456  23.212  26.079  1.00  0.00     0.279 C 
BRANCH  11  12
ATOM     12  N   UNL A   1      34.545  23.635  25.172  1.00  0.00    -0.329 N 
ATOM     13  C   UNL A   1      35.603  24.509  25.751  1.00  0.00     0.272 C 
ATOM     14  C   UNL A   1      35.253  22.497  24.447  1.00  0.00     0.101 C 
ATOM     15  H   UNL A   1      33.999  24.192  24.515  1.00  0.00     0.348 HD
ATOM     16  C   UNL A   1      36.707  23.538  26.015  1.00  0.00     0.114 C 
ATOM     17  C   UNL A   1      36.739  22.786  24.712  1.00  0.00     0.119 C 
ATOM     18  C   UNL A   1      34.870  21.050  24.804  1.00  0.00     0.079 C 
ATOM     19  C   UNL A   1      34.944  22.683  22.950  1.00  0.00     0.079 C 
ATOM     20  C   UNL A   1      38.157  23.881  26.191  1.00  0.00     0.270 C 
ATOM     21  C   UNL A   1      37.836  21.796  25.024  1.00  0.00     0.271 C 
ATOM     22  N   UNL A   1      38.814  22.602  25.807  1.00  0.00    -0.345 N 
ATOM     23  H   UNL A   1      39.092  22.091  26.645  1.00  0.00     0.346 HD
ATOM     24  H   UNL A   1      39.646  22.787  25.247  1.00  0.00     0.346 HD
ENDBRANCH  11  12
ENDBRANCH   8  11
ENDBRANCH   5   8
ENDBRANCH   3   4
ENDBRANCH   2   3
ENDBRANCH   1   2
BRANCH   1  25
ATOM     25  C   UNL A   1      32.738  29.363  25.842  1.00  0.00     0.116 C 
BRANCH  25  26
ATOM     26  N   UNL A   1      32.296  30.713  26.161  1.00  0.00    -0.352 N 
ATOM     27  C   UNL A   1      32.857  31.619  27.027  1.00  0.00     0.251 C 
ATOM     28  H   UNL A   1      31.486  31.018  25.692  1.00  0.00     0.163 HD
ATOM     29  O   UNL A   1      32.264  32.660  27.294  1.00  0.00    -0.269 OA
BRANCH  27  30
ATOM     30  C   UNL A   1      34.158  31.306  27.648  1.00  0.00     0.039 A 
ATOM     31  C   UNL A   1      35.116  32.315  27.766  1.00  0.00     0.014 A 
ATOM     32  C   UNL A   1      34.411  30.026  28.146  1.00  0.00     0.014 A 
ATOM     33  C   UNL A   1      36.308  32.054  28.443  1.00  0.00     0.010 A 
ATOM     34  C   UNL A   1      35.558  29.793  28.891  1.00  0.00     0.010 A 
ATOM     35  C   UNL A   1      36.523  30.801  29.040  1.00  0.00    -0.014 A 
BRANCH  35  36
ATOM     36  C   UNL A   1      37.765  30.499  29.793  1.00  0.00     0.031 A 
ATOM     37  C   UNL A   1      38.766  29.541  29.206  1.00  0.00     0.074 A 
ATOM     38  C   UNL A   1      37.951  31.020  31.021  1.00  0.00     0.049 A 
ATOM     39  N   UNL A   1      39.843  29.033  29.745  1.00  0.00    -0.248 NA
ATOM     40  C   UNL A   1      38.493  29.061  27.842  1.00  0.00     0.031 C 
ATOM     41  C   UNL A   1      37.032  31.933  31.703  1.00  0.00     0.029 A 
ATOM     42  N   UNL A   1      38.972  30.845  31.922  1.00  0.00    -0.354 N 
ATOM     43  C   UNL A   1      40.364  28.160  28.796  1.00  0.00     0.074 A 
ATOM     44  C   UNL A   1      39.448  28.159  27.676  1.00  0.00     0.031 C 
ATOM     45  C   UNL A   1      37.541  32.255  32.904  1.00  0.00     0.029 A 
ATOM     46  C   UNL A   1      38.796  31.536  33.098  1.00  0.00     0.049 A 
ATOM     47  H   UNL A   1      39.757  30.278  31.742  1.00  0.00     0.167 HD
ATOM     48  C   UNL A   1      41.517  27.447  28.843  1.00  0.00     0.034 A 
ATOM     49  C   UNL A   1      39.555  31.571  34.211  1.00  0.00     0.034 A 
ATOM     50  C   UNL A   1      42.428  27.480  29.959  1.00  0.00     0.049 A 
ATOM     51  C   UNL A   1      40.825  30.756  34.247  1.00  0.00     0.074 A 
ATOM     52  C   UNL A   1      43.641  26.829  30.104  1.00  0.00     0.029 A 
ATOM     53  N   UNL A   1      42.227  28.209  31.126  1.00  0.00    -0.354 N 
ATOM     54  N   UNL A   1      41.320  29.957  33.328  1.00  0.00    -0.248 NA
ATOM     55  C   UNL A   1      41.642  30.856  35.462  1.00  0.00     0.031 C 
ATOM     56  C   UNL A   1      44.146  27.121  31.375  1.00  0.00     0.029 A 
ATOM     57  C   UNL A   1      43.285  28.011  31.998  1.00  0.00     0.049 A 
ATOM     58  H   UNL A   1      41.448  28.783  31.305  1.00  0.00     0.167 HD
ATOM     59  C   UNL A   1      42.528  29.493  33.843  1.00  0.00     0.074 A 
ATOM     60  C   UNL A   1      42.688  30.107  35.145  1.00  0.00     0.031 C 
ATOM     61  C   UNL A   1      43.426  28.640  33.289  1.00  0.00     0.034 A 
BRANCH  48  62
ATOM     62  C   UNL A   1      41.834  26.566  27.660  1.00  0.00     0.023 A 
ATOM     63  C   UNL A   1      41.669  25.170  27.715  1.00  0.00     0.031 A 
ATOM     64  C   UNL A   1      42.341  27.120  26.471  1.00  0.00     0.131 A 
ATOM     65  C   UNL A   1      42.080  24.372  26.637  1.00  0.00     0.055 A 
ATOM     66  C   UNL A   1      42.668  26.327  25.369  1.00  0.00     0.041 A 
ATOM     67  F   UNL A   1      42.541  28.444  26.365  1.00  0.00    -0.206 F 
ATOM     68  C   UNL A   1      42.553  24.943  25.454  1.00  0.00     0.022 A 
BRANCH  65  69
ATOM     69  S   UNL A   1      42.119  22.572  26.860  1.00  0.00     0.124 S 
ATOM     70  O   UNL A   1      43.477  22.368  27.358  1.00  0.00    -0.237 OA
ATOM     71  O   UNL A   1      41.045  22.349  27.821  1.00  0.00    -0.237 OA
ATOM     72  O   UNL A   1      41.871  22.056  25.516  1.00  0.00    -0.744 OA
ENDBRANCH  65  69
ENDBRANCH  48  62
BRANCH  49  73
ATOM     73  C   UNL A   1      39.149  32.394  35.386  1.00  0.00     0.023 A 
ATOM     74  C   UNL A   1      39.607  33.713  35.533  1.00  0.00     0.031 A 
ATOM     75  C   UNL A   1      38.344  31.860  36.408  1.00  0.00     0.131 A 
ATOM     76  C   UNL A   1      39.307  34.435  36.699  1.00  0.00     0.055 A 
ATOM     77  C   UNL A   1      38.001  32.600  37.541  1.00  0.00     0.041 A 
ATOM     78  F   UNL A   1      37.874  30.605  36.316  1.00  0.00    -0.206 F 
ATOM     79  C   UNL A   1      38.498  33.891  37.699  1.00  0.00     0.022 A 
BRANCH  76  80
ATOM     80  S   UNL A   1      40.079  36.058  36.937  1.00  0.00     0.124 S 
ATOM     81  O   UNL A   1      39.391  36.544  38.128  1.00  0.00    -0.237 OA
ATOM     82  O   UNL A   1      41.484  35.702  37.107  1.00  0.00    -0.237 OA
ATOM     83  O   UNL A   1      39.765  36.768  35.699  1.00  0.00    -0.744 OA
ENDBRANCH  76  80
ENDBRANCH  49  73
BRANCH  61  84
ATOM     84  C   UNL A   1      44.691  28.379  34.068  1.00  0.00     0.023 A 
ATOM     85  C   UNL A   1      44.786  27.336  35.004  1.00  0.00     0.031 A 
ATOM     86  C   UNL A   1      45.819  29.196  33.866  1.00  0.00     0.131 A 
ATOM     87  C   UNL A   1      45.967  27.170  35.744  1.00  0.00     0.055 A 
ATOM     88  C   UNL A   1      47.009  28.989  34.564  1.00  0.00     0.041 A 
ATOM     89  F   UNL A   1      45.782  30.206  32.983  1.00  0.00    -0.206 F 
ATOM     90  C   UNL A   1      47.083  27.979  35.519  1.00  0.00     0.022 A 
BRANCH  87  91
ATOM     91  S   UNL A   1      45.996  25.930  37.068  1.00  0.00     0.124 S 
ATOM     92  O   UNL A   1      47.348  26.078  37.595  1.00  0.00    -0.237 OA
ATOM     93  O   UNL A   1      44.919  26.382  37.943  1.00  0.00    -0.237 OA
ATOM     94  O   UNL A   1      45.737  24.674  36.367  1.00  0.00    -0.744 OA
ENDBRANCH  87  91
ENDBRANCH  61  84
ENDBRANCH  35  36
ENDBRANCH  27  30
ENDBRANCH  25  26
ENDBRANCH   1  25
TORSDOF 16
ENDMDL
