MODEL 1
REMARK VINA RESULT:     -12.4      0.000      0.000
REMARK SMILES CCc1cc(OC(F)(F)F)cc2c1O[C@@H](C(F)(F)F)C(C(=O)NCCCCNC(=O)c1ccc(-c3c4nc(c(-c5cc(S(=O)(=O)[O-])ccc5F)c5ccc([nH]5)c(-c5cc(S(=O)(=O)[O-])ccc5F)c5nc(c(-c6cc(S(=O)(=O)[O-])ccc6F)c6ccc3[nH]6)C=C5)C=C4)cc1)=C2
REMARK SMILES IDX 26 1 25 2 24 3 23 4 21 5 22 6 20 8 3 9 4 10 13 11 5 12 12 13
REMARK SMILES IDX 14 14 11 15 94 16 15 17 2 18 1 19 6 20 7 21 8 22 9 23 10 24
REMARK SMILES IDX 16 25 17 26 18 27 19 28 27 29 28 30 29 31 30 33 31 34 32 35
REMARK SMILES IDX 93 36 33 37 92 38 34 39 35 40 36 41 86 42 37 43 91 44 85 45
REMARK SMILES IDX 87 46 38 47 90 48 84 49 83 50 39 52 71 53 51 54 70 55 52 56
REMARK SMILES IDX 55 57 69 58 88 59 53 60 54 61 68 63 89 64 56 65 40 66 41 67
REMARK SMILES IDX 49 68 42 69 48 70 50 71 47 72 43 73 44 74 45 75 46 76 72 77
REMARK SMILES IDX 73 78 81 79 74 80 80 81 82 82 79 83 75 84 76 85 77 86 78 87
REMARK SMILES IDX 57 88 58 89 66 90 59 91 65 92 67 93 64 94 60 95 61 96 62 97
REMARK SMILES IDX 63 98
REMARK H PARENT 23 7 28 32 87 51 55 62
REMARK Flexibility Score: inf
ROOT
ATOM      1  C   UNL A   1      31.858  31.567  26.808  1.00  0.00     0.023 C 
ENDROOT
BRANCH   1   2
ATOM      2  C   UNL A   1      32.146  30.063  26.819  1.00  0.00     0.023 C 
BRANCH   2   3
ATOM      3  C   UNL A   1      33.410  29.656  26.050  1.00  0.00     0.116 C 
BRANCH   3   4
ATOM      4  N   UNL A   1      33.136  29.608  24.624  1.00  0.00    -0.352 N 
ATOM      5  C   UNL A   1      33.057  28.582  23.738  1.00  0.00     0.251 C 
ATOM      6  O   UNL A   1      32.955  28.855  22.543  1.00  0.00    -0.270 OA
ATOM      7  H   UNL A   1      32.976  30.493  24.222  1.00  0.00     0.163 HD
BRANCH   5   8
ATOM      8  C   UNL A   1      33.022  27.150  24.145  1.00  0.00     0.067 C 
ATOM      9  C   UNL A   1      32.625  23.115  25.308  1.00  0.00    -0.002 A 
ATOM     10  C   UNL A   1      33.789  22.396  25.647  1.00  0.00     0.054 A 
ATOM     11  C   UNL A   1      32.745  24.457  24.908  1.00  0.00     0.131 A 
ATOM     12  C   UNL A   1      35.046  22.999  25.606  1.00  0.00     0.130 A 
ATOM     13  C   UNL A   1      33.999  25.056  24.844  1.00  0.00     0.021 A 
ATOM     14  O   UNL A   1      31.597  25.146  24.647  1.00  0.00    -0.475 OA
ATOM     15  C   UNL A   1      35.142  24.328  25.192  1.00  0.00     0.058 A 
ATOM     16  C   UNL A   1      34.120  26.453  24.465  1.00  0.00     0.025 C 
ATOM     17  C   UNL A   1      31.671  26.456  24.011  1.00  0.00     0.314 C 
BRANCH   9  18
ATOM     18  C   UNL A   1      31.284  22.417  25.365  1.00  0.00     0.036 C 
ATOM     19  C   UNL A   1      30.442  22.852  26.558  1.00  0.00     0.009 C 
ENDBRANCH   9  18
BRANCH  12  20
ATOM     20  O   UNL A   1      36.239  22.426  25.937  1.00  0.00    -0.406 OA
BRANCH  20  21
ATOM     21  C   UNL A   1      37.399  22.869  25.257  1.00  0.00     0.573 C 
ATOM     22  F   UNL A   1      37.220  22.857  23.919  1.00  0.00    -0.132 F 
ATOM     23  F   UNL A   1      37.747  24.112  25.654  1.00  0.00    -0.132 F 
ATOM     24  F   UNL A   1      38.421  22.034  25.552  1.00  0.00    -0.132 F 
ENDBRANCH  20  21
ENDBRANCH  12  20
BRANCH  17  25
ATOM     25  C   UNL A   1      30.446  27.265  24.499  1.00  0.00     0.429 C 
ATOM     26  F   UNL A   1      29.306  26.541  24.512  1.00  0.00    -0.167 F 
ATOM     27  F   UNL A   1      30.623  27.681  25.784  1.00  0.00    -0.167 F 
ATOM     28  F   UNL A   1      30.233  28.377  23.759  1.00  0.00    -0.167 F 
ENDBRANCH  17  25
ENDBRANCH   5   8
ENDBRANCH   3   4
ENDBRANCH   2   3
ENDBRANCH   1   2
BRANCH   1  29
ATOM     29  C   UNL A   1      33.000  32.439  27.316  1.00  0.00     0.116 C 
BRANCH  29  30
ATOM     30  N   UNL A   1      32.585  33.797  27.626  1.00  0.00    -0.352 N 
ATOM     31  C   UNL A   1      33.093  34.651  28.581  1.00  0.00     0.251 C 
ATOM     32  H   UNL A   1      31.845  34.152  27.084  1.00  0.00     0.163 HD
ATOM     33  O   UNL A   1      32.552  35.725  28.788  1.00  0.00    -0.269 OA
BRANCH  31  34
ATOM     34  C   UNL A   1      34.264  34.223  29.376  1.00  0.00     0.039 A 
ATOM     35  C   UNL A   1      34.048  33.489  30.544  1.00  0.00     0.014 A 
ATOM     36  C   UNL A   1      35.563  34.513  28.952  1.00  0.00     0.014 A 
ATOM     37  C   UNL A   1      35.140  32.982  31.251  1.00  0.00     0.010 A 
ATOM     38  C   UNL A   1      36.647  33.954  29.621  1.00  0.00     0.010 A 
ATOM     39  C   UNL A   1      36.446  33.179  30.774  1.00  0.00    -0.014 A 
BRANCH  39  40
ATOM     40  C   UNL A   1      37.617  32.585  31.466  1.00  0.00     0.031 A 
ATOM     41  C   UNL A   1      38.352  31.433  30.840  1.00  0.00     0.074 A 
ATOM     42  C   UNL A   1      37.967  33.032  32.687  1.00  0.00     0.049 A 
ATOM     43  N   UNL A   1      39.333  30.715  31.323  1.00  0.00    -0.248 NA
ATOM     44  C   UNL A   1      37.898  31.015  29.506  1.00  0.00     0.031 C 
ATOM     45  C   UNL A   1      37.300  34.117  33.414  1.00  0.00     0.029 A 
ATOM     46  N   UNL A   1      38.959  32.624  33.542  1.00  0.00    -0.354 N 
ATOM     47  C   UNL A   1      39.605  29.750  30.359  1.00  0.00     0.074 A 
ATOM     48  C   UNL A   1      38.643  29.941  29.294  1.00  0.00     0.031 C 
ATOM     49  C   UNL A   1      37.913  34.296  34.595  1.00  0.00     0.029 A 
ATOM     50  C   UNL A   1      38.987  33.318  34.730  1.00  0.00     0.049 A 
ATOM     51  H   UNL A   1      39.593  31.902  33.325  1.00  0.00     0.167 HD
ATOM     52  C   UNL A   1      40.580  28.807  30.355  1.00  0.00     0.034 A 
ATOM     53  C   UNL A   1      39.780  33.173  35.810  1.00  0.00     0.034 A 
ATOM     54  C   UNL A   1      41.538  28.641  31.422  1.00  0.00     0.049 A 
ATOM     55  C   UNL A   1      40.849  32.110  35.788  1.00  0.00     0.074 A 
ATOM     56  C   UNL A   1      42.601  27.758  31.498  1.00  0.00     0.029 A 
ATOM     57  N   UNL A   1      41.544  29.371  32.603  1.00  0.00    -0.354 N 
ATOM     58  N   UNL A   1      41.125  31.236  34.849  1.00  0.00    -0.248 NA
ATOM     59  C   UNL A   1      41.718  32.023  36.969  1.00  0.00     0.031 C 
ATOM     60  C   UNL A   1      43.212  27.913  32.748  1.00  0.00     0.029 A 
ATOM     61  C   UNL A   1      42.575  28.940  33.425  1.00  0.00     0.049 A 
ATOM     62  H   UNL A   1      40.909  30.089  32.826  1.00  0.00     0.167 HD
ATOM     63  C   UNL A   1      42.221  30.514  35.315  1.00  0.00     0.074 A 
ATOM     64  C   UNL A   1      42.559  31.063  36.612  1.00  0.00     0.031 C 
ATOM     65  C   UNL A   1      42.891  29.493  34.722  1.00  0.00     0.034 A 
BRANCH  52  66
ATOM     66  C   UNL A   1      40.633  27.873  29.169  1.00  0.00     0.023 A 
ATOM     67  C   UNL A   1      41.572  28.047  28.137  1.00  0.00     0.031 A 
ATOM     68  C   UNL A   1      39.707  26.823  29.046  1.00  0.00     0.131 A 
ATOM     69  C   UNL A   1      41.509  27.241  26.990  1.00  0.00     0.055 A 
ATOM     70  C   UNL A   1      39.705  25.970  27.940  1.00  0.00     0.041 A 
ATOM     71  F   UNL A   1      38.774  26.619  29.988  1.00  0.00    -0.206 F 
ATOM     72  C   UNL A   1      40.599  26.188  26.894  1.00  0.00     0.022 A 
BRANCH  69  73
ATOM     73  S   UNL A   1      42.533  27.691  25.562  1.00  0.00     0.124 S 
ATOM     74  O   UNL A   1      43.835  27.909  26.190  1.00  0.00    -0.237 OA
ATOM     75  O   UNL A   1      42.424  26.511  24.711  1.00  0.00    -0.237 OA
ATOM     76  O   UNL A   1      41.890  28.897  25.044  1.00  0.00    -0.744 OA
ENDBRANCH  69  73
ENDBRANCH  52  66
BRANCH  53  77
ATOM     77  C   UNL A   1      39.596  34.044  37.002  1.00  0.00     0.023 A 
ATOM     78  C   UNL A   1      39.007  33.548  38.175  1.00  0.00     0.031 A 
ATOM     79  C   UNL A   1      39.978  35.398  36.975  1.00  0.00     0.131 A 
ATOM     80  C   UNL A   1      38.777  34.408  39.261  1.00  0.00     0.055 A 
ATOM     81  C   UNL A   1      39.789  36.238  38.074  1.00  0.00     0.041 A 
ATOM     82  F   UNL A   1      40.554  35.919  35.881  1.00  0.00    -0.206 F 
ATOM     83  C   UNL A   1      39.173  35.747  39.222  1.00  0.00     0.022 A 
BRANCH  80  84
ATOM     84  S   UNL A   1      37.882  33.767  40.702  1.00  0.00     0.124 S 
ATOM     85  O   UNL A   1      37.590  34.990  41.440  1.00  0.00    -0.237 OA
ATOM     86  O   UNL A   1      36.742  33.105  40.079  1.00  0.00    -0.237 OA
ATOM     87  O   UNL A   1      38.851  32.872  41.332  1.00  0.00    -0.744 OA
ENDBRANCH  80  84
ENDBRANCH  53  77
BRANCH  65  88
ATOM     88  C   UNL A   1      44.085  28.940  35.460  1.00  0.00     0.023 A 
ATOM     89  C   UNL A   1      43.948  27.968  36.465  1.00  0.00     0.031 A 
ATOM     90  C   UNL A   1      45.377  29.406  35.156  1.00  0.00     0.131 A 
ATOM     91  C   UNL A   1      45.081  27.528  37.166  1.00  0.00     0.055 A 
ATOM     92  C   UNL A   1      46.505  28.925  35.821  1.00  0.00     0.041 A 
ATOM     93  F   UNL A   1      45.562  30.337  34.206  1.00  0.00    -0.206 F 
ATOM     94  C   UNL A   1      46.359  27.988  36.840  1.00  0.00     0.022 A 
BRANCH  91  95
ATOM     95  S   UNL A   1      44.853  26.401  38.570  1.00  0.00     0.124 S 
ATOM     96  O   UNL A   1      45.636  27.054  39.614  1.00  0.00    -0.237 OA
ATOM     97  O   UNL A   1      43.405  26.420  38.753  1.00  0.00    -0.237 OA
ATOM     98  O   UNL A   1      45.399  25.135  38.086  1.00  0.00    -0.744 OA
ENDBRANCH  91  95
ENDBRANCH  65  88
ENDBRANCH  39  40
ENDBRANCH  31  34
ENDBRANCH  29  30
ENDBRANCH   1  29
TORSDOF 18
ENDMDL
MODEL 2
REMARK VINA RESULT:     -12.3      3.373      8.560
REMARK SMILES CCc1cc(OC(F)(F)F)cc2c1O[C@@H](C(F)(F)F)C(C(=O)NCCCCNC(=O)c1ccc(-c3c4nc(c(-c5cc(S(=O)(=O)[O-])ccc5F)c5ccc([nH]5)c(-c5cc(S(=O)(=O)[O-])ccc5F)c5nc(c(-c6cc(S(=O)(=O)[O-])ccc6F)c6ccc3[nH]6)C=C5)C=C4)cc1)=C2
REMARK SMILES IDX 26 1 25 2 24 3 23 4 21 5 22 6 20 8 3 9 4 10 13 11 5 12 12 13
REMARK SMILES IDX 14 14 11 15 94 16 15 17 2 18 1 19 6 20 7 21 8 22 9 23 10 24
REMARK SMILES IDX 16 25 17 26 18 27 19 28 27 29 28 30 29 31 30 33 31 34 32 35
REMARK SMILES IDX 93 36 33 37 92 38 34 39 35 40 36 41 86 42 37 43 91 44 85 45
REMARK SMILES IDX 87 46 38 47 90 48 84 49 83 50 39 52 71 53 51 54 70 55 52 56
REMARK SMILES IDX 55 57 69 58 88 59 53 60 54 61 68 63 89 64 56 65 40 66 41 67
REMARK SMILES IDX 49 68 42 69 48 70 50 71 47 72 43 73 44 74 45 75 46 76 72 77
REMARK SMILES IDX 73 78 81 79 74 80 80 81 82 82 79 83 75 84 76 85 77 86 78 87
REMARK SMILES IDX 57 88 58 89 66 90 59 91 65 92 67 93 64 94 60 95 61 96 62 97
REMARK SMILES IDX 63 98
REMARK H PARENT 23 7 28 32 87 51 55 62
REMARK Flexibility Score: inf
ROOT
ATOM      1  C   UNL A   1      33.257  27.848  26.733  1.00  0.00     0.023 C 
ENDROOT
BRANCH   1   2
ATOM      2  C   UNL A   1      31.815  28.013  26.246  1.00  0.00     0.023 C 
BRANCH   2   3
ATOM      3  C   UNL A   1      30.892  26.839  26.597  1.00  0.00     0.116 C 
BRANCH   3   4
ATOM      4  N   UNL A   1      30.096  26.464  25.440  1.00  0.00    -0.352 N 
ATOM      5  C   UNL A   1      30.306  25.584  24.427  1.00  0.00     0.251 C 
ATOM      6  O   UNL A   1      29.511  25.581  23.489  1.00  0.00    -0.270 OA
ATOM      7  H   UNL A   1      29.237  26.941  25.380  1.00  0.00     0.163 HD
BRANCH   5   8
ATOM      8  C   UNL A   1      31.408  24.583  24.429  1.00  0.00     0.067 C 
ATOM      9  C   UNL A   1      34.691  21.940  24.274  1.00  0.00    -0.002 A 
ATOM     10  C   UNL A   1      34.517  20.623  24.745  1.00  0.00     0.054 A 
ATOM     11  C   UNL A   1      33.608  22.833  24.330  1.00  0.00     0.131 A 
ATOM     12  C   UNL A   1      33.288  20.195  25.248  1.00  0.00     0.130 A 
ATOM     13  C   UNL A   1      32.387  22.417  24.853  1.00  0.00     0.021 A 
ATOM     14  O   UNL A   1      33.788  24.081  23.809  1.00  0.00    -0.475 OA
ATOM     15  C   UNL A   1      32.232  21.103  25.308  1.00  0.00     0.058 A 
ATOM     16  C   UNL A   1      31.258  23.330  24.878  1.00  0.00     0.025 C 
ATOM     17  C   UNL A   1      32.786  25.114  24.048  1.00  0.00     0.314 C 
BRANCH   9  18
ATOM     18  C   UNL A   1      36.043  22.358  23.738  1.00  0.00     0.036 C 
ATOM     19  C   UNL A   1      36.950  22.942  24.814  1.00  0.00     0.009 C 
ENDBRANCH   9  18
BRANCH  12  20
ATOM     20  O   UNL A   1      32.981  18.946  25.704  1.00  0.00    -0.406 OA
BRANCH  20  21
ATOM     21  C   UNL A   1      32.955  17.885  24.766  1.00  0.00     0.573 C 
ATOM     22  F   UNL A   1      32.321  16.803  25.267  1.00  0.00    -0.132 F 
ATOM     23  F   UNL A   1      32.354  18.268  23.620  1.00  0.00    -0.132 F 
ATOM     24  F   UNL A   1      34.226  17.530  24.475  1.00  0.00    -0.132 F 
ENDBRANCH  20  21
ENDBRANCH  12  20
BRANCH  17  25
ATOM     25  C   UNL A   1      32.827  26.072  22.835  1.00  0.00     0.429 C 
ATOM     26  F   UNL A   1      31.996  25.698  21.838  1.00  0.00    -0.167 F 
ATOM     27  F   UNL A   1      32.420  27.322  23.192  1.00  0.00    -0.167 F 
ATOM     28  F   UNL A   1      34.072  26.203  22.321  1.00  0.00    -0.167 F 
ENDBRANCH  17  25
ENDBRANCH   5   8
ENDBRANCH   3   4
ENDBRANCH   2   3
ENDBRANCH   1   2
BRANCH   1  29
ATOM     29  C   UNL A   1      34.216  28.937  26.267  1.00  0.00     0.116 C 
BRANCH  29  30
ATOM     30  N   UNL A   1      33.812  30.269  26.686  1.00  0.00    -0.352 N 
ATOM     31  C   UNL A   1      34.408  31.094  27.614  1.00  0.00     0.251 C 
ATOM     32  H   UNL A   1      33.006  30.629  26.249  1.00  0.00     0.163 HD
ATOM     33  O   UNL A   1      33.874  32.143  27.932  1.00  0.00    -0.269 OA
BRANCH  31  34
ATOM     34  C   UNL A   1      35.673  30.661  28.249  1.00  0.00     0.039 A 
ATOM     35  C   UNL A   1      35.609  29.823  29.365  1.00  0.00     0.014 A 
ATOM     36  C   UNL A   1      36.907  31.051  27.726  1.00  0.00     0.014 A 
ATOM     37  C   UNL A   1      36.789  29.316  29.913  1.00  0.00     0.010 A 
ATOM     38  C   UNL A   1      38.078  30.495  28.233  1.00  0.00     0.010 A 
ATOM     39  C   UNL A   1      38.029  29.619  29.328  1.00  0.00    -0.014 A 
BRANCH  39  40
ATOM     40  C   UNL A   1      39.289  29.029  29.846  1.00  0.00     0.031 A 
ATOM     41  C   UNL A   1      39.986  29.660  31.018  1.00  0.00     0.074 A 
ATOM     42  C   UNL A   1      39.841  27.976  29.212  1.00  0.00     0.049 A 
ATOM     43  N   UNL A   1      41.139  29.359  31.558  1.00  0.00    -0.248 NA
ATOM     44  C   UNL A   1      39.307  30.804  31.644  1.00  0.00     0.031 C 
ATOM     45  C   UNL A   1      39.278  27.306  28.036  1.00  0.00     0.029 A 
ATOM     46  N   UNL A   1      41.005  27.292  29.456  1.00  0.00    -0.354 N 
ATOM     47  C   UNL A   1      41.332  30.284  32.577  1.00  0.00     0.074 A 
ATOM     48  C   UNL A   1      40.205  31.192  32.537  1.00  0.00     0.031 C 
ATOM     49  C   UNL A   1      40.089  26.300  27.674  1.00  0.00     0.029 A 
ATOM     50  C   UNL A   1      41.248  26.275  28.561  1.00  0.00     0.049 A 
ATOM     51  H   UNL A   1      41.611  27.508  30.202  1.00  0.00     0.167 HD
ATOM     52  C   UNL A   1      42.346  30.357  33.477  1.00  0.00     0.034 A 
ATOM     53  C   UNL A   1      42.291  25.429  28.460  1.00  0.00     0.034 A 
ATOM     54  C   UNL A   1      43.455  29.434  33.508  1.00  0.00     0.049 A 
ATOM     55  C   UNL A   1      43.412  25.535  29.462  1.00  0.00     0.074 A 
ATOM     56  C   UNL A   1      44.506  29.379  34.407  1.00  0.00     0.029 A 
ATOM     57  N   UNL A   1      43.660  28.408  32.595  1.00  0.00    -0.354 N 
ATOM     58  N   UNL A   1      43.557  26.386  30.451  1.00  0.00    -0.248 NA
ATOM     59  C   UNL A   1      44.503  24.560  29.339  1.00  0.00     0.031 C 
ATOM     60  C   UNL A   1      45.376  28.358  34.003  1.00  0.00     0.029 A 
ATOM     61  C   UNL A   1      44.833  27.731  32.893  1.00  0.00     0.049 A 
ATOM     62  H   UNL A   1      43.060  28.192  31.845  1.00  0.00     0.167 HD
ATOM     63  C   UNL A   1      44.744  26.028  31.086  1.00  0.00     0.074 A 
ATOM     64  C   UNL A   1      45.266  24.879  30.375  1.00  0.00     0.031 C 
ATOM     65  C   UNL A   1      45.344  26.593  32.164  1.00  0.00     0.034 A 
BRANCH  52  66
ATOM     66  C   UNL A   1      42.303  31.488  34.476  1.00  0.00     0.023 A 
ATOM     67  C   UNL A   1      41.411  31.477  35.563  1.00  0.00     0.031 A 
ATOM     68  C   UNL A   1      43.133  32.612  34.318  1.00  0.00     0.131 A 
ATOM     69  C   UNL A   1      41.309  32.601  36.397  1.00  0.00     0.055 A 
ATOM     70  C   UNL A   1      43.086  33.692  35.202  1.00  0.00     0.041 A 
ATOM     71  F   UNL A   1      43.991  32.690  33.289  1.00  0.00    -0.206 F 
ATOM     72  C   UNL A   1      42.157  33.699  36.240  1.00  0.00     0.022 A 
BRANCH  69  73
ATOM     73  S   UNL A   1      39.945  32.668  37.591  1.00  0.00     0.124 S 
ATOM     74  O   UNL A   1      39.412  34.008  37.353  1.00  0.00    -0.237 OA
ATOM     75  O   UNL A   1      39.099  31.559  37.167  1.00  0.00    -0.237 OA
ATOM     76  O   UNL A   1      40.609  32.491  38.881  1.00  0.00    -0.744 OA
ENDBRANCH  69  73
ENDBRANCH  52  66
BRANCH  53  77
ATOM     77  C   UNL A   1      42.335  24.413  27.373  1.00  0.00     0.023 A 
ATOM     78  C   UNL A   1      41.595  23.224  27.466  1.00  0.00     0.031 A 
ATOM     79  C   UNL A   1      43.143  24.601  26.238  1.00  0.00     0.131 A 
ATOM     80  C   UNL A   1      41.710  22.247  26.464  1.00  0.00     0.055 A 
ATOM     81  C   UNL A   1      43.219  23.647  25.222  1.00  0.00     0.041 A 
ATOM     82  F   UNL A   1      43.864  25.725  26.096  1.00  0.00    -0.206 F 
ATOM     83  C   UNL A   1      42.509  22.456  25.337  1.00  0.00     0.022 A 
BRANCH  80  84
ATOM     84  S   UNL A   1      40.854  20.665  26.692  1.00  0.00     0.124 S 
ATOM     85  O   UNL A   1      40.872  20.523  28.143  1.00  0.00    -0.237 OA
ATOM     86  O   UNL A   1      39.554  20.936  26.089  1.00  0.00    -0.237 OA
ATOM     87  O   UNL A   1      41.693  19.717  25.960  1.00  0.00    -0.744 OA
ENDBRANCH  80  84
ENDBRANCH  53  77
BRANCH  65  88
ATOM     88  C   UNL A   1      46.611  25.942  32.660  1.00  0.00     0.023 A 
ATOM     89  C   UNL A   1      46.589  24.916  33.619  1.00  0.00     0.031 A 
ATOM     90  C   UNL A   1      47.859  26.366  32.169  1.00  0.00     0.131 A 
ATOM     91  C   UNL A   1      47.796  24.381  34.096  1.00  0.00     0.055 A 
ATOM     92  C   UNL A   1      49.053  25.793  32.608  1.00  0.00     0.041 A 
ATOM     93  F   UNL A   1      47.936  27.345  31.253  1.00  0.00    -0.206 F 
ATOM     94  C   UNL A   1      49.026  24.803  33.585  1.00  0.00     0.022 A 
BRANCH  91  95
ATOM     95  S   UNL A   1      47.741  23.180  35.455  1.00  0.00     0.124 S 
ATOM     96  O   UNL A   1      47.062  23.937  36.502  1.00  0.00    -0.237 OA
ATOM     97  O   UNL A   1      46.980  22.081  34.869  1.00  0.00    -0.237 OA
ATOM     98  O   UNL A   1      49.149  22.890  35.714  1.00  0.00    -0.744 OA
ENDBRANCH  91  95
ENDBRANCH  65  88
ENDBRANCH  39  40
ENDBRANCH  31  34
ENDBRANCH  29  30
ENDBRANCH   1  29
TORSDOF 18
ENDMDL
MODEL 3
REMARK VINA RESULT:     -12.0      2.902      8.034
REMARK SMILES CCc1cc(OC(F)(F)F)cc2c1O[C@@H](C(F)(F)F)C(C(=O)NCCCCNC(=O)c1ccc(-c3c4nc(c(-c5cc(S(=O)(=O)[O-])ccc5F)c5ccc([nH]5)c(-c5cc(S(=O)(=O)[O-])ccc5F)c5nc(c(-c6cc(S(=O)(=O)[O-])ccc6F)c6ccc3[nH]6)C=C5)C=C4)cc1)=C2
REMARK SMILES IDX 26 1 25 2 24 3 23 4 21 5 22 6 20 8 3 9 4 10 13 11 5 12 12 13
REMARK SMILES IDX 14 14 11 15 94 16 15 17 2 18 1 19 6 20 7 21 8 22 9 23 10 24
REMARK SMILES IDX 16 25 17 26 18 27 19 28 27 29 28 30 29 31 30 33 31 34 32 35
REMARK SMILES IDX 93 36 33 37 92 38 34 39 35 40 36 41 86 42 37 43 91 44 85 45
REMARK SMILES IDX 87 46 38 47 90 48 84 49 83 50 39 52 71 53 51 54 70 55 52 56
REMARK SMILES IDX 55 57 69 58 88 59 53 60 54 61 68 63 89 64 56 65 40 66 41 67
REMARK SMILES IDX 49 68 42 69 48 70 50 71 47 72 43 73 44 74 45 75 46 76 72 77
REMARK SMILES IDX 73 78 81 79 74 80 80 81 82 82 79 83 75 84 76 85 77 86 78 87
REMARK SMILES IDX 57 88 58 89 66 90 59 91 65 92 67 93 64 94 60 95 61 96 62 97
REMARK SMILES IDX 63 98
REMARK H PARENT 23 7 28 32 87 51 55 62
REMARK Flexibility Score: inf
ROOT
ATOM      1  C   UNL A   1      31.668  28.938  25.773  1.00  0.00     0.023 C 
ENDROOT
BRANCH   1   2
ATOM      2  C   UNL A   1      31.427  28.129  27.050  1.00  0.00     0.023 C 
BRANCH   2   3
ATOM      3  C   UNL A   1      31.493  26.608  26.857  1.00  0.00     0.116 C 
BRANCH   3   4
ATOM      4  N   UNL A   1      30.619  26.203  25.769  1.00  0.00    -0.352 N 
ATOM      5  C   UNL A   1      30.760  25.295  24.768  1.00  0.00     0.251 C 
ATOM      6  O   UNL A   1      29.903  25.268  23.887  1.00  0.00    -0.270 OA
ATOM      7  H   UNL A   1      29.758  26.680  25.754  1.00  0.00     0.163 HD
BRANCH   5   8
ATOM      8  C   UNL A   1      31.859  24.292  24.722  1.00  0.00     0.067 C 
ATOM      9  C   UNL A   1      35.153  21.667  24.495  1.00  0.00    -0.002 A 
ATOM     10  C   UNL A   1      34.927  20.288  24.676  1.00  0.00     0.054 A 
ATOM     11  C   UNL A   1      34.066  22.554  24.579  1.00  0.00     0.131 A 
ATOM     12  C   UNL A   1      33.646  19.794  24.921  1.00  0.00     0.130 A 
ATOM     13  C   UNL A   1      32.789  22.068  24.846  1.00  0.00     0.021 A 
ATOM     14  O   UNL A   1      34.303  23.874  24.336  1.00  0.00    -0.475 OA
ATOM     15  C   UNL A   1      32.584  20.694  25.016  1.00  0.00     0.058 A 
ATOM     16  C   UNL A   1      31.660  22.979  24.898  1.00  0.00     0.025 C 
ATOM     17  C   UNL A   1      33.271  24.860  24.636  1.00  0.00     0.314 C 
BRANCH   9  18
ATOM     18  C   UNL A   1      36.560  22.155  24.233  1.00  0.00     0.036 C 
ATOM     19  C   UNL A   1      37.576  21.587  25.215  1.00  0.00     0.009 C 
ENDBRANCH   9  18
BRANCH  12  20
ATOM     20  O   UNL A   1      33.290  18.487  25.084  1.00  0.00    -0.406 OA
BRANCH  20  21
ATOM     21  C   UNL A   1      33.462  17.611  23.985  1.00  0.00     0.573 C 
ATOM     22  F   UNL A   1      34.770  17.402  23.723  1.00  0.00    -0.132 F 
ATOM     23  F   UNL A   1      32.854  16.427  24.211  1.00  0.00    -0.132 F 
ATOM     24  F   UNL A   1      32.898  18.169  22.891  1.00  0.00    -0.132 F 
ENDBRANCH  20  21
ENDBRANCH  12  20
BRANCH  17  25
ATOM     25  C   UNL A   1      33.466  26.033  23.646  1.00  0.00     0.429 C 
ATOM     26  F   UNL A   1      32.311  26.444  23.080  1.00  0.00    -0.167 F 
ATOM     27  F   UNL A   1      33.964  27.128  24.285  1.00  0.00    -0.167 F 
ATOM     28  F   UNL A   1      34.339  25.734  22.656  1.00  0.00    -0.167 F 
ENDBRANCH  17  25
ENDBRANCH   5   8
ENDBRANCH   3   4
ENDBRANCH   2   3
ENDBRANCH   1   2
BRANCH   1  29
ATOM     29  C   UNL A   1      32.897  29.839  25.812  1.00  0.00     0.116 C 
BRANCH  29  30
ATOM     30  N   UNL A   1      32.604  31.181  26.290  1.00  0.00    -0.352 N 
ATOM     31  C   UNL A   1      33.280  31.919  27.237  1.00  0.00     0.251 C 
ATOM     32  H   UNL A   1      31.822  31.618  25.884  1.00  0.00     0.163 HD
ATOM     33  O   UNL A   1      32.834  32.992  27.606  1.00  0.00    -0.269 OA
BRANCH  31  34
ATOM     34  C   UNL A   1      34.518  31.366  27.828  1.00  0.00     0.039 A 
ATOM     35  C   UNL A   1      35.602  32.221  28.033  1.00  0.00     0.014 A 
ATOM     36  C   UNL A   1      34.593  30.024  28.209  1.00  0.00     0.014 A 
ATOM     37  C   UNL A   1      36.740  31.746  28.688  1.00  0.00     0.010 A 
ATOM     38  C   UNL A   1      35.700  29.570  28.918  1.00  0.00     0.010 A 
ATOM     39  C   UNL A   1      36.782  30.428  29.169  1.00  0.00    -0.014 A 
BRANCH  39  40
ATOM     40  C   UNL A   1      37.949  29.924  29.936  1.00  0.00     0.031 A 
ATOM     41  C   UNL A   1      38.212  30.438  31.323  1.00  0.00     0.074 A 
ATOM     42  C   UNL A   1      38.808  29.065  29.354  1.00  0.00     0.049 A 
ATOM     43  N   UNL A   1      39.223  30.199  32.118  1.00  0.00    -0.248 NA
ATOM     44  C   UNL A   1      37.220  31.372  31.875  1.00  0.00     0.031 C 
ATOM     45  C   UNL A   1      38.678  28.530  27.995  1.00  0.00     0.029 A 
ATOM     46  N   UNL A   1      39.967  28.501  29.822  1.00  0.00    -0.354 N 
ATOM     47  C   UNL A   1      38.998  30.963  33.257  1.00  0.00     0.074 A 
ATOM     48  C   UNL A   1      37.785  31.718  33.021  1.00  0.00     0.031 C 
ATOM     49  C   UNL A   1      39.708  27.704  27.749  1.00  0.00     0.029 A 
ATOM     50  C   UNL A   1      40.592  27.681  28.910  1.00  0.00     0.049 A 
ATOM     51  H   UNL A   1      40.320  28.667  30.726  1.00  0.00     0.167 HD
ATOM     52  C   UNL A   1      39.725  31.014  34.402  1.00  0.00     0.034 A 
ATOM     53  C   UNL A   1      41.750  26.999  28.996  1.00  0.00     0.034 A 
ATOM     54  C   UNL A   1      40.925  30.244  34.623  1.00  0.00     0.049 A 
ATOM     55  C   UNL A   1      42.548  27.079  30.273  1.00  0.00     0.074 A 
ATOM     56  C   UNL A   1      41.708  30.175  35.762  1.00  0.00     0.029 A 
ATOM     57  N   UNL A   1      41.520  29.414  33.682  1.00  0.00    -0.354 N 
ATOM     58  N   UNL A   1      42.296  27.770  31.361  1.00  0.00    -0.248 NA
ATOM     59  C   UNL A   1      43.778  26.280  30.335  1.00  0.00     0.031 C 
ATOM     60  C   UNL A   1      42.806  29.350  35.490  1.00  0.00     0.029 A 
ATOM     61  C   UNL A   1      42.673  28.849  34.205  1.00  0.00     0.049 A 
ATOM     62  H   UNL A   1      41.173  29.249  32.775  1.00  0.00     0.167 HD
ATOM     63  C   UNL A   1      43.325  27.464  32.248  1.00  0.00     0.074 A 
ATOM     64  C   UNL A   1      44.190  26.520  31.572  1.00  0.00     0.031 C 
ATOM     65  C   UNL A   1      43.531  27.917  33.511  1.00  0.00     0.034 A 
BRANCH  52  66
ATOM     66  C   UNL A   1      39.245  31.954  35.483  1.00  0.00     0.023 A 
ATOM     67  C   UNL A   1      39.736  33.268  35.586  1.00  0.00     0.031 A 
ATOM     68  C   UNL A   1      38.319  31.520  36.447  1.00  0.00     0.131 A 
ATOM     69  C   UNL A   1      39.366  34.070  36.676  1.00  0.00     0.055 A 
ATOM     70  C   UNL A   1      37.889  32.353  37.482  1.00  0.00     0.041 A 
ATOM     71  F   UNL A   1      37.830  30.271  36.413  1.00  0.00    -0.206 F 
ATOM     72  C   UNL A   1      38.427  33.631  37.612  1.00  0.00     0.022 A 
BRANCH  69  73
ATOM     73  S   UNL A   1      40.248  35.633  36.937  1.00  0.00     0.124 S 
ATOM     74  O   UNL A   1      39.654  36.482  35.906  1.00  0.00    -0.237 OA
ATOM     75  O   UNL A   1      39.902  35.965  38.314  1.00  0.00    -0.237 OA
ATOM     76  O   UNL A   1      41.648  35.280  36.712  1.00  0.00    -0.744 OA
ENDBRANCH  69  73
ENDBRANCH  52  66
BRANCH  53  77
ATOM     77  C   UNL A   1      42.234  26.186  27.846  1.00  0.00     0.023 A 
ATOM     78  C   UNL A   1      41.847  24.845  27.697  1.00  0.00     0.031 A 
ATOM     79  C   UNL A   1      43.117  26.729  26.897  1.00  0.00     0.131 A 
ATOM     80  C   UNL A   1      42.374  24.077  26.646  1.00  0.00     0.055 A 
ATOM     81  C   UNL A   1      43.603  25.975  25.827  1.00  0.00     0.041 A 
ATOM     82  F   UNL A   1      43.512  28.009  26.990  1.00  0.00    -0.206 F 
ATOM     83  C   UNL A   1      43.242  24.636  25.705  1.00  0.00     0.022 A 
BRANCH  80  84
ATOM     84  S   UNL A   1      41.965  22.312  26.571  1.00  0.00     0.124 S 
ATOM     85  O   UNL A   1      42.512  21.826  27.833  1.00  0.00    -0.237 OA
ATOM     86  O   UNL A   1      40.511  22.343  26.471  1.00  0.00    -0.237 OA
ATOM     87  O   UNL A   1      42.661  21.853  25.370  1.00  0.00    -0.744 OA
ENDBRANCH  80  84
ENDBRANCH  53  77
BRANCH  65  88
ATOM     88  C   UNL A   1      44.720  27.357  34.251  1.00  0.00     0.023 A 
ATOM     89  C   UNL A   1      44.648  26.144  34.956  1.00  0.00     0.031 A 
ATOM     90  C   UNL A   1      45.939  28.058  34.258  1.00  0.00     0.131 A 
ATOM     91  C   UNL A   1      45.761  25.691  35.681  1.00  0.00     0.055 A 
ATOM     92  C   UNL A   1      47.059  27.576  34.937  1.00  0.00     0.041 A 
ATOM     93  F   UNL A   1      46.061  29.223  33.603  1.00  0.00    -0.206 F 
ATOM     94  C   UNL A   1      46.969  26.392  35.663  1.00  0.00     0.022 A 
BRANCH  91  95
ATOM     95  S   UNL A   1      45.584  24.212  36.717  1.00  0.00     0.124 S 
ATOM     96  O   UNL A   1      46.928  23.646  36.669  1.00  0.00    -0.237 OA
ATOM     97  O   UNL A   1      45.175  24.776  37.999  1.00  0.00    -0.237 OA
ATOM     98  O   UNL A   1      44.559  23.431  36.028  1.00  0.00    -0.744 OA
ENDBRANCH  91  95
ENDBRANCH  65  88
ENDBRANCH  39  40
ENDBRANCH  31  34
ENDBRANCH  29  30
ENDBRANCH   1  29
TORSDOF 18
ENDMDL
