MODEL 1
REMARK VINA RESULT:     -11.9      0.000      0.000
REMARK SMILES O=C(NCCCCNC(=O)[C@@]1(c2ccccc2)CCCC[NH2+]1)c1ccc(-c2c3nc(c(-c4cc(S(=O)(=O)[O-])ccc4F)c4ccc([nH]4)c(-c4cc(S(=O)(=O)[O-])ccc4F)c4nc(c(-c5cc(S(=O)(=O)[O-])ccc5F)c5ccc2[nH]5)C=C4)C=C3)cc1
REMARK SMILES IDX 4 1 3 2 1 3 2 4 23 6 24 7 85 8 25 9 84 10 26 11 27 12 28 13
REMARK SMILES IDX 78 14 29 15 83 16 77 17 79 18 30 19 82 20 76 21 75 22 31 24
REMARK SMILES IDX 63 25 43 26 62 27 44 28 47 29 61 30 80 31 45 32 46 33 60 35
REMARK SMILES IDX 81 36 48 37 32 38 33 39 41 40 34 41 40 42 42 43 39 44 35 45
REMARK SMILES IDX 36 46 37 47 38 48 64 49 65 50 73 51 66 52 72 53 74 54 71 55
REMARK SMILES IDX 67 56 68 57 69 58 70 59 49 60 50 61 58 62 51 63 57 64 59 65
REMARK SMILES IDX 56 66 52 67 53 68 54 69 55 70 5 71 6 72 7 73 8 74 9 75 10 77
REMARK SMILES IDX 11 78 18 79 22 80 19 81 21 82 20 85 12 86 13 87 17 88 14 89
REMARK SMILES IDX 16 90 15 91
REMARK H PARENT 3 5 79 23 47 34 8 76 22 83 22 84
REMARK Flexibility Score: inf
ROOT
ATOM      1  C   UNL A   1      32.704  32.216  27.103  1.00  0.00     0.116 C 
ENDROOT
BRANCH   1   2
ATOM      2  N   UNL A   1      32.531  33.613  27.475  1.00  0.00    -0.352 N 
ATOM      3  O   UNL A   1      32.804  35.450  28.750  1.00  0.00    -0.269 OA
ATOM      4  C   UNL A   1      33.201  34.341  28.428  1.00  0.00     0.251 C 
ATOM      5  H   UNL A   1      31.838  34.104  26.975  1.00  0.00     0.163 HD
BRANCH   4   6
ATOM      6  C   UNL A   1      34.400  33.754  29.058  1.00  0.00     0.039 A 
ATOM      7  C   UNL A   1      35.672  34.223  28.716  1.00  0.00     0.014 A 
ATOM      8  C   UNL A   1      34.244  32.723  29.985  1.00  0.00     0.014 A 
ATOM      9  C   UNL A   1      36.798  33.584  29.215  1.00  0.00     0.010 A 
ATOM     10  C   UNL A   1      35.377  32.133  30.545  1.00  0.00     0.010 A 
ATOM     11  C   UNL A   1      36.660  32.546  30.148  1.00  0.00    -0.014 A 
BRANCH  11  12
ATOM     12  C   UNL A   1      37.864  31.935  30.755  1.00  0.00     0.031 A 
ATOM     13  C   UNL A   1      38.645  30.890  30.016  1.00  0.00     0.074 A 
ATOM     14  C   UNL A   1      38.221  32.313  31.996  1.00  0.00     0.049 A 
ATOM     15  N   UNL A   1      39.645  30.159  30.431  1.00  0.00    -0.248 NA
ATOM     16  C   UNL A   1      38.232  30.621  28.632  1.00  0.00     0.031 C 
ATOM     17  C   UNL A   1      37.531  33.327  32.797  1.00  0.00     0.029 A 
ATOM     18  N   UNL A   1      39.237  31.881  32.808  1.00  0.00    -0.354 N 
ATOM     19  C   UNL A   1      39.971  29.322  29.369  1.00  0.00     0.074 A 
ATOM     20  C   UNL A   1      39.035  29.620  28.303  1.00  0.00     0.031 C 
ATOM     21  C   UNL A   1      38.142  33.440  33.984  1.00  0.00     0.029 A 
ATOM     22  C   UNL A   1      39.216  32.457  34.055  1.00  0.00     0.049 A 
ATOM     23  H   UNL A   1      39.914  31.225  32.525  1.00  0.00     0.167 HD
ATOM     24  C   UNL A   1      40.961  28.395  29.299  1.00  0.00     0.034 A 
ATOM     25  C   UNL A   1      39.943  32.189  35.155  1.00  0.00     0.034 A 
ATOM     26  C   UNL A   1      41.872  28.121  30.386  1.00  0.00     0.049 A 
ATOM     27  C   UNL A   1      40.997  31.121  35.079  1.00  0.00     0.074 A 
ATOM     28  C   UNL A   1      42.935  27.236  30.421  1.00  0.00     0.029 A 
ATOM     29  N   UNL A   1      41.814  28.717  31.642  1.00  0.00    -0.354 N 
ATOM     30  N   UNL A   1      41.305  30.343  34.067  1.00  0.00    -0.248 NA
ATOM     31  C   UNL A   1      41.800  30.896  36.286  1.00  0.00     0.031 C 
ATOM     32  C   UNL A   1      43.472  27.245  31.714  1.00  0.00     0.029 A 
ATOM     33  C   UNL A   1      42.798  28.194  32.467  1.00  0.00     0.049 A 
ATOM     34  H   UNL A   1      41.167  29.412  31.906  1.00  0.00     0.167 HD
ATOM     35  C   UNL A   1      42.357  29.550  34.507  1.00  0.00     0.074 A 
ATOM     36  C   UNL A   1      42.629  29.945  35.876  1.00  0.00     0.031 C 
ATOM     37  C   UNL A   1      43.043  28.591  33.835  1.00  0.00     0.034 A 
BRANCH  24  38
ATOM     38  C   UNL A   1      41.057  27.580  28.029  1.00  0.00     0.023 A 
ATOM     39  C   UNL A   1      40.631  26.241  27.971  1.00  0.00     0.031 A 
ATOM     40  C   UNL A   1      41.638  28.132  26.873  1.00  0.00     0.131 A 
ATOM     41  C   UNL A   1      40.880  25.474  26.821  1.00  0.00     0.055 A 
ATOM     42  C   UNL A   1      41.800  27.389  25.702  1.00  0.00     0.041 A 
ATOM     43  F   UNL A   1      42.083  29.399  26.869  1.00  0.00    -0.206 F 
ATOM     44  C   UNL A   1      41.440  26.046  25.678  1.00  0.00     0.022 A 
BRANCH  41  45
ATOM     45  S   UNL A   1      40.632  23.679  26.911  1.00  0.00     0.124 S 
ATOM     46  O   UNL A   1      40.950  23.403  28.310  1.00  0.00    -0.237 OA
ATOM     47  O   UNL A   1      39.231  23.536  26.533  1.00  0.00    -0.237 OA
ATOM     48  O   UNL A   1      41.597  23.151  25.947  1.00  0.00    -0.744 OA
ENDBRANCH  41  45
ENDBRANCH  24  38
BRANCH  25  49
ATOM     49  C   UNL A   1      39.643  32.912  36.420  1.00  0.00     0.023 A 
ATOM     50  C   UNL A   1      38.693  32.426  37.329  1.00  0.00     0.031 A 
ATOM     51  C   UNL A   1      40.349  34.082  36.756  1.00  0.00     0.131 A 
ATOM     52  C   UNL A   1      38.466  33.117  38.530  1.00  0.00     0.055 A 
ATOM     53  C   UNL A   1      40.149  34.740  37.970  1.00  0.00     0.041 A 
ATOM     54  F   UNL A   1      41.280  34.576  35.924  1.00  0.00    -0.206 F 
ATOM     55  C   UNL A   1      39.198  34.260  38.863  1.00  0.00     0.022 A 
BRANCH  52  56
ATOM     56  S   UNL A   1      37.174  32.511  39.648  1.00  0.00     0.124 S 
ATOM     57  O   UNL A   1      37.695  31.201  40.023  1.00  0.00    -0.237 OA
ATOM     58  O   UNL A   1      37.177  33.527  40.695  1.00  0.00    -0.237 OA
ATOM     59  O   UNL A   1      35.979  32.491  38.807  1.00  0.00    -0.744 OA
ENDBRANCH  52  56
ENDBRANCH  25  49
BRANCH  37  60
ATOM     60  C   UNL A   1      44.194  27.940  34.559  1.00  0.00     0.023 A 
ATOM     61  C   UNL A   1      44.030  26.758  35.301  1.00  0.00     0.031 A 
ATOM     62  C   UNL A   1      45.476  28.510  34.487  1.00  0.00     0.131 A 
ATOM     63  C   UNL A   1      45.131  26.200  35.970  1.00  0.00     0.055 A 
ATOM     64  C   UNL A   1      46.576  27.924  35.113  1.00  0.00     0.041 A 
ATOM     65  F   UNL A   1      45.682  29.642  33.794  1.00  0.00    -0.206 F 
ATOM     66  C   UNL A   1      46.405  26.766  35.866  1.00  0.00     0.022 A 
BRANCH  63  67
ATOM     67  S   UNL A   1      44.869  24.748  37.025  1.00  0.00     0.124 S 
ATOM     68  O   UNL A   1      43.831  25.219  37.936  1.00  0.00    -0.237 OA
ATOM     69  O   UNL A   1      44.461  23.729  36.062  1.00  0.00    -0.237 OA
ATOM     70  O   UNL A   1      46.179  24.528  37.636  1.00  0.00    -0.744 OA
ENDBRANCH  63  67
ENDBRANCH  37  60
ENDBRANCH  11  12
ENDBRANCH   4   6
ENDBRANCH   1   2
BRANCH   1  71
ATOM     71  C   UNL A   1      31.392  31.571  26.680  1.00  0.00     0.023 C 
BRANCH  71  72
ATOM     72  C   UNL A   1      31.540  30.476  25.618  1.00  0.00     0.023 C 
BRANCH  72  73
ATOM     73  C   UNL A   1      32.875  29.730  25.667  1.00  0.00     0.116 C 
BRANCH  73  74
ATOM     74  N   UNL A   1      33.422  29.545  24.338  1.00  0.00    -0.350 N 
ATOM     75  C   UNL A   1      33.184  28.653  23.336  1.00  0.00     0.286 C 
ATOM     76  H   UNL A   1      34.113  30.207  24.111  1.00  0.00     0.163 HD
ATOM     77  O   UNL A   1      33.883  28.830  22.327  1.00  0.00    -0.267 OA
BRANCH  75  78
ATOM     78  C   UNL A   1      32.052  27.547  23.354  1.00  0.00     0.201 C 
ATOM     79  C   UNL A   1      32.382  26.499  22.241  1.00  0.00     0.085 C 
ATOM     80  N   UNL A   1      31.975  26.802  24.640  1.00  0.00    -0.330 N 
ATOM     81  C   UNL A   1      33.622  25.655  22.557  1.00  0.00     0.013 C 
ATOM     82  C   UNL A   1      33.188  26.074  24.979  1.00  0.00     0.261 C 
ATOM     83  H   UNL A   1      31.207  26.134  24.577  1.00  0.00     0.347 HD
ATOM     84  H   UNL A   1      31.833  27.496  25.374  1.00  0.00     0.347 HD
ATOM     85  C   UNL A   1      33.503  25.017  23.934  1.00  0.00     0.062 C 
BRANCH  78  86
ATOM     86  C   UNL A   1      30.667  28.150  23.005  1.00  0.00     0.022 A 
ATOM     87  C   UNL A   1      30.585  29.355  22.275  1.00  0.00     0.011 A 
ATOM     88  C   UNL A   1      29.460  27.594  23.468  1.00  0.00     0.011 A 
ATOM     89  C   UNL A   1      29.359  29.977  22.025  1.00  0.00     0.001 A 
ATOM     90  C   UNL A   1      28.231  28.212  23.209  1.00  0.00     0.001 A 
ATOM     91  C   UNL A   1      28.181  29.404  22.494  1.00  0.00     0.000 A 
ENDBRANCH  78  86
ENDBRANCH  75  78
ENDBRANCH  73  74
ENDBRANCH  72  73
ENDBRANCH  71  72
ENDBRANCH   1  71
TORSDOF 15
ENDMDL
MODEL 2
REMARK VINA RESULT:     -11.9      1.425      1.825
REMARK SMILES O=C(NCCCCNC(=O)[C@@]1(c2ccccc2)CCCC[NH2+]1)c1ccc(-c2c3nc(c(-c4cc(S(=O)(=O)[O-])ccc4F)c4ccc([nH]4)c(-c4cc(S(=O)(=O)[O-])ccc4F)c4nc(c(-c5cc(S(=O)(=O)[O-])ccc5F)c5ccc2[nH]5)C=C4)C=C3)cc1
REMARK SMILES IDX 4 1 3 2 1 3 2 4 23 6 24 7 85 8 25 9 84 10 26 11 27 12 28 13
REMARK SMILES IDX 78 14 29 15 83 16 77 17 79 18 30 19 82 20 76 21 75 22 31 24
REMARK SMILES IDX 63 25 43 26 62 27 44 28 47 29 61 30 80 31 45 32 46 33 60 35
REMARK SMILES IDX 81 36 48 37 32 38 33 39 41 40 34 41 40 42 42 43 39 44 35 45
REMARK SMILES IDX 36 46 37 47 38 48 64 49 65 50 73 51 66 52 72 53 74 54 71 55
REMARK SMILES IDX 67 56 68 57 69 58 70 59 49 60 50 61 58 62 51 63 57 64 59 65
REMARK SMILES IDX 56 66 52 67 53 68 54 69 55 70 5 71 6 72 7 73 8 74 9 75 10 77
REMARK SMILES IDX 11 78 18 79 22 80 19 81 21 82 20 85 12 86 13 87 17 88 14 89
REMARK SMILES IDX 16 90 15 91
REMARK H PARENT 3 5 79 23 47 34 8 76 22 83 22 84
REMARK Flexibility Score: inf
ROOT
ATOM      1  C   UNL A   1      32.866  32.251  27.202  1.00  0.00     0.116 C 
ENDROOT
BRANCH   1   2
ATOM      2  N   UNL A   1      32.608  33.639  27.555  1.00  0.00    -0.352 N 
ATOM      3  O   UNL A   1      32.730  35.494  28.828  1.00  0.00    -0.269 OA
ATOM      4  C   UNL A   1      33.195  34.404  28.533  1.00  0.00     0.251 C 
ATOM      5  H   UNL A   1      31.917  34.093  27.019  1.00  0.00     0.163 HD
BRANCH   4   6
ATOM      6  C   UNL A   1      34.390  33.880  29.224  1.00  0.00     0.039 A 
ATOM      7  C   UNL A   1      35.667  34.270  28.808  1.00  0.00     0.014 A 
ATOM      8  C   UNL A   1      34.225  32.987  30.283  1.00  0.00     0.014 A 
ATOM      9  C   UNL A   1      36.786  33.677  29.376  1.00  0.00     0.010 A 
ATOM     10  C   UNL A   1      35.353  32.451  30.905  1.00  0.00     0.010 A 
ATOM     11  C   UNL A   1      36.638  32.778  30.442  1.00  0.00    -0.014 A 
BRANCH  11  12
ATOM     12  C   UNL A   1      37.838  32.226  31.113  1.00  0.00     0.031 A 
ATOM     13  C   UNL A   1      38.604  31.095  30.498  1.00  0.00     0.074 A 
ATOM     14  C   UNL A   1      38.203  32.739  32.302  1.00  0.00     0.049 A 
ATOM     15  N   UNL A   1      39.598  30.404  30.992  1.00  0.00    -0.248 NA
ATOM     16  C   UNL A   1      38.184  30.674  29.154  1.00  0.00     0.031 C 
ATOM     17  C   UNL A   1      37.526  33.847  32.983  1.00  0.00     0.029 A 
ATOM     18  N   UNL A   1      39.216  32.392  33.157  1.00  0.00    -0.354 N 
ATOM     19  C   UNL A   1      39.911  29.448  30.032  1.00  0.00     0.074 A 
ATOM     20  C   UNL A   1      38.975  29.632  28.940  1.00  0.00     0.031 C 
ATOM     21  C   UNL A   1      38.142  34.088  34.148  1.00  0.00     0.029 A 
ATOM     22  C   UNL A   1      39.205  33.107  34.330  1.00  0.00     0.049 A 
ATOM     23  H   UNL A   1      39.885  31.700  32.950  1.00  0.00     0.167 HD
ATOM     24  C   UNL A   1      40.890  28.508  30.067  1.00  0.00     0.034 A 
ATOM     25  C   UNL A   1      39.933  32.958  35.452  1.00  0.00     0.034 A 
ATOM     26  C   UNL A   1      41.801  28.349  31.176  1.00  0.00     0.049 A 
ATOM     27  C   UNL A   1      40.974  31.877  35.497  1.00  0.00     0.074 A 
ATOM     28  C   UNL A   1      42.854  27.462  31.311  1.00  0.00     0.029 A 
ATOM     29  N   UNL A   1      41.753  29.086  32.356  1.00  0.00    -0.354 N 
ATOM     30  N   UNL A   1      41.270  30.984  34.580  1.00  0.00    -0.248 NA
ATOM     31  C   UNL A   1      41.778  31.782  36.720  1.00  0.00     0.031 C 
ATOM     32  C   UNL A   1      43.395  27.612  32.593  1.00  0.00     0.029 A 
ATOM     33  C   UNL A   1      42.734  28.649  33.234  1.00  0.00     0.049 A 
ATOM     34  H   UNL A   1      41.115  29.814  32.540  1.00  0.00     0.167 HD
ATOM     35  C   UNL A   1      42.315  30.235  35.106  1.00  0.00     0.074 A 
ATOM     36  C   UNL A   1      42.595  30.780  36.421  1.00  0.00     0.031 C 
ATOM     37  C   UNL A   1      42.988  29.198  34.547  1.00  0.00     0.034 A 
BRANCH  24  38
ATOM     38  C   UNL A   1      40.973  27.552  28.899  1.00  0.00     0.023 A 
ATOM     39  C   UNL A   1      41.954  27.683  27.899  1.00  0.00     0.031 A 
ATOM     40  C   UNL A   1      40.021  26.527  28.751  1.00  0.00     0.131 A 
ATOM     41  C   UNL A   1      41.902  26.872  26.754  1.00  0.00     0.055 A 
ATOM     42  C   UNL A   1      40.030  25.664  27.652  1.00  0.00     0.041 A 
ATOM     43  F   UNL A   1      39.048  26.360  29.660  1.00  0.00    -0.206 F 
ATOM     44  C   UNL A   1      40.962  25.847  26.635  1.00  0.00     0.022 A 
BRANCH  41  45
ATOM     45  S   UNL A   1      42.962  27.299  25.344  1.00  0.00     0.124 S 
ATOM     46  O   UNL A   1      44.191  27.719  26.013  1.00  0.00    -0.237 OA
ATOM     47  O   UNL A   1      43.032  26.040  24.611  1.00  0.00    -0.237 OA
ATOM     48  O   UNL A   1      42.230  28.373  24.676  1.00  0.00    -0.744 OA
ENDBRANCH  41  45
ENDBRANCH  24  38
BRANCH  25  49
ATOM     49  C   UNL A   1      39.645  33.825  36.626  1.00  0.00     0.023 A 
ATOM     50  C   UNL A   1      39.051  33.307  37.786  1.00  0.00     0.031 A 
ATOM     51  C   UNL A   1      40.011  35.184  36.615  1.00  0.00     0.131 A 
ATOM     52  C   UNL A   1      38.830  34.149  38.887  1.00  0.00     0.055 A 
ATOM     53  C   UNL A   1      39.828  36.005  37.728  1.00  0.00     0.041 A 
ATOM     54  F   UNL A   1      40.597  35.720  35.533  1.00  0.00    -0.206 F 
ATOM     55  C   UNL A   1      39.228  35.489  38.871  1.00  0.00     0.022 A 
BRANCH  52  56
ATOM     56  S   UNL A   1      37.987  33.471  40.342  1.00  0.00     0.124 S 
ATOM     57  O   UNL A   1      38.029  34.601  41.263  1.00  0.00    -0.237 OA
ATOM     58  O   UNL A   1      36.675  33.130  39.802  1.00  0.00    -0.237 OA
ATOM     59  O   UNL A   1      38.819  32.329  40.716  1.00  0.00    -0.744 OA
ENDBRANCH  52  56
ENDBRANCH  25  49
BRANCH  37  60
ATOM     60  C   UNL A   1      44.133  28.620  35.339  1.00  0.00     0.023 A 
ATOM     61  C   UNL A   1      43.935  27.629  36.315  1.00  0.00     0.031 A 
ATOM     62  C   UNL A   1      45.444  29.064  35.095  1.00  0.00     0.131 A 
ATOM     63  C   UNL A   1      45.034  27.135  37.036  1.00  0.00     0.055 A 
ATOM     64  C   UNL A   1      46.537  28.534  35.781  1.00  0.00     0.041 A 
ATOM     65  F   UNL A   1      45.684  30.013  34.176  1.00  0.00    -0.206 F 
ATOM     66  C   UNL A   1      46.335  27.569  36.763  1.00  0.00     0.022 A 
BRANCH  63  67
ATOM     67  S   UNL A   1      44.739  25.950  38.377  1.00  0.00     0.124 S 
ATOM     68  O   UNL A   1      44.802  24.674  37.673  1.00  0.00    -0.237 OA
ATOM     69  O   UNL A   1      45.840  26.230  39.293  1.00  0.00    -0.237 OA
ATOM     70  O   UNL A   1      43.414  26.319  38.874  1.00  0.00    -0.744 OA
ENDBRANCH  63  67
ENDBRANCH  37  60
ENDBRANCH  11  12
ENDBRANCH   4   6
ENDBRANCH   1   2
BRANCH   1  71
ATOM     71  C   UNL A   1      31.587  31.501  26.860  1.00  0.00     0.023 C 
BRANCH  71  72
ATOM     72  C   UNL A   1      31.732  30.494  25.715  1.00  0.00     0.023 C 
BRANCH  72  73
ATOM     73  C   UNL A   1      33.044  29.704  25.734  1.00  0.00     0.116 C 
BRANCH  73  74
ATOM     74  N   UNL A   1      33.564  29.519  24.395  1.00  0.00    -0.350 N 
ATOM     75  C   UNL A   1      33.294  28.637  23.392  1.00  0.00     0.286 C 
ATOM     76  H   UNL A   1      34.262  30.171  24.159  1.00  0.00     0.163 HD
ATOM     77  O   UNL A   1      33.978  28.808  22.372  1.00  0.00    -0.267 OA
BRANCH  75  78
ATOM     78  C   UNL A   1      32.144  27.550  23.424  1.00  0.00     0.201 C 
ATOM     79  C   UNL A   1      32.411  26.530  22.268  1.00  0.00     0.085 C 
ATOM     80  N   UNL A   1      32.104  26.769  24.690  1.00  0.00    -0.330 N 
ATOM     81  C   UNL A   1      33.647  25.656  22.510  1.00  0.00     0.013 C 
ATOM     82  C   UNL A   1      33.316  26.011  24.959  1.00  0.00     0.261 C 
ATOM     83  H   UNL A   1      31.322  26.115  24.639  1.00  0.00     0.347 HD
ATOM     84  H   UNL A   1      32.004  27.443  25.449  1.00  0.00     0.347 HD
ATOM     85  C   UNL A   1      33.571  24.980  23.872  1.00  0.00     0.062 C 
BRANCH  78  86
ATOM     86  C   UNL A   1      30.757  28.186  23.148  1.00  0.00     0.022 A 
ATOM     87  C   UNL A   1      29.586  27.559  23.621  1.00  0.00     0.011 A 
ATOM     88  C   UNL A   1      30.596  29.336  22.352  1.00  0.00     0.011 A 
ATOM     89  C   UNL A   1      28.315  28.052  23.309  1.00  0.00     0.001 A 
ATOM     90  C   UNL A   1      29.324  29.836  22.049  1.00  0.00     0.001 A 
ATOM     91  C   UNL A   1      28.185  29.192  22.522  1.00  0.00     0.000 A 
ENDBRANCH  78  86
ENDBRANCH  75  78
ENDBRANCH  73  74
ENDBRANCH  72  73
ENDBRANCH  71  72
ENDBRANCH   1  71
TORSDOF 15
ENDMDL
MODEL 3
REMARK VINA RESULT:     -11.8      6.183     11.539
REMARK SMILES O=C(NCCCCNC(=O)[C@@]1(c2ccccc2)CCCC[NH2+]1)c1ccc(-c2c3nc(c(-c4cc(S(=O)(=O)[O-])ccc4F)c4ccc([nH]4)c(-c4cc(S(=O)(=O)[O-])ccc4F)c4nc(c(-c5cc(S(=O)(=O)[O-])ccc5F)c5ccc2[nH]5)C=C4)C=C3)cc1
REMARK SMILES IDX 4 1 3 2 1 3 2 4 23 6 24 7 85 8 25 9 84 10 26 11 27 12 28 13
REMARK SMILES IDX 78 14 29 15 83 16 77 17 79 18 30 19 82 20 76 21 75 22 31 24
REMARK SMILES IDX 63 25 43 26 62 27 44 28 47 29 61 30 80 31 45 32 46 33 60 35
REMARK SMILES IDX 81 36 48 37 32 38 33 39 41 40 34 41 40 42 42 43 39 44 35 45
REMARK SMILES IDX 36 46 37 47 38 48 64 49 65 50 73 51 66 52 72 53 74 54 71 55
REMARK SMILES IDX 67 56 68 57 69 58 70 59 49 60 50 61 58 62 51 63 57 64 59 65
REMARK SMILES IDX 56 66 52 67 53 68 54 69 55 70 5 71 6 72 7 73 8 74 9 75 10 77
REMARK SMILES IDX 11 78 18 79 22 80 19 81 21 82 20 85 12 86 13 87 17 88 14 89
REMARK SMILES IDX 16 90 15 91
REMARK H PARENT 3 5 79 23 47 34 8 76 22 83 22 84
REMARK Flexibility Score: inf
ROOT
ATOM      1  C   UNL A   1      38.919  20.274  25.802  1.00  0.00     0.116 C 
ENDROOT
BRANCH   1   2
ATOM      2  N   UNL A   1      39.988  19.290  25.886  1.00  0.00    -0.352 N 
ATOM      3  O   UNL A   1      42.122  18.570  25.926  1.00  0.00    -0.269 OA
ATOM      4  C   UNL A   1      41.334  19.492  26.070  1.00  0.00     0.251 C 
ATOM      5  H   UNL A   1      39.708  18.349  25.800  1.00  0.00     0.163 HD
BRANCH   4   6
ATOM      6  C   UNL A   1      41.807  20.841  26.435  1.00  0.00     0.039 A 
ATOM      7  C   UNL A   1      42.051  21.160  27.775  1.00  0.00     0.014 A 
ATOM      8  C   UNL A   1      41.995  21.791  25.431  1.00  0.00     0.014 A 
ATOM      9  C   UNL A   1      42.372  22.464  28.125  1.00  0.00     0.010 A 
ATOM     10  C   UNL A   1      42.393  23.081  25.777  1.00  0.00     0.010 A 
ATOM     11  C   UNL A   1      42.564  23.430  27.127  1.00  0.00    -0.014 A 
BRANCH  11  12
ATOM     12  C   UNL A   1      43.007  24.794  27.497  1.00  0.00     0.031 A 
ATOM     13  C   UNL A   1      42.060  25.751  28.155  1.00  0.00     0.074 A 
ATOM     14  C   UNL A   1      44.265  25.165  27.199  1.00  0.00     0.049 A 
ATOM     15  N   UNL A   1      42.227  27.016  28.439  1.00  0.00    -0.248 NA
ATOM     16  C   UNL A   1      40.742  25.217  28.528  1.00  0.00     0.031 C 
ATOM     17  C   UNL A   1      45.267  24.305  26.564  1.00  0.00     0.029 A 
ATOM     18  N   UNL A   1      44.913  26.361  27.371  1.00  0.00    -0.354 N 
ATOM     19  C   UNL A   1      41.029  27.442  29.002  1.00  0.00     0.074 A 
ATOM     20  C   UNL A   1      40.135  26.301  28.989  1.00  0.00     0.031 C 
ATOM     21  C   UNL A   1      46.401  24.999  26.401  1.00  0.00     0.029 A 
ATOM     22  C   UNL A   1      46.183  26.369  26.848  1.00  0.00     0.049 A 
ATOM     23  H   UNL A   1      44.509  27.135  27.824  1.00  0.00     0.167 HD
ATOM     24  C   UNL A   1      40.714  28.671  29.484  1.00  0.00     0.034 A 
ATOM     25  C   UNL A   1      47.060  27.378  26.694  1.00  0.00     0.034 A 
ATOM     26  C   UNL A   1      41.630  29.788  29.475  1.00  0.00     0.049 A 
ATOM     27  C   UNL A   1      46.675  28.746  27.180  1.00  0.00     0.074 A 
ATOM     28  C   UNL A   1      41.440  31.067  29.966  1.00  0.00     0.029 A 
ATOM     29  N   UNL A   1      42.909  29.763  28.925  1.00  0.00    -0.354 N 
ATOM     30  N   UNL A   1      45.544  29.136  27.722  1.00  0.00    -0.248 NA
ATOM     31  C   UNL A   1      47.679  29.806  27.039  1.00  0.00     0.031 C 
ATOM     32  C   UNL A   1      42.570  31.831  29.653  1.00  0.00     0.029 A 
ATOM     33  C   UNL A   1      43.503  31.012  29.035  1.00  0.00     0.049 A 
ATOM     34  H   UNL A   1      43.332  28.972  28.518  1.00  0.00     0.167 HD
ATOM     35  C   UNL A   1      45.708  30.486  28.010  1.00  0.00     0.074 A 
ATOM     36  C   UNL A   1      47.048  30.840  27.581  1.00  0.00     0.031 C 
ATOM     37  C   UNL A   1      44.835  31.349  28.587  1.00  0.00     0.034 A 
BRANCH  24  38
ATOM     38  C   UNL A   1      39.306  28.874  29.997  1.00  0.00     0.023 A 
ATOM     39  C   UNL A   1      38.295  29.432  29.193  1.00  0.00     0.031 A 
ATOM     40  C   UNL A   1      38.984  28.559  31.329  1.00  0.00     0.131 A 
ATOM     41  C   UNL A   1      37.047  29.746  29.754  1.00  0.00     0.055 A 
ATOM     42  C   UNL A   1      37.711  28.791  31.855  1.00  0.00     0.041 A 
ATOM     43  F   UNL A   1      39.909  28.042  32.153  1.00  0.00    -0.206 F 
ATOM     44  C   UNL A   1      36.739  29.407  31.072  1.00  0.00     0.022 A 
BRANCH  41  45
ATOM     45  S   UNL A   1      35.900  30.770  28.789  1.00  0.00     0.124 S 
ATOM     46  O   UNL A   1      36.820  31.558  27.973  1.00  0.00    -0.237 OA
ATOM     47  O   UNL A   1      35.110  29.772  28.078  1.00  0.00    -0.237 OA
ATOM     48  O   UNL A   1      35.178  31.530  29.808  1.00  0.00    -0.744 OA
ENDBRANCH  41  45
ENDBRANCH  24  38
BRANCH  25  49
ATOM     49  C   UNL A   1      48.350  27.123  25.999  1.00  0.00     0.023 A 
ATOM     50  C   UNL A   1      48.476  27.291  24.613  1.00  0.00     0.031 A 
ATOM     51  C   UNL A   1      49.492  26.751  26.732  1.00  0.00     0.131 A 
ATOM     52  C   UNL A   1      49.720  27.077  23.999  1.00  0.00     0.055 A 
ATOM     53  C   UNL A   1      50.736  26.582  26.122  1.00  0.00     0.041 A 
ATOM     54  F   UNL A   1      49.423  26.594  28.063  1.00  0.00    -0.206 F 
ATOM     55  C   UNL A   1      50.853  26.739  24.745  1.00  0.00     0.022 A 
BRANCH  52  56
ATOM     56  S   UNL A   1      49.834  27.222  22.195  1.00  0.00     0.124 S 
ATOM     57  O   UNL A   1      49.584  28.645  21.995  1.00  0.00    -0.237 OA
ATOM     58  O   UNL A   1      51.196  26.767  21.939  1.00  0.00    -0.237 OA
ATOM     59  O   UNL A   1      48.781  26.330  21.715  1.00  0.00    -0.744 OA
ENDBRANCH  52  56
ENDBRANCH  25  49
BRANCH  37  60
ATOM     60  C   UNL A   1      45.326  32.752  28.838  1.00  0.00     0.023 A 
ATOM     61  C   UNL A   1      45.119  33.786  27.910  1.00  0.00     0.031 A 
ATOM     62  C   UNL A   1      45.996  33.053  30.036  1.00  0.00     0.131 A 
ATOM     63  C   UNL A   1      45.610  35.073  28.184  1.00  0.00     0.055 A 
ATOM     64  C   UNL A   1      46.437  34.345  30.324  1.00  0.00     0.041 A 
ATOM     65  F   UNL A   1      46.221  32.098  30.951  1.00  0.00    -0.206 F 
ATOM     66  C   UNL A   1      46.252  35.362  29.392  1.00  0.00     0.022 A 
BRANCH  63  67
ATOM     67  S   UNL A   1      45.445  36.360  26.917  1.00  0.00     0.124 S 
ATOM     68  O   UNL A   1      45.972  37.533  27.606  1.00  0.00    -0.237 OA
ATOM     69  O   UNL A   1      46.263  35.837  25.828  1.00  0.00    -0.237 OA
ATOM     70  O   UNL A   1      44.008  36.393  26.648  1.00  0.00    -0.744 OA
ENDBRANCH  63  67
ENDBRANCH  37  60
ENDBRANCH  11  12
ENDBRANCH   4   6
ENDBRANCH   1   2
BRANCH   1  71
ATOM     71  C   UNL A   1      37.924  19.943  24.699  1.00  0.00     0.023 C 
BRANCH  71  72
ATOM     72  C   UNL A   1      36.479  20.346  25.011  1.00  0.00     0.023 C 
BRANCH  72  73
ATOM     73  C   UNL A   1      36.341  21.694  25.722  1.00  0.00     0.116 C 
BRANCH  73  74
ATOM     74  N   UNL A   1      35.368  21.626  26.793  1.00  0.00    -0.350 N 
ATOM     75  C   UNL A   1      34.024  21.834  26.860  1.00  0.00     0.286 C 
ATOM     76  H   UNL A   1      35.764  21.375  27.658  1.00  0.00     0.163 HD
ATOM     77  O   UNL A   1      33.544  21.678  27.993  1.00  0.00    -0.267 OA
BRANCH  75  78
ATOM     78  C   UNL A   1      33.087  22.132  25.619  1.00  0.00     0.201 C 
ATOM     79  C   UNL A   1      31.681  22.549  26.163  1.00  0.00     0.085 C 
ATOM     80  N   UNL A   1      33.573  23.253  24.769  1.00  0.00    -0.330 N 
ATOM     81  C   UNL A   1      31.687  23.914  26.861  1.00  0.00     0.013 C 
ATOM     82  C   UNL A   1      33.660  24.529  25.462  1.00  0.00     0.261 C 
ATOM     83  H   UNL A   1      32.932  23.359  23.982  1.00  0.00     0.347 HD
ATOM     84  H   UNL A   1      34.519  23.012  24.476  1.00  0.00     0.347 HD
ATOM     85  C   UNL A   1      32.296  24.978  25.959  1.00  0.00     0.062 C 
BRANCH  78  86
ATOM     86  C   UNL A   1      32.874  20.863  24.754  1.00  0.00     0.022 A 
ATOM     87  C   UNL A   1      32.537  20.986  23.390  1.00  0.00     0.011 A 
ATOM     88  C   UNL A   1      32.910  19.563  25.294  1.00  0.00     0.011 A 
ATOM     89  C   UNL A   1      32.245  19.867  22.605  1.00  0.00     0.001 A 
ATOM     90  C   UNL A   1      32.627  18.442  24.505  1.00  0.00     0.001 A 
ATOM     91  C   UNL A   1      32.290  18.594  23.164  1.00  0.00     0.000 A 
ENDBRANCH  78  86
ENDBRANCH  75  78
ENDBRANCH  73  74
ENDBRANCH  72  73
ENDBRANCH  71  72
ENDBRANCH   1  71
TORSDOF 15
ENDMDL
