MODEL 1
REMARK VINA RESULT:     -12.1      0.000      0.000
REMARK SMILES Cc1cscc1C(=O)Nc1cc(Br)ccc1C(=O)NCCCCNC(=O)c1ccc(-c2c3nc(c(-c4cc(S(=O)(=O)[O-])ccc4F)c4ccc([nH]4)c(-c4cc(S(=O)(=O)[O-])ccc4F)c4nc(c(-c5cc(S(=O)(=O)[O-])ccc5F)c5ccc2[nH]5)C=C4)C=C3)cc1
REMARK SMILES IDX 22 1 21 2 20 3 19 4 17 5 18 6 16 8 10 9 11 10 12 11 15 12
REMARK SMILES IDX 13 13 14 14 9 15 7 16 8 17 6 19 1 20 2 21 3 22 4 23 5 24
REMARK SMILES IDX 23 25 24 26 25 27 26 29 27 30 28 31 89 32 29 33 88 34 30 35
REMARK SMILES IDX 31 36 32 37 82 38 33 39 87 40 81 41 83 42 34 43 86 44 80 45
REMARK SMILES IDX 79 46 35 48 67 49 47 50 66 51 48 52 51 53 65 54 84 55 49 56
REMARK SMILES IDX 50 57 64 59 85 60 52 61 36 62 37 63 45 64 38 65 44 66 46 67
REMARK SMILES IDX 43 68 39 69 40 70 41 71 42 72 68 73 69 74 77 75 70 76 76 77
REMARK SMILES IDX 78 78 75 79 71 80 72 81 73 82 74 83 53 84 54 85 62 86 55 87
REMARK SMILES IDX 61 88 63 89 60 90 56 91 57 92 58 93 59 94
REMARK H PARENT 19 7 9 18 24 28 83 47 51 58
REMARK Flexibility Score: inf
ROOT
ATOM      1  C   UNL A   1      32.631  29.468  24.816  1.00  0.00     0.023 C 
ENDROOT
BRANCH   1   2
ATOM      2  C   UNL A   1      33.616  28.888  23.805  1.00  0.00     0.023 C 
BRANCH   2   3
ATOM      3  C   UNL A   1      33.025  28.165  22.602  1.00  0.00     0.116 C 
BRANCH   3   4
ATOM      4  N   UNL A   1      31.617  28.349  22.354  1.00  0.00    -0.352 N 
ATOM      5  C   UNL A   1      30.504  27.660  22.778  1.00  0.00     0.253 C 
ATOM      6  O   UNL A   1      29.423  28.105  22.378  1.00  0.00    -0.269 OA
ATOM      7  H   UNL A   1      31.412  29.116  21.769  1.00  0.00     0.163 HD
BRANCH   5   8
ATOM      8  C   UNL A   1      30.466  26.414  23.628  1.00  0.00     0.063 A 
ATOM      9  C   UNL A   1      30.975  25.124  23.366  1.00  0.00     0.055 A 
ATOM     10  C   UNL A   1      30.935  24.117  24.350  1.00  0.00     0.042 A 
ATOM     11  C   UNL A   1      30.322  24.351  25.576  1.00  0.00     0.020 A 
ATOM     12  C   UNL A   1      29.816  26.597  24.872  1.00  0.00     0.017 A 
ATOM     13  Br  UNL A   1      30.266  22.983  26.877  1.00  0.00    -0.051 Br
ATOM     14  C   UNL A   1      29.734  25.581  25.833  1.00  0.00     0.016 A 
BRANCH   9  15
ATOM     15  N   UNL A   1      31.673  24.810  22.212  1.00  0.00    -0.321 N 
ATOM     16  C   UNL A   1      33.004  24.542  21.979  1.00  0.00     0.256 C 
ATOM     17  O   UNL A   1      33.294  24.481  20.778  1.00  0.00    -0.269 OA
ATOM     18  H   UNL A   1      31.111  24.769  21.405  1.00  0.00     0.170 HD
BRANCH  16  19
ATOM     19  C   UNL A   1      34.026  24.179  23.001  1.00  0.00     0.053 A 
ATOM     20  C   UNL A   1      33.963  25.830  25.125  1.00  0.00     0.046 C 
ATOM     21  C   UNL A   1      34.465  24.690  24.305  1.00  0.00    -0.028 A 
ATOM     22  C   UNL A   1      35.518  23.941  24.817  1.00  0.00     0.069 A 
ATOM     23  S   UNL A   1      35.903  22.578  23.892  1.00  0.00    -0.151 S 
ATOM     24  C   UNL A   1      34.717  22.990  22.751  1.00  0.00     0.079 A 
ENDBRANCH  16  19
ENDBRANCH   9  15
ENDBRANCH   5   8
ENDBRANCH   3   4
ENDBRANCH   2   3
ENDBRANCH   1   2
BRANCH   1  25
ATOM     25  C   UNL A   1      33.131  29.665  26.244  1.00  0.00     0.116 C 
BRANCH  25  26
ATOM     26  N   UNL A   1      33.045  31.033  26.729  1.00  0.00    -0.352 N 
ATOM     27  C   UNL A   1      33.880  31.742  27.570  1.00  0.00     0.251 C 
ATOM     28  H   UNL A   1      32.263  31.536  26.405  1.00  0.00     0.163 HD
ATOM     29  O   UNL A   1      33.564  32.870  27.917  1.00  0.00    -0.269 OA
BRANCH  27  30
ATOM     30  C   UNL A   1      35.131  31.133  28.090  1.00  0.00     0.039 A 
ATOM     31  C   UNL A   1      36.305  31.893  28.078  1.00  0.00     0.014 A 
ATOM     32  C   UNL A   1      35.163  29.825  28.577  1.00  0.00     0.014 A 
ATOM     33  C   UNL A   1      37.482  31.370  28.624  1.00  0.00     0.010 A 
ATOM     34  C   UNL A   1      36.305  29.346  29.216  1.00  0.00     0.010 A 
ATOM     35  C   UNL A   1      37.486  30.106  29.235  1.00  0.00    -0.014 A 
BRANCH  35  36
ATOM     36  C   UNL A   1      38.720  29.541  29.851  1.00  0.00     0.031 A 
ATOM     37  C   UNL A   1      39.162  30.018  31.213  1.00  0.00     0.074 A 
ATOM     38  C   UNL A   1      39.469  28.645  29.175  1.00  0.00     0.049 A 
ATOM     39  N   UNL A   1      40.240  29.714  31.890  1.00  0.00    -0.248 NA
ATOM     40  C   UNL A   1      38.295  31.001  31.882  1.00  0.00     0.031 C 
ATOM     41  C   UNL A   1      39.178  28.140  27.831  1.00  0.00     0.029 A 
ATOM     42  N   UNL A   1      40.632  28.002  29.522  1.00  0.00    -0.354 N 
ATOM     43  C   UNL A   1      40.190  30.483  33.050  1.00  0.00     0.074 A 
ATOM     44  C   UNL A   1      39.015  31.320  32.945  1.00  0.00     0.031 C 
ATOM     45  C   UNL A   1      40.117  27.246  27.483  1.00  0.00     0.029 A 
ATOM     46  C   UNL A   1      41.101  27.140  28.556  1.00  0.00     0.049 A 
ATOM     47  H   UNL A   1      41.089  28.145  30.382  1.00  0.00     0.167 HD
ATOM     48  C   UNL A   1      41.026  30.470  34.118  1.00  0.00     0.034 A 
ATOM     49  C   UNL A   1      42.198  26.356  28.538  1.00  0.00     0.034 A 
ATOM     50  C   UNL A   1      42.175  29.605  34.223  1.00  0.00     0.049 A 
ATOM     51  C   UNL A   1      43.105  26.348  29.744  1.00  0.00     0.074 A 
ATOM     52  C   UNL A   1      43.060  29.472  35.279  1.00  0.00     0.029 A 
ATOM     53  N   UNL A   1      42.597  28.721  33.239  1.00  0.00    -0.354 N 
ATOM     54  N   UNL A   1      43.015  27.045  30.853  1.00  0.00    -0.248 NA
ATOM     55  C   UNL A   1      44.250  25.429  29.705  1.00  0.00     0.031 C 
ATOM     56  C   UNL A   1      44.050  28.555  34.909  1.00  0.00     0.029 A 
ATOM     57  C   UNL A   1      43.738  28.053  33.655  1.00  0.00     0.049 A 
ATOM     58  H   UNL A   1      42.151  28.588  32.371  1.00  0.00     0.167 HD
ATOM     59  C   UNL A   1      44.067  26.616  31.659  1.00  0.00     0.074 A 
ATOM     60  C   UNL A   1      44.765  25.590  30.914  1.00  0.00     0.031 C 
ATOM     61  C   UNL A   1      44.422  27.028  32.903  1.00  0.00     0.034 A 
BRANCH  48  62
ATOM     62  C   UNL A   1      40.729  31.434  35.244  1.00  0.00     0.023 A 
ATOM     63  C   UNL A   1      39.651  31.234  36.125  1.00  0.00     0.031 A 
ATOM     64  C   UNL A   1      41.518  32.583  35.425  1.00  0.00     0.131 A 
ATOM     65  C   UNL A   1      39.342  32.206  37.090  1.00  0.00     0.055 A 
ATOM     66  C   UNL A   1      41.259  33.503  36.444  1.00  0.00     0.041 A 
ATOM     67  F   UNL A   1      42.549  32.842  34.605  1.00  0.00    -0.206 F 
ATOM     68  C   UNL A   1      40.155  33.326  37.273  1.00  0.00     0.022 A 
BRANCH  65  69
ATOM     69  S   UNL A   1      37.781  32.057  37.999  1.00  0.00     0.124 S 
ATOM     70  O   UNL A   1      36.960  33.072  37.341  1.00  0.00    -0.237 OA
ATOM     71  O   UNL A   1      37.402  30.671  37.752  1.00  0.00    -0.237 OA
ATOM     72  O   UNL A   1      38.155  32.366  39.377  1.00  0.00    -0.744 OA
ENDBRANCH  65  69
ENDBRANCH  48  62
BRANCH  49  73
ATOM     73  C   UNL A   1      42.511  25.507  27.350  1.00  0.00     0.023 A 
ATOM     74  C   UNL A   1      42.069  24.175  27.275  1.00  0.00     0.031 A 
ATOM     75  C   UNL A   1      43.312  25.991  26.301  1.00  0.00     0.131 A 
ATOM     76  C   UNL A   1      42.479  23.357  26.210  1.00  0.00     0.055 A 
ATOM     77  C   UNL A   1      43.668  25.191  25.214  1.00  0.00     0.041 A 
ATOM     78  F   UNL A   1      43.759  27.257  26.317  1.00  0.00    -0.206 F 
ATOM     79  C   UNL A   1      43.266  23.860  25.172  1.00  0.00     0.022 A 
BRANCH  76  80
ATOM     80  S   UNL A   1      42.058  21.592  26.257  1.00  0.00     0.124 S 
ATOM     81  O   UNL A   1      40.675  21.606  25.796  1.00  0.00    -0.237 OA
ATOM     82  O   UNL A   1      43.037  21.024  25.335  1.00  0.00    -0.237 OA
ATOM     83  O   UNL A   1      42.246  21.235  27.661  1.00  0.00    -0.744 OA
ENDBRANCH  76  80
ENDBRANCH  49  73
BRANCH  61  84
ATOM     84  C   UNL A   1      45.580  26.313  33.559  1.00  0.00     0.023 A 
ATOM     85  C   UNL A   1      45.395  25.162  34.344  1.00  0.00     0.031 A 
ATOM     86  C   UNL A   1      46.888  26.811  33.414  1.00  0.00     0.131 A 
ATOM     87  C   UNL A   1      46.488  24.589  35.011  1.00  0.00     0.055 A 
ATOM     88  C   UNL A   1      47.981  26.196  34.024  1.00  0.00     0.041 A 
ATOM     89  F   UNL A   1      47.124  27.908  32.676  1.00  0.00    -0.206 F 
ATOM     90  C   UNL A   1      47.782  25.089  34.842  1.00  0.00     0.022 A 
BRANCH  87  91
ATOM     91  S   UNL A   1      46.180  23.254  36.199  1.00  0.00     0.124 S 
ATOM     92  O   UNL A   1      47.300  22.354  35.943  1.00  0.00    -0.237 OA
ATOM     93  O   UNL A   1      46.208  23.960  37.476  1.00  0.00    -0.237 OA
ATOM     94  O   UNL A   1      44.869  22.739  35.805  1.00  0.00    -0.744 OA
ENDBRANCH  87  91
ENDBRANCH  61  84
ENDBRANCH  35  36
ENDBRANCH  27  30
ENDBRANCH  25  26
ENDBRANCH   1  25
TORSDOF 16
ENDMDL
MODEL 2
REMARK VINA RESULT:     -11.9      5.269      7.944
REMARK SMILES Cc1cscc1C(=O)Nc1cc(Br)ccc1C(=O)NCCCCNC(=O)c1ccc(-c2c3nc(c(-c4cc(S(=O)(=O)[O-])ccc4F)c4ccc([nH]4)c(-c4cc(S(=O)(=O)[O-])ccc4F)c4nc(c(-c5cc(S(=O)(=O)[O-])ccc5F)c5ccc2[nH]5)C=C4)C=C3)cc1
REMARK SMILES IDX 22 1 21 2 20 3 19 4 17 5 18 6 16 8 10 9 11 10 12 11 15 12
REMARK SMILES IDX 13 13 14 14 9 15 7 16 8 17 6 19 1 20 2 21 3 22 4 23 5 24
REMARK SMILES IDX 23 25 24 26 25 27 26 29 27 30 28 31 89 32 29 33 88 34 30 35
REMARK SMILES IDX 31 36 32 37 82 38 33 39 87 40 81 41 83 42 34 43 86 44 80 45
REMARK SMILES IDX 79 46 35 48 67 49 47 50 66 51 48 52 51 53 65 54 84 55 49 56
REMARK SMILES IDX 50 57 64 59 85 60 52 61 36 62 37 63 45 64 38 65 44 66 46 67
REMARK SMILES IDX 43 68 39 69 40 70 41 71 42 72 68 73 69 74 77 75 70 76 76 77
REMARK SMILES IDX 78 78 75 79 71 80 72 81 73 82 74 83 53 84 54 85 62 86 55 87
REMARK SMILES IDX 61 88 63 89 60 90 56 91 57 92 58 93 59 94
REMARK H PARENT 19 7 9 18 24 28 83 47 51 58
REMARK Flexibility Score: inf
ROOT
ATOM      1  C   UNL A   1      35.846  21.085  25.219  1.00  0.00     0.023 C 
ENDROOT
BRANCH   1   2
ATOM      2  C   UNL A   1      35.254  22.044  26.248  1.00  0.00     0.023 C 
BRANCH   2   3
ATOM      3  C   UNL A   1      33.927  21.646  26.880  1.00  0.00     0.116 C 
BRANCH   3   4
ATOM      4  N   UNL A   1      33.111  20.706  26.154  1.00  0.00    -0.352 N 
ATOM      5  C   UNL A   1      32.436  20.796  24.958  1.00  0.00     0.253 C 
ATOM      6  O   UNL A   1      31.832  19.775  24.614  1.00  0.00    -0.269 OA
ATOM      7  H   UNL A   1      33.020  19.831  26.597  1.00  0.00     0.163 HD
BRANCH   5   8
ATOM      8  C   UNL A   1      32.320  22.003  24.059  1.00  0.00     0.063 A 
ATOM      9  C   UNL A   1      31.520  23.157  24.193  1.00  0.00     0.055 A 
ATOM     10  C   UNL A   1      31.644  24.232  23.292  1.00  0.00     0.042 A 
ATOM     11  C   UNL A   1      32.505  24.146  22.203  1.00  0.00     0.020 A 
ATOM     12  C   UNL A   1      33.153  21.940  22.916  1.00  0.00     0.017 A 
ATOM     13  Br  UNL A   1      32.647  25.592  20.997  1.00  0.00    -0.051 Br
ATOM     14  C   UNL A   1      33.241  22.989  21.993  1.00  0.00     0.016 A 
BRANCH   9  15
ATOM     15  N   UNL A   1      30.691  23.377  25.280  1.00  0.00    -0.321 N 
ATOM     16  C   UNL A   1      30.740  24.289  26.311  1.00  0.00     0.256 C 
ATOM     17  O   UNL A   1      29.919  24.065  27.209  1.00  0.00    -0.269 OA
ATOM     18  H   UNL A   1      29.921  22.766  25.325  1.00  0.00     0.170 HD
BRANCH  16  19
ATOM     19  C   UNL A   1      31.544  25.543  26.347  1.00  0.00     0.053 A 
ATOM     20  C   UNL A   1      34.120  25.110  25.703  1.00  0.00     0.046 C 
ATOM     21  C   UNL A   1      32.942  25.925  26.117  1.00  0.00    -0.028 A 
ATOM     22  C   UNL A   1      33.139  27.285  26.323  1.00  0.00     0.069 A 
ATOM     23  S   UNL A   1      31.714  28.145  26.629  1.00  0.00    -0.151 S 
ATOM     24  C   UNL A   1      30.808  26.713  26.558  1.00  0.00     0.079 A 
ENDBRANCH  16  19
ENDBRANCH   9  15
ENDBRANCH   5   8
ENDBRANCH   3   4
ENDBRANCH   2   3
ENDBRANCH   1   2
BRANCH   1  25
ATOM     25  C   UNL A   1      37.316  21.272  24.855  1.00  0.00     0.116 C 
BRANCH  25  26
ATOM     26  N   UNL A   1      38.201  20.242  25.375  1.00  0.00    -0.352 N 
ATOM     27  C   UNL A   1      39.393  20.347  26.064  1.00  0.00     0.251 C 
ATOM     28  H   UNL A   1      37.901  19.320  25.207  1.00  0.00     0.163 HD
ATOM     29  O   UNL A   1      40.020  19.333  26.334  1.00  0.00    -0.269 OA
BRANCH  27  30
ATOM     30  C   UNL A   1      39.940  21.676  26.440  1.00  0.00     0.039 A 
ATOM     31  C   UNL A   1      41.112  21.730  27.200  1.00  0.00     0.014 A 
ATOM     32  C   UNL A   1      39.308  22.862  26.065  1.00  0.00     0.014 A 
ATOM     33  C   UNL A   1      41.688  22.967  27.511  1.00  0.00     0.010 A 
ATOM     34  C   UNL A   1      39.937  24.087  26.283  1.00  0.00     0.010 A 
ATOM     35  C   UNL A   1      41.128  24.157  27.022  1.00  0.00    -0.014 A 
BRANCH  35  36
ATOM     36  C   UNL A   1      41.741  25.484  27.313  1.00  0.00     0.031 A 
ATOM     37  C   UNL A   1      40.973  26.503  28.120  1.00  0.00     0.074 A 
ATOM     38  C   UNL A   1      42.956  25.796  26.816  1.00  0.00     0.049 A 
ATOM     39  N   UNL A   1      41.291  27.737  28.419  1.00  0.00    -0.248 NA
ATOM     40  C   UNL A   1      39.653  26.089  28.621  1.00  0.00     0.031 C 
ATOM     41  C   UNL A   1      43.780  24.920  25.980  1.00  0.00     0.029 A 
ATOM     42  N   UNL A   1      43.710  26.938  26.935  1.00  0.00    -0.354 N 
ATOM     43  C   UNL A   1      40.203  28.250  29.121  1.00  0.00     0.074 A 
ATOM     44  C   UNL A   1      39.191  27.217  29.136  1.00  0.00     0.031 C 
ATOM     45  C   UNL A   1      44.933  25.543  25.690  1.00  0.00     0.029 A 
ATOM     46  C   UNL A   1      44.920  26.877  26.281  1.00  0.00     0.049 A 
ATOM     47  H   UNL A   1      43.412  27.728  27.442  1.00  0.00     0.167 HD
ATOM     48  C   UNL A   1      40.071  29.457  29.726  1.00  0.00     0.034 A 
ATOM     49  C   UNL A   1      45.905  27.792  26.171  1.00  0.00     0.034 A 
ATOM     50  C   UNL A   1      41.103  30.464  29.732  1.00  0.00     0.049 A 
ATOM     51  C   UNL A   1      45.741  29.123  26.864  1.00  0.00     0.074 A 
ATOM     52  C   UNL A   1      41.097  31.700  30.355  1.00  0.00     0.029 A 
ATOM     53  N   UNL A   1      42.328  30.351  29.088  1.00  0.00    -0.354 N 
ATOM     54  N   UNL A   1      44.726  29.572  27.566  1.00  0.00    -0.248 NA
ATOM     55  C   UNL A   1      46.868  30.061  26.771  1.00  0.00     0.031 C 
ATOM     56  C   UNL A   1      42.291  32.358  30.038  1.00  0.00     0.029 A 
ATOM     57  C   UNL A   1      43.077  31.501  29.284  1.00  0.00     0.049 A 
ATOM     58  H   UNL A   1      42.622  29.569  28.567  1.00  0.00     0.167 HD
ATOM     59  C   UNL A   1      45.111  30.827  28.032  1.00  0.00     0.074 A 
ATOM     60  C   UNL A   1      46.456  31.052  27.545  1.00  0.00     0.031 C 
ATOM     61  C   UNL A   1      44.420  31.712  28.796  1.00  0.00     0.034 A 
BRANCH  48  62
ATOM     62  C   UNL A   1      38.758  29.750  30.414  1.00  0.00     0.023 A 
ATOM     63  C   UNL A   1      37.748  30.507  29.792  1.00  0.00     0.031 A 
ATOM     64  C   UNL A   1      38.520  29.292  31.722  1.00  0.00     0.131 A 
ATOM     65  C   UNL A   1      36.588  30.850  30.503  1.00  0.00     0.055 A 
ATOM     66  C   UNL A   1      37.326  29.563  32.393  1.00  0.00     0.041 A 
ATOM     67  F   UNL A   1      39.452  28.582  32.379  1.00  0.00    -0.206 F 
ATOM     68  C   UNL A   1      36.357  30.361  31.790  1.00  0.00     0.022 A 
BRANCH  65  69
ATOM     69  S   UNL A   1      35.457  32.067  29.776  1.00  0.00     0.124 S 
ATOM     70  O   UNL A   1      34.950  31.339  28.614  1.00  0.00    -0.237 OA
ATOM     71  O   UNL A   1      34.501  32.293  30.854  1.00  0.00    -0.237 OA
ATOM     72  O   UNL A   1      36.325  33.200  29.464  1.00  0.00    -0.744 OA
ENDBRANCH  65  69
ENDBRANCH  48  62
BRANCH  49  73
ATOM     73  C   UNL A   1      47.137  27.497  25.381  1.00  0.00     0.023 A 
ATOM     74  C   UNL A   1      47.236  27.866  24.028  1.00  0.00     0.031 A 
ATOM     75  C   UNL A   1      48.209  26.784  25.945  1.00  0.00     0.131 A 
ATOM     76  C   UNL A   1      48.349  27.468  23.271  1.00  0.00     0.055 A 
ATOM     77  C   UNL A   1      49.342  26.443  25.204  1.00  0.00     0.041 A 
ATOM     78  F   UNL A   1      48.172  26.410  27.234  1.00  0.00    -0.206 F 
ATOM     79  C   UNL A   1      49.409  26.770  23.853  1.00  0.00     0.022 A 
BRANCH  76  80
ATOM     80  S   UNL A   1      48.343  27.784  21.484  1.00  0.00     0.124 S 
ATOM     81  O   UNL A   1      46.975  28.242  21.268  1.00  0.00    -0.237 OA
ATOM     82  O   UNL A   1      49.387  28.796  21.353  1.00  0.00    -0.237 OA
ATOM     83  O   UNL A   1      48.666  26.481  20.907  1.00  0.00    -0.744 OA
ENDBRANCH  76  80
ENDBRANCH  49  73
BRANCH  61  84
ATOM     84  C   UNL A   1      45.140  32.974  29.207  1.00  0.00     0.023 A 
ATOM     85  C   UNL A   1      45.087  34.147  28.434  1.00  0.00     0.031 A 
ATOM     86  C   UNL A   1      45.914  32.991  30.382  1.00  0.00     0.131 A 
ATOM     87  C   UNL A   1      45.850  35.263  28.806  1.00  0.00     0.055 A 
ATOM     88  C   UNL A   1      46.616  34.128  30.783  1.00  0.00     0.041 A 
ATOM     89  F   UNL A   1      46.002  31.899  31.159  1.00  0.00    -0.206 F 
ATOM     90  C   UNL A   1      46.601  35.267  29.985  1.00  0.00     0.022 A 
BRANCH  87  91
ATOM     91  S   UNL A   1      45.945  36.671  27.667  1.00  0.00     0.124 S 
ATOM     92  O   UNL A   1      44.547  36.853  27.291  1.00  0.00    -0.237 OA
ATOM     93  O   UNL A   1      46.519  37.715  28.509  1.00  0.00    -0.237 OA
ATOM     94  O   UNL A   1      46.817  36.189  26.596  1.00  0.00    -0.744 OA
ENDBRANCH  87  91
ENDBRANCH  61  84
ENDBRANCH  35  36
ENDBRANCH  27  30
ENDBRANCH  25  26
ENDBRANCH   1  25
TORSDOF 16
ENDMDL
MODEL 3
REMARK VINA RESULT:     -11.8      1.792      2.552
REMARK SMILES Cc1cscc1C(=O)Nc1cc(Br)ccc1C(=O)NCCCCNC(=O)c1ccc(-c2c3nc(c(-c4cc(S(=O)(=O)[O-])ccc4F)c4ccc([nH]4)c(-c4cc(S(=O)(=O)[O-])ccc4F)c4nc(c(-c5cc(S(=O)(=O)[O-])ccc5F)c5ccc2[nH]5)C=C4)C=C3)cc1
REMARK SMILES IDX 22 1 21 2 20 3 19 4 17 5 18 6 16 8 10 9 11 10 12 11 15 12
REMARK SMILES IDX 13 13 14 14 9 15 7 16 8 17 6 19 1 20 2 21 3 22 4 23 5 24
REMARK SMILES IDX 23 25 24 26 25 27 26 29 27 30 28 31 89 32 29 33 88 34 30 35
REMARK SMILES IDX 31 36 32 37 82 38 33 39 87 40 81 41 83 42 34 43 86 44 80 45
REMARK SMILES IDX 79 46 35 48 67 49 47 50 66 51 48 52 51 53 65 54 84 55 49 56
REMARK SMILES IDX 50 57 64 59 85 60 52 61 36 62 37 63 45 64 38 65 44 66 46 67
REMARK SMILES IDX 43 68 39 69 40 70 41 71 42 72 68 73 69 74 77 75 70 76 76 77
REMARK SMILES IDX 78 78 75 79 71 80 72 81 73 82 74 83 53 84 54 85 62 86 55 87
REMARK SMILES IDX 61 88 63 89 60 90 56 91 57 92 58 93 59 94
REMARK H PARENT 19 7 9 18 24 28 83 47 51 58
REMARK Flexibility Score: inf
ROOT
ATOM      1  C   UNL A   1      31.782  29.529  27.176  1.00  0.00     0.023 C 
ENDROOT
BRANCH   1   2
ATOM      2  C   UNL A   1      32.168  28.106  27.572  1.00  0.00     0.023 C 
BRANCH   2   3
ATOM      3  C   UNL A   1      31.976  27.020  26.521  1.00  0.00     0.116 C 
BRANCH   3   4
ATOM      4  N   UNL A   1      31.426  25.765  26.970  1.00  0.00    -0.352 N 
ATOM      5  C   UNL A   1      31.772  24.459  26.713  1.00  0.00     0.253 C 
ATOM      6  O   UNL A   1      31.083  23.607  27.284  1.00  0.00    -0.269 OA
ATOM      7  H   UNL A   1      30.656  25.861  27.577  1.00  0.00     0.163 HD
BRANCH   5   8
ATOM      8  C   UNL A   1      32.857  23.962  25.788  1.00  0.00     0.063 A 
ATOM      9  C   UNL A   1      32.769  23.494  24.460  1.00  0.00     0.055 A 
ATOM     10  C   UNL A   1      33.929  23.179  23.725  1.00  0.00     0.042 A 
ATOM     11  C   UNL A   1      35.184  23.250  24.322  1.00  0.00     0.020 A 
ATOM     12  C   UNL A   1      34.148  23.981  26.368  1.00  0.00     0.017 A 
ATOM     13  Br  UNL A   1      36.726  22.810  23.325  1.00  0.00    -0.051 Br
ATOM     14  C   UNL A   1      35.297  23.622  25.653  1.00  0.00     0.016 A 
BRANCH   9  15
ATOM     15  N   UNL A   1      31.581  23.461  23.750  1.00  0.00    -0.321 N 
ATOM     16  C   UNL A   1      30.734  24.457  23.317  1.00  0.00     0.256 C 
ATOM     17  O   UNL A   1      29.662  24.035  22.866  1.00  0.00    -0.269 OA
ATOM     18  H   UNL A   1      31.286  22.554  23.508  1.00  0.00     0.170 HD
BRANCH  16  19
ATOM     19  C   UNL A   1      31.056  25.908  23.205  1.00  0.00     0.053 A 
ATOM     20  C   UNL A   1      33.506  26.320  22.170  1.00  0.00     0.046 C 
ATOM     21  C   UNL A   1      32.192  26.720  22.751  1.00  0.00    -0.028 A 
ATOM     22  C   UNL A   1      31.939  28.078  22.901  1.00  0.00     0.069 A 
ATOM     23  S   UNL A   1      30.365  28.429  23.413  1.00  0.00    -0.151 S 
ATOM     24  C   UNL A   1      30.003  26.775  23.510  1.00  0.00     0.079 A 
ENDBRANCH  16  19
ENDBRANCH   9  15
ENDBRANCH   5   8
ENDBRANCH   3   4
ENDBRANCH   2   3
ENDBRANCH   1   2
BRANCH   1  25
ATOM     25  C   UNL A   1      32.851  30.376  26.491  1.00  0.00     0.116 C 
BRANCH  25  26
ATOM     26  N   UNL A   1      32.853  31.776  26.885  1.00  0.00    -0.352 N 
ATOM     27  C   UNL A   1      33.746  32.490  27.660  1.00  0.00     0.251 C 
ATOM     28  H   UNL A   1      32.092  32.300  26.545  1.00  0.00     0.163 HD
ATOM     29  O   UNL A   1      33.501  33.654  27.937  1.00  0.00    -0.269 OA
BRANCH  27  30
ATOM     30  C   UNL A   1      34.972  31.845  28.194  1.00  0.00     0.039 A 
ATOM     31  C   UNL A   1      36.168  32.570  28.190  1.00  0.00     0.014 A 
ATOM     32  C   UNL A   1      34.961  30.539  28.686  1.00  0.00     0.014 A 
ATOM     33  C   UNL A   1      37.325  32.014  28.749  1.00  0.00     0.010 A 
ATOM     34  C   UNL A   1      36.083  30.029  29.337  1.00  0.00     0.010 A 
ATOM     35  C   UNL A   1      37.285  30.753  29.364  1.00  0.00    -0.014 A 
BRANCH  35  36
ATOM     36  C   UNL A   1      38.496  30.154  29.994  1.00  0.00     0.031 A 
ATOM     37  C   UNL A   1      38.914  30.591  31.377  1.00  0.00     0.074 A 
ATOM     38  C   UNL A   1      39.247  29.265  29.313  1.00  0.00     0.049 A 
ATOM     39  N   UNL A   1      39.971  30.253  32.071  1.00  0.00    -0.248 NA
ATOM     40  C   UNL A   1      38.046  31.569  32.051  1.00  0.00     0.031 C 
ATOM     41  C   UNL A   1      38.981  28.797  27.950  1.00  0.00     0.029 A 
ATOM     42  N   UNL A   1      40.392  28.595  29.670  1.00  0.00    -0.354 N 
ATOM     43  C   UNL A   1      39.905  30.993  33.249  1.00  0.00     0.074 A 
ATOM     44  C   UNL A   1      38.745  31.850  33.138  1.00  0.00     0.031 C 
ATOM     45  C   UNL A   1      39.914  27.898  27.602  1.00  0.00     0.029 A 
ATOM     46  C   UNL A   1      40.871  27.750  28.694  1.00  0.00     0.049 A 
ATOM     47  H   UNL A   1      40.831  28.709  30.544  1.00  0.00     0.167 HD
ATOM     48  C   UNL A   1      40.715  30.941  34.335  1.00  0.00     0.034 A 
ATOM     49  C   UNL A   1      41.956  26.950  28.681  1.00  0.00     0.034 A 
ATOM     50  C   UNL A   1      41.849  30.057  34.445  1.00  0.00     0.049 A 
ATOM     51  C   UNL A   1      42.835  26.898  29.907  1.00  0.00     0.074 A 
ATOM     52  C   UNL A   1      42.707  29.884  35.517  1.00  0.00     0.029 A 
ATOM     53  N   UNL A   1      42.280  29.191  33.448  1.00  0.00    -0.354 N 
ATOM     54  N   UNL A   1      42.729  27.569  31.031  1.00  0.00    -0.248 NA
ATOM     55  C   UNL A   1      43.967  25.963  29.871  1.00  0.00     0.031 C 
ATOM     56  C   UNL A   1      43.692  28.960  35.147  1.00  0.00     0.029 A 
ATOM     57  C   UNL A   1      43.401  28.496  33.874  1.00  0.00     0.049 A 
ATOM     58  H   UNL A   1      41.853  29.086  32.567  1.00  0.00     0.167 HD
ATOM     59  C   UNL A   1      43.756  27.103  31.850  1.00  0.00     0.074 A 
ATOM     60  C   UNL A   1      44.456  26.085  31.095  1.00  0.00     0.031 C 
ATOM     61  C   UNL A   1      44.088  27.479  33.112  1.00  0.00     0.034 A 
BRANCH  48  62
ATOM     62  C   UNL A   1      40.407  31.881  35.479  1.00  0.00     0.023 A 
ATOM     63  C   UNL A   1      39.356  31.631  36.379  1.00  0.00     0.031 A 
ATOM     64  C   UNL A   1      41.156  33.057  35.656  1.00  0.00     0.131 A 
ATOM     65  C   UNL A   1      39.032  32.580  37.361  1.00  0.00     0.055 A 
ATOM     66  C   UNL A   1      40.884  33.956  36.690  1.00  0.00     0.041 A 
ATOM     67  F   UNL A   1      42.159  33.364  34.817  1.00  0.00    -0.206 F 
ATOM     68  C   UNL A   1      39.806  33.728  37.541  1.00  0.00     0.022 A 
BRANCH  65  69
ATOM     69  S   UNL A   1      37.496  32.363  38.301  1.00  0.00     0.124 S 
ATOM     70  O   UNL A   1      36.569  33.205  37.547  1.00  0.00    -0.237 OA
ATOM     71  O   UNL A   1      37.271  30.925  38.210  1.00  0.00    -0.237 OA
ATOM     72  O   UNL A   1      37.836  32.859  39.633  1.00  0.00    -0.744 OA
ENDBRANCH  65  69
ENDBRANCH  48  62
BRANCH  49  73
ATOM     73  C   UNL A   1      42.284  26.126  27.480  1.00  0.00     0.023 A 
ATOM     74  C   UNL A   1      42.058  24.739  27.468  1.00  0.00     0.031 A 
ATOM     75  C   UNL A   1      42.890  26.700  26.348  1.00  0.00     0.131 A 
ATOM     76  C   UNL A   1      42.488  23.965  26.379  1.00  0.00     0.055 A 
ATOM     77  C   UNL A   1      43.262  25.935  25.241  1.00  0.00     0.041 A 
ATOM     78  F   UNL A   1      43.126  28.020  26.301  1.00  0.00    -0.206 F 
ATOM     79  C   UNL A   1      43.078  24.556  25.260  1.00  0.00     0.022 A 
BRANCH  76  80
ATOM     80  S   UNL A   1      42.365  22.158  26.493  1.00  0.00     0.124 S 
ATOM     81  O   UNL A   1      43.557  21.734  25.768  1.00  0.00    -0.237 OA
ATOM     82  O   UNL A   1      42.381  21.945  27.937  1.00  0.00    -0.237 OA
ATOM     83  O   UNL A   1      41.094  21.862  25.835  1.00  0.00    -0.744 OA
ENDBRANCH  76  80
ENDBRANCH  49  73
BRANCH  61  84
ATOM     84  C   UNL A   1      45.220  26.730  33.775  1.00  0.00     0.023 A 
ATOM     85  C   UNL A   1      44.999  25.569  34.536  1.00  0.00     0.031 A 
ATOM     86  C   UNL A   1      46.539  27.205  33.663  1.00  0.00     0.131 A 
ATOM     87  C   UNL A   1      46.068  24.963  35.213  1.00  0.00     0.055 A 
ATOM     88  C   UNL A   1      47.609  26.558  34.282  1.00  0.00     0.041 A 
ATOM     89  F   UNL A   1      46.810  28.310  32.949  1.00  0.00    -0.206 F 
ATOM     90  C   UNL A   1      47.374  25.441  35.077  1.00  0.00     0.022 A 
BRANCH  87  91
ATOM     91  S   UNL A   1      45.712  23.614  36.370  1.00  0.00     0.124 S 
ATOM     92  O   UNL A   1      44.812  22.771  35.589  1.00  0.00    -0.237 OA
ATOM     93  O   UNL A   1      47.040  23.063  36.625  1.00  0.00    -0.237 OA
ATOM     94  O   UNL A   1      45.094  24.291  37.509  1.00  0.00    -0.744 OA
ENDBRANCH  87  91
ENDBRANCH  61  84
ENDBRANCH  35  36
ENDBRANCH  27  30
ENDBRANCH  25  26
ENDBRANCH   1  25
TORSDOF 16
ENDMDL
