MODEL 1
REMARK VINA RESULT:     -11.0      0.000      0.000
REMARK SMILES COc1ccc(/C=C2/SC(=S)N(NS(=O)(=O)c3ccccc3)C2=O)c(C(=O)NCCCCNC(=O)c2ccc(-c3c4nc(c(-c5cc(S(=O)(=O)[O-])ccc5F)c5ccc([nH]5)c(-c5cc(S(=O)(=O)[O-])ccc5F)c5nc(c(-c6cc(S(=O)(=O)[O-])ccc6F)c6ccc3[nH]6)C=C5)C=C4)cc2)c1OC
REMARK SMILES IDX 30 1 29 2 28 3 26 4 27 5 25 7 3 8 4 9 99 10 5 11 6 12 2 13
REMARK SMILES IDX 1 14 100 15 101 16 7 17 8 18 9 19 23 20 10 21 12 22 24 23
REMARK SMILES IDX 11 24 13 25 14 27 15 28 16 29 17 30 18 31 22 32 19 33 21 34
REMARK SMILES IDX 20 35 31 36 32 37 33 38 34 39 35 41 36 42 37 43 98 44 38 45
REMARK SMILES IDX 97 46 39 47 40 48 41 49 91 50 42 51 96 52 90 53 92 54 43 55
REMARK SMILES IDX 95 56 89 57 88 58 44 60 76 61 56 62 75 63 57 64 60 65 74 66
REMARK SMILES IDX 93 67 58 68 59 69 73 71 94 72 61 73 45 74 46 75 54 76 47 77
REMARK SMILES IDX 53 78 55 79 52 80 48 81 49 82 50 83 51 84 77 85 78 86 86 87
REMARK SMILES IDX 79 88 85 89 87 90 84 91 80 92 81 93 82 94 83 95 62 96 63 97
REMARK SMILES IDX 71 98 64 99 70 100 72 101 69 102 65 103 66 104 67 105 68 106
REMARK H PARENT 28 6 13 26 33 40 92 59 60 70
REMARK Flexibility Score: inf
ROOT
ATOM      1  C   UNL A   1      34.916  29.820  27.290  1.00  0.00     0.023 C 
ENDROOT
BRANCH   1   2
ATOM      2  C   UNL A   1      33.980  28.637  27.109  1.00  0.00     0.116 C 
BRANCH   2   3
ATOM      3  N   UNL A   1      32.697  28.650  27.772  1.00  0.00    -0.352 N 
ATOM      4  C   UNL A   1      31.522  28.040  27.344  1.00  0.00     0.255 C 
ATOM      5  O   UNL A   1      30.653  27.828  28.189  1.00  0.00    -0.269 OA
ATOM      6  H   UNL A   1      32.649  29.146  28.622  1.00  0.00     0.163 HD
BRANCH   4   7
ATOM      7  C   UNL A   1      31.226  27.791  25.886  1.00  0.00     0.092 A 
ATOM      8  C   UNL A   1      30.659  28.623  23.674  1.00  0.00     0.161 A 
ATOM      9  C   UNL A   1      30.159  27.356  23.343  1.00  0.00     0.051 A 
ATOM     10  C   UNL A   1      31.289  28.826  24.914  1.00  0.00     0.174 A 
ATOM     11  C   UNL A   1      30.274  26.284  24.229  1.00  0.00     0.013 A 
ATOM     12  C   UNL A   1      30.780  26.488  25.517  1.00  0.00    -0.007 A 
BRANCH   8  13
ATOM     13  O   UNL A   1      30.230  29.639  22.859  1.00  0.00    -0.493 OA
ATOM     14  C   UNL A   1      28.995  30.244  23.215  1.00  0.00     0.278 C 
ENDBRANCH   8  13
BRANCH  10  15
ATOM     15  O   UNL A   1      32.067  29.903  25.255  1.00  0.00    -0.492 OA
ATOM     16  C   UNL A   1      31.485  31.097  25.760  1.00  0.00     0.278 C 
ENDBRANCH  10  15
BRANCH  12  17
ATOM     17  C   UNL A   1      30.827  25.327  26.436  1.00  0.00     0.030 C 
ATOM     18  C   UNL A   1      31.902  24.558  26.662  1.00  0.00     0.082 C 
ATOM     19  S   UNL A   1      31.836  22.975  27.352  1.00  0.00    -0.053 SA
ATOM     20  C   UNL A   1      33.258  24.792  26.113  1.00  0.00     0.281 C 
ATOM     21  C   UNL A   1      33.238  22.456  26.412  1.00  0.00     0.164 C 
ATOM     22  N   UNL A   1      33.821  23.561  25.820  1.00  0.00    -0.209 N 
ATOM     23  O   UNL A   1      33.741  25.907  25.996  1.00  0.00    -0.267 OA
ATOM     24  S   UNL A   1      33.746  20.872  26.293  1.00  0.00    -0.050 S 
BRANCH  22  25
ATOM     25  N   UNL A   1      34.909  23.409  24.849  1.00  0.00    -0.114 NA
ATOM     26  H   UNL A   1      35.461  22.609  25.157  1.00  0.00     0.168 HD
BRANCH  25  27
ATOM     27  S   UNL A   1      34.595  23.168  23.207  1.00  0.00     0.257 S 
ATOM     28  O   UNL A   1      35.875  23.025  22.544  1.00  0.00    -0.205 OA
ATOM     29  O   UNL A   1      33.614  22.104  23.159  1.00  0.00    -0.205 OA
BRANCH  27  30
ATOM     30  C   UNL A   1      33.786  24.621  22.597  1.00  0.00     0.084 A 
ATOM     31  C   UNL A   1      32.897  24.461  21.527  1.00  0.00     0.022 A 
ATOM     32  C   UNL A   1      34.142  25.898  23.037  1.00  0.00     0.022 A 
ATOM     33  C   UNL A   1      32.406  25.579  20.856  1.00  0.00     0.001 A 
ATOM     34  C   UNL A   1      33.654  27.009  22.347  1.00  0.00     0.001 A 
ATOM     35  C   UNL A   1      32.805  26.853  21.252  1.00  0.00     0.000 A 
ENDBRANCH  27  30
ENDBRANCH  25  27
ENDBRANCH  22  25
ENDBRANCH  12  17
ENDBRANCH   4   7
ENDBRANCH   2   3
ENDBRANCH   1   2
BRANCH   1  36
ATOM     36  C   UNL A   1      34.429  30.930  28.210  1.00  0.00     0.023 C 
BRANCH  36  37
ATOM     37  C   UNL A   1      34.395  32.339  27.626  1.00  0.00     0.116 C 
BRANCH  37  38
ATOM     38  N   UNL A   1      33.831  33.348  28.513  1.00  0.00    -0.352 N 
ATOM     39  C   UNL A   1      34.275  33.781  29.745  1.00  0.00     0.251 C 
ATOM     40  H   UNL A   1      33.012  33.786  28.184  1.00  0.00     0.163 HD
ATOM     41  O   UNL A   1      33.622  34.613  30.370  1.00  0.00    -0.269 OA
BRANCH  39  42
ATOM     42  C   UNL A   1      35.503  33.197  30.332  1.00  0.00     0.039 A 
ATOM     43  C   UNL A   1      35.383  32.165  31.267  1.00  0.00     0.014 A 
ATOM     44  C   UNL A   1      36.766  33.614  29.911  1.00  0.00     0.014 A 
ATOM     45  C   UNL A   1      36.526  31.477  31.688  1.00  0.00     0.010 A 
ATOM     46  C   UNL A   1      37.889  32.865  30.252  1.00  0.00     0.010 A 
ATOM     47  C   UNL A   1      37.782  31.778  31.136  1.00  0.00    -0.014 A 
BRANCH  47  48
ATOM     48  C   UNL A   1      38.990  30.965  31.453  1.00  0.00     0.031 A 
ATOM     49  C   UNL A   1      39.813  31.280  32.674  1.00  0.00     0.074 A 
ATOM     50  C   UNL A   1      39.392  29.999  30.601  1.00  0.00     0.049 A 
ATOM     51  N   UNL A   1      40.941  30.751  33.072  1.00  0.00    -0.248 NA
ATOM     52  C   UNL A   1      39.316  32.357  33.546  1.00  0.00     0.031 C 
ATOM     53  C   UNL A   1      38.710  29.628  29.357  1.00  0.00     0.029 A 
ATOM     54  N   UNL A   1      40.476  29.155  30.641  1.00  0.00    -0.354 N 
ATOM     55  C   UNL A   1      41.302  31.446  34.223  1.00  0.00     0.074 A 
ATOM     56  C   UNL A   1      40.302  32.471  34.424  1.00  0.00     0.031 C 
ATOM     57  C   UNL A   1      39.373  28.615  28.774  1.00  0.00     0.029 A 
ATOM     58  C   UNL A   1      40.554  28.296  29.567  1.00  0.00     0.049 A 
ATOM     59  H   UNL A   1      41.137  29.164  31.371  1.00  0.00     0.167 HD
ATOM     60  C   UNL A   1      42.357  31.233  35.047  1.00  0.00     0.034 A 
ATOM     61  C   UNL A   1      41.480  27.366  29.250  1.00  0.00     0.034 A 
ATOM     62  C   UNL A   1      43.332  30.188  34.848  1.00  0.00     0.049 A 
ATOM     63  C   UNL A   1      42.654  27.162  30.176  1.00  0.00     0.074 A 
ATOM     64  C   UNL A   1      44.391  29.835  35.666  1.00  0.00     0.029 A 
ATOM     65  N   UNL A   1      43.376  29.336  33.753  1.00  0.00    -0.354 N 
ATOM     66  N   UNL A   1      42.938  27.780  31.299  1.00  0.00    -0.248 NA
ATOM     67  C   UNL A   1      43.627  26.128  29.797  1.00  0.00     0.031 C 
ATOM     68  C   UNL A   1      45.120  28.825  35.029  1.00  0.00     0.029 A 
ATOM     69  C   UNL A   1      44.467  28.486  33.855  1.00  0.00     0.049 A 
ATOM     70  H   UNL A   1      42.728  29.336  33.012  1.00  0.00     0.167 HD
ATOM     71  C   UNL A   1      44.101  27.180  31.778  1.00  0.00     0.074 A 
ATOM     72  C   UNL A   1      44.454  26.144  30.830  1.00  0.00     0.031 C 
ATOM     73  C   UNL A   1      44.811  27.458  32.901  1.00  0.00     0.034 A 
BRANCH  60  74
ATOM     74  C   UNL A   1      42.527  32.165  36.224  1.00  0.00     0.023 A 
ATOM     75  C   UNL A   1      41.839  31.967  37.434  1.00  0.00     0.031 A 
ATOM     76  C   UNL A   1      43.384  33.277  36.129  1.00  0.00     0.131 A 
ATOM     77  C   UNL A   1      41.965  32.901  38.472  1.00  0.00     0.055 A 
ATOM     78  C   UNL A   1      43.569  34.156  37.197  1.00  0.00     0.041 A 
ATOM     79  F   UNL A   1      44.051  33.531  34.993  1.00  0.00    -0.206 F 
ATOM     80  C   UNL A   1      42.846  33.980  38.373  1.00  0.00     0.022 A 
BRANCH  77  81
ATOM     81  S   UNL A   1      40.856  32.762  39.902  1.00  0.00     0.124 S 
ATOM     82  O   UNL A   1      40.876  34.127  40.424  1.00  0.00    -0.237 OA
ATOM     83  O   UNL A   1      39.605  32.330  39.290  1.00  0.00    -0.237 OA
ATOM     84  O   UNL A   1      41.513  31.769  40.750  1.00  0.00    -0.744 OA
ENDBRANCH  77  81
ENDBRANCH  60  74
BRANCH  61  85
ATOM     85  C   UNL A   1      41.356  26.556  28.000  1.00  0.00     0.023 A 
ATOM     86  C   UNL A   1      40.941  25.216  28.048  1.00  0.00     0.031 A 
ATOM     87  C   UNL A   1      41.719  27.087  26.749  1.00  0.00     0.131 A 
ATOM     88  C   UNL A   1      40.960  24.434  26.882  1.00  0.00     0.055 A 
ATOM     89  C   UNL A   1      41.675  26.323  25.581  1.00  0.00     0.041 A 
ATOM     90  F   UNL A   1      42.121  28.363  26.643  1.00  0.00    -0.206 F 
ATOM     91  C   UNL A   1      41.309  24.982  25.647  1.00  0.00     0.022 A 
BRANCH  88  92
ATOM     92  S   UNL A   1      40.628  22.656  27.025  1.00  0.00     0.124 S 
ATOM     93  O   UNL A   1      41.145  22.365  28.358  1.00  0.00    -0.237 OA
ATOM     94  O   UNL A   1      39.178  22.605  26.873  1.00  0.00    -0.237 OA
ATOM     95  O   UNL A   1      41.390  22.078  25.920  1.00  0.00    -0.744 OA
ENDBRANCH  88  92
ENDBRANCH  61  85
BRANCH  73  96
ATOM     96  C   UNL A   1      46.009  26.586  33.192  1.00  0.00     0.023 A 
ATOM     97  C   UNL A   1      45.881  25.327  33.805  1.00  0.00     0.031 A 
ATOM     98  C   UNL A   1      47.302  27.029  32.858  1.00  0.00     0.131 A 
ATOM     99  C   UNL A   1      47.028  24.582  34.118  1.00  0.00     0.055 A 
ATOM    100  C   UNL A   1      48.434  26.254  33.110  1.00  0.00     0.041 A 
ATOM    101  F   UNL A   1      47.485  28.223  32.273  1.00  0.00    -0.206 F 
ATOM    102  C   UNL A   1      48.302  25.028  33.757  1.00  0.00     0.022 A 
BRANCH  99 103
ATOM    103  S   UNL A   1      46.842  23.062  35.091  1.00  0.00     0.124 S 
ATOM    104  O   UNL A   1      46.102  23.537  36.256  1.00  0.00    -0.237 OA
ATOM    105  O   UNL A   1      46.106  22.195  34.177  1.00  0.00    -0.237 OA
ATOM    106  O   UNL A   1      48.220  22.653  35.356  1.00  0.00    -0.744 OA
ENDBRANCH  99 103
ENDBRANCH  73  96
ENDBRANCH  47  48
ENDBRANCH  39  42
ENDBRANCH  37  38
ENDBRANCH  36  37
ENDBRANCH   1  36
TORSDOF 20
ENDMDL
MODEL 2
REMARK VINA RESULT:     -10.8      5.482     10.618
REMARK SMILES COc1ccc(/C=C2/SC(=S)N(NS(=O)(=O)c3ccccc3)C2=O)c(C(=O)NCCCCNC(=O)c2ccc(-c3c4nc(c(-c5cc(S(=O)(=O)[O-])ccc5F)c5ccc([nH]5)c(-c5cc(S(=O)(=O)[O-])ccc5F)c5nc(c(-c6cc(S(=O)(=O)[O-])ccc6F)c6ccc3[nH]6)C=C5)C=C4)cc2)c1OC
REMARK SMILES IDX 30 1 29 2 28 3 26 4 27 5 25 7 3 8 4 9 99 10 5 11 6 12 2 13
REMARK SMILES IDX 1 14 100 15 101 16 7 17 8 18 9 19 23 20 10 21 12 22 24 23
REMARK SMILES IDX 11 24 13 25 14 27 15 28 16 29 17 30 18 31 22 32 19 33 21 34
REMARK SMILES IDX 20 35 31 36 32 37 33 38 34 39 35 41 36 42 37 43 98 44 38 45
REMARK SMILES IDX 97 46 39 47 40 48 41 49 91 50 42 51 96 52 90 53 92 54 43 55
REMARK SMILES IDX 95 56 89 57 88 58 44 60 76 61 56 62 75 63 57 64 60 65 74 66
REMARK SMILES IDX 93 67 58 68 59 69 73 71 94 72 61 73 45 74 46 75 54 76 47 77
REMARK SMILES IDX 53 78 55 79 52 80 48 81 49 82 50 83 51 84 77 85 78 86 86 87
REMARK SMILES IDX 79 88 85 89 87 90 84 91 80 92 81 93 82 94 83 95 62 96 63 97
REMARK SMILES IDX 71 98 64 99 70 100 72 101 69 102 65 103 66 104 67 105 68 106
REMARK H PARENT 28 6 13 26 33 40 92 59 60 70
REMARK Flexibility Score: inf
ROOT
ATOM      1  C   UNL A   1      46.599  30.899  27.781  1.00  0.00     0.023 C 
ENDROOT
BRANCH   1   2
ATOM      2  C   UNL A   1      46.160  29.444  27.801  1.00  0.00     0.116 C 
BRANCH   2   3
ATOM      3  N   UNL A   1      45.873  28.782  26.551  1.00  0.00    -0.352 N 
ATOM      4  C   UNL A   1      44.721  28.077  26.217  1.00  0.00     0.255 C 
ATOM      5  O   UNL A   1      44.482  27.914  25.021  1.00  0.00    -0.269 OA
ATOM      6  H   UNL A   1      46.570  28.835  25.856  1.00  0.00     0.163 HD
BRANCH   4   7
ATOM      7  C   UNL A   1      43.870  27.383  27.252  1.00  0.00     0.092 A 
ATOM      8  C   UNL A   1      42.265  27.477  29.074  1.00  0.00     0.161 A 
ATOM      9  C   UNL A   1      42.704  26.217  29.505  1.00  0.00     0.051 A 
ATOM     10  C   UNL A   1      42.774  28.028  27.886  1.00  0.00     0.174 A 
ATOM     11  C   UNL A   1      43.645  25.494  28.769  1.00  0.00     0.013 A 
ATOM     12  C   UNL A   1      44.261  26.073  27.655  1.00  0.00    -0.007 A 
BRANCH   8  13
ATOM     13  O   UNL A   1      41.576  28.196  30.017  1.00  0.00    -0.493 OA
ATOM     14  C   UNL A   1      40.168  28.272  29.835  1.00  0.00     0.278 C 
ENDBRANCH   8  13
BRANCH  10  15
ATOM     15  O   UNL A   1      42.242  29.090  27.199  1.00  0.00    -0.492 OA
ATOM     16  C   UNL A   1      41.026  28.960  26.476  1.00  0.00     0.278 C 
ENDBRANCH  10  15
BRANCH  12  17
ATOM     17  C   UNL A   1      45.294  25.283  26.946  1.00  0.00     0.030 C 
ATOM     18  C   UNL A   1      45.056  24.376  25.987  1.00  0.00     0.082 C 
ATOM     19  S   UNL A   1      46.181  23.157  25.503  1.00  0.00    -0.053 SA
ATOM     20  C   UNL A   1      43.731  24.074  25.396  1.00  0.00     0.281 C 
ATOM     21  C   UNL A   1      44.873  22.033  25.124  1.00  0.00     0.164 C 
ATOM     22  N   UNL A   1      43.670  22.713  25.150  1.00  0.00    -0.209 N 
ATOM     23  O   UNL A   1      42.898  24.936  25.167  1.00  0.00    -0.267 OA
ATOM     24  S   UNL A   1      45.102  20.416  24.785  1.00  0.00    -0.050 S 
BRANCH  22  25
ATOM     25  N   UNL A   1      42.397  21.996  25.031  1.00  0.00    -0.114 NA
ATOM     26  H   UNL A   1      42.578  21.180  24.448  1.00  0.00     0.168 HD
BRANCH  25  27
ATOM     27  S   UNL A   1      41.574  21.433  26.395  1.00  0.00     0.257 S 
ATOM     28  O   UNL A   1      41.298  20.028  26.178  1.00  0.00    -0.205 OA
ATOM     29  O   UNL A   1      42.371  21.864  27.525  1.00  0.00    -0.205 OA
BRANCH  27  30
ATOM     30  C   UNL A   1      40.041  22.315  26.498  1.00  0.00     0.084 A 
ATOM     31  C   UNL A   1      38.923  21.734  25.886  1.00  0.00     0.022 A 
ATOM     32  C   UNL A   1      39.974  23.613  27.011  1.00  0.00     0.022 A 
ATOM     33  C   UNL A   1      37.751  22.474  25.732  1.00  0.00     0.001 A 
ATOM     34  C   UNL A   1      38.800  24.346  26.837  1.00  0.00     0.001 A 
ATOM     35  C   UNL A   1      37.700  23.788  26.187  1.00  0.00     0.000 A 
ENDBRANCH  27  30
ENDBRANCH  25  27
ENDBRANCH  22  25
ENDBRANCH  12  17
ENDBRANCH   4   7
ENDBRANCH   2   3
ENDBRANCH   1   2
BRANCH   1  36
ATOM     36  C   UNL A   1      46.438  31.633  26.458  1.00  0.00     0.023 C 
BRANCH  36  37
ATOM     37  C   UNL A   1      46.475  33.157  26.510  1.00  0.00     0.116 C 
BRANCH  37  38
ATOM     38  N   UNL A   1      45.409  33.815  25.766  1.00  0.00    -0.352 N 
ATOM     39  C   UNL A   1      44.194  34.294  26.211  1.00  0.00     0.251 C 
ATOM     40  H   UNL A   1      45.581  33.936  24.803  1.00  0.00     0.163 HD
ATOM     41  O   UNL A   1      43.398  34.774  25.407  1.00  0.00    -0.269 OA
BRANCH  39  42
ATOM     42  C   UNL A   1      43.835  34.175  27.642  1.00  0.00     0.039 A 
ATOM     43  C   UNL A   1      43.651  35.338  28.395  1.00  0.00     0.014 A 
ATOM     44  C   UNL A   1      43.609  32.926  28.221  1.00  0.00     0.014 A 
ATOM     45  C   UNL A   1      43.130  35.249  29.689  1.00  0.00     0.010 A 
ATOM     46  C   UNL A   1      42.997  32.845  29.469  1.00  0.00     0.010 A 
ATOM     47  C   UNL A   1      42.738  34.007  30.215  1.00  0.00    -0.014 A 
BRANCH  47  48
ATOM     48  C   UNL A   1      42.043  33.899  31.529  1.00  0.00     0.031 A 
ATOM     49  C   UNL A   1      42.827  33.566  32.772  1.00  0.00     0.074 A 
ATOM     50  C   UNL A   1      40.701  34.018  31.591  1.00  0.00     0.049 A 
ATOM     51  N   UNL A   1      42.397  33.341  33.987  1.00  0.00    -0.248 NA
ATOM     52  C   UNL A   1      44.284  33.439  32.620  1.00  0.00     0.031 C 
ATOM     53  C   UNL A   1      39.820  34.290  30.451  1.00  0.00     0.029 A 
ATOM     54  N   UNL A   1      39.835  33.917  32.654  1.00  0.00    -0.354 N 
ATOM     55  C   UNL A   1      43.525  33.020  34.736  1.00  0.00     0.074 A 
ATOM     56  C   UNL A   1      44.648  33.025  33.824  1.00  0.00     0.031 C 
ATOM     57  C   UNL A   1      38.550  34.366  30.881  1.00  0.00     0.029 A 
ATOM     58  C   UNL A   1      38.511  34.095  32.314  1.00  0.00     0.049 A 
ATOM     59  H   UNL A   1      40.133  33.733  33.574  1.00  0.00     0.167 HD
ATOM     60  C   UNL A   1      43.618  32.769  36.065  1.00  0.00     0.034 A 
ATOM     61  C   UNL A   1      37.394  34.034  33.068  1.00  0.00     0.034 A 
ATOM     62  C   UNL A   1      42.493  32.795  36.967  1.00  0.00     0.049 A 
ATOM     63  C   UNL A   1      37.525  33.734  34.541  1.00  0.00     0.074 A 
ATOM     64  C   UNL A   1      42.489  32.635  38.342  1.00  0.00     0.029 A 
ATOM     65  N   UNL A   1      41.170  32.983  36.588  1.00  0.00    -0.354 N 
ATOM     66  N   UNL A   1      38.609  33.506  35.245  1.00  0.00    -0.248 NA
ATOM     67  C   UNL A   1      36.282  33.694  35.324  1.00  0.00     0.031 C 
ATOM     68  C   UNL A   1      41.162  32.648  38.782  1.00  0.00     0.029 A 
ATOM     69  C   UNL A   1      40.341  32.903  37.696  1.00  0.00     0.049 A 
ATOM     70  H   UNL A   1      40.866  33.149  35.666  1.00  0.00     0.167 HD
ATOM     71  C   UNL A   1      38.179  33.335  36.559  1.00  0.00     0.074 A 
ATOM     72  C   UNL A   1      36.741  33.501  36.550  1.00  0.00     0.031 C 
ATOM     73  C   UNL A   1      38.907  33.068  37.674  1.00  0.00     0.034 A 
BRANCH  60  74
ATOM     74  C   UNL A   1      44.979  32.416  36.618  1.00  0.00     0.023 A 
ATOM     75  C   UNL A   1      45.407  31.083  36.744  1.00  0.00     0.031 A 
ATOM     76  C   UNL A   1      45.858  33.431  37.037  1.00  0.00     0.131 A 
ATOM     77  C   UNL A   1      46.646  30.798  37.338  1.00  0.00     0.055 A 
ATOM     78  C   UNL A   1      47.124  33.143  37.549  1.00  0.00     0.041 A 
ATOM     79  F   UNL A   1      45.498  34.722  36.962  1.00  0.00    -0.206 F 
ATOM     80  C   UNL A   1      47.520  31.819  37.716  1.00  0.00     0.022 A 
BRANCH  77  81
ATOM     81  S   UNL A   1      47.040  29.072  37.735  1.00  0.00     0.124 S 
ATOM     82  O   UNL A   1      45.826  28.644  38.425  1.00  0.00    -0.237 OA
ATOM     83  O   UNL A   1      47.266  28.489  36.417  1.00  0.00    -0.237 OA
ATOM     84  O   UNL A   1      48.226  29.177  38.583  1.00  0.00    -0.744 OA
ENDBRANCH  77  81
ENDBRANCH  60  74
BRANCH  61  85
ATOM     85  C   UNL A   1      36.046  34.249  32.459  1.00  0.00     0.023 A 
ATOM     86  C   UNL A   1      35.417  35.502  32.523  1.00  0.00     0.031 A 
ATOM     87  C   UNL A   1      35.336  33.188  31.868  1.00  0.00     0.131 A 
ATOM     88  C   UNL A   1      34.098  35.650  32.066  1.00  0.00     0.055 A 
ATOM     89  C   UNL A   1      34.047  33.355  31.357  1.00  0.00     0.041 A 
ATOM     90  F   UNL A   1      35.888  31.968  31.778  1.00  0.00    -0.206 F 
ATOM     91  C   UNL A   1      33.415  34.589  31.469  1.00  0.00     0.022 A 
BRANCH  88  92
ATOM     92  S   UNL A   1      33.247  37.224  32.365  1.00  0.00     0.124 S 
ATOM     93  O   UNL A   1      34.291  38.004  33.023  1.00  0.00    -0.237 OA
ATOM     94  O   UNL A   1      32.892  37.638  31.012  1.00  0.00    -0.237 OA
ATOM     95  O   UNL A   1      32.120  36.845  33.216  1.00  0.00    -0.744 OA
ENDBRANCH  88  92
ENDBRANCH  61  85
BRANCH  73  96
ATOM     96  C   UNL A   1      38.160  32.998  38.984  1.00  0.00     0.023 A 
ATOM     97  C   UNL A   1      38.338  33.960  39.994  1.00  0.00     0.031 A 
ATOM     98  C   UNL A   1      37.260  31.943  39.228  1.00  0.00     0.131 A 
ATOM     99  C   UNL A   1      37.673  33.816  41.221  1.00  0.00     0.055 A 
ATOM    100  C   UNL A   1      36.551  31.843  40.425  1.00  0.00     0.041 A 
ATOM    101  F   UNL A   1      37.052  30.995  38.301  1.00  0.00    -0.206 F 
ATOM    102  C   UNL A   1      36.767  32.775  41.436  1.00  0.00     0.022 A 
BRANCH  99 103
ATOM    103  S   UNL A   1      38.081  34.956  42.572  1.00  0.00     0.124 S 
ATOM    104  O   UNL A   1      39.144  34.235  43.266  1.00  0.00    -0.237 OA
ATOM    105  O   UNL A   1      38.491  36.158  41.854  1.00  0.00    -0.237 OA
ATOM    106  O   UNL A   1      36.826  35.075  43.313  1.00  0.00    -0.744 OA
ENDBRANCH  99 103
ENDBRANCH  73  96
ENDBRANCH  47  48
ENDBRANCH  39  42
ENDBRANCH  37  38
ENDBRANCH  36  37
ENDBRANCH   1  36
TORSDOF 20
ENDMDL
MODEL 3
REMARK VINA RESULT:     -10.7      6.671     17.119
REMARK SMILES COc1ccc(/C=C2/SC(=S)N(NS(=O)(=O)c3ccccc3)C2=O)c(C(=O)NCCCCNC(=O)c2ccc(-c3c4nc(c(-c5cc(S(=O)(=O)[O-])ccc5F)c5ccc([nH]5)c(-c5cc(S(=O)(=O)[O-])ccc5F)c5nc(c(-c6cc(S(=O)(=O)[O-])ccc6F)c6ccc3[nH]6)C=C5)C=C4)cc2)c1OC
REMARK SMILES IDX 30 1 29 2 28 3 26 4 27 5 25 7 3 8 4 9 99 10 5 11 6 12 2 13
REMARK SMILES IDX 1 14 100 15 101 16 7 17 8 18 9 19 23 20 10 21 12 22 24 23
REMARK SMILES IDX 11 24 13 25 14 27 15 28 16 29 17 30 18 31 22 32 19 33 21 34
REMARK SMILES IDX 20 35 31 36 32 37 33 38 34 39 35 41 36 42 37 43 98 44 38 45
REMARK SMILES IDX 97 46 39 47 40 48 41 49 91 50 42 51 96 52 90 53 92 54 43 55
REMARK SMILES IDX 95 56 89 57 88 58 44 60 76 61 56 62 75 63 57 64 60 65 74 66
REMARK SMILES IDX 93 67 58 68 59 69 73 71 94 72 61 73 45 74 46 75 54 76 47 77
REMARK SMILES IDX 53 78 55 79 52 80 48 81 49 82 50 83 51 84 77 85 78 86 86 87
REMARK SMILES IDX 79 88 85 89 87 90 84 91 80 92 81 93 82 94 83 95 62 96 63 97
REMARK SMILES IDX 71 98 64 99 70 100 72 101 69 102 65 103 66 104 67 105 68 106
REMARK H PARENT 28 6 13 26 33 40 92 59 60 70
REMARK Flexibility Score: inf
ROOT
ATOM      1  C   UNL A   1      45.590  23.272  39.069  1.00  0.00     0.023 C 
ENDROOT
BRANCH   1   2
ATOM      2  C   UNL A   1      45.998  21.811  39.158  1.00  0.00     0.116 C 
BRANCH   2   3
ATOM      3  N   UNL A   1      46.985  21.302  38.235  1.00  0.00    -0.352 N 
ATOM      4  C   UNL A   1      47.709  20.119  38.345  1.00  0.00     0.255 C 
ATOM      5  O   UNL A   1      48.204  19.659  37.317  1.00  0.00    -0.269 OA
ATOM      6  H   UNL A   1      47.164  21.852  37.437  1.00  0.00     0.163 HD
BRANCH   4   7
ATOM      7  C   UNL A   1      48.036  19.494  39.679  1.00  0.00     0.092 A 
ATOM      8  C   UNL A   1      49.513  19.256  41.594  1.00  0.00     0.161 A 
ATOM      9  C   UNL A   1      48.948  17.999  41.853  1.00  0.00     0.051 A 
ATOM     10  C   UNL A   1      48.994  20.058  40.564  1.00  0.00     0.174 A 
ATOM     11  C   UNL A   1      47.871  17.526  41.101  1.00  0.00     0.013 A 
ATOM     12  C   UNL A   1      47.419  18.247  39.992  1.00  0.00    -0.007 A 
BRANCH   8  13
ATOM     13  O   UNL A   1      50.726  19.472  42.196  1.00  0.00    -0.493 OA
ATOM     14  C   UNL A   1      51.835  18.790  41.626  1.00  0.00     0.278 C 
ENDBRANCH   8  13
BRANCH  10  15
ATOM     15  O   UNL A   1      49.242  21.395  40.383  1.00  0.00    -0.492 OA
ATOM     16  C   UNL A   1      50.368  22.020  40.984  1.00  0.00     0.278 C 
ENDBRANCH  10  15
BRANCH  12  17
ATOM     17  C   UNL A   1      46.311  17.671  39.195  1.00  0.00     0.030 C 
ATOM     18  C   UNL A   1      45.060  17.472  39.635  1.00  0.00     0.082 C 
ATOM     19  S   UNL A   1      43.925  16.405  38.885  1.00  0.00    -0.053 SA
ATOM     20  C   UNL A   1      44.537  17.882  40.960  1.00  0.00     0.281 C 
ATOM     21  C   UNL A   1      43.179  16.029  40.440  1.00  0.00     0.164 C 
ATOM     22  N   UNL A   1      43.660  16.904  41.397  1.00  0.00    -0.209 N 
ATOM     23  O   UNL A   1      44.850  18.932  41.497  1.00  0.00    -0.267 OA
ATOM     24  S   UNL A   1      42.065  14.809  40.670  1.00  0.00    -0.050 S 
BRANCH  22  25
ATOM     25  N   UNL A   1      43.335  16.722  42.815  1.00  0.00    -0.114 NA
ATOM     26  H   UNL A   1      42.515  16.117  42.848  1.00  0.00     0.168 HD
BRANCH  25  27
ATOM     27  S   UNL A   1      44.455  16.068  43.897  1.00  0.00     0.257 S 
ATOM     28  O   UNL A   1      45.677  15.832  43.156  1.00  0.00    -0.205 OA
ATOM     29  O   UNL A   1      44.443  16.957  45.041  1.00  0.00    -0.205 OA
BRANCH  27  30
ATOM     30  C   UNL A   1      43.812  14.517  44.463  1.00  0.00     0.084 A 
ATOM     31  C   UNL A   1      43.949  14.223  45.825  1.00  0.00     0.022 A 
ATOM     32  C   UNL A   1      43.346  13.547  43.572  1.00  0.00     0.022 A 
ATOM     33  C   UNL A   1      43.675  12.938  46.291  1.00  0.00     0.001 A 
ATOM     34  C   UNL A   1      43.090  12.261  44.049  1.00  0.00     0.001 A 
ATOM     35  C   UNL A   1      43.269  11.951  45.397  1.00  0.00     0.000 A 
ENDBRANCH  27  30
ENDBRANCH  25  27
ENDBRANCH  22  25
ENDBRANCH  12  17
ENDBRANCH   4   7
ENDBRANCH   2   3
ENDBRANCH   1   2
BRANCH   1  36
ATOM     36  C   UNL A   1      46.588  24.285  39.610  1.00  0.00     0.023 C 
BRANCH  36  37
ATOM     37  C   UNL A   1      46.897  25.487  38.723  1.00  0.00     0.116 C 
BRANCH  37  38
ATOM     38  N   UNL A   1      47.812  25.208  37.624  1.00  0.00    -0.352 N 
ATOM     39  C   UNL A   1      47.690  25.507  36.283  1.00  0.00     0.251 C 
ATOM     40  H   UNL A   1      48.640  24.738  37.875  1.00  0.00     0.163 HD
ATOM     41  O   UNL A   1      48.556  25.135  35.495  1.00  0.00    -0.269 OA
BRANCH  39  42
ATOM     42  C   UNL A   1      46.489  26.222  35.794  1.00  0.00     0.039 A 
ATOM     43  C   UNL A   1      46.641  27.478  35.202  1.00  0.00     0.014 A 
ATOM     44  C   UNL A   1      45.228  25.627  35.852  1.00  0.00     0.014 A 
ATOM     45  C   UNL A   1      45.551  28.081  34.567  1.00  0.00     0.010 A 
ATOM     46  C   UNL A   1      44.171  26.179  35.135  1.00  0.00     0.010 A 
ATOM     47  C   UNL A   1      44.321  27.408  34.472  1.00  0.00    -0.014 A 
BRANCH  47  48
ATOM     48  C   UNL A   1      43.189  27.959  33.675  1.00  0.00     0.031 A 
ATOM     49  C   UNL A   1      43.040  27.592  32.222  1.00  0.00     0.074 A 
ATOM     50  C   UNL A   1      42.344  28.850  34.236  1.00  0.00     0.049 A 
ATOM     51  N   UNL A   1      42.180  28.034  31.341  1.00  0.00    -0.248 NA
ATOM     52  C   UNL A   1      44.007  26.626  31.681  1.00  0.00     0.031 C 
ATOM     53  C   UNL A   1      42.410  29.326  35.620  1.00  0.00     0.029 A 
ATOM     54  N   UNL A   1      41.268  29.526  33.710  1.00  0.00    -0.354 N 
ATOM     55  C   UNL A   1      42.518  27.420  30.138  1.00  0.00     0.074 A 
ATOM     56  C   UNL A   1      43.696  26.621  30.394  1.00  0.00     0.031 C 
ATOM     57  C   UNL A   1      41.403  30.187  35.841  1.00  0.00     0.029 A 
ATOM     58  C   UNL A   1      40.650  30.371  34.606  1.00  0.00     0.049 A 
ATOM     59  H   UNL A   1      40.968  29.416  32.779  1.00  0.00     0.167 HD
ATOM     60  C   UNL A   1      41.891  27.498  28.939  1.00  0.00     0.034 A 
ATOM     61  C   UNL A   1      39.604  31.208  34.446  1.00  0.00     0.034 A 
ATOM     62  C   UNL A   1      40.699  28.277  28.706  1.00  0.00     0.049 A 
ATOM     63  C   UNL A   1      38.935  31.288  33.096  1.00  0.00     0.074 A 
ATOM     64  C   UNL A   1      39.939  28.361  27.553  1.00  0.00     0.029 A 
ATOM     65  N   UNL A   1      40.100  29.116  29.637  1.00  0.00    -0.354 N 
ATOM     66  N   UNL A   1      39.225  30.643  31.989  1.00  0.00    -0.248 NA
ATOM     67  C   UNL A   1      37.791  32.202  32.975  1.00  0.00     0.031 C 
ATOM     68  C   UNL A   1      38.930  29.306  27.760  1.00  0.00     0.029 A 
ATOM     69  C   UNL A   1      39.005  29.750  29.071  1.00  0.00     0.049 A 
ATOM     70  H   UNL A   1      40.409  29.242  30.563  1.00  0.00     0.167 HD
ATOM     71  C   UNL A   1      38.274  31.046  31.055  1.00  0.00     0.074 A 
ATOM     72  C   UNL A   1      37.395  31.976  31.733  1.00  0.00     0.031 C 
ATOM     73  C   UNL A   1      38.136  30.678  29.755  1.00  0.00     0.034 A 
BRANCH  60  74
ATOM     74  C   UNL A   1      42.496  26.741  27.780  1.00  0.00     0.023 A 
ATOM     75  C   UNL A   1      42.146  25.409  27.498  1.00  0.00     0.031 A 
ATOM     76  C   UNL A   1      43.449  27.360  26.951  1.00  0.00     0.131 A 
ATOM     77  C   UNL A   1      42.792  24.720  26.461  1.00  0.00     0.055 A 
ATOM     78  C   UNL A   1      44.027  26.694  25.868  1.00  0.00     0.041 A 
ATOM     79  F   UNL A   1      43.841  28.622  27.183  1.00  0.00    -0.206 F 
ATOM     80  C   UNL A   1      43.710  25.360  25.627  1.00  0.00     0.022 A 
BRANCH  77  81
ATOM     81  S   UNL A   1      42.517  22.933  26.307  1.00  0.00     0.124 S 
ATOM     82  O   UNL A   1      43.536  22.398  27.208  1.00  0.00    -0.237 OA
ATOM     83  O   UNL A   1      41.134  22.787  26.747  1.00  0.00    -0.237 OA
ATOM     84  O   UNL A   1      42.751  22.671  24.887  1.00  0.00    -0.744 OA
ENDBRANCH  77  81
ENDBRANCH  60  74
BRANCH  61  85
ATOM     85  C   UNL A   1      39.117  32.051  35.580  1.00  0.00     0.023 A 
ATOM     86  C   UNL A   1      39.552  33.378  35.730  1.00  0.00     0.031 A 
ATOM     87  C   UNL A   1      38.267  31.523  36.569  1.00  0.00     0.131 A 
ATOM     88  C   UNL A   1      39.190  34.110  36.872  1.00  0.00     0.055 A 
ATOM     89  C   UNL A   1      37.858  32.276  37.671  1.00  0.00     0.041 A 
ATOM     90  F   UNL A   1      37.819  30.261  36.476  1.00  0.00    -0.206 F 
ATOM     91  C   UNL A   1      38.334  33.573  37.836  1.00  0.00     0.022 A 
BRANCH  88  92
ATOM     92  S   UNL A   1      39.947  35.737  37.136  1.00  0.00     0.124 S 
ATOM     93  O   UNL A   1      39.261  36.192  38.340  1.00  0.00    -0.237 OA
ATOM     94  O   UNL A   1      41.357  35.393  37.291  1.00  0.00    -0.237 OA
ATOM     95  O   UNL A   1      39.617  36.468  35.913  1.00  0.00    -0.744 OA
ENDBRANCH  88  92
ENDBRANCH  61  85
BRANCH  73  96
ATOM     96  C   UNL A   1      36.955  31.241  29.001  1.00  0.00     0.023 A 
ATOM     97  C   UNL A   1      35.882  30.431  28.589  1.00  0.00     0.031 A 
ATOM     98  C   UNL A   1      36.911  32.611  28.682  1.00  0.00     0.131 A 
ATOM     99  C   UNL A   1      34.839  30.986  27.832  1.00  0.00     0.055 A 
ATOM    100  C   UNL A   1      35.838  33.169  27.986  1.00  0.00     0.041 A 
ATOM    101  F   UNL A   1      37.909  33.430  29.047  1.00  0.00    -0.206 F 
ATOM    102  C   UNL A   1      34.801  32.353  27.544  1.00  0.00     0.022 A 
BRANCH  99 103
ATOM    103  S   UNL A   1      33.578  29.879  27.142  1.00  0.00     0.124 S 
ATOM    104  O   UNL A   1      33.592  28.774  28.095  1.00  0.00    -0.237 OA
ATOM    105  O   UNL A   1      32.385  30.719  27.157  1.00  0.00    -0.237 OA
ATOM    106  O   UNL A   1      34.093  29.559  25.812  1.00  0.00    -0.744 OA
ENDBRANCH  99 103
ENDBRANCH  73  96
ENDBRANCH  47  48
ENDBRANCH  39  42
ENDBRANCH  37  38
ENDBRANCH  36  37
ENDBRANCH   1  36
TORSDOF 20
ENDMDL
