MODEL 1
REMARK VINA RESULT:     -12.2      0.000      0.000
REMARK SMILES COc1ccc(N[C@]2(Br)C(=O)NC(=O)N[C@@H]2C(=O)NCCCCNC(=O)c2ccc(-c3c4nc(c(-c5cc(S(=O)(=O)[O-])ccc5F)c5ccc([nH]5)c(-c5cc(S(=O)(=O)[O-])ccc5F)c5nc(c(-c6cc(S(=O)(=O)[O-])ccc6F)c6ccc3[nH]6)C=C5)C=C4)cc2)cc1
REMARK SMILES IDX 21 1 20 2 19 3 17 4 18 5 16 7 8 8 10 9 9 10 11 11 12 12
REMARK SMILES IDX 15 13 13 14 14 17 7 18 6 20 3 21 4 22 91 23 5 24 90 25 2 26
REMARK SMILES IDX 1 27 22 28 23 29 24 30 25 31 26 33 27 34 28 35 89 36 29 37
REMARK SMILES IDX 88 38 30 39 31 40 32 41 82 42 33 43 87 44 81 45 83 46 34 47
REMARK SMILES IDX 86 48 80 49 79 50 35 52 67 53 47 54 66 55 48 56 51 57 65 58
REMARK SMILES IDX 84 59 49 60 50 61 64 63 85 64 52 65 36 66 37 67 45 68 38 69
REMARK SMILES IDX 44 70 46 71 43 72 39 73 40 74 41 75 42 76 68 77 69 78 77 79
REMARK SMILES IDX 70 80 76 81 78 82 75 83 71 84 72 85 73 86 74 87 53 88 54 89
REMARK SMILES IDX 62 90 55 91 61 92 63 93 60 94 56 95 57 96 58 97 59 98
REMARK H PARENT 19 6 12 15 15 16 7 19 24 32 83 51 51 62
REMARK Flexibility Score: inf
ROOT
ATOM      1  C   UNL A   1      31.402  30.719  26.037  1.00  0.00     0.023 C 
ENDROOT
BRANCH   1   2
ATOM      2  C   UNL A   1      32.660  29.885  26.252  1.00  0.00     0.116 C 
BRANCH   2   3
ATOM      3  N   UNL A   1      33.451  29.710  25.048  1.00  0.00    -0.354 N 
ATOM      4  C   UNL A   1      33.300  28.806  24.033  1.00  0.00     0.246 C 
ATOM      5  O   UNL A   1      33.730  29.130  22.925  1.00  0.00    -0.273 OA
ATOM      6  H   UNL A   1      34.206  30.334  24.946  1.00  0.00     0.163 HD
BRANCH   4   7
ATOM      7  C   UNL A   1      32.431  27.562  24.235  1.00  0.00     0.219 C 
ATOM      8  C   UNL A   1      32.988  26.319  23.522  1.00  0.00     0.202 C 
ATOM      9  C   UNL A   1      32.730  26.363  22.010  1.00  0.00     0.267 C 
ATOM     10  Br  UNL A   1      31.752  24.782  24.083  1.00  0.00    -0.048 Br
ATOM     11  O   UNL A   1      33.304  25.652  21.182  1.00  0.00    -0.271 OA
ATOM     12  N   UNL A   1      31.696  27.182  21.598  1.00  0.00    -0.275 N 
ATOM     13  N   UNL A   1      31.121  27.954  23.706  1.00  0.00    -0.322 N 
ATOM     14  C   UNL A   1      30.824  27.882  22.380  1.00  0.00     0.322 C 
ATOM     15  H   UNL A   1      31.573  27.271  20.625  1.00  0.00     0.174 HD
ATOM     16  H   UNL A   1      30.435  28.281  24.331  1.00  0.00     0.166 HD
ATOM     17  O   UNL A   1      29.802  28.384  21.933  1.00  0.00    -0.248 OA
BRANCH   8  18
ATOM     18  N   UNL A   1      34.283  25.819  23.986  1.00  0.00    -0.360 N 
ATOM     19  H   UNL A   1      35.004  26.489  24.006  1.00  0.00     0.162 HD
BRANCH  18  20
ATOM     20  C   UNL A   1      34.651  24.559  24.399  1.00  0.00     0.036 A 
ATOM     21  C   UNL A   1      35.665  22.113  25.375  1.00  0.00     0.119 A 
ATOM     22  C   UNL A   1      35.445  22.284  24.017  1.00  0.00     0.048 A 
ATOM     23  C   UNL A   1      35.371  23.139  26.262  1.00  0.00     0.048 A 
ATOM     24  C   UNL A   1      34.923  23.493  23.543  1.00  0.00     0.029 A 
ATOM     25  C   UNL A   1      34.865  24.348  25.773  1.00  0.00     0.029 A 
BRANCH  21  26
ATOM     26  O   UNL A   1      36.274  20.970  25.810  1.00  0.00    -0.497 OA
ATOM     27  C   UNL A   1      36.002  19.887  24.926  1.00  0.00     0.278 C 
ENDBRANCH  21  26
ENDBRANCH  18  20
ENDBRANCH   8  18
ENDBRANCH   4   7
ENDBRANCH   2   3
ENDBRANCH   1   2
BRANCH   1  28
ATOM     28  C   UNL A   1      31.381  32.092  26.716  1.00  0.00     0.023 C 
BRANCH  28  29
ATOM     29  C   UNL A   1      32.716  32.608  27.248  1.00  0.00     0.116 C 
BRANCH  29  30
ATOM     30  N   UNL A   1      32.676  34.004  27.644  1.00  0.00    -0.352 N 
ATOM     31  C   UNL A   1      33.448  34.675  28.564  1.00  0.00     0.251 C 
ATOM     32  H   UNL A   1      31.996  34.551  27.188  1.00  0.00     0.163 HD
ATOM     33  O   UNL A   1      33.176  35.844  28.828  1.00  0.00    -0.269 OA
BRANCH  31  34
ATOM     34  C   UNL A   1      34.567  33.995  29.261  1.00  0.00     0.039 A 
ATOM     35  C   UNL A   1      35.877  34.366  28.938  1.00  0.00     0.014 A 
ATOM     36  C   UNL A   1      34.344  32.986  30.202  1.00  0.00     0.014 A 
ATOM     37  C   UNL A   1      36.956  33.769  29.597  1.00  0.00     0.010 A 
ATOM     38  C   UNL A   1      35.419  32.437  30.904  1.00  0.00     0.010 A 
ATOM     39  C   UNL A   1      36.737  32.818  30.606  1.00  0.00    -0.014 A 
BRANCH  39  40
ATOM     40  C   UNL A   1      37.873  32.191  31.333  1.00  0.00     0.031 A 
ATOM     41  C   UNL A   1      38.656  31.077  30.689  1.00  0.00     0.074 A 
ATOM     42  C   UNL A   1      38.167  32.582  32.588  1.00  0.00     0.049 A 
ATOM     43  N   UNL A   1      39.627  30.351  31.182  1.00  0.00    -0.248 NA
ATOM     44  C   UNL A   1      38.270  30.714  29.319  1.00  0.00     0.031 C 
ATOM     45  C   UNL A   1      37.458  33.620  33.339  1.00  0.00     0.029 A 
ATOM     46  N   UNL A   1      39.133  32.144  33.460  1.00  0.00    -0.354 N 
ATOM     47  C   UNL A   1      39.954  29.431  30.191  1.00  0.00     0.074 A 
ATOM     48  C   UNL A   1      39.039  29.661  29.092  1.00  0.00     0.031 C 
ATOM     49  C   UNL A   1      38.023  33.749  34.551  1.00  0.00     0.029 A 
ATOM     50  C   UNL A   1      39.111  32.784  34.678  1.00  0.00     0.049 A 
ATOM     51  H   UNL A   1      39.782  31.439  33.235  1.00  0.00     0.167 HD
ATOM     52  C   UNL A   1      40.939  28.497  30.188  1.00  0.00     0.034 A 
ATOM     53  C   UNL A   1      39.876  32.609  35.773  1.00  0.00     0.034 A 
ATOM     54  C   UNL A   1      41.856  28.290  31.283  1.00  0.00     0.049 A 
ATOM     55  C   UNL A   1      40.978  31.582  35.740  1.00  0.00     0.074 A 
ATOM     56  C   UNL A   1      42.910  27.397  31.372  1.00  0.00     0.029 A 
ATOM     57  N   UNL A   1      41.829  28.988  32.483  1.00  0.00    -0.354 N 
ATOM     58  N   UNL A   1      41.298  30.744  34.781  1.00  0.00    -0.248 NA
ATOM     59  C   UNL A   1      41.834  31.493  36.930  1.00  0.00     0.031 C 
ATOM     60  C   UNL A   1      43.490  27.523  32.641  1.00  0.00     0.029 A 
ATOM     61  C   UNL A   1      42.839  28.539  33.321  1.00  0.00     0.049 A 
ATOM     62  H   UNL A   1      41.186  29.700  32.708  1.00  0.00     0.167 HD
ATOM     63  C   UNL A   1      42.414  30.052  35.242  1.00  0.00     0.074 A 
ATOM     64  C   UNL A   1      42.717  30.579  36.557  1.00  0.00     0.031 C 
ATOM     65  C   UNL A   1      43.128  29.072  34.632  1.00  0.00     0.034 A 
BRANCH  52  66
ATOM     66  C   UNL A   1      41.044  27.614  28.966  1.00  0.00     0.023 A 
ATOM     67  C   UNL A   1      42.047  27.811  28.001  1.00  0.00     0.031 A 
ATOM     68  C   UNL A   1      40.104  26.594  28.739  1.00  0.00     0.131 A 
ATOM     69  C   UNL A   1      42.034  27.063  26.813  1.00  0.00     0.055 A 
ATOM     70  C   UNL A   1      40.147  25.795  27.593  1.00  0.00     0.041 A 
ATOM     71  F   UNL A   1      39.113  26.369  29.614  1.00  0.00    -0.206 F 
ATOM     72  C   UNL A   1      41.105  26.039  26.614  1.00  0.00     0.022 A 
BRANCH  69  73
ATOM     73  S   UNL A   1      43.149  27.555  25.470  1.00  0.00     0.124 S 
ATOM     74  O   UNL A   1      43.619  26.258  24.988  1.00  0.00    -0.237 OA
ATOM     75  O   UNL A   1      42.261  28.286  24.574  1.00  0.00    -0.237 OA
ATOM     76  O   UNL A   1      44.162  28.365  26.145  1.00  0.00    -0.744 OA
ENDBRANCH  69  73
ENDBRANCH  52  66
BRANCH  53  77
ATOM     77  C   UNL A   1      39.637  33.424  36.996  1.00  0.00     0.023 A 
ATOM     78  C   UNL A   1      38.898  32.912  38.074  1.00  0.00     0.031 A 
ATOM     79  C   UNL A   1      40.113  34.744  37.089  1.00  0.00     0.131 A 
ATOM     80  C   UNL A   1      38.614  33.729  39.179  1.00  0.00     0.055 A 
ATOM     81  C   UNL A   1      39.866  35.538  38.210  1.00  0.00     0.041 A 
ATOM     82  F   UNL A   1      40.834  35.277  36.090  1.00  0.00    -0.206 F 
ATOM     83  C   UNL A   1      39.101  35.035  39.259  1.00  0.00     0.022 A 
BRANCH  80  84
ATOM     84  S   UNL A   1      37.534  33.080  40.484  1.00  0.00     0.124 S 
ATOM     85  O   UNL A   1      38.301  31.937  40.964  1.00  0.00    -0.237 OA
ATOM     86  O   UNL A   1      37.442  34.219  41.393  1.00  0.00    -0.237 OA
ATOM     87  O   UNL A   1      36.301  32.752  39.773  1.00  0.00    -0.744 OA
ENDBRANCH  80  84
ENDBRANCH  53  77
BRANCH  65  88
ATOM     88  C   UNL A   1      44.341  28.555  35.364  1.00  0.00     0.023 A 
ATOM     89  C   UNL A   1      44.244  27.564  36.356  1.00  0.00     0.031 A 
ATOM     90  C   UNL A   1      45.612  29.088  35.082  1.00  0.00     0.131 A 
ATOM     91  C   UNL A   1      45.387  27.178  37.072  1.00  0.00     0.055 A 
ATOM     92  C   UNL A   1      46.754  28.662  35.761  1.00  0.00     0.041 A 
ATOM     93  F   UNL A   1      45.762  30.038  34.146  1.00  0.00    -0.206 F 
ATOM     94  C   UNL A   1      46.643  27.711  36.773  1.00  0.00     0.022 A 
BRANCH  91  95
ATOM     95  S   UNL A   1      45.195  26.039  38.472  1.00  0.00     0.124 S 
ATOM     96  O   UNL A   1      46.395  26.316  39.256  1.00  0.00    -0.237 OA
ATOM     97  O   UNL A   1      43.934  26.479  39.061  1.00  0.00    -0.237 OA
ATOM     98  O   UNL A   1      45.158  24.722  37.840  1.00  0.00    -0.744 OA
ENDBRANCH  91  95
ENDBRANCH  65  88
ENDBRANCH  39  40
ENDBRANCH  31  34
ENDBRANCH  29  30
ENDBRANCH  28  29
ENDBRANCH   1  28
TORSDOF 17
ENDMDL
MODEL 2
REMARK VINA RESULT:     -12.1      2.721      8.251
REMARK SMILES COc1ccc(N[C@]2(Br)C(=O)NC(=O)N[C@@H]2C(=O)NCCCCNC(=O)c2ccc(-c3c4nc(c(-c5cc(S(=O)(=O)[O-])ccc5F)c5ccc([nH]5)c(-c5cc(S(=O)(=O)[O-])ccc5F)c5nc(c(-c6cc(S(=O)(=O)[O-])ccc6F)c6ccc3[nH]6)C=C5)C=C4)cc2)cc1
REMARK SMILES IDX 21 1 20 2 19 3 17 4 18 5 16 7 8 8 10 9 9 10 11 11 12 12
REMARK SMILES IDX 15 13 13 14 14 17 7 18 6 20 3 21 4 22 91 23 5 24 90 25 2 26
REMARK SMILES IDX 1 27 22 28 23 29 24 30 25 31 26 33 27 34 28 35 89 36 29 37
REMARK SMILES IDX 88 38 30 39 31 40 32 41 82 42 33 43 87 44 81 45 83 46 34 47
REMARK SMILES IDX 86 48 80 49 79 50 35 52 67 53 47 54 66 55 48 56 51 57 65 58
REMARK SMILES IDX 84 59 49 60 50 61 64 63 85 64 52 65 36 66 37 67 45 68 38 69
REMARK SMILES IDX 44 70 46 71 43 72 39 73 40 74 41 75 42 76 68 77 69 78 77 79
REMARK SMILES IDX 70 80 76 81 78 82 75 83 71 84 72 85 73 86 74 87 53 88 54 89
REMARK SMILES IDX 62 90 55 91 61 92 63 93 60 94 56 95 57 96 58 97 59 98
REMARK H PARENT 19 6 12 15 15 16 7 19 24 32 83 51 51 62
REMARK Flexibility Score: inf
ROOT
ATOM      1  C   UNL A   1      33.634  27.794  23.581  1.00  0.00     0.023 C 
ENDROOT
BRANCH   1   2
ATOM      2  C   UNL A   1      33.656  26.322  23.977  1.00  0.00     0.116 C 
BRANCH   2   3
ATOM      3  N   UNL A   1      32.399  25.639  23.737  1.00  0.00    -0.354 N 
ATOM      4  C   UNL A   1      31.668  24.843  24.575  1.00  0.00     0.246 C 
ATOM      5  O   UNL A   1      30.454  24.780  24.372  1.00  0.00    -0.273 OA
ATOM      6  H   UNL A   1      32.015  25.767  22.839  1.00  0.00     0.163 HD
BRANCH   4   7
ATOM      7  C   UNL A   1      32.311  24.257  25.834  1.00  0.00     0.219 C 
ATOM      8  C   UNL A   1      32.895  22.852  25.611  1.00  0.00     0.202 C 
ATOM      9  C   UNL A   1      31.800  21.778  25.563  1.00  0.00     0.267 C 
ATOM     10  Br  UNL A   1      33.830  22.375  27.373  1.00  0.00    -0.048 Br
ATOM     11  O   UNL A   1      31.958  20.637  25.124  1.00  0.00    -0.271 OA
ATOM     12  N   UNL A   1      30.602  22.111  26.168  1.00  0.00    -0.275 N 
ATOM     13  N   UNL A   1      31.224  24.247  26.817  1.00  0.00    -0.322 N 
ATOM     14  C   UNL A   1      30.312  23.239  26.878  1.00  0.00     0.322 C 
ATOM     15  H   UNL A   1      29.872  21.456  26.076  1.00  0.00     0.174 HD
ATOM     16  H   UNL A   1      31.151  24.995  27.453  1.00  0.00     0.166 HD
ATOM     17  O   UNL A   1      29.309  23.335  27.573  1.00  0.00    -0.248 OA
BRANCH   8  18
ATOM     18  N   UNL A   1      34.008  22.744  24.667  1.00  0.00    -0.360 N 
ATOM     19  H   UNL A   1      33.750  22.760  23.717  1.00  0.00     0.162 HD
BRANCH  18  20
ATOM     20  C   UNL A   1      35.359  22.622  24.898  1.00  0.00     0.036 A 
ATOM     21  C   UNL A   1      38.053  22.166  25.603  1.00  0.00     0.119 A 
ATOM     22  C   UNL A   1      37.520  23.444  25.678  1.00  0.00     0.048 A 
ATOM     23  C   UNL A   1      37.268  21.109  25.164  1.00  0.00     0.048 A 
ATOM     24  C   UNL A   1      36.189  23.666  25.308  1.00  0.00     0.029 A 
ATOM     25  C   UNL A   1      35.934  21.342  24.813  1.00  0.00     0.029 A 
BRANCH  21  26
ATOM     26  O   UNL A   1      39.318  21.946  26.069  1.00  0.00    -0.497 OA
ATOM     27  C   UNL A   1      39.707  22.978  26.972  1.00  0.00     0.278 C 
ENDBRANCH  21  26
ENDBRANCH  18  20
ENDBRANCH   8  18
ENDBRANCH   4   7
ENDBRANCH   2   3
ENDBRANCH   1   2
BRANCH   1  28
ATOM     28  C   UNL A   1      32.914  28.740  24.548  1.00  0.00     0.023 C 
BRANCH  28  29
ATOM     29  C   UNL A   1      33.693  29.165  25.790  1.00  0.00     0.116 C 
BRANCH  29  30
ATOM     30  N   UNL A   1      33.267  30.444  26.327  1.00  0.00    -0.352 N 
ATOM     31  C   UNL A   1      33.850  31.224  27.299  1.00  0.00     0.251 C 
ATOM     32  H   UNL A   1      32.438  30.807  25.939  1.00  0.00     0.163 HD
ATOM     33  O   UNL A   1      33.262  32.231  27.684  1.00  0.00    -0.269 OA
BRANCH  31  34
ATOM     34  C   UNL A   1      35.148  30.841  27.905  1.00  0.00     0.039 A 
ATOM     35  C   UNL A   1      36.170  31.796  27.954  1.00  0.00     0.014 A 
ATOM     36  C   UNL A   1      35.380  29.554  28.400  1.00  0.00     0.014 A 
ATOM     37  C   UNL A   1      37.396  31.481  28.547  1.00  0.00     0.010 A 
ATOM     38  C   UNL A   1      36.581  29.261  29.049  1.00  0.00     0.010 A 
ATOM     39  C   UNL A   1      37.604  30.219  29.125  1.00  0.00    -0.014 A 
BRANCH  39  40
ATOM     40  C   UNL A   1      38.895  29.876  29.780  1.00  0.00     0.031 A 
ATOM     41  C   UNL A   1      39.222  30.435  31.138  1.00  0.00     0.074 A 
ATOM     42  C   UNL A   1      39.794  29.108  29.134  1.00  0.00     0.049 A 
ATOM     43  N   UNL A   1      40.319  30.319  31.842  1.00  0.00    -0.248 NA
ATOM     44  C   UNL A   1      38.186  31.262  31.772  1.00  0.00     0.031 C 
ATOM     45  C   UNL A   1      39.614  28.539  27.796  1.00  0.00     0.029 A 
ATOM     46  N   UNL A   1      41.043  28.682  29.510  1.00  0.00    -0.354 N 
ATOM     47  C   UNL A   1      40.114  31.075  32.993  1.00  0.00     0.074 A 
ATOM     48  C   UNL A   1      38.808  31.686  32.861  1.00  0.00     0.031 C 
ATOM     49  C   UNL A   1      40.707  27.826  27.472  1.00  0.00     0.029 A 
ATOM     50  C   UNL A   1      41.676  27.913  28.560  1.00  0.00     0.049 A 
ATOM     51  H   UNL A   1      41.449  28.905  30.379  1.00  0.00     0.167 HD
ATOM     52  C   UNL A   1      40.928  31.228  34.068  1.00  0.00     0.034 A 
ATOM     53  C   UNL A   1      42.899  27.348  28.564  1.00  0.00     0.034 A 
ATOM     54  C   UNL A   1      42.221  30.600  34.194  1.00  0.00     0.049 A 
ATOM     55  C   UNL A   1      43.779  27.512  29.776  1.00  0.00     0.074 A 
ATOM     56  C   UNL A   1      43.113  30.659  35.253  1.00  0.00     0.029 A 
ATOM     57  N   UNL A   1      42.809  29.792  33.229  1.00  0.00    -0.354 N 
ATOM     58  N   UNL A   1      43.555  28.201  30.872  1.00  0.00    -0.248 NA
ATOM     59  C   UNL A   1      45.065  26.805  29.760  1.00  0.00     0.031 C 
ATOM     60  C   UNL A   1      44.257  29.927  34.908  1.00  0.00     0.029 A 
ATOM     61  C   UNL A   1      44.053  29.358  33.661  1.00  0.00     0.049 A 
ATOM     62  H   UNL A   1      42.402  29.561  32.363  1.00  0.00     0.167 HD
ATOM     63  C   UNL A   1      44.661  27.981  31.688  1.00  0.00     0.074 A 
ATOM     64  C   UNL A   1      45.541  27.088  30.963  1.00  0.00     0.031 C 
ATOM     65  C   UNL A   1      44.923  28.469  32.927  1.00  0.00     0.034 A 
BRANCH  52  66
ATOM     66  C   UNL A   1      40.444  32.138  35.172  1.00  0.00     0.023 A 
ATOM     67  C   UNL A   1      39.568  31.680  36.172  1.00  0.00     0.031 A 
ATOM     68  C   UNL A   1      40.823  33.492  35.201  1.00  0.00     0.131 A 
ATOM     69  C   UNL A   1      39.031  32.584  37.102  1.00  0.00     0.055 A 
ATOM     70  C   UNL A   1      40.351  34.368  36.181  1.00  0.00     0.041 A 
ATOM     71  F   UNL A   1      41.642  33.993  34.264  1.00  0.00    -0.206 F 
ATOM     72  C   UNL A   1      39.435  33.920  37.129  1.00  0.00     0.022 A 
BRANCH  69  73
ATOM     73  S   UNL A   1      37.680  32.020  38.172  1.00  0.00     0.124 S 
ATOM     74  O   UNL A   1      36.628  32.981  37.850  1.00  0.00    -0.237 OA
ATOM     75  O   UNL A   1      37.460  30.654  37.713  1.00  0.00    -0.237 OA
ATOM     76  O   UNL A   1      38.235  32.144  39.519  1.00  0.00    -0.744 OA
ENDBRANCH  69  73
ENDBRANCH  52  66
BRANCH  53  77
ATOM     77  C   UNL A   1      43.372  26.568  27.386  1.00  0.00     0.023 A 
ATOM     78  C   UNL A   1      43.183  25.179  27.316  1.00  0.00     0.031 A 
ATOM     79  C   UNL A   1      44.055  27.197  26.331  1.00  0.00     0.131 A 
ATOM     80  C   UNL A   1      43.714  24.455  26.237  1.00  0.00     0.055 A 
ATOM     81  C   UNL A   1      44.542  26.479  25.237  1.00  0.00     0.041 A 
ATOM     82  F   UNL A   1      44.251  28.525  26.346  1.00  0.00    -0.206 F 
ATOM     83  C   UNL A   1      44.383  25.097  25.192  1.00  0.00     0.022 A 
BRANCH  80  84
ATOM     84  S   UNL A   1      43.577  22.647  26.254  1.00  0.00     0.124 S 
ATOM     85  O   UNL A   1      42.706  22.403  25.111  1.00  0.00    -0.237 OA
ATOM     86  O   UNL A   1      44.970  22.238  26.099  1.00  0.00    -0.237 OA
ATOM     87  O   UNL A   1      42.989  22.362  27.561  1.00  0.00    -0.744 OA
ENDBRANCH  80  84
ENDBRANCH  53  77
BRANCH  65  88
ATOM     88  C   UNL A   1      46.190  27.993  33.593  1.00  0.00     0.023 A 
ATOM     89  C   UNL A   1      46.216  26.847  34.406  1.00  0.00     0.031 A 
ATOM     90  C   UNL A   1      47.384  28.719  33.433  1.00  0.00     0.131 A 
ATOM     91  C   UNL A   1      47.397  26.493  35.077  1.00  0.00     0.055 A 
ATOM     92  C   UNL A   1      48.569  28.332  34.059  1.00  0.00     0.041 A 
ATOM     93  F   UNL A   1      47.414  29.822  32.668  1.00  0.00    -0.206 F 
ATOM     94  C   UNL A   1      48.576  27.221  34.898  1.00  0.00     0.022 A 
BRANCH  91  95
ATOM     95  S   UNL A   1      47.348  25.124  36.266  1.00  0.00     0.124 S 
ATOM     96  O   UNL A   1      47.119  23.974  35.397  1.00  0.00    -0.237 OA
ATOM     97  O   UNL A   1      48.667  25.202  36.885  1.00  0.00    -0.237 OA
ATOM     98  O   UNL A   1      46.231  25.471  37.142  1.00  0.00    -0.744 OA
ENDBRANCH  91  95
ENDBRANCH  65  88
ENDBRANCH  39  40
ENDBRANCH  31  34
ENDBRANCH  29  30
ENDBRANCH  28  29
ENDBRANCH   1  28
TORSDOF 17
ENDMDL
MODEL 3
REMARK VINA RESULT:     -12.1      2.551      3.419
REMARK SMILES COc1ccc(N[C@]2(Br)C(=O)NC(=O)N[C@@H]2C(=O)NCCCCNC(=O)c2ccc(-c3c4nc(c(-c5cc(S(=O)(=O)[O-])ccc5F)c5ccc([nH]5)c(-c5cc(S(=O)(=O)[O-])ccc5F)c5nc(c(-c6cc(S(=O)(=O)[O-])ccc6F)c6ccc3[nH]6)C=C5)C=C4)cc2)cc1
REMARK SMILES IDX 21 1 20 2 19 3 17 4 18 5 16 7 8 8 10 9 9 10 11 11 12 12
REMARK SMILES IDX 15 13 13 14 14 17 7 18 6 20 3 21 4 22 91 23 5 24 90 25 2 26
REMARK SMILES IDX 1 27 22 28 23 29 24 30 25 31 26 33 27 34 28 35 89 36 29 37
REMARK SMILES IDX 88 38 30 39 31 40 32 41 82 42 33 43 87 44 81 45 83 46 34 47
REMARK SMILES IDX 86 48 80 49 79 50 35 52 67 53 47 54 66 55 48 56 51 57 65 58
REMARK SMILES IDX 84 59 49 60 50 61 64 63 85 64 52 65 36 66 37 67 45 68 38 69
REMARK SMILES IDX 44 70 46 71 43 72 39 73 40 74 41 75 42 76 68 77 69 78 77 79
REMARK SMILES IDX 70 80 76 81 78 82 75 83 71 84 72 85 73 86 74 87 53 88 54 89
REMARK SMILES IDX 62 90 55 91 61 92 63 93 60 94 56 95 57 96 58 97 59 98
REMARK H PARENT 19 6 12 15 15 16 7 19 24 32 83 51 51 62
REMARK Flexibility Score: inf
ROOT
ATOM      1  C   UNL A   1      33.648  27.720  23.251  1.00  0.00     0.023 C 
ENDROOT
BRANCH   1   2
ATOM      2  C   UNL A   1      33.425  26.509  24.150  1.00  0.00     0.116 C 
BRANCH   2   3
ATOM      3  N   UNL A   1      32.197  25.792  23.861  1.00  0.00    -0.354 N 
ATOM      4  C   UNL A   1      31.491  24.927  24.650  1.00  0.00     0.246 C 
ATOM      5  O   UNL A   1      30.283  24.828  24.432  1.00  0.00    -0.273 OA
ATOM      6  H   UNL A   1      31.817  25.953  22.968  1.00  0.00     0.163 HD
BRANCH   4   7
ATOM      7  C   UNL A   1      32.146  24.300  25.883  1.00  0.00     0.219 C 
ATOM      8  C   UNL A   1      32.726  22.902  25.610  1.00  0.00     0.202 C 
ATOM      9  C   UNL A   1      31.630  21.832  25.538  1.00  0.00     0.267 C 
ATOM     10  Br  UNL A   1      33.678  22.369  27.347  1.00  0.00    -0.048 Br
ATOM     11  O   UNL A   1      31.782  20.705  25.062  1.00  0.00    -0.271 OA
ATOM     12  N   UNL A   1      30.438  22.145  26.165  1.00  0.00    -0.275 N 
ATOM     13  N   UNL A   1      31.068  24.259  26.876  1.00  0.00    -0.322 N 
ATOM     14  C   UNL A   1      30.156  23.251  26.914  1.00  0.00     0.322 C 
ATOM     15  H   UNL A   1      29.707  21.494  26.060  1.00  0.00     0.174 HD
ATOM     16  H   UNL A   1      31.003  24.987  27.536  1.00  0.00     0.166 HD
ATOM     17  O   UNL A   1      29.160  23.325  27.621  1.00  0.00    -0.248 OA
BRANCH   8  18
ATOM     18  N   UNL A   1      33.830  22.824  24.652  1.00  0.00    -0.360 N 
ATOM     19  H   UNL A   1      33.558  22.794  23.706  1.00  0.00     0.162 HD
BRANCH  18  20
ATOM     20  C   UNL A   1      35.188  22.784  24.865  1.00  0.00     0.036 A 
ATOM     21  C   UNL A   1      37.918  22.467  25.509  1.00  0.00     0.119 A 
ATOM     22  C   UNL A   1      37.288  23.685  25.721  1.00  0.00     0.048 A 
ATOM     23  C   UNL A   1      37.212  21.405  24.964  1.00  0.00     0.048 A 
ATOM     24  C   UNL A   1      35.940  23.840  25.380  1.00  0.00     0.029 A 
ATOM     25  C   UNL A   1      35.860  21.569  24.643  1.00  0.00     0.029 A 
BRANCH  21  26
ATOM     26  O   UNL A   1      39.201  22.299  25.946  1.00  0.00    -0.497 OA
ATOM     27  C   UNL A   1      39.495  20.917  26.126  1.00  0.00     0.278 C 
ENDBRANCH  21  26
ENDBRANCH  18  20
ENDBRANCH   8  18
ENDBRANCH   4   7
ENDBRANCH   2   3
ENDBRANCH   1   2
BRANCH   1  28
ATOM     28  C   UNL A   1      33.303  29.082  23.862  1.00  0.00     0.023 C 
BRANCH  28  29
ATOM     29  C   UNL A   1      33.247  29.151  25.386  1.00  0.00     0.116 C 
BRANCH  29  30
ATOM     30  N   UNL A   1      32.646  30.374  25.885  1.00  0.00    -0.352 N 
ATOM     31  C   UNL A   1      33.066  31.205  26.898  1.00  0.00     0.251 C 
ATOM     32  H   UNL A   1      31.816  30.649  25.434  1.00  0.00     0.163 HD
ATOM     33  O   UNL A   1      32.346  32.142  27.235  1.00  0.00    -0.269 OA
BRANCH  31  34
ATOM     34  C   UNL A   1      34.347  30.959  27.605  1.00  0.00     0.039 A 
ATOM     35  C   UNL A   1      35.261  32.012  27.716  1.00  0.00     0.014 A 
ATOM     36  C   UNL A   1      34.667  29.705  28.133  1.00  0.00     0.014 A 
ATOM     37  C   UNL A   1      36.464  31.826  28.403  1.00  0.00     0.010 A 
ATOM     38  C   UNL A   1      35.839  29.538  28.873  1.00  0.00     0.010 A 
ATOM     39  C   UNL A   1      36.753  30.595  29.012  1.00  0.00    -0.014 A 
BRANCH  39  40
ATOM     40  C   UNL A   1      38.018  30.387  29.765  1.00  0.00     0.031 A 
ATOM     41  C   UNL A   1      39.125  29.561  29.167  1.00  0.00     0.074 A 
ATOM     42  C   UNL A   1      38.153  30.893  31.007  1.00  0.00     0.049 A 
ATOM     43  N   UNL A   1      40.269  29.199  29.690  1.00  0.00    -0.248 NA
ATOM     44  C   UNL A   1      38.896  29.048  27.809  1.00  0.00     0.031 C 
ATOM     45  C   UNL A   1      37.138  31.675  31.716  1.00  0.00     0.029 A 
ATOM     46  N   UNL A   1      39.195  30.816  31.898  1.00  0.00    -0.354 N 
ATOM     47  C   UNL A   1      40.888  28.399  28.734  1.00  0.00     0.074 A 
ATOM     48  C   UNL A   1      39.965  28.288  27.624  1.00  0.00     0.031 C 
ATOM     49  C   UNL A   1      37.614  32.019  32.925  1.00  0.00     0.029 A 
ATOM     50  C   UNL A   1      38.950  31.456  33.092  1.00  0.00     0.049 A 
ATOM     51  H   UNL A   1      40.037  30.347  31.702  1.00  0.00     0.167 HD
ATOM     52  C   UNL A   1      42.119  27.828  28.769  1.00  0.00     0.034 A 
ATOM     53  C   UNL A   1      39.714  31.570  34.196  1.00  0.00     0.034 A 
ATOM     54  C   UNL A   1      43.037  27.961  29.875  1.00  0.00     0.049 A 
ATOM     55  C   UNL A   1      41.086  30.948  34.205  1.00  0.00     0.074 A 
ATOM     56  C   UNL A   1      44.319  27.454  30.002  1.00  0.00     0.029 A 
ATOM     57  N   UNL A   1      42.770  28.654  31.049  1.00  0.00    -0.354 N 
ATOM     58  N   UNL A   1      41.671  30.224  33.279  1.00  0.00    -0.248 NA
ATOM     59  C   UNL A   1      41.907  31.176  35.401  1.00  0.00     0.031 C 
ATOM     60  C   UNL A   1      44.808  27.800  31.267  1.00  0.00     0.029 A 
ATOM     61  C   UNL A   1      43.857  28.578  31.907  1.00  0.00     0.049 A 
ATOM     62  H   UNL A   1      41.931  29.130  31.245  1.00  0.00     0.167 HD
ATOM     63  C   UNL A   1      42.943  29.940  33.770  1.00  0.00     0.074 A 
ATOM     64  C   UNL A   1      43.041  30.580  35.065  1.00  0.00     0.031 C 
ATOM     65  C   UNL A   1      43.941  29.219  33.198  1.00  0.00     0.034 A 
BRANCH  52  66
ATOM     66  C   UNL A   1      42.519  26.985  27.582  1.00  0.00     0.023 A 
ATOM     67  C   UNL A   1      42.372  25.586  27.589  1.00  0.00     0.031 A 
ATOM     68  C   UNL A   1      43.099  27.578  26.446  1.00  0.00     0.131 A 
ATOM     69  C   UNL A   1      42.880  24.822  26.527  1.00  0.00     0.055 A 
ATOM     70  C   UNL A   1      43.525  26.818  25.355  1.00  0.00     0.041 A 
ATOM     71  F   UNL A   1      43.282  28.906  26.387  1.00  0.00    -0.206 F 
ATOM     72  C   UNL A   1      43.433  25.430  25.399  1.00  0.00     0.022 A 
BRANCH  69  73
ATOM     73  S   UNL A   1      42.947  23.019  26.715  1.00  0.00     0.124 S 
ATOM     74  O   UNL A   1      42.501  22.569  25.399  1.00  0.00    -0.237 OA
ATOM     75  O   UNL A   1      44.352  22.786  27.028  1.00  0.00    -0.237 OA
ATOM     76  O   UNL A   1      42.011  22.753  27.806  1.00  0.00    -0.744 OA
ENDBRANCH  69  73
ENDBRANCH  52  66
BRANCH  53  77
ATOM     77  C   UNL A   1      39.209  32.307  35.388  1.00  0.00     0.023 A 
ATOM     78  C   UNL A   1      38.597  31.627  36.452  1.00  0.00     0.031 A 
ATOM     79  C   UNL A   1      39.297  33.708  35.461  1.00  0.00     0.131 A 
ATOM     80  C   UNL A   1      38.053  32.351  37.524  1.00  0.00     0.055 A 
ATOM     81  C   UNL A   1      38.794  34.421  36.551  1.00  0.00     0.041 A 
ATOM     82  F   UNL A   1      39.883  34.404  34.474  1.00  0.00    -0.206 F 
ATOM     83  C   UNL A   1      38.156  33.743  37.585  1.00  0.00     0.022 A 
BRANCH  80  84
ATOM     84  S   UNL A   1      37.142  31.450  38.808  1.00  0.00     0.124 S 
ATOM     85  O   UNL A   1      38.034  31.581  39.954  1.00  0.00    -0.237 OA
ATOM     86  O   UNL A   1      35.893  32.202  38.876  1.00  0.00    -0.237 OA
ATOM     87  O   UNL A   1      37.024  30.102  38.258  1.00  0.00    -0.744 OA
ENDBRANCH  80  84
ENDBRANCH  53  77
BRANCH  65  88
ATOM     88  C   UNL A   1      45.244  29.141  33.954  1.00  0.00     0.023 A 
ATOM     89  C   UNL A   1      45.504  28.118  34.882  1.00  0.00     0.031 A 
ATOM     90  C   UNL A   1      46.229  30.126  33.761  1.00  0.00     0.131 A 
ATOM     91  C   UNL A   1      46.693  28.136  35.627  1.00  0.00     0.055 A 
ATOM     92  C   UNL A   1      47.433  30.109  34.466  1.00  0.00     0.041 A 
ATOM     93  F   UNL A   1      46.031  31.126  32.888  1.00  0.00    -0.206 F 
ATOM     94  C   UNL A   1      47.665  29.117  35.415  1.00  0.00     0.022 A 
BRANCH  91  95
ATOM     95  S   UNL A   1      46.913  26.913  36.950  1.00  0.00     0.124 S 
ATOM     96  O   UNL A   1      46.103  25.798  36.471  1.00  0.00    -0.237 OA
ATOM     97  O   UNL A   1      48.357  26.702  36.942  1.00  0.00    -0.237 OA
ATOM     98  O   UNL A   1      46.393  27.593  38.134  1.00  0.00    -0.744 OA
ENDBRANCH  91  95
ENDBRANCH  65  88
ENDBRANCH  39  40
ENDBRANCH  31  34
ENDBRANCH  29  30
ENDBRANCH  28  29
ENDBRANCH   1  28
TORSDOF 17
ENDMDL
