MODEL 1
REMARK VINA RESULT:      -9.9      0.000      0.000
REMARK SMILES O=C(/C=C/c1cccs1)NCC(=O)NCCCCNC(=O)c1ccc(-c2c3nc(c(-c4cc(S(=O)(=O)[O-])ccc4F)c4ccc([nH]4)c(-c4cc(S(=O)(=O)[O-])ccc4F)c4nc(c(-c5cc(S(=O)(=O)[O-])ccc5F)c5ccc2[nH]5)C=C4)C=C3)cc1
REMARK SMILES IDX 16 1 15 2 14 3 12 4 13 5 11 7 10 8 1 9 2 10 3 12 4 13 5 14
REMARK SMILES IDX 6 15 9 16 7 17 8 18 17 19 18 20 19 21 20 22 21 24 22 25
REMARK SMILES IDX 23 26 84 27 24 28 83 29 25 30 26 31 27 32 77 33 28 34 82 35
REMARK SMILES IDX 76 36 78 37 29 38 81 39 75 40 74 41 30 43 62 44 42 45 61 46
REMARK SMILES IDX 43 47 46 48 60 49 79 50 44 51 45 52 59 54 80 55 47 56 31 57
REMARK SMILES IDX 32 58 40 59 33 60 39 61 41 62 38 63 34 64 35 65 36 66 37 67
REMARK SMILES IDX 63 68 64 69 72 70 65 71 71 72 73 73 70 74 66 75 67 76 68 77
REMARK SMILES IDX 69 78 48 79 49 80 57 81 50 82 56 83 58 84 55 85 51 86 52 87
REMARK SMILES IDX 53 88 54 89
REMARK H PARENT 14 6 10 11 19 23 78 42 46 53
REMARK Flexibility Score: inf
ROOT
ATOM      1  C   UNL A   1      32.370  29.916  26.707  1.00  0.00     0.023 C 
ENDROOT
BRANCH   1   2
ATOM      2  C   UNL A   1      32.080  29.199  25.387  1.00  0.00     0.116 C 
BRANCH   2   3
ATOM      3  N   UNL A   1      33.167  29.359  24.439  1.00  0.00    -0.355 N 
ATOM      4  C   UNL A   1      33.356  28.717  23.249  1.00  0.00     0.239 C 
ATOM      5  O   UNL A   1      34.364  28.971  22.588  1.00  0.00    -0.273 OA
ATOM      6  H   UNL A   1      33.857  30.017  24.686  1.00  0.00     0.163 HD
BRANCH   4   7
ATOM      7  C   UNL A   1      32.316  27.715  22.751  1.00  0.00     0.216 C 
BRANCH   7   8
ATOM      8  N   UNL A   1      32.638  26.353  23.146  1.00  0.00    -0.343 N 
ATOM      9  O   UNL A   1      33.348  25.704  21.073  1.00  0.00    -0.270 OA
ATOM     10  C   UNL A   1      33.131  25.447  22.253  1.00  0.00     0.244 C 
ATOM     11  H   UNL A   1      32.498  26.079  24.082  1.00  0.00     0.164 HD
BRANCH  10  12
ATOM     12  C   UNL A   1      33.432  24.082  22.751  1.00  0.00     0.072 C 
ATOM     13  C   UNL A   1      34.110  23.754  23.861  1.00  0.00     0.024 C 
BRANCH  13  14
ATOM     14  C   UNL A   1      34.315  22.390  24.233  1.00  0.00     0.027 A 
ATOM     15  C   UNL A   1      35.442  21.738  24.710  1.00  0.00     0.020 A 
ATOM     16  S   UNL A   1      32.997  21.281  24.118  1.00  0.00    -0.144 S 
ATOM     17  C   UNL A   1      35.230  20.350  24.955  1.00  0.00     0.012 A 
ATOM     18  C   UNL A   1      33.942  19.970  24.664  1.00  0.00     0.065 A 
ENDBRANCH  13  14
ENDBRANCH  10  12
ENDBRANCH   7   8
ENDBRANCH   4   7
ENDBRANCH   2   3
ENDBRANCH   1   2
BRANCH   1  19
ATOM     19  C   UNL A   1      32.134  31.429  26.679  1.00  0.00     0.023 C 
BRANCH  19  20
ATOM     20  C   UNL A   1      33.114  32.260  27.503  1.00  0.00     0.116 C 
BRANCH  20  21
ATOM     21  N   UNL A   1      32.663  33.624  27.725  1.00  0.00    -0.352 N 
ATOM     22  C   UNL A   1      33.162  34.550  28.615  1.00  0.00     0.251 C 
ATOM     23  H   UNL A   1      31.907  33.924  27.170  1.00  0.00     0.163 HD
ATOM     24  O   UNL A   1      32.599  35.630  28.765  1.00  0.00    -0.269 OA
BRANCH  22  25
ATOM     25  C   UNL A   1      34.358  34.206  29.415  1.00  0.00     0.039 A 
ATOM     26  C   UNL A   1      34.191  33.538  30.631  1.00  0.00     0.014 A 
ATOM     27  C   UNL A   1      35.638  34.495  28.935  1.00  0.00     0.014 A 
ATOM     28  C   UNL A   1      35.314  33.084  31.329  1.00  0.00     0.010 A 
ATOM     29  C   UNL A   1      36.751  33.995  29.603  1.00  0.00     0.010 A 
ATOM     30  C   UNL A   1      36.600  33.270  30.797  1.00  0.00    -0.014 A 
BRANCH  30  31
ATOM     31  C   UNL A   1      37.811  32.713  31.454  1.00  0.00     0.031 A 
ATOM     32  C   UNL A   1      38.536  31.559  30.820  1.00  0.00     0.074 A 
ATOM     33  C   UNL A   1      38.188  33.168  32.664  1.00  0.00     0.049 A 
ATOM     34  N   UNL A   1      39.483  30.804  31.311  1.00  0.00    -0.248 NA
ATOM     35  C   UNL A   1      38.109  31.189  29.462  1.00  0.00     0.031 C 
ATOM     36  C   UNL A   1      37.551  34.268  33.392  1.00  0.00     0.029 A 
ATOM     37  N   UNL A   1      39.182  32.744  33.512  1.00  0.00    -0.354 N 
ATOM     38  C   UNL A   1      39.748  29.848  30.335  1.00  0.00     0.074 A 
ATOM     39  C   UNL A   1      38.830  30.101  29.244  1.00  0.00     0.031 C 
ATOM     40  C   UNL A   1      38.169  34.430  34.573  1.00  0.00     0.029 A 
ATOM     41  C   UNL A   1      39.210  33.417  34.711  1.00  0.00     0.049 A 
ATOM     42  H   UNL A   1      39.814  32.025  33.282  1.00  0.00     0.167 HD
ATOM     43  C   UNL A   1      40.678  28.862  30.346  1.00  0.00     0.034 A 
ATOM     44  C   UNL A   1      39.967  33.221  35.809  1.00  0.00     0.034 A 
ATOM     45  C   UNL A   1      41.598  28.638  31.434  1.00  0.00     0.049 A 
ATOM     46  C   UNL A   1      40.981  32.105  35.809  1.00  0.00     0.074 A 
ATOM     47  C   UNL A   1      42.615  27.704  31.528  1.00  0.00     0.029 A 
ATOM     48  N   UNL A   1      41.611  29.357  32.624  1.00  0.00    -0.354 N 
ATOM     49  N   UNL A   1      41.236  31.223  34.870  1.00  0.00    -0.248 NA
ATOM     50  C   UNL A   1      41.809  31.959  37.013  1.00  0.00     0.031 C 
ATOM     51  C   UNL A   1      43.206  27.821  32.791  1.00  0.00     0.029 A 
ATOM     52  C   UNL A   1      42.602  28.871  33.463  1.00  0.00     0.049 A 
ATOM     53  H   UNL A   1      41.004  30.102  32.839  1.00  0.00     0.167 HD
ATOM     54  C   UNL A   1      42.276  30.439  35.360  1.00  0.00     0.074 A 
ATOM     55  C   UNL A   1      42.601  30.951  36.675  1.00  0.00     0.031 C 
ATOM     56  C   UNL A   1      42.910  29.395  34.772  1.00  0.00     0.034 A 
BRANCH  43  57
ATOM     57  C   UNL A   1      40.717  27.935  29.156  1.00  0.00     0.023 A 
ATOM     58  C   UNL A   1      41.633  28.123  28.107  1.00  0.00     0.031 A 
ATOM     59  C   UNL A   1      39.801  26.874  29.049  1.00  0.00     0.131 A 
ATOM     60  C   UNL A   1      41.560  27.315  26.962  1.00  0.00     0.055 A 
ATOM     61  C   UNL A   1      39.787  26.023  27.943  1.00  0.00     0.041 A 
ATOM     62  F   UNL A   1      38.890  26.659  30.011  1.00  0.00    -0.206 F 
ATOM     63  C   UNL A   1      40.659  26.251  26.883  1.00  0.00     0.022 A 
BRANCH  60  64
ATOM     64  S   UNL A   1      42.561  27.769  25.520  1.00  0.00     0.124 S 
ATOM     65  O   UNL A   1      43.870  27.993  26.129  1.00  0.00    -0.237 OA
ATOM     66  O   UNL A   1      42.446  26.589  24.670  1.00  0.00    -0.237 OA
ATOM     67  O   UNL A   1      41.904  28.972  25.012  1.00  0.00    -0.744 OA
ENDBRANCH  60  64
ENDBRANCH  43  57
BRANCH  44  68
ATOM     68  C   UNL A   1      39.782  34.076  37.015  1.00  0.00     0.023 A 
ATOM     69  C   UNL A   1      39.112  33.589  38.147  1.00  0.00     0.031 A 
ATOM     70  C   UNL A   1      40.244  35.404  37.038  1.00  0.00     0.131 A 
ATOM     71  C   UNL A   1      38.884  34.437  39.242  1.00  0.00     0.055 A 
ATOM     72  C   UNL A   1      40.055  36.230  38.148  1.00  0.00     0.041 A 
ATOM     73  F   UNL A   1      40.898  35.914  35.983  1.00  0.00    -0.206 F 
ATOM     74  C   UNL A   1      39.360  35.750  39.255  1.00  0.00     0.022 A 
BRANCH  71  75
ATOM     75  S   UNL A   1      37.891  33.818  40.627  1.00  0.00     0.124 S 
ATOM     76  O   UNL A   1      37.547  35.054  41.321  1.00  0.00    -0.237 OA
ATOM     77  O   UNL A   1      36.797  33.143  39.937  1.00  0.00    -0.237 OA
ATOM     78  O   UNL A   1      38.813  32.937  41.341  1.00  0.00    -0.744 OA
ENDBRANCH  71  75
ENDBRANCH  44  68
BRANCH  56  79
ATOM     79  C   UNL A   1      44.061  28.780  35.525  1.00  0.00     0.023 A 
ATOM     80  C   UNL A   1      43.867  27.759  36.470  1.00  0.00     0.031 A 
ATOM     81  C   UNL A   1      45.374  29.221  35.280  1.00  0.00     0.131 A 
ATOM     82  C   UNL A   1      44.969  27.236  37.165  1.00  0.00     0.055 A 
ATOM     83  C   UNL A   1      46.469  28.666  35.940  1.00  0.00     0.041 A 
ATOM     84  F   UNL A   1      45.611  30.195  34.385  1.00  0.00    -0.206 F 
ATOM     85  C   UNL A   1      46.269  27.672  36.895  1.00  0.00     0.022 A 
BRANCH  82  86
ATOM     86  S   UNL A   1      44.677  26.005  38.466  1.00  0.00     0.124 S 
ATOM     87  O   UNL A   1      44.609  24.765  37.700  1.00  0.00    -0.237 OA
ATOM     88  O   UNL A   1      45.851  26.166  39.319  1.00  0.00    -0.237 OA
ATOM     89  O   UNL A   1      43.415  26.434  39.067  1.00  0.00    -0.744 OA
ENDBRANCH  82  86
ENDBRANCH  56  79
ENDBRANCH  30  31
ENDBRANCH  22  25
ENDBRANCH  20  21
ENDBRANCH  19  20
ENDBRANCH   1  19
TORSDOF 17
ENDMDL
MODEL 2
REMARK VINA RESULT:      -9.9      4.500     10.500
REMARK SMILES O=C(/C=C/c1cccs1)NCC(=O)NCCCCNC(=O)c1ccc(-c2c3nc(c(-c4cc(S(=O)(=O)[O-])ccc4F)c4ccc([nH]4)c(-c4cc(S(=O)(=O)[O-])ccc4F)c4nc(c(-c5cc(S(=O)(=O)[O-])ccc5F)c5ccc2[nH]5)C=C4)C=C3)cc1
REMARK SMILES IDX 16 1 15 2 14 3 12 4 13 5 11 7 10 8 1 9 2 10 3 12 4 13 5 14
REMARK SMILES IDX 6 15 9 16 7 17 8 18 17 19 18 20 19 21 20 22 21 24 22 25
REMARK SMILES IDX 23 26 84 27 24 28 83 29 25 30 26 31 27 32 77 33 28 34 82 35
REMARK SMILES IDX 76 36 78 37 29 38 81 39 75 40 74 41 30 43 62 44 42 45 61 46
REMARK SMILES IDX 43 47 46 48 60 49 79 50 44 51 45 52 59 54 80 55 47 56 31 57
REMARK SMILES IDX 32 58 40 59 33 60 39 61 41 62 38 63 34 64 35 65 36 66 37 67
REMARK SMILES IDX 63 68 64 69 72 70 65 71 71 72 73 73 70 74 66 75 67 76 68 77
REMARK SMILES IDX 69 78 48 79 49 80 57 81 50 82 56 83 58 84 55 85 51 86 52 87
REMARK SMILES IDX 53 88 54 89
REMARK H PARENT 14 6 10 11 19 23 78 42 46 53
REMARK Flexibility Score: inf
ROOT
ATOM      1  C   UNL A   1      34.308  35.455  29.041  1.00  0.00     0.023 C 
ENDROOT
BRANCH   1   2
ATOM      2  C   UNL A   1      32.958  35.620  29.741  1.00  0.00     0.116 C 
BRANCH   2   3
ATOM      3  N   UNL A   1      32.880  36.873  30.469  1.00  0.00    -0.355 N 
ATOM      4  C   UNL A   1      33.170  37.111  31.783  1.00  0.00     0.239 C 
ATOM      5  O   UNL A   1      33.015  38.248  32.231  1.00  0.00    -0.273 OA
ATOM      6  H   UNL A   1      32.580  37.653  29.949  1.00  0.00     0.163 HD
BRANCH   4   7
ATOM      7  C   UNL A   1      33.693  35.977  32.664  1.00  0.00     0.216 C 
BRANCH   7   8
ATOM      8  N   UNL A   1      35.119  35.761  32.484  1.00  0.00    -0.343 N 
ATOM      9  O   UNL A   1      34.952  33.493  32.260  1.00  0.00    -0.270 OA
ATOM     10  C   UNL A   1      35.635  34.512  32.299  1.00  0.00     0.244 C 
ATOM     11  H   UNL A   1      35.727  36.536  32.494  1.00  0.00     0.164 HD
BRANCH  10  12
ATOM     12  C   UNL A   1      37.103  34.391  32.121  1.00  0.00     0.072 C 
ATOM     13  C   UNL A   1      37.755  33.898  31.058  1.00  0.00     0.024 C 
BRANCH  13  14
ATOM     14  C   UNL A   1      39.182  33.857  31.012  1.00  0.00     0.027 A 
ATOM     15  C   UNL A   1      40.047  33.462  30.001  1.00  0.00     0.020 A 
ATOM     16  S   UNL A   1      40.082  34.374  32.390  1.00  0.00    -0.144 S 
ATOM     17  C   UNL A   1      41.422  33.563  30.365  1.00  0.00     0.012 A 
ATOM     18  C   UNL A   1      41.580  34.038  31.644  1.00  0.00     0.065 A 
ENDBRANCH  13  14
ENDBRANCH  10  12
ENDBRANCH   7   8
ENDBRANCH   4   7
ENDBRANCH   2   3
ENDBRANCH   1   2
BRANCH   1  19
ATOM     19  C   UNL A   1      34.373  34.295  28.043  1.00  0.00     0.023 C 
BRANCH  19  20
ATOM     20  C   UNL A   1      34.518  32.907  28.661  1.00  0.00     0.116 C 
BRANCH  20  21
ATOM     21  N   UNL A   1      33.986  31.847  27.821  1.00  0.00    -0.352 N 
ATOM     22  C   UNL A   1      34.554  30.625  27.533  1.00  0.00     0.251 C 
ATOM     23  H   UNL A   1      33.111  32.023  27.406  1.00  0.00     0.163 HD
ATOM     24  O   UNL A   1      34.032  29.878  26.712  1.00  0.00    -0.269 OA
BRANCH  22  25
ATOM     25  C   UNL A   1      35.823  30.248  28.194  1.00  0.00     0.039 A 
ATOM     26  C   UNL A   1      35.783  29.722  29.488  1.00  0.00     0.014 A 
ATOM     27  C   UNL A   1      37.037  30.366  27.514  1.00  0.00     0.014 A 
ATOM     28  C   UNL A   1      36.956  29.233  30.071  1.00  0.00     0.010 A 
ATOM     29  C   UNL A   1      38.193  29.829  28.074  1.00  0.00     0.010 A 
ATOM     30  C   UNL A   1      38.161  29.243  29.350  1.00  0.00    -0.014 A 
BRANCH  30  31
ATOM     31  C   UNL A   1      39.406  28.639  29.891  1.00  0.00     0.031 A 
ATOM     32  C   UNL A   1      40.057  29.238  31.106  1.00  0.00     0.074 A 
ATOM     33  C   UNL A   1      40.006  27.631  29.229  1.00  0.00     0.049 A 
ATOM     34  N   UNL A   1      41.232  28.996  31.622  1.00  0.00    -0.248 NA
ATOM     35  C   UNL A   1      39.287  30.274  31.812  1.00  0.00     0.031 C 
ATOM     36  C   UNL A   1      39.484  26.980  28.025  1.00  0.00     0.029 A 
ATOM     37  N   UNL A   1      41.201  26.994  29.457  1.00  0.00    -0.354 N 
ATOM     38  C   UNL A   1      41.360  29.869  32.698  1.00  0.00     0.074 A 
ATOM     39  C   UNL A   1      40.155  30.671  32.729  1.00  0.00     0.031 C 
ATOM     40  C   UNL A   1      40.354  26.040  27.622  1.00  0.00     0.029 A 
ATOM     41  C   UNL A   1      41.516  26.052  28.505  1.00  0.00     0.049 A 
ATOM     42  H   UNL A   1      41.778  27.194  30.229  1.00  0.00     0.167 HD
ATOM     43  C   UNL A   1      42.382  29.979  33.582  1.00  0.00     0.034 A 
ATOM     44  C   UNL A   1      42.627  25.307  28.343  1.00  0.00     0.034 A 
ATOM     45  C   UNL A   1      43.566  29.157  33.548  1.00  0.00     0.049 A 
ATOM     46  C   UNL A   1      43.761  25.461  29.325  1.00  0.00     0.074 A 
ATOM     47  C   UNL A   1      44.638  29.149  34.424  1.00  0.00     0.029 A 
ATOM     48  N   UNL A   1      43.839  28.197  32.580  1.00  0.00    -0.354 N 
ATOM     49  N   UNL A   1      43.859  26.275  30.350  1.00  0.00    -0.248 NA
ATOM     50  C   UNL A   1      44.932  24.597  29.129  1.00  0.00     0.031 C 
ATOM     51  C   UNL A   1      45.580  28.223  33.959  1.00  0.00     0.029 A 
ATOM     52  C   UNL A   1      45.069  27.608  32.827  1.00  0.00     0.049 A 
ATOM     53  H   UNL A   1      43.244  27.969  31.830  1.00  0.00     0.167 HD
ATOM     54  C   UNL A   1      45.088  25.996  30.939  1.00  0.00     0.074 A 
ATOM     55  C   UNL A   1      45.696  24.940  30.156  1.00  0.00     0.031 C 
ATOM     56  C   UNL A   1      45.659  26.557  32.034  1.00  0.00     0.034 A 
BRANCH  43  57
ATOM     57  C   UNL A   1      42.270  31.053  34.638  1.00  0.00     0.023 A 
ATOM     58  C   UNL A   1      42.735  32.359  34.410  1.00  0.00     0.031 A 
ATOM     59  C   UNL A   1      41.727  30.756  35.900  1.00  0.00     0.131 A 
ATOM     60  C   UNL A   1      42.723  33.297  35.455  1.00  0.00     0.055 A 
ATOM     61  C   UNL A   1      41.644  31.717  36.909  1.00  0.00     0.041 A 
ATOM     62  F   UNL A   1      41.286  29.520  36.180  1.00  0.00    -0.206 F 
ATOM     63  C   UNL A   1      42.159  32.992  36.695  1.00  0.00     0.022 A 
BRANCH  60  64
ATOM     64  S   UNL A   1      43.588  34.871  35.210  1.00  0.00     0.124 S 
ATOM     65  O   UNL A   1      44.626  34.491  34.254  1.00  0.00    -0.237 OA
ATOM     66  O   UNL A   1      42.533  35.737  34.697  1.00  0.00    -0.237 OA
ATOM     67  O   UNL A   1      44.076  35.205  36.547  1.00  0.00    -0.744 OA
ENDBRANCH  60  64
ENDBRANCH  43  57
BRANCH  44  68
ATOM     68  C   UNL A   1      42.744  24.367  27.193  1.00  0.00     0.023 A 
ATOM     69  C   UNL A   1      42.193  23.078  27.258  1.00  0.00     0.031 A 
ATOM     70  C   UNL A   1      43.438  24.733  26.026  1.00  0.00     0.131 A 
ATOM     71  C   UNL A   1      42.380  22.184  26.193  1.00  0.00     0.055 A 
ATOM     72  C   UNL A   1      43.582  23.856  24.950  1.00  0.00     0.041 A 
ATOM     73  F   UNL A   1      43.975  25.957  25.912  1.00  0.00    -0.206 F 
ATOM     74  C   UNL A   1      43.061  22.567  25.035  1.00  0.00     0.022 A 
BRANCH  71  75
ATOM     75  S   UNL A   1      41.779  20.482  26.371  1.00  0.00     0.124 S 
ATOM     76  O   UNL A   1      42.162  20.174  27.744  1.00  0.00    -0.237 OA
ATOM     77  O   UNL A   1      40.349  20.640  26.123  1.00  0.00    -0.237 OA
ATOM     78  O   UNL A   1      42.511  19.752  25.338  1.00  0.00    -0.744 OA
ENDBRANCH  71  75
ENDBRANCH  44  68
BRANCH  56  79
ATOM     79  C   UNL A   1      46.983  25.993  32.481  1.00  0.00     0.023 A 
ATOM     80  C   UNL A   1      47.066  24.974  33.444  1.00  0.00     0.031 A 
ATOM     81  C   UNL A   1      48.176  26.481  31.921  1.00  0.00     0.131 A 
ATOM     82  C   UNL A   1      48.325  24.499  33.846  1.00  0.00     0.055 A 
ATOM     83  C   UNL A   1      49.422  25.974  32.291  1.00  0.00     0.041 A 
ATOM     84  F   UNL A   1      48.148  27.455  30.996  1.00  0.00    -0.206 F 
ATOM     85  C   UNL A   1      49.501  24.982  33.265  1.00  0.00     0.022 A 
BRANCH  82  86
ATOM     86  S   UNL A   1      48.410  23.270  35.178  1.00  0.00     0.124 S 
ATOM     87  O   UNL A   1      47.056  23.315  35.719  1.00  0.00    -0.237 OA
ATOM     88  O   UNL A   1      48.772  22.052  34.460  1.00  0.00    -0.237 OA
ATOM     89  O   UNL A   1      49.449  23.795  36.063  1.00  0.00    -0.744 OA
ENDBRANCH  82  86
ENDBRANCH  56  79
ENDBRANCH  30  31
ENDBRANCH  22  25
ENDBRANCH  20  21
ENDBRANCH  19  20
ENDBRANCH   1  19
TORSDOF 17
ENDMDL
MODEL 3
REMARK VINA RESULT:      -9.8      2.669      3.590
REMARK SMILES O=C(/C=C/c1cccs1)NCC(=O)NCCCCNC(=O)c1ccc(-c2c3nc(c(-c4cc(S(=O)(=O)[O-])ccc4F)c4ccc([nH]4)c(-c4cc(S(=O)(=O)[O-])ccc4F)c4nc(c(-c5cc(S(=O)(=O)[O-])ccc5F)c5ccc2[nH]5)C=C4)C=C3)cc1
REMARK SMILES IDX 16 1 15 2 14 3 12 4 13 5 11 7 10 8 1 9 2 10 3 12 4 13 5 14
REMARK SMILES IDX 6 15 9 16 7 17 8 18 17 19 18 20 19 21 20 22 21 24 22 25
REMARK SMILES IDX 23 26 84 27 24 28 83 29 25 30 26 31 27 32 77 33 28 34 82 35
REMARK SMILES IDX 76 36 78 37 29 38 81 39 75 40 74 41 30 43 62 44 42 45 61 46
REMARK SMILES IDX 43 47 46 48 60 49 79 50 44 51 45 52 59 54 80 55 47 56 31 57
REMARK SMILES IDX 32 58 40 59 33 60 39 61 41 62 38 63 34 64 35 65 36 66 37 67
REMARK SMILES IDX 63 68 64 69 72 70 65 71 71 72 73 73 70 74 66 75 67 76 68 77
REMARK SMILES IDX 69 78 48 79 49 80 57 81 50 82 56 83 58 84 55 85 51 86 52 87
REMARK SMILES IDX 53 88 54 89
REMARK H PARENT 14 6 10 11 19 23 78 42 46 53
REMARK Flexibility Score: inf
ROOT
ATOM      1  C   UNL A   1      31.507  27.405  26.596  1.00  0.00     0.023 C 
ENDROOT
BRANCH   1   2
ATOM      2  C   UNL A   1      31.197  26.065  25.926  1.00  0.00     0.116 C 
BRANCH   2   3
ATOM      3  N   UNL A   1      32.075  25.812  24.799  1.00  0.00    -0.355 N 
ATOM      4  C   UNL A   1      33.178  25.007  24.746  1.00  0.00     0.239 C 
ATOM      5  O   UNL A   1      33.817  24.940  23.696  1.00  0.00    -0.273 OA
ATOM      6  H   UNL A   1      31.848  26.282  23.965  1.00  0.00     0.163 HD
BRANCH   4   7
ATOM      7  C   UNL A   1      33.586  24.194  25.974  1.00  0.00     0.216 C 
BRANCH   7   8
ATOM      8  N   UNL A   1      33.588  22.765  25.706  1.00  0.00    -0.343 N 
ATOM      9  O   UNL A   1      35.864  22.557  25.741  1.00  0.00    -0.270 OA
ATOM     10  C   UNL A   1      34.751  22.058  25.605  1.00  0.00     0.244 C 
ATOM     11  H   UNL A   1      32.728  22.297  25.595  1.00  0.00     0.164 HD
BRANCH  10  12
ATOM     12  C   UNL A   1      34.651  20.603  25.332  1.00  0.00     0.072 C 
ATOM     13  C   UNL A   1      33.553  19.915  24.986  1.00  0.00     0.024 C 
BRANCH  13  14
ATOM     14  C   UNL A   1      33.603  18.510  24.734  1.00  0.00     0.027 A 
ATOM     15  C   UNL A   1      34.405  17.767  23.880  1.00  0.00     0.020 A 
ATOM     16  S   UNL A   1      32.532  17.464  25.595  1.00  0.00    -0.144 S 
ATOM     17  C   UNL A   1      34.127  16.370  23.918  1.00  0.00     0.012 A 
ATOM     18  C   UNL A   1      33.121  16.072  24.805  1.00  0.00     0.065 A 
ENDBRANCH  13  14
ENDBRANCH  10  12
ENDBRANCH   7   8
ENDBRANCH   4   7
ENDBRANCH   2   3
ENDBRANCH   1   2
BRANCH   1  19
ATOM     19  C   UNL A   1      31.734  28.567  25.625  1.00  0.00     0.023 C 
BRANCH  19  20
ATOM     20  C   UNL A   1      32.910  29.481  25.961  1.00  0.00     0.116 C 
BRANCH  20  21
ATOM     21  N   UNL A   1      32.504  30.823  26.341  1.00  0.00    -0.352 N 
ATOM     22  C   UNL A   1      33.158  31.706  27.171  1.00  0.00     0.251 C 
ATOM     23  H   UNL A   1      31.655  31.142  25.956  1.00  0.00     0.163 HD
ATOM     24  O   UNL A   1      32.628  32.768  27.486  1.00  0.00    -0.269 OA
BRANCH  22  25
ATOM     25  C   UNL A   1      34.484  31.337  27.712  1.00  0.00     0.039 A 
ATOM     26  C   UNL A   1      35.478  32.316  27.799  1.00  0.00     0.014 A 
ATOM     27  C   UNL A   1      34.722  30.042  28.179  1.00  0.00     0.014 A 
ATOM     28  C   UNL A   1      36.687  32.017  28.435  1.00  0.00     0.010 A 
ATOM     29  C   UNL A   1      35.904  29.763  28.859  1.00  0.00     0.010 A 
ATOM     30  C   UNL A   1      36.891  30.752  29.008  1.00  0.00    -0.014 A 
BRANCH  30  31
ATOM     31  C   UNL A   1      38.117  30.428  29.782  1.00  0.00     0.031 A 
ATOM     32  C   UNL A   1      39.104  29.437  29.231  1.00  0.00     0.074 A 
ATOM     33  C   UNL A   1      38.284  30.935  31.018  1.00  0.00     0.049 A 
ATOM     34  N   UNL A   1      40.126  28.871  29.817  1.00  0.00    -0.248 NA
ATOM     35  C   UNL A   1      38.886  29.005  27.842  1.00  0.00     0.031 C 
ATOM     36  C   UNL A   1      37.384  31.888  31.671  1.00  0.00     0.029 A 
ATOM     37  N   UNL A   1      39.254  30.699  31.961  1.00  0.00    -0.354 N 
ATOM     38  C   UNL A   1      40.659  27.991  28.880  1.00  0.00     0.074 A 
ATOM     39  C   UNL A   1      39.818  28.075  27.704  1.00  0.00     0.031 C 
ATOM     40  C   UNL A   1      37.844  32.153  32.905  1.00  0.00     0.029 A 
ATOM     41  C   UNL A   1      39.041  31.355  33.151  1.00  0.00     0.049 A 
ATOM     42  H   UNL A   1      40.030  30.115  31.799  1.00  0.00     0.167 HD
ATOM     43  C   UNL A   1      41.754  27.199  28.989  1.00  0.00     0.034 A 
ATOM     44  C   UNL A   1      39.713  31.296  34.318  1.00  0.00     0.034 A 
ATOM     45  C   UNL A   1      42.591  27.144  30.162  1.00  0.00     0.049 A 
ATOM     46  C   UNL A   1      40.915  30.391  34.425  1.00  0.00     0.074 A 
ATOM     47  C   UNL A   1      43.752  26.417  30.361  1.00  0.00     0.029 A 
ATOM     48  N   UNL A   1      42.354  27.841  31.340  1.00  0.00    -0.354 N 
ATOM     49  N   UNL A   1      41.420  29.582  33.523  1.00  0.00    -0.248 NA
ATOM     50  C   UNL A   1      41.636  30.394  35.704  1.00  0.00     0.031 C 
ATOM     51  C   UNL A   1      44.188  26.633  31.673  1.00  0.00     0.029 A 
ATOM     52  C   UNL A   1      43.334  27.544  32.275  1.00  0.00     0.049 A 
ATOM     53  H   UNL A   1      41.600  28.456  31.490  1.00  0.00     0.167 HD
ATOM     54  C   UNL A   1      42.538  29.005  34.117  1.00  0.00     0.074 A 
ATOM     55  C   UNL A   1      42.633  29.558  35.453  1.00  0.00     0.031 C 
ATOM     56  C   UNL A   1      43.412  28.105  33.602  1.00  0.00     0.034 A 
BRANCH  43  57
ATOM     57  C   UNL A   1      42.081  26.307  27.816  1.00  0.00     0.023 A 
ATOM     58  C   UNL A   1      41.619  24.982  27.749  1.00  0.00     0.031 A 
ATOM     59  C   UNL A   1      42.897  26.775  26.772  1.00  0.00     0.131 A 
ATOM     60  C   UNL A   1      42.042  24.146  26.703  1.00  0.00     0.055 A 
ATOM     61  C   UNL A   1      43.248  25.962  25.692  1.00  0.00     0.041 A 
ATOM     62  F   UNL A   1      43.384  28.026  26.793  1.00  0.00    -0.206 F 
ATOM     63  C   UNL A   1      42.834  24.634  25.662  1.00  0.00     0.022 A 
BRANCH  60  64
ATOM     64  S   UNL A   1      41.661  22.377  26.805  1.00  0.00     0.124 S 
ATOM     65  O   UNL A   1      42.653  21.917  27.775  1.00  0.00    -0.237 OA
ATOM     66  O   UNL A   1      40.275  22.377  27.261  1.00  0.00    -0.237 OA
ATOM     67  O   UNL A   1      41.869  21.902  25.439  1.00  0.00    -0.744 OA
ENDBRANCH  60  64
ENDBRANCH  43  57
BRANCH  44  68
ATOM     68  C   UNL A   1      39.255  32.089  35.493  1.00  0.00     0.023 A 
ATOM     69  C   UNL A   1      39.687  33.411  35.681  1.00  0.00     0.031 A 
ATOM     70  C   UNL A   1      38.406  31.525  36.461  1.00  0.00     0.131 A 
ATOM     71  C   UNL A   1      39.303  34.113  36.834  1.00  0.00     0.055 A 
ATOM     72  C   UNL A   1      37.990  32.244  37.584  1.00  0.00     0.041 A 
ATOM     73  F   UNL A   1      37.959  30.267  36.322  1.00  0.00    -0.206 F 
ATOM     74  C   UNL A   1      38.449  33.543  37.781  1.00  0.00     0.022 A 
BRANCH  71  75
ATOM     75  S   UNL A   1      39.995  35.766  37.115  1.00  0.00     0.124 S 
ATOM     76  O   UNL A   1      41.408  35.466  37.314  1.00  0.00    -0.237 OA
ATOM     77  O   UNL A   1      39.653  36.452  35.872  1.00  0.00    -0.237 OA
ATOM     78  O   UNL A   1      39.283  36.237  38.301  1.00  0.00    -0.744 OA
ENDBRANCH  71  75
ENDBRANCH  44  68
BRANCH  56  79
ATOM     79  C   UNL A   1      44.581  27.712  34.468  1.00  0.00     0.023 A 
ATOM     80  C   UNL A   1      44.539  26.581  35.300  1.00  0.00     0.031 A 
ATOM     81  C   UNL A   1      45.757  28.482  34.446  1.00  0.00     0.131 A 
ATOM     82  C   UNL A   1      45.645  26.271  36.107  1.00  0.00     0.055 A 
ATOM     83  C   UNL A   1      46.869  28.143  35.216  1.00  0.00     0.041 A 
ATOM     84  F   UNL A   1      45.845  29.572  33.666  1.00  0.00    -0.206 F 
ATOM     85  C   UNL A   1      46.815  27.036  36.059  1.00  0.00     0.022 A 
BRANCH  82  86
ATOM     86  S   UNL A   1      45.521  24.877  37.262  1.00  0.00     0.124 S 
ATOM     87  O   UNL A   1      44.891  25.500  38.421  1.00  0.00    -0.237 OA
ATOM     88  O   UNL A   1      44.698  23.927  36.520  1.00  0.00    -0.237 OA
ATOM     89  O   UNL A   1      46.911  24.468  37.456  1.00  0.00    -0.744 OA
ENDBRANCH  82  86
ENDBRANCH  56  79
ENDBRANCH  30  31
ENDBRANCH  22  25
ENDBRANCH  20  21
ENDBRANCH  19  20
ENDBRANCH   1  19
TORSDOF 17
ENDMDL
