MODEL 1
REMARK VINA RESULT:     -13.6      0.000      0.000
REMARK SMILES Cc1cccc(CNC(=O)N[C@@H](CC2=c3ccccc3=NC2)C(=O)NCCCCNC(=O)c2ccc(-c3c4nc(c(-c5cc(S(=O)(=O)[O-])ccc5F)c5ccc([nH]5)c(-c5cc(S(=O)(=O)[O-])ccc5F)c5nc(c(-c6cc(S(=O)(=O)[O-])ccc6F)c6ccc3[nH]6)C=C5)C=C4)cc2)c1
REMARK SMILES IDX 27 1 26 2 25 3 23 4 24 5 12 7 11 8 8 9 9 10 10 12 7 14 6 15
REMARK SMILES IDX 1 16 2 17 3 18 96 19 4 20 5 21 13 22 14 23 15 24 22 25 16 26
REMARK SMILES IDX 20 27 21 28 17 29 19 30 18 31 28 32 29 33 30 34 31 35 32 37
REMARK SMILES IDX 33 38 34 39 95 40 35 41 94 42 36 43 37 44 38 45 88 46 39 47
REMARK SMILES IDX 93 48 87 49 89 50 40 51 92 52 86 53 85 54 41 56 73 57 53 58
REMARK SMILES IDX 72 59 54 60 57 61 71 62 90 63 55 64 56 65 70 67 91 68 58 69
REMARK SMILES IDX 42 70 43 71 51 72 44 73 50 74 52 75 49 76 45 77 46 78 47 79
REMARK SMILES IDX 48 80 74 81 75 82 83 83 76 84 82 85 84 86 81 87 77 88 78 89
REMARK SMILES IDX 79 90 80 91 59 92 60 93 68 94 61 95 67 96 69 97 66 98 62 99
REMARK SMILES IDX 63 100 64 101 65 102
REMARK H PARENT 25 6 8 11 11 13 30 36 89 55 57 66
REMARK Flexibility Score: inf
ROOT
ATOM      1  C   UNL A   1      32.490  30.548  26.826  1.00  0.00     0.023 C 
ENDROOT
BRANCH   1   2
ATOM      2  C   UNL A   1      32.052  29.801  25.556  1.00  0.00     0.116 C 
BRANCH   2   3
ATOM      3  N   UNL A   1      33.129  29.661  24.581  1.00  0.00    -0.354 N 
ATOM      4  C   UNL A   1      33.702  28.596  23.961  1.00  0.00     0.242 C 
ATOM      5  O   UNL A   1      34.477  28.880  23.032  1.00  0.00    -0.273 OA
ATOM      6  H   UNL A   1      33.525  30.523  24.317  1.00  0.00     0.163 HD
BRANCH   4   7
ATOM      7  C   UNL A   1      33.441  27.099  24.291  1.00  0.00     0.177 C 
BRANCH   7   8
ATOM      8  N   UNL A   1      33.598  26.261  23.102  1.00  0.00    -0.326 N 
ATOM      9  N   UNL A   1      31.457  26.307  22.111  1.00  0.00    -0.334 N 
ATOM     10  C   UNL A   1      32.785  26.134  22.042  1.00  0.00     0.315 C 
ATOM     11  H   UNL A   1      31.044  26.531  21.246  1.00  0.00     0.165 HD
ATOM     12  O   UNL A   1      33.273  25.841  20.949  1.00  0.00    -0.249 OA
ATOM     13  H   UNL A   1      34.416  25.714  23.075  1.00  0.00     0.166 HD
BRANCH   9  14
ATOM     14  C   UNL A   1      30.506  26.232  23.206  1.00  0.00     0.153 C 
BRANCH  14  15
ATOM     15  C   UNL A   1      29.459  27.322  23.153  1.00  0.00    -0.028 A 
ATOM     16  C   UNL A   1      29.161  30.920  21.889  1.00  0.00     0.044 C 
ATOM     17  C   UNL A   1      28.816  29.589  22.485  1.00  0.00    -0.051 A 
ATOM     18  C   UNL A   1      27.533  29.369  22.997  1.00  0.00     0.003 A 
ATOM     19  C   UNL A   1      29.771  28.562  22.566  1.00  0.00     0.009 A 
ATOM     20  C   UNL A   1      27.202  28.138  23.557  1.00  0.00     0.001 A 
ATOM     21  C   UNL A   1      28.156  27.122  23.630  1.00  0.00     0.005 A 
ENDBRANCH  14  15
ENDBRANCH   9  14
ENDBRANCH   7   8
BRANCH   7  22
ATOM     22  C   UNL A   1      34.056  26.450  25.559  1.00  0.00     0.068 C 
BRANCH  22  23
ATOM     23  C   UNL A   1      33.472  25.160  26.007  1.00  0.00    -0.037 C 
ATOM     24  C   UNL A   1      34.022  23.960  25.848  1.00  0.00     0.001 A 
ATOM     25  C   UNL A   1      32.088  25.043  26.578  1.00  0.00     0.174 C 
ATOM     26  C   UNL A   1      35.273  23.474  25.366  1.00  0.00     0.010 A 
ATOM     27  C   UNL A   1      32.858  23.088  26.006  1.00  0.00     0.065 A 
ATOM     28  N   UNL A   1      31.770  23.600  26.482  1.00  0.00    -0.280 NA
ATOM     29  C   UNL A   1      35.344  22.208  24.925  1.00  0.00     0.001 A 
ATOM     30  C   UNL A   1      32.997  21.742  25.427  1.00  0.00     0.028 A 
ATOM     31  C   UNL A   1      34.171  21.359  24.904  1.00  0.00     0.002 A 
ENDBRANCH  22  23
ENDBRANCH   7  22
ENDBRANCH   4   7
ENDBRANCH   2   3
ENDBRANCH   1   2
BRANCH   1  32
ATOM     32  C   UNL A   1      33.850  30.141  27.416  1.00  0.00     0.023 C 
BRANCH  32  33
ATOM     33  C   UNL A   1      34.931  31.225  27.412  1.00  0.00     0.116 C 
BRANCH  33  34
ATOM     34  N   UNL A   1      35.278  31.732  28.736  1.00  0.00    -0.352 N 
ATOM     35  C   UNL A   1      36.182  31.239  29.666  1.00  0.00     0.251 C 
ATOM     36  H   UNL A   1      34.797  32.545  29.012  1.00  0.00     0.163 HD
ATOM     37  O   UNL A   1      36.324  31.786  30.747  1.00  0.00    -0.269 OA
BRANCH  35  38
ATOM     38  C   UNL A   1      37.038  30.077  29.316  1.00  0.00     0.039 A 
ATOM     39  C   UNL A   1      37.200  29.060  30.266  1.00  0.00     0.014 A 
ATOM     40  C   UNL A   1      37.763  30.037  28.131  1.00  0.00     0.014 A 
ATOM     41  C   UNL A   1      38.249  28.147  30.132  1.00  0.00     0.010 A 
ATOM     42  C   UNL A   1      38.837  29.166  28.024  1.00  0.00     0.010 A 
ATOM     43  C   UNL A   1      39.137  28.278  29.064  1.00  0.00    -0.014 A 
BRANCH  43  44
ATOM     44  C   UNL A   1      40.486  27.701  29.082  1.00  0.00     0.031 A 
ATOM     45  C   UNL A   1      40.775  26.342  28.576  1.00  0.00     0.074 A 
ATOM     46  C   UNL A   1      41.531  28.455  29.501  1.00  0.00     0.049 A 
ATOM     47  N   UNL A   1      41.762  25.618  28.988  1.00  0.00    -0.248 NA
ATOM     48  C   UNL A   1      39.955  25.666  27.581  1.00  0.00     0.031 C 
ATOM     49  C   UNL A   1      42.955  28.188  29.303  1.00  0.00     0.029 A 
ATOM     50  N   UNL A   1      41.511  29.567  30.334  1.00  0.00    -0.354 N 
ATOM     51  C   UNL A   1      41.894  24.548  28.134  1.00  0.00     0.074 A 
ATOM     52  C   UNL A   1      40.697  24.583  27.324  1.00  0.00     0.031 C 
ATOM     53  C   UNL A   1      43.667  28.942  30.156  1.00  0.00     0.029 A 
ATOM     54  C   UNL A   1      42.729  29.635  31.019  1.00  0.00     0.049 A 
ATOM     55  H   UNL A   1      40.765  30.203  30.425  1.00  0.00     0.167 HD
ATOM     56  C   UNL A   1      43.060  23.839  28.115  1.00  0.00     0.034 A 
ATOM     57  C   UNL A   1      42.754  29.658  32.380  1.00  0.00     0.034 A 
ATOM     58  C   UNL A   1      44.036  24.376  29.069  1.00  0.00     0.049 A 
ATOM     59  C   UNL A   1      43.437  28.431  32.953  1.00  0.00     0.074 A 
ATOM     60  C   UNL A   1      45.167  25.160  28.906  1.00  0.00     0.029 A 
ATOM     61  N   UNL A   1      43.779  24.338  30.437  1.00  0.00    -0.354 N 
ATOM     62  N   UNL A   1      43.721  27.361  32.262  1.00  0.00    -0.248 NA
ATOM     63  C   UNL A   1      43.844  28.308  34.348  1.00  0.00     0.031 C 
ATOM     64  C   UNL A   1      45.571  25.622  30.184  1.00  0.00     0.029 A 
ATOM     65  C   UNL A   1      44.703  25.100  31.128  1.00  0.00     0.049 A 
ATOM     66  H   UNL A   1      43.042  23.838  30.854  1.00  0.00     0.167 HD
ATOM     67  C   UNL A   1      44.309  26.419  33.070  1.00  0.00     0.074 A 
ATOM     68  C   UNL A   1      44.379  27.073  34.365  1.00  0.00     0.031 C 
ATOM     69  C   UNL A   1      44.673  25.190  32.586  1.00  0.00     0.034 A 
BRANCH  56  70
ATOM     70  C   UNL A   1      43.454  22.847  27.031  1.00  0.00     0.023 A 
ATOM     71  C   UNL A   1      42.854  21.567  27.014  1.00  0.00     0.031 A 
ATOM     72  C   UNL A   1      44.407  23.066  26.019  1.00  0.00     0.131 A 
ATOM     73  C   UNL A   1      43.281  20.558  26.130  1.00  0.00     0.055 A 
ATOM     74  C   UNL A   1      44.872  22.049  25.172  1.00  0.00     0.041 A 
ATOM     75  F   UNL A   1      44.887  24.287  25.755  1.00  0.00    -0.206 F 
ATOM     76  C   UNL A   1      44.321  20.780  25.236  1.00  0.00     0.022 A 
BRANCH  73  77
ATOM     77  S   UNL A   1      42.453  18.943  26.164  1.00  0.00     0.124 S 
ATOM     78  O   UNL A   1      42.576  18.560  27.566  1.00  0.00    -0.237 OA
ATOM     79  O   UNL A   1      41.111  19.273  25.697  1.00  0.00    -0.237 OA
ATOM     80  O   UNL A   1      43.245  18.137  25.235  1.00  0.00    -0.744 OA
ENDBRANCH  73  77
ENDBRANCH  56  70
BRANCH  57  81
ATOM     81  C   UNL A   1      41.568  30.365  32.956  1.00  0.00     0.023 A 
ATOM     82  C   UNL A   1      41.539  31.783  32.895  1.00  0.00     0.031 A 
ATOM     83  C   UNL A   1      40.353  29.694  33.155  1.00  0.00     0.131 A 
ATOM     84  C   UNL A   1      40.314  32.473  32.925  1.00  0.00     0.055 A 
ATOM     85  C   UNL A   1      39.138  30.387  33.197  1.00  0.00     0.041 A 
ATOM     86  F   UNL A   1      40.309  28.354  33.176  1.00  0.00    -0.206 F 
ATOM     87  C   UNL A   1      39.111  31.774  33.046  1.00  0.00     0.022 A 
BRANCH  84  88
ATOM     88  S   UNL A   1      40.266  34.273  32.646  1.00  0.00     0.124 S 
ATOM     89  O   UNL A   1      39.779  34.762  33.931  1.00  0.00    -0.237 OA
ATOM     90  O   UNL A   1      41.646  34.622  32.327  1.00  0.00    -0.237 OA
ATOM     91  O   UNL A   1      39.336  34.418  31.527  1.00  0.00    -0.744 OA
ENDBRANCH  84  88
ENDBRANCH  57  81
BRANCH  69  92
ATOM     92  C   UNL A   1      45.140  23.995  33.400  1.00  0.00     0.023 A 
ATOM     93  C   UNL A   1      46.442  23.850  33.901  1.00  0.00     0.031 A 
ATOM     94  C   UNL A   1      44.238  22.959  33.762  1.00  0.00     0.131 A 
ATOM     95  C   UNL A   1      46.826  22.711  34.636  1.00  0.00     0.055 A 
ATOM     96  C   UNL A   1      44.601  21.863  34.553  1.00  0.00     0.041 A 
ATOM     97  F   UNL A   1      42.954  22.966  33.376  1.00  0.00    -0.206 F 
ATOM     98  C   UNL A   1      45.908  21.724  34.983  1.00  0.00     0.022 A 
BRANCH  95  99
ATOM     99  S   UNL A   1      48.573  22.522  35.079  1.00  0.00     0.124 S 
ATOM    100  O   UNL A   1      48.580  22.961  36.472  1.00  0.00    -0.237 OA
ATOM    101  O   UNL A   1      48.799  21.097  34.863  1.00  0.00    -0.237 OA
ATOM    102  O   UNL A   1      49.265  23.409  34.146  1.00  0.00    -0.744 OA
ENDBRANCH  95  99
ENDBRANCH  69  92
ENDBRANCH  43  44
ENDBRANCH  35  38
ENDBRANCH  33  34
ENDBRANCH  32  33
ENDBRANCH   1  32
TORSDOF 19
ENDMDL
MODEL 2
REMARK VINA RESULT:     -13.5      2.219      3.805
REMARK SMILES Cc1cccc(CNC(=O)N[C@@H](CC2=c3ccccc3=NC2)C(=O)NCCCCNC(=O)c2ccc(-c3c4nc(c(-c5cc(S(=O)(=O)[O-])ccc5F)c5ccc([nH]5)c(-c5cc(S(=O)(=O)[O-])ccc5F)c5nc(c(-c6cc(S(=O)(=O)[O-])ccc6F)c6ccc3[nH]6)C=C5)C=C4)cc2)c1
REMARK SMILES IDX 27 1 26 2 25 3 23 4 24 5 12 7 11 8 8 9 9 10 10 12 7 14 6 15
REMARK SMILES IDX 1 16 2 17 3 18 96 19 4 20 5 21 13 22 14 23 15 24 22 25 16 26
REMARK SMILES IDX 20 27 21 28 17 29 19 30 18 31 28 32 29 33 30 34 31 35 32 37
REMARK SMILES IDX 33 38 34 39 95 40 35 41 94 42 36 43 37 44 38 45 88 46 39 47
REMARK SMILES IDX 93 48 87 49 89 50 40 51 92 52 86 53 85 54 41 56 73 57 53 58
REMARK SMILES IDX 72 59 54 60 57 61 71 62 90 63 55 64 56 65 70 67 91 68 58 69
REMARK SMILES IDX 42 70 43 71 51 72 44 73 50 74 52 75 49 76 45 77 46 78 47 79
REMARK SMILES IDX 48 80 74 81 75 82 83 83 76 84 82 85 84 86 81 87 77 88 78 89
REMARK SMILES IDX 79 90 80 91 59 92 60 93 68 94 61 95 67 96 69 97 66 98 62 99
REMARK SMILES IDX 63 100 64 101 65 102
REMARK H PARENT 25 6 8 11 11 13 30 36 89 55 57 66
REMARK Flexibility Score: inf
ROOT
ATOM      1  C   UNL A   1      32.253  31.101  26.414  1.00  0.00     0.023 C 
ENDROOT
BRANCH   1   2
ATOM      2  C   UNL A   1      32.515  30.180  25.211  1.00  0.00     0.116 C 
BRANCH   2   3
ATOM      3  N   UNL A   1      31.342  30.011  24.359  1.00  0.00    -0.354 N 
ATOM      4  C   UNL A   1      30.600  28.935  23.984  1.00  0.00     0.242 C 
ATOM      5  O   UNL A   1      29.541  29.204  23.393  1.00  0.00    -0.273 OA
ATOM      6  H   UNL A   1      31.021  30.857  23.972  1.00  0.00     0.163 HD
BRANCH   4   7
ATOM      7  C   UNL A   1      30.947  27.445  24.264  1.00  0.00     0.177 C 
BRANCH   7   8
ATOM      8  N   UNL A   1      30.792  27.124  25.682  1.00  0.00    -0.326 N 
ATOM      9  N   UNL A   1      33.015  26.898  26.441  1.00  0.00    -0.334 N 
ATOM     10  C   UNL A   1      31.713  27.133  26.659  1.00  0.00     0.315 C 
ATOM     11  H   UNL A   1      33.603  27.271  27.137  1.00  0.00     0.165 HD
ATOM     12  O   UNL A   1      31.353  27.364  27.814  1.00  0.00    -0.249 OA
ATOM     13  H   UNL A   1      29.884  26.866  25.960  1.00  0.00     0.166 HD
BRANCH   9  14
ATOM     14  C   UNL A   1      33.731  26.207  25.385  1.00  0.00     0.153 C 
BRANCH  14  15
ATOM     15  C   UNL A   1      34.176  24.817  25.785  1.00  0.00    -0.028 A 
ATOM     16  C   UNL A   1      37.274  22.605  25.410  1.00  0.00     0.044 C 
ATOM     17  C   UNL A   1      35.914  23.092  25.810  1.00  0.00    -0.051 A 
ATOM     18  C   UNL A   1      35.063  22.255  26.540  1.00  0.00     0.003 A 
ATOM     19  C   UNL A   1      35.463  24.370  25.438  1.00  0.00     0.009 A 
ATOM     20  C   UNL A   1      33.796  22.694  26.912  1.00  0.00     0.001 A 
ATOM     21  C   UNL A   1      33.359  23.967  26.542  1.00  0.00     0.005 A 
ENDBRANCH  14  15
ENDBRANCH   9  14
ENDBRANCH   7   8
BRANCH   7  22
ATOM     22  C   UNL A   1      30.410  26.322  23.338  1.00  0.00     0.068 C 
BRANCH  22  23
ATOM     23  C   UNL A   1      31.413  25.556  22.555  1.00  0.00    -0.037 C 
ATOM     24  C   UNL A   1      31.701  24.267  22.708  1.00  0.00     0.001 A 
ATOM     25  C   UNL A   1      32.346  26.201  21.570  1.00  0.00     0.174 C 
ATOM     26  C   UNL A   1      31.170  23.195  23.483  1.00  0.00     0.010 A 
ATOM     27  C   UNL A   1      33.017  24.191  22.074  1.00  0.00     0.065 A 
ATOM     28  N   UNL A   1      33.412  25.194  21.359  1.00  0.00    -0.280 NA
ATOM     29  C   UNL A   1      31.956  22.138  23.742  1.00  0.00     0.001 A 
ATOM     30  C   UNL A   1      33.841  23.039  22.474  1.00  0.00     0.028 A 
ATOM     31  C   UNL A   1      33.327  22.098  23.278  1.00  0.00     0.002 A 
ENDBRANCH  22  23
ENDBRANCH   7  22
ENDBRANCH   4   7
ENDBRANCH   2   3
ENDBRANCH   1   2
BRANCH   1  32
ATOM     32  C   UNL A   1      33.161  30.891  27.636  1.00  0.00     0.023 C 
BRANCH  32  33
ATOM     33  C   UNL A   1      34.236  31.958  27.860  1.00  0.00     0.116 C 
BRANCH  33  34
ATOM     34  N   UNL A   1      34.510  32.248  29.264  1.00  0.00    -0.352 N 
ATOM     35  C   UNL A   1      35.390  31.630  30.142  1.00  0.00     0.251 C 
ATOM     36  H   UNL A   1      33.993  32.993  29.646  1.00  0.00     0.163 HD
ATOM     37  O   UNL A   1      35.469  31.995  31.303  1.00  0.00    -0.269 OA
BRANCH  35  38
ATOM     38  C   UNL A   1      36.295  30.563  29.647  1.00  0.00     0.039 A 
ATOM     39  C   UNL A   1      36.657  29.536  30.529  1.00  0.00     0.014 A 
ATOM     40  C   UNL A   1      36.874  30.625  28.385  1.00  0.00     0.014 A 
ATOM     41  C   UNL A   1      37.758  28.727  30.237  1.00  0.00     0.010 A 
ATOM     42  C   UNL A   1      37.998  29.859  28.119  1.00  0.00     0.010 A 
ATOM     43  C   UNL A   1      38.497  28.970  29.079  1.00  0.00    -0.014 A 
BRANCH  43  44
ATOM     44  C   UNL A   1      39.883  28.519  28.916  1.00  0.00     0.031 A 
ATOM     45  C   UNL A   1      40.227  27.127  28.553  1.00  0.00     0.074 A 
ATOM     46  C   UNL A   1      40.896  29.413  29.021  1.00  0.00     0.049 A 
ATOM     47  N   UNL A   1      41.346  26.560  28.861  1.00  0.00    -0.248 NA
ATOM     48  C   UNL A   1      39.324  26.240  27.832  1.00  0.00     0.031 C 
ATOM     49  C   UNL A   1      42.283  29.239  28.592  1.00  0.00     0.029 A 
ATOM     50  N   UNL A   1      40.900  30.634  29.685  1.00  0.00    -0.354 N 
ATOM     51  C   UNL A   1      41.442  25.387  28.151  1.00  0.00     0.074 A 
ATOM     52  C   UNL A   1      40.125  25.197  27.588  1.00  0.00     0.031 C 
ATOM     53  C   UNL A   1      43.047  30.172  29.184  1.00  0.00     0.029 A 
ATOM     54  C   UNL A   1      42.205  30.907  30.109  1.00  0.00     0.049 A 
ATOM     55  H   UNL A   1      40.116  31.211  29.831  1.00  0.00     0.167 HD
ATOM     56  C   UNL A   1      42.658  24.784  28.004  1.00  0.00     0.034 A 
ATOM     57  C   UNL A   1      42.469  31.141  31.425  1.00  0.00     0.034 A 
ATOM     58  C   UNL A   1      43.722  25.541  28.673  1.00  0.00     0.049 A 
ATOM     59  C   UNL A   1      43.374  30.078  32.017  1.00  0.00     0.074 A 
ATOM     60  C   UNL A   1      44.712  26.383  28.192  1.00  0.00     0.029 A 
ATOM     61  N   UNL A   1      43.717  25.691  30.057  1.00  0.00    -0.354 N 
ATOM     62  N   UNL A   1      43.648  28.942  31.435  1.00  0.00    -0.248 NA
ATOM     63  C   UNL A   1      44.033  30.205  33.312  1.00  0.00     0.031 C 
ATOM     64  C   UNL A   1      45.282  27.068  29.295  1.00  0.00     0.029 A 
ATOM     65  C   UNL A   1      44.659  26.625  30.449  1.00  0.00     0.049 A 
ATOM     66  H   UNL A   1      43.126  25.201  30.671  1.00  0.00     0.167 HD
ATOM     67  C   UNL A   1      44.470  28.188  32.235  1.00  0.00     0.074 A 
ATOM     68  C   UNL A   1      44.696  29.036  33.392  1.00  0.00     0.031 C 
ATOM     69  C   UNL A   1      44.877  26.935  31.860  1.00  0.00     0.034 A 
BRANCH  56  70
ATOM     70  C   UNL A   1      42.961  23.674  27.009  1.00  0.00     0.023 A 
ATOM     71  C   UNL A   1      42.284  22.439  27.123  1.00  0.00     0.031 A 
ATOM     72  C   UNL A   1      43.899  23.739  25.962  1.00  0.00     0.131 A 
ATOM     73  C   UNL A   1      42.624  21.328  26.327  1.00  0.00     0.055 A 
ATOM     74  C   UNL A   1      44.279  22.622  25.203  1.00  0.00     0.041 A 
ATOM     75  F   UNL A   1      44.447  24.898  25.576  1.00  0.00    -0.206 F 
ATOM     76  C   UNL A   1      43.652  21.401  25.395  1.00  0.00     0.022 A 
BRANCH  73  77
ATOM     77  S   UNL A   1      41.700  19.779  26.527  1.00  0.00     0.124 S 
ATOM     78  O   UNL A   1      42.010  19.408  27.904  1.00  0.00    -0.237 OA
ATOM     79  O   UNL A   1      40.329  20.200  26.263  1.00  0.00    -0.237 OA
ATOM     80  O   UNL A   1      42.281  18.904  25.510  1.00  0.00    -0.744 OA
ENDBRANCH  73  77
ENDBRANCH  56  70
BRANCH  57  81
ATOM     81  C   UNL A   1      41.332  31.826  32.116  1.00  0.00     0.023 A 
ATOM     82  C   UNL A   1      40.421  31.029  32.858  1.00  0.00     0.031 A 
ATOM     83  C   UNL A   1      41.379  33.199  32.397  1.00  0.00     0.131 A 
ATOM     84  C   UNL A   1      39.676  31.590  33.909  1.00  0.00     0.055 A 
ATOM     85  C   UNL A   1      40.626  33.754  33.438  1.00  0.00     0.041 A 
ATOM     86  F   UNL A   1      42.251  33.996  31.762  1.00  0.00    -0.206 F 
ATOM     87  C   UNL A   1      39.800  32.946  34.220  1.00  0.00     0.022 A 
BRANCH  84  88
ATOM     88  S   UNL A   1      38.661  30.526  34.986  1.00  0.00     0.124 S 
ATOM     89  O   UNL A   1      39.638  30.081  35.974  1.00  0.00    -0.237 OA
ATOM     90  O   UNL A   1      37.622  31.416  35.492  1.00  0.00    -0.237 OA
ATOM     91  O   UNL A   1      38.173  29.491  34.077  1.00  0.00    -0.744 OA
ENDBRANCH  84  88
ENDBRANCH  57  81
BRANCH  69  92
ATOM     92  C   UNL A   1      45.611  25.922  32.724  1.00  0.00     0.023 A 
ATOM     93  C   UNL A   1      44.974  24.894  33.434  1.00  0.00     0.031 A 
ATOM     94  C   UNL A   1      47.028  25.924  32.810  1.00  0.00     0.131 A 
ATOM     95  C   UNL A   1      45.703  23.992  34.235  1.00  0.00     0.055 A 
ATOM     96  C   UNL A   1      47.757  24.984  33.548  1.00  0.00     0.041 A 
ATOM     97  F   UNL A   1      47.779  26.832  32.171  1.00  0.00    -0.206 F 
ATOM     98  C   UNL A   1      47.093  24.017  34.281  1.00  0.00     0.022 A 
BRANCH  95  99
ATOM     99  S   UNL A   1      44.781  22.817  35.263  1.00  0.00     0.124 S 
ATOM    100  O   UNL A   1      43.617  22.536  34.428  1.00  0.00    -0.237 OA
ATOM    101  O   UNL A   1      45.732  21.721  35.415  1.00  0.00    -0.237 OA
ATOM    102  O   UNL A   1      44.501  23.571  36.484  1.00  0.00    -0.744 OA
ENDBRANCH  95  99
ENDBRANCH  69  92
ENDBRANCH  43  44
ENDBRANCH  35  38
ENDBRANCH  33  34
ENDBRANCH  32  33
ENDBRANCH   1  32
TORSDOF 19
ENDMDL
MODEL 3
REMARK VINA RESULT:     -13.4      1.334      3.182
REMARK SMILES Cc1cccc(CNC(=O)N[C@@H](CC2=c3ccccc3=NC2)C(=O)NCCCCNC(=O)c2ccc(-c3c4nc(c(-c5cc(S(=O)(=O)[O-])ccc5F)c5ccc([nH]5)c(-c5cc(S(=O)(=O)[O-])ccc5F)c5nc(c(-c6cc(S(=O)(=O)[O-])ccc6F)c6ccc3[nH]6)C=C5)C=C4)cc2)c1
REMARK SMILES IDX 27 1 26 2 25 3 23 4 24 5 12 7 11 8 8 9 9 10 10 12 7 14 6 15
REMARK SMILES IDX 1 16 2 17 3 18 96 19 4 20 5 21 13 22 14 23 15 24 22 25 16 26
REMARK SMILES IDX 20 27 21 28 17 29 19 30 18 31 28 32 29 33 30 34 31 35 32 37
REMARK SMILES IDX 33 38 34 39 95 40 35 41 94 42 36 43 37 44 38 45 88 46 39 47
REMARK SMILES IDX 93 48 87 49 89 50 40 51 92 52 86 53 85 54 41 56 73 57 53 58
REMARK SMILES IDX 72 59 54 60 57 61 71 62 90 63 55 64 56 65 70 67 91 68 58 69
REMARK SMILES IDX 42 70 43 71 51 72 44 73 50 74 52 75 49 76 45 77 46 78 47 79
REMARK SMILES IDX 48 80 74 81 75 82 83 83 76 84 82 85 84 86 81 87 77 88 78 89
REMARK SMILES IDX 79 90 80 91 59 92 60 93 68 94 61 95 67 96 69 97 66 98 62 99
REMARK SMILES IDX 63 100 64 101 65 102
REMARK H PARENT 25 6 8 11 11 13 30 36 89 55 57 66
REMARK Flexibility Score: inf
ROOT
ATOM      1  C   UNL A   1      33.165  30.678  26.784  1.00  0.00     0.023 C 
ENDROOT
BRANCH   1   2
ATOM      2  C   UNL A   1      33.140  29.799  25.524  1.00  0.00     0.116 C 
BRANCH   2   3
ATOM      3  N   UNL A   1      31.950  30.011  24.707  1.00  0.00    -0.354 N 
ATOM      4  C   UNL A   1      31.021  29.180  24.165  1.00  0.00     0.242 C 
ATOM      5  O   UNL A   1      30.024  29.744  23.683  1.00  0.00    -0.273 OA
ATOM      6  H   UNL A   1      31.786  30.961  24.503  1.00  0.00     0.163 HD
BRANCH   4   7
ATOM      7  C   UNL A   1      31.091  27.627  24.140  1.00  0.00     0.177 C 
BRANCH   7   8
ATOM      8  N   UNL A   1      30.718  27.060  25.435  1.00  0.00    -0.326 N 
ATOM      9  N   UNL A   1      32.798  26.626  26.464  1.00  0.00    -0.334 N 
ATOM     10  C   UNL A   1      31.479  26.861  26.523  1.00  0.00     0.315 C 
ATOM     11  H   UNL A   1      33.276  26.847  27.296  1.00  0.00     0.165 HD
ATOM     12  O   UNL A   1      30.948  26.892  27.634  1.00  0.00    -0.249 OA
ATOM     13  H   UNL A   1      29.777  26.786  25.522  1.00  0.00     0.166 HD
BRANCH   9  14
ATOM     14  C   UNL A   1      33.664  26.114  25.417  1.00  0.00     0.153 C 
BRANCH  14  15
ATOM     15  C   UNL A   1      34.228  24.746  25.735  1.00  0.00    -0.028 A 
ATOM     16  C   UNL A   1      37.335  22.684  24.883  1.00  0.00     0.044 C 
ATOM     17  C   UNL A   1      36.028  23.105  25.485  1.00  0.00    -0.051 A 
ATOM     18  C   UNL A   1      35.337  22.228  26.328  1.00  0.00     0.003 A 
ATOM     19  C   UNL A   1      35.468  24.360  25.196  1.00  0.00     0.009 A 
ATOM     20  C   UNL A   1      34.121  22.607  26.889  1.00  0.00     0.001 A 
ATOM     21  C   UNL A   1      33.574  23.858  26.599  1.00  0.00     0.005 A 
ENDBRANCH  14  15
ENDBRANCH   9  14
ENDBRANCH   7   8
BRANCH   7  22
ATOM     22  C   UNL A   1      30.496  26.828  22.950  1.00  0.00     0.068 C 
BRANCH  22  23
ATOM     23  C   UNL A   1      31.403  25.884  22.250  1.00  0.00    -0.037 C 
ATOM     24  C   UNL A   1      31.570  24.599  22.549  1.00  0.00     0.001 A 
ATOM     25  C   UNL A   1      32.373  26.317  21.188  1.00  0.00     0.174 C 
ATOM     26  C   UNL A   1      30.954  23.679  23.449  1.00  0.00     0.010 A 
ATOM     27  C   UNL A   1      32.858  24.322  21.915  1.00  0.00     0.065 A 
ATOM     28  N   UNL A   1      33.332  25.193  21.085  1.00  0.00    -0.280 NA
ATOM     29  C   UNL A   1      31.641  22.587  23.821  1.00  0.00     0.001 A 
ATOM     30  C   UNL A   1      33.576  23.148  22.438  1.00  0.00     0.028 A 
ATOM     31  C   UNL A   1      32.991  22.360  23.351  1.00  0.00     0.002 A 
ENDBRANCH  22  23
ENDBRANCH   7  22
ENDBRANCH   4   7
ENDBRANCH   2   3
ENDBRANCH   1   2
BRANCH   1  32
ATOM     32  C   UNL A   1      34.401  30.531  27.687  1.00  0.00     0.023 C 
BRANCH  32  33
ATOM     33  C   UNL A   1      35.188  31.816  27.957  1.00  0.00     0.116 C 
BRANCH  33  34
ATOM     34  N   UNL A   1      35.461  32.066  29.369  1.00  0.00    -0.352 N 
ATOM     35  C   UNL A   1      36.294  31.386  30.246  1.00  0.00     0.251 C 
ATOM     36  H   UNL A   1      34.981  32.832  29.758  1.00  0.00     0.163 HD
ATOM     37  O   UNL A   1      36.379  31.726  31.414  1.00  0.00    -0.269 OA
BRANCH  35  38
ATOM     38  C   UNL A   1      37.145  30.278  29.742  1.00  0.00     0.039 A 
ATOM     39  C   UNL A   1      37.229  29.105  30.504  1.00  0.00     0.014 A 
ATOM     40  C   UNL A   1      37.938  30.425  28.610  1.00  0.00     0.014 A 
ATOM     41  C   UNL A   1      38.264  28.198  30.268  1.00  0.00     0.010 A 
ATOM     42  C   UNL A   1      38.997  29.553  28.410  1.00  0.00     0.010 A 
ATOM     43  C   UNL A   1      39.217  28.487  29.290  1.00  0.00    -0.014 A 
BRANCH  43  44
ATOM     44  C   UNL A   1      40.550  27.875  29.280  1.00  0.00     0.031 A 
ATOM     45  C   UNL A   1      40.795  26.515  28.751  1.00  0.00     0.074 A 
ATOM     46  C   UNL A   1      41.621  28.595  29.692  1.00  0.00     0.049 A 
ATOM     47  N   UNL A   1      41.769  25.760  29.137  1.00  0.00    -0.248 NA
ATOM     48  C   UNL A   1      39.943  25.876  27.759  1.00  0.00     0.031 C 
ATOM     49  C   UNL A   1      43.035  28.293  29.468  1.00  0.00     0.029 A 
ATOM     50  N   UNL A   1      41.643  29.695  30.540  1.00  0.00    -0.354 N 
ATOM     51  C   UNL A   1      41.859  24.699  28.267  1.00  0.00     0.074 A 
ATOM     52  C   UNL A   1      40.651  24.777  27.476  1.00  0.00     0.031 C 
ATOM     53  C   UNL A   1      43.779  29.015  30.320  1.00  0.00     0.029 A 
ATOM     54  C   UNL A   1      42.873  29.720  31.207  1.00  0.00     0.049 A 
ATOM     55  H   UNL A   1      40.916  30.348  30.652  1.00  0.00     0.167 HD
ATOM     56  C   UNL A   1      43.005  23.959  28.219  1.00  0.00     0.034 A 
ATOM     57  C   UNL A   1      42.920  29.724  32.568  1.00  0.00     0.034 A 
ATOM     58  C   UNL A   1      44.009  24.457  29.166  1.00  0.00     0.049 A 
ATOM     59  C   UNL A   1      43.578  28.471  33.114  1.00  0.00     0.074 A 
ATOM     60  C   UNL A   1      45.159  25.213  28.996  1.00  0.00     0.029 A 
ATOM     61  N   UNL A   1      43.772  24.407  30.537  1.00  0.00    -0.354 N 
ATOM     62  N   UNL A   1      43.823  27.404  32.404  1.00  0.00    -0.248 NA
ATOM     63  C   UNL A   1      44.003  28.318  34.501  1.00  0.00     0.031 C 
ATOM     64  C   UNL A   1      45.594  25.646  30.274  1.00  0.00     0.029 A 
ATOM     65  C   UNL A   1      44.727  25.134  31.224  1.00  0.00     0.049 A 
ATOM     66  H   UNL A   1      43.029  23.920  30.958  1.00  0.00     0.167 HD
ATOM     67  C   UNL A   1      44.397  26.436  33.189  1.00  0.00     0.074 A 
ATOM     68  C   UNL A   1      44.505  27.069  34.493  1.00  0.00     0.031 C 
ATOM     69  C   UNL A   1      44.721  25.205  32.683  1.00  0.00     0.034 A 
BRANCH  56  70
ATOM     70  C   UNL A   1      43.356  22.973  27.117  1.00  0.00     0.023 A 
ATOM     71  C   UNL A   1      42.764  21.688  27.124  1.00  0.00     0.031 A 
ATOM     72  C   UNL A   1      44.260  23.201  26.063  1.00  0.00     0.131 A 
ATOM     73  C   UNL A   1      43.157  20.685  26.218  1.00  0.00     0.055 A 
ATOM     74  C   UNL A   1      44.694  22.189  25.193  1.00  0.00     0.041 A 
ATOM     75  F   UNL A   1      44.720  24.426  25.780  1.00  0.00    -0.206 F 
ATOM     76  C   UNL A   1      44.154  20.916  25.278  1.00  0.00     0.022 A 
BRANCH  73  77
ATOM     77  S   UNL A   1      42.343  19.064  26.285  1.00  0.00     0.124 S 
ATOM     78  O   UNL A   1      42.511  18.690  27.686  1.00  0.00    -0.237 OA
ATOM     79  O   UNL A   1      40.986  19.381  25.856  1.00  0.00    -0.237 OA
ATOM     80  O   UNL A   1      43.114  18.258  25.339  1.00  0.00    -0.744 OA
ENDBRANCH  73  77
ENDBRANCH  56  70
BRANCH  57  81
ATOM     81  C   UNL A   1      41.762  30.454  33.172  1.00  0.00     0.023 A 
ATOM     82  C   UNL A   1      41.766  31.873  33.124  1.00  0.00     0.031 A 
ATOM     83  C   UNL A   1      40.535  29.811  33.387  1.00  0.00     0.131 A 
ATOM     84  C   UNL A   1      40.559  32.591  33.184  1.00  0.00     0.055 A 
ATOM     85  C   UNL A   1      39.337  30.532  33.457  1.00  0.00     0.041 A 
ATOM     86  F   UNL A   1      40.458  28.472  33.396  1.00  0.00    -0.206 F 
ATOM     87  C   UNL A   1      39.342  31.921  33.320  1.00  0.00     0.022 A 
BRANCH  84  88
ATOM     88  S   UNL A   1      40.551  34.395  32.922  1.00  0.00     0.124 S 
ATOM     89  O   UNL A   1      39.149  34.644  32.603  1.00  0.00    -0.237 OA
ATOM     90  O   UNL A   1      41.009  34.943  34.193  1.00  0.00    -0.237 OA
ATOM     91  O   UNL A   1      41.488  34.581  31.815  1.00  0.00    -0.744 OA
ENDBRANCH  84  88
ENDBRANCH  57  81
BRANCH  69  92
ATOM     92  C   UNL A   1      45.168  23.986  33.474  1.00  0.00     0.023 A 
ATOM     93  C   UNL A   1      46.472  23.802  33.958  1.00  0.00     0.031 A 
ATOM     94  C   UNL A   1      44.246  22.966  33.830  1.00  0.00     0.131 A 
ATOM     95  C   UNL A   1      46.836  22.643  34.670  1.00  0.00     0.055 A 
ATOM     96  C   UNL A   1      44.591  21.849  34.599  1.00  0.00     0.041 A 
ATOM     97  F   UNL A   1      42.959  23.009  33.458  1.00  0.00    -0.206 F 
ATOM     98  C   UNL A   1      45.900  21.673  35.013  1.00  0.00     0.022 A 
BRANCH  95  99
ATOM     99  S   UNL A   1      48.584  22.406  35.091  1.00  0.00     0.124 S 
ATOM    100  O   UNL A   1      48.688  23.124  36.358  1.00  0.00    -0.237 OA
ATOM    101  O   UNL A   1      48.691  20.953  35.175  1.00  0.00    -0.237 OA
ATOM    102  O   UNL A   1      49.296  23.018  33.971  1.00  0.00    -0.744 OA
ENDBRANCH  95  99
ENDBRANCH  69  92
ENDBRANCH  43  44
ENDBRANCH  35  38
ENDBRANCH  33  34
ENDBRANCH  32  33
ENDBRANCH   1  32
TORSDOF 19
ENDMDL
