MODEL 1
REMARK VINA RESULT:     -13.1      0.000      0.000
REMARK SMILES O=C(NCCCCNC(=O)c1ccccc1/C=C1\SC(=S)N(Cc2ccccc2)C1=O)c1ccc(-c2c3nc(c(-c4cc(S(=O)(=O)[O-])ccc4F)c4ccc([nH]4)c(-c4cc(S(=O)(=O)[O-])ccc4F)c4nc(c(-c5cc(S(=O)(=O)[O-])ccc5F)c5ccc2[nH]5)C=C4)C=C3)cc1
REMARK SMILES IDX 5 1 4 2 3 3 1 4 2 5 32 7 33 8 94 9 34 10 93 11 35 12 36 13
REMARK SMILES IDX 37 14 87 15 38 16 92 17 86 18 88 19 39 20 91 21 85 22 84 23
REMARK SMILES IDX 40 25 72 26 52 27 71 28 53 29 56 30 70 31 89 32 54 33 55 34
REMARK SMILES IDX 69 36 90 37 57 38 41 39 42 40 50 41 43 42 49 43 51 44 48 45
REMARK SMILES IDX 44 46 45 47 46 48 47 49 73 50 74 51 82 52 75 53 81 54 83 55
REMARK SMILES IDX 80 56 76 57 77 58 78 59 79 60 58 61 59 62 67 63 60 64 66 65
REMARK SMILES IDX 68 66 65 67 61 68 62 69 63 70 64 71 6 72 7 73 8 74 9 75
REMARK SMILES IDX 10 77 11 78 12 79 16 80 13 81 15 82 14 83 17 84 18 85 19 86
REMARK SMILES IDX 30 87 20 88 22 89 31 90 21 91 23 92 24 93 25 94 29 95 26 96
REMARK SMILES IDX 28 97 27 98
REMARK H PARENT 3 6 88 24 56 35 8 76
REMARK Flexibility Score: inf
ROOT
ATOM      1  C   UNL A   1      35.264  21.785  26.150  1.00  0.00     0.023 C 
ENDROOT
BRANCH   1   2
ATOM      2  C   UNL A   1      36.526  22.080  25.345  1.00  0.00     0.116 C 
BRANCH   2   3
ATOM      3  N   UNL A   1      37.534  21.033  25.446  1.00  0.00    -0.352 N 
ATOM      4  O   UNL A   1      39.570  20.119  25.787  1.00  0.00    -0.269 OA
ATOM      5  C   UNL A   1      38.835  21.097  25.895  1.00  0.00     0.251 C 
ATOM      6  H   UNL A   1      37.241  20.142  25.147  1.00  0.00     0.163 HD
BRANCH   5   7
ATOM      7  C   UNL A   1      39.357  22.354  26.479  1.00  0.00     0.039 A 
ATOM      8  C   UNL A   1      38.795  23.584  26.140  1.00  0.00     0.014 A 
ATOM      9  C   UNL A   1      40.440  22.302  27.362  1.00  0.00     0.014 A 
ATOM     10  C   UNL A   1      39.433  24.761  26.517  1.00  0.00     0.010 A 
ATOM     11  C   UNL A   1      41.021  23.490  27.822  1.00  0.00     0.010 A 
ATOM     12  C   UNL A   1      40.561  24.731  27.356  1.00  0.00    -0.014 A 
BRANCH  12  13
ATOM     13  C   UNL A   1      41.235  26.010  27.715  1.00  0.00     0.031 A 
ATOM     14  C   UNL A   1      42.598  26.350  27.165  1.00  0.00     0.074 A 
ATOM     15  C   UNL A   1      40.585  26.898  28.495  1.00  0.00     0.049 A 
ATOM     16  N   UNL A   1      43.309  27.437  27.332  1.00  0.00    -0.248 NA
ATOM     17  C   UNL A   1      43.252  25.331  26.331  1.00  0.00     0.031 C 
ATOM     18  C   UNL A   1      39.265  26.683  29.092  1.00  0.00     0.029 A 
ATOM     19  N   UNL A   1      40.928  28.163  28.897  1.00  0.00    -0.354 N 
ATOM     20  C   UNL A   1      44.502  27.226  26.647  1.00  0.00     0.074 A 
ATOM     21  C   UNL A   1      44.430  25.889  26.093  1.00  0.00     0.031 C 
ATOM     22  C   UNL A   1      38.884  27.799  29.731  1.00  0.00     0.029 A 
ATOM     23  C   UNL A   1      39.957  28.785  29.648  1.00  0.00     0.049 A 
ATOM     24  H   UNL A   1      41.787  28.588  28.670  1.00  0.00     0.167 HD
ATOM     25  C   UNL A   1      45.555  28.068  26.488  1.00  0.00     0.034 A 
ATOM     26  C   UNL A   1      39.930  30.007  30.214  1.00  0.00     0.034 A 
ATOM     27  C   UNL A   1      45.606  29.406  27.031  1.00  0.00     0.049 A 
ATOM     28  C   UNL A   1      41.113  30.918  30.032  1.00  0.00     0.074 A 
ATOM     29  C   UNL A   1      46.606  30.355  26.898  1.00  0.00     0.029 A 
ATOM     30  N   UNL A   1      44.617  29.987  27.816  1.00  0.00    -0.354 N 
ATOM     31  N   UNL A   1      42.226  30.706  29.366  1.00  0.00    -0.248 NA
ATOM     32  C   UNL A   1      41.033  32.236  30.672  1.00  0.00     0.031 C 
ATOM     33  C   UNL A   1      46.252  31.481  27.652  1.00  0.00     0.029 A 
ATOM     34  C   UNL A   1      44.996  31.267  28.195  1.00  0.00     0.049 A 
ATOM     35  H   UNL A   1      43.769  29.553  28.066  1.00  0.00     0.167 HD
ATOM     36  C   UNL A   1      42.966  31.878  29.486  1.00  0.00     0.074 A 
ATOM     37  C   UNL A   1      42.166  32.796  30.271  1.00  0.00     0.031 C 
ATOM     38  C   UNL A   1      44.195  32.170  28.990  1.00  0.00     0.034 A 
BRANCH  25  39
ATOM     39  C   UNL A   1      46.758  27.547  25.734  1.00  0.00     0.023 A 
ATOM     40  C   UNL A   1      47.041  27.940  24.414  1.00  0.00     0.031 A 
ATOM     41  C   UNL A   1      47.627  26.622  26.341  1.00  0.00     0.131 A 
ATOM     42  C   UNL A   1      48.113  27.356  23.721  1.00  0.00     0.055 A 
ATOM     43  C   UNL A   1      48.739  26.104  25.674  1.00  0.00     0.041 A 
ATOM     44  F   UNL A   1      47.401  26.192  27.594  1.00  0.00    -0.206 F 
ATOM     45  C   UNL A   1      48.979  26.458  24.350  1.00  0.00     0.022 A 
BRANCH  42  46
ATOM     46  S   UNL A   1      48.274  27.673  21.942  1.00  0.00     0.124 S 
ATOM     47  O   UNL A   1      49.409  28.592  21.904  1.00  0.00    -0.237 OA
ATOM     48  O   UNL A   1      48.515  26.339  21.405  1.00  0.00    -0.237 OA
ATOM     49  O   UNL A   1      46.988  28.269  21.582  1.00  0.00    -0.744 OA
ENDBRANCH  42  46
ENDBRANCH  25  39
BRANCH  26  50
ATOM     50  C   UNL A   1      38.751  30.436  31.018  1.00  0.00     0.023 A 
ATOM     51  C   UNL A   1      37.672  31.106  30.421  1.00  0.00     0.031 A 
ATOM     52  C   UNL A   1      38.701  30.203  32.403  1.00  0.00     0.131 A 
ATOM     53  C   UNL A   1      36.606  31.557  31.214  1.00  0.00     0.055 A 
ATOM     54  C   UNL A   1      37.613  30.606  33.179  1.00  0.00     0.041 A 
ATOM     55  F   UNL A   1      39.704  29.561  33.022  1.00  0.00    -0.206 F 
ATOM     56  C   UNL A   1      36.563  31.300  32.586  1.00  0.00     0.022 A 
BRANCH  53  57
ATOM     57  S   UNL A   1      35.307  32.554  30.436  1.00  0.00     0.124 S 
ATOM     58  O   UNL A   1      34.950  31.733  29.284  1.00  0.00    -0.237 OA
ATOM     59  O   UNL A   1      34.311  32.635  31.500  1.00  0.00    -0.237 OA
ATOM     60  O   UNL A   1      35.984  33.811  30.122  1.00  0.00    -0.744 OA
ENDBRANCH  53  57
ENDBRANCH  26  50
BRANCH  38  61
ATOM     61  C   UNL A   1      44.718  33.562  29.246  1.00  0.00     0.023 A 
ATOM     62  C   UNL A   1      44.375  34.648  28.420  1.00  0.00     0.031 A 
ATOM     63  C   UNL A   1      45.605  33.797  30.312  1.00  0.00     0.131 A 
ATOM     64  C   UNL A   1      44.968  35.901  28.631  1.00  0.00     0.055 A 
ATOM     65  C   UNL A   1      46.143  35.061  30.554  1.00  0.00     0.041 A 
ATOM     66  F   UNL A   1      45.968  32.797  31.131  1.00  0.00    -0.206 F 
ATOM     67  C   UNL A   1      45.840  36.119  29.702  1.00  0.00     0.022 A 
BRANCH  64  68
ATOM     68  S   UNL A   1      44.673  37.220  27.420  1.00  0.00     0.124 S 
ATOM     69  O   UNL A   1      44.519  38.391  28.278  1.00  0.00    -0.237 OA
ATOM     70  O   UNL A   1      45.887  37.177  26.611  1.00  0.00    -0.237 OA
ATOM     71  O   UNL A   1      43.456  36.790  26.735  1.00  0.00    -0.744 OA
ENDBRANCH  64  68
ENDBRANCH  38  61
ENDBRANCH  12  13
ENDBRANCH   5   7
ENDBRANCH   2   3
ENDBRANCH   1   2
BRANCH   1  72
ATOM     72  C   UNL A   1      34.735  22.935  27.009  1.00  0.00     0.023 C 
BRANCH  72  73
ATOM     73  C   UNL A   1      33.665  23.800  26.354  1.00  0.00     0.116 C 
BRANCH  73  74
ATOM     74  N   UNL A   1      32.315  23.494  26.793  1.00  0.00    -0.352 N 
ATOM     75  C   UNL A   1      31.371  22.697  26.185  1.00  0.00     0.251 C 
ATOM     76  H   UNL A   1      32.037  23.912  27.640  1.00  0.00     0.163 HD
ATOM     77  O   UNL A   1      30.260  22.561  26.676  1.00  0.00    -0.269 OA
BRANCH  75  78
ATOM     78  C   UNL A   1      31.682  22.030  24.899  1.00  0.00     0.047 A 
ATOM     79  C   UNL A   1      32.221  20.739  24.984  1.00  0.00     0.014 A 
ATOM     80  C   UNL A   1      31.451  22.631  23.646  1.00  0.00    -0.012 A 
ATOM     81  C   UNL A   1      32.476  20.016  23.820  1.00  0.00     0.001 A 
ATOM     82  C   UNL A   1      31.706  21.888  22.486  1.00  0.00     0.009 A 
ATOM     83  C   UNL A   1      32.210  20.587  22.576  1.00  0.00     0.001 A 
BRANCH  80  84
ATOM     84  C   UNL A   1      30.836  23.955  23.523  1.00  0.00     0.030 C 
ATOM     85  C   UNL A   1      31.457  25.119  23.305  1.00  0.00     0.081 C 
ATOM     86  S   UNL A   1      33.058  25.428  22.800  1.00  0.00    -0.054 SA
ATOM     87  C   UNL A   1      30.754  26.390  23.598  1.00  0.00     0.266 C 
ATOM     88  C   UNL A   1      32.807  27.179  22.796  1.00  0.00     0.148 C 
ATOM     89  N   UNL A   1      31.539  27.471  23.256  1.00  0.00    -0.288 N 
ATOM     90  O   UNL A   1      29.659  26.422  24.148  1.00  0.00    -0.268 OA
ATOM     91  S   UNL A   1      33.995  28.232  22.283  1.00  0.00    -0.052 S 
BRANCH  89  92
ATOM     92  C   UNL A   1      31.013  28.817  23.487  1.00  0.00     0.163 C 
BRANCH  92  93
ATOM     93  C   UNL A   1      31.474  29.402  24.805  1.00  0.00    -0.028 A 
ATOM     94  C   UNL A   1      32.310  28.675  25.663  1.00  0.00     0.005 A 
ATOM     95  C   UNL A   1      31.071  30.690  25.193  1.00  0.00     0.005 A 
ATOM     96  C   UNL A   1      32.731  29.228  26.876  1.00  0.00     0.000 A 
ATOM     97  C   UNL A   1      31.505  31.247  26.395  1.00  0.00     0.000 A 
ATOM     98  C   UNL A   1      32.334  30.514  27.239  1.00  0.00     0.000 A 
ENDBRANCH  92  93
ENDBRANCH  89  92
ENDBRANCH  80  84
ENDBRANCH  75  78
ENDBRANCH  73  74
ENDBRANCH  72  73
ENDBRANCH   1  72
TORSDOF 17
ENDMDL
MODEL 2
REMARK VINA RESULT:     -12.6      5.110     10.518
REMARK SMILES O=C(NCCCCNC(=O)c1ccccc1/C=C1\SC(=S)N(Cc2ccccc2)C1=O)c1ccc(-c2c3nc(c(-c4cc(S(=O)(=O)[O-])ccc4F)c4ccc([nH]4)c(-c4cc(S(=O)(=O)[O-])ccc4F)c4nc(c(-c5cc(S(=O)(=O)[O-])ccc5F)c5ccc2[nH]5)C=C4)C=C3)cc1
REMARK SMILES IDX 5 1 4 2 3 3 1 4 2 5 32 7 33 8 94 9 34 10 93 11 35 12 36 13
REMARK SMILES IDX 37 14 87 15 38 16 92 17 86 18 88 19 39 20 91 21 85 22 84 23
REMARK SMILES IDX 40 25 72 26 52 27 71 28 53 29 56 30 70 31 89 32 54 33 55 34
REMARK SMILES IDX 69 36 90 37 57 38 41 39 42 40 50 41 43 42 49 43 51 44 48 45
REMARK SMILES IDX 44 46 45 47 46 48 47 49 73 50 74 51 82 52 75 53 81 54 83 55
REMARK SMILES IDX 80 56 76 57 77 58 78 59 79 60 58 61 59 62 67 63 60 64 66 65
REMARK SMILES IDX 68 66 65 67 61 68 62 69 63 70 64 71 6 72 7 73 8 74 9 75
REMARK SMILES IDX 10 77 11 78 12 79 16 80 13 81 15 82 14 83 17 84 18 85 19 86
REMARK SMILES IDX 30 87 20 88 22 89 31 90 21 91 23 92 24 93 25 94 29 95 26 96
REMARK SMILES IDX 28 97 27 98
REMARK H PARENT 3 6 88 24 56 35 8 76
REMARK Flexibility Score: inf
ROOT
ATOM      1  C   UNL A   1      31.863  30.997  26.791  1.00  0.00     0.023 C 
ENDROOT
BRANCH   1   2
ATOM      2  C   UNL A   1      33.100  31.849  27.060  1.00  0.00     0.116 C 
BRANCH   2   3
ATOM      3  N   UNL A   1      32.786  33.222  27.435  1.00  0.00    -0.352 N 
ATOM      4  O   UNL A   1      32.869  35.130  28.638  1.00  0.00    -0.269 OA
ATOM      5  C   UNL A   1      33.361  34.032  28.388  1.00  0.00     0.251 C 
ATOM      6  H   UNL A   1      32.049  33.634  26.928  1.00  0.00     0.163 HD
BRANCH   5   7
ATOM      7  C   UNL A   1      34.552  33.569  29.136  1.00  0.00     0.039 A 
ATOM      8  C   UNL A   1      35.824  34.043  28.815  1.00  0.00     0.014 A 
ATOM      9  C   UNL A   1      34.397  32.629  30.160  1.00  0.00     0.014 A 
ATOM     10  C   UNL A   1      36.946  33.437  29.369  1.00  0.00     0.010 A 
ATOM     11  C   UNL A   1      35.526  32.091  30.788  1.00  0.00     0.010 A 
ATOM     12  C   UNL A   1      36.814  32.446  30.357  1.00  0.00    -0.014 A 
BRANCH  12  13
ATOM     13  C   UNL A   1      38.038  31.799  30.907  1.00  0.00     0.031 A 
ATOM     14  C   UNL A   1      38.527  32.120  32.298  1.00  0.00     0.074 A 
ATOM     15  C   UNL A   1      38.678  30.870  30.169  1.00  0.00     0.049 A 
ATOM     16  N   UNL A   1      39.542  31.616  32.954  1.00  0.00    -0.248 NA
ATOM     17  C   UNL A   1      37.788  33.150  33.042  1.00  0.00     0.031 C 
ATOM     18  C   UNL A   1      38.306  30.476  28.808  1.00  0.00     0.029 A 
ATOM     19  N   UNL A   1      39.753  30.071  30.462  1.00  0.00    -0.354 N 
ATOM     20  C   UNL A   1      39.580  32.282  34.176  1.00  0.00     0.074 A 
ATOM     21  C   UNL A   1      38.505  33.252  34.151  1.00  0.00     0.031 C 
ATOM     22  C   UNL A   1      39.098  29.470  28.409  1.00  0.00     0.029 A 
ATOM     23  C   UNL A   1      40.076  29.191  29.454  1.00  0.00     0.049 A 
ATOM     24  H   UNL A   1      40.247  30.120  31.312  1.00  0.00     0.167 HD
ATOM     25  C   UNL A   1      40.426  32.097  35.222  1.00  0.00     0.034 A 
ATOM     26  C   UNL A   1      41.053  28.267  29.373  1.00  0.00     0.034 A 
ATOM     27  C   UNL A   1      41.483  31.112  35.240  1.00  0.00     0.049 A 
ATOM     28  C   UNL A   1      41.984  28.088  30.541  1.00  0.00     0.074 A 
ATOM     29  C   UNL A   1      42.371  30.817  36.261  1.00  0.00     0.029 A 
ATOM     30  N   UNL A   1      41.801  30.264  34.186  1.00  0.00    -0.354 N 
ATOM     31  N   UNL A   1      41.993  28.717  31.695  1.00  0.00    -0.248 NA
ATOM     32  C   UNL A   1      43.031  27.071  30.399  1.00  0.00     0.031 C 
ATOM     33  C   UNL A   1      43.262  29.839  35.804  1.00  0.00     0.029 A 
ATOM     34  C   UNL A   1      42.886  29.467  34.524  1.00  0.00     0.049 A 
ATOM     35  H   UNL A   1      41.325  30.233  33.325  1.00  0.00     0.167 HD
ATOM     36  C   UNL A   1      43.032  28.148  32.426  1.00  0.00     0.074 A 
ATOM     37  C   UNL A   1      43.611  27.117  31.589  1.00  0.00     0.031 C 
ATOM     38  C   UNL A   1      43.465  28.449  33.676  1.00  0.00     0.034 A 
BRANCH  25  39
ATOM     39  C   UNL A   1      40.270  33.014  36.415  1.00  0.00     0.023 A 
ATOM     40  C   UNL A   1      39.526  32.643  37.550  1.00  0.00     0.031 A 
ATOM     41  C   UNL A   1      40.859  34.292  36.407  1.00  0.00     0.131 A 
ATOM     42  C   UNL A   1      39.329  33.564  38.592  1.00  0.00     0.055 A 
ATOM     43  C   UNL A   1      40.724  35.174  37.481  1.00  0.00     0.041 A 
ATOM     44  F   UNL A   1      41.565  34.712  35.345  1.00  0.00    -0.206 F 
ATOM     45  C   UNL A   1      39.943  34.818  38.576  1.00  0.00     0.022 A 
BRANCH  42  46
ATOM     46  S   UNL A   1      38.138  33.155  39.898  1.00  0.00     0.124 S 
ATOM     47  O   UNL A   1      38.729  31.948  40.472  1.00  0.00    -0.237 OA
ATOM     48  O   UNL A   1      38.173  34.345  40.740  1.00  0.00    -0.237 OA
ATOM     49  O   UNL A   1      36.889  32.941  39.169  1.00  0.00    -0.744 OA
ENDBRANCH  42  46
ENDBRANCH  25  39
BRANCH  26  50
ATOM     50  C   UNL A   1      41.212  27.450  28.137  1.00  0.00     0.023 A 
ATOM     51  C   UNL A   1      40.885  26.085  28.124  1.00  0.00     0.031 A 
ATOM     52  C   UNL A   1      41.719  28.020  26.956  1.00  0.00     0.131 A 
ATOM     53  C   UNL A   1      41.107  25.325  26.966  1.00  0.00     0.055 A 
ATOM     54  C   UNL A   1      41.888  27.272  25.790  1.00  0.00     0.041 A 
ATOM     55  F   UNL A   1      42.041  29.322  26.915  1.00  0.00    -0.206 F 
ATOM     56  C   UNL A   1      41.593  25.912  25.795  1.00  0.00     0.022 A 
BRANCH  53  57
ATOM     57  S   UNL A   1      40.821  23.536  27.032  1.00  0.00     0.124 S 
ATOM     58  O   UNL A   1      39.378  23.458  26.832  1.00  0.00    -0.237 OA
ATOM     59  O   UNL A   1      41.649  23.056  25.931  1.00  0.00    -0.237 OA
ATOM     60  O   UNL A   1      41.288  23.166  28.367  1.00  0.00    -0.744 OA
ENDBRANCH  53  57
ENDBRANCH  26  50
BRANCH  38  61
ATOM     61  C   UNL A   1      44.593  27.611  34.225  1.00  0.00     0.023 A 
ATOM     62  C   UNL A   1      44.355  26.431  34.952  1.00  0.00     0.031 A 
ATOM     63  C   UNL A   1      45.927  28.021  34.050  1.00  0.00     0.131 A 
ATOM     64  C   UNL A   1      45.428  25.740  35.535  1.00  0.00     0.055 A 
ATOM     65  C   UNL A   1      46.994  27.296  34.579  1.00  0.00     0.041 A 
ATOM     66  F   UNL A   1      46.212  29.141  33.366  1.00  0.00    -0.206 F 
ATOM     67  C   UNL A   1      46.747  26.157  35.341  1.00  0.00     0.022 A 
BRANCH  64  68
ATOM     68  S   UNL A   1      45.070  24.349  36.644  1.00  0.00     0.124 S 
ATOM     69  O   UNL A   1      43.931  24.853  37.405  1.00  0.00    -0.237 OA
ATOM     70  O   UNL A   1      44.783  23.269  35.706  1.00  0.00    -0.237 OA
ATOM     71  O   UNL A   1      46.306  24.193  37.409  1.00  0.00    -0.744 OA
ENDBRANCH  64  68
ENDBRANCH  38  61
ENDBRANCH  12  13
ENDBRANCH   5   7
ENDBRANCH   2   3
ENDBRANCH   1   2
BRANCH   1  72
ATOM     72  C   UNL A   1      31.940  29.542  27.257  1.00  0.00     0.023 C 
BRANCH  72  73
ATOM     73  C   UNL A   1      31.734  28.496  26.169  1.00  0.00     0.116 C 
BRANCH  73  74
ATOM     74  N   UNL A   1      32.448  28.786  24.937  1.00  0.00    -0.352 N 
ATOM     75  C   UNL A   1      31.937  29.113  23.701  1.00  0.00     0.251 C 
ATOM     76  H   UNL A   1      33.430  28.743  24.994  1.00  0.00     0.163 HD
ATOM     77  O   UNL A   1      32.679  29.304  22.750  1.00  0.00    -0.269 OA
BRANCH  75  78
ATOM     78  C   UNL A   1      30.470  29.193  23.504  1.00  0.00     0.047 A 
ATOM     79  C   UNL A   1      29.881  30.443  23.732  1.00  0.00     0.014 A 
ATOM     80  C   UNL A   1      29.688  28.093  23.102  1.00  0.00    -0.012 A 
ATOM     81  C   UNL A   1      28.518  30.620  23.501  1.00  0.00     0.001 A 
ATOM     82  C   UNL A   1      28.321  28.288  22.867  1.00  0.00     0.009 A 
ATOM     83  C   UNL A   1      27.743  29.547  23.061  1.00  0.00     0.001 A 
BRANCH  80  84
ATOM     84  C   UNL A   1      30.282  26.788  22.801  1.00  0.00     0.030 C 
ATOM     85  C   UNL A   1      30.532  25.794  23.660  1.00  0.00     0.081 C 
ATOM     86  S   UNL A   1      29.989  25.570  25.263  1.00  0.00    -0.054 SA
ATOM     87  C   UNL A   1      31.479  24.719  23.281  1.00  0.00     0.266 C 
ATOM     88  C   UNL A   1      30.829  24.021  25.419  1.00  0.00     0.148 C 
ATOM     89  N   UNL A   1      31.558  23.766  24.276  1.00  0.00    -0.288 N 
ATOM     90  O   UNL A   1      32.142  24.762  22.250  1.00  0.00    -0.268 OA
ATOM     91  S   UNL A   1      30.684  23.082  26.790  1.00  0.00    -0.052 S 
BRANCH  89  92
ATOM     92  C   UNL A   1      32.459  22.629  24.083  1.00  0.00     0.163 C 
BRANCH  92  93
ATOM     93  C   UNL A   1      33.911  22.993  24.311  1.00  0.00    -0.028 A 
ATOM     94  C   UNL A   1      34.860  22.842  23.292  1.00  0.00     0.005 A 
ATOM     95  C   UNL A   1      34.334  23.490  25.554  1.00  0.00     0.005 A 
ATOM     96  C   UNL A   1      36.197  23.183  23.515  1.00  0.00     0.000 A 
ATOM     97  C   UNL A   1      35.665  23.847  25.770  1.00  0.00     0.000 A 
ATOM     98  C   UNL A   1      36.598  23.691  24.750  1.00  0.00     0.000 A 
ENDBRANCH  92  93
ENDBRANCH  89  92
ENDBRANCH  80  84
ENDBRANCH  75  78
ENDBRANCH  73  74
ENDBRANCH  72  73
ENDBRANCH   1  72
TORSDOF 17
ENDMDL
MODEL 3
REMARK VINA RESULT:     -12.6      2.233      3.011
REMARK SMILES O=C(NCCCCNC(=O)c1ccccc1/C=C1\SC(=S)N(Cc2ccccc2)C1=O)c1ccc(-c2c3nc(c(-c4cc(S(=O)(=O)[O-])ccc4F)c4ccc([nH]4)c(-c4cc(S(=O)(=O)[O-])ccc4F)c4nc(c(-c5cc(S(=O)(=O)[O-])ccc5F)c5ccc2[nH]5)C=C4)C=C3)cc1
REMARK SMILES IDX 5 1 4 2 3 3 1 4 2 5 32 7 33 8 94 9 34 10 93 11 35 12 36 13
REMARK SMILES IDX 37 14 87 15 38 16 92 17 86 18 88 19 39 20 91 21 85 22 84 23
REMARK SMILES IDX 40 25 72 26 52 27 71 28 53 29 56 30 70 31 89 32 54 33 55 34
REMARK SMILES IDX 69 36 90 37 57 38 41 39 42 40 50 41 43 42 49 43 51 44 48 45
REMARK SMILES IDX 44 46 45 47 46 48 47 49 73 50 74 51 82 52 75 53 81 54 83 55
REMARK SMILES IDX 80 56 76 57 77 58 78 59 79 60 58 61 59 62 67 63 60 64 66 65
REMARK SMILES IDX 68 66 65 67 61 68 62 69 63 70 64 71 6 72 7 73 8 74 9 75
REMARK SMILES IDX 10 77 11 78 12 79 16 80 13 81 15 82 14 83 17 84 18 85 19 86
REMARK SMILES IDX 30 87 20 88 22 89 31 90 21 91 23 92 24 93 25 94 29 95 26 96
REMARK SMILES IDX 28 97 27 98
REMARK H PARENT 3 6 88 24 56 35 8 76
REMARK Flexibility Score: inf
ROOT
ATOM      1  C   UNL A   1      37.955  20.671  25.021  1.00  0.00     0.023 C 
ENDROOT
BRANCH   1   2
ATOM      2  C   UNL A   1      39.074  20.769  26.053  1.00  0.00     0.116 C 
BRANCH   2   3
ATOM      3  N   UNL A   1      40.048  19.689  25.954  1.00  0.00    -0.352 N 
ATOM      4  O   UNL A   1      42.078  18.713  25.815  1.00  0.00    -0.269 OA
ATOM      5  C   UNL A   1      41.421  19.724  26.049  1.00  0.00     0.251 C 
ATOM      6  H   UNL A   1      39.665  18.796  25.795  1.00  0.00     0.163 HD
BRANCH   5   7
ATOM      7  C   UNL A   1      42.109  20.988  26.402  1.00  0.00     0.039 A 
ATOM      8  C   UNL A   1      42.418  21.284  27.729  1.00  0.00     0.014 A 
ATOM      9  C   UNL A   1      42.430  21.899  25.391  1.00  0.00     0.014 A 
ATOM     10  C   UNL A   1      42.857  22.559  28.066  1.00  0.00     0.010 A 
ATOM     11  C   UNL A   1      42.965  23.149  25.725  1.00  0.00     0.010 A 
ATOM     12  C   UNL A   1      43.128  23.513  27.071  1.00  0.00    -0.014 A 
BRANCH  12  13
ATOM     13  C   UNL A   1      43.569  24.879  27.472  1.00  0.00     0.031 A 
ATOM     14  C   UNL A   1      45.006  25.308  27.313  1.00  0.00     0.074 A 
ATOM     15  C   UNL A   1      42.652  25.758  27.926  1.00  0.00     0.049 A 
ATOM     16  N   UNL A   1      45.554  26.471  27.562  1.00  0.00    -0.248 NA
ATOM     17  C   UNL A   1      45.953  24.296  26.823  1.00  0.00     0.031 C 
ATOM     18  C   UNL A   1      41.232  25.461  28.129  1.00  0.00     0.029 A 
ATOM     19  N   UNL A   1      42.766  27.080  28.272  1.00  0.00    -0.354 N 
ATOM     20  C   UNL A   1      46.910  26.326  27.285  1.00  0.00     0.074 A 
ATOM     21  C   UNL A   1      47.104  24.948  26.882  1.00  0.00     0.031 C 
ATOM     22  C   UNL A   1      40.598  26.581  28.503  1.00  0.00     0.029 A 
ATOM     23  C   UNL A   1      41.572  27.660  28.633  1.00  0.00     0.049 A 
ATOM     24  H   UNL A   1      43.621  27.568  28.262  1.00  0.00     0.167 HD
ATOM     25  C   UNL A   1      47.899  27.254  27.352  1.00  0.00     0.034 A 
ATOM     26  C   UNL A   1      41.289  28.915  29.032  1.00  0.00     0.034 A 
ATOM     27  C   UNL A   1      47.688  28.630  27.738  1.00  0.00     0.049 A 
ATOM     28  C   UNL A   1      42.403  29.923  29.107  1.00  0.00     0.074 A 
ATOM     29  C   UNL A   1      48.611  29.660  27.803  1.00  0.00     0.029 A 
ATOM     30  N   UNL A   1      46.469  29.171  28.131  1.00  0.00    -0.354 N 
ATOM     31  N   UNL A   1      43.677  29.770  28.824  1.00  0.00    -0.248 NA
ATOM     32  C   UNL A   1      42.040  31.274  29.549  1.00  0.00     0.031 C 
ATOM     33  C   UNL A   1      47.967  30.803  28.294  1.00  0.00     0.029 A 
ATOM     34  C   UNL A   1      46.624  30.509  28.464  1.00  0.00     0.049 A 
ATOM     35  H   UNL A   1      45.619  28.675  28.167  1.00  0.00     0.167 HD
ATOM     36  C   UNL A   1      44.261  31.016  29.029  1.00  0.00     0.074 A 
ATOM     37  C   UNL A   1      43.197  31.910  29.441  1.00  0.00     0.031 C 
ATOM     38  C   UNL A   1      45.558  31.389  28.887  1.00  0.00     0.034 A 
BRANCH  25  39
ATOM     39  C   UNL A   1      49.308  26.797  27.046  1.00  0.00     0.023 A 
ATOM     40  C   UNL A   1      49.981  27.184  25.873  1.00  0.00     0.031 A 
ATOM     41  C   UNL A   1      49.981  25.937  27.933  1.00  0.00     0.131 A 
ATOM     42  C   UNL A   1      51.250  26.657  25.585  1.00  0.00     0.055 A 
ATOM     43  C   UNL A   1      51.276  25.479  27.678  1.00  0.00     0.041 A 
ATOM     44  F   UNL A   1      49.386  25.515  29.060  1.00  0.00    -0.206 F 
ATOM     45  C   UNL A   1      51.912  25.826  26.491  1.00  0.00     0.022 A 
BRANCH  42  46
ATOM     46  S   UNL A   1      51.960  26.954  23.942  1.00  0.00     0.124 S 
ATOM     47  O   UNL A   1      52.915  25.854  23.827  1.00  0.00    -0.237 OA
ATOM     48  O   UNL A   1      50.790  26.876  23.074  1.00  0.00    -0.237 OA
ATOM     49  O   UNL A   1      52.562  28.280  24.062  1.00  0.00    -0.744 OA
ENDBRANCH  42  46
ENDBRANCH  25  39
BRANCH  26  50
ATOM     50  C   UNL A   1      39.894  29.287  29.403  1.00  0.00     0.023 A 
ATOM     51  C   UNL A   1      39.510  29.409  30.747  1.00  0.00     0.031 A 
ATOM     52  C   UNL A   1      38.918  29.501  28.413  1.00  0.00     0.131 A 
ATOM     53  C   UNL A   1      38.175  29.696  31.067  1.00  0.00     0.055 A 
ATOM     54  C   UNL A   1      37.604  29.839  28.736  1.00  0.00     0.041 A 
ATOM     55  F   UNL A   1      39.236  29.402  27.113  1.00  0.00    -0.206 F 
ATOM     56  C   UNL A   1      37.222  29.925  30.071  1.00  0.00     0.022 A 
BRANCH  53  57
ATOM     57  S   UNL A   1      37.680  29.693  32.811  1.00  0.00     0.124 S 
ATOM     58  O   UNL A   1      38.892  30.173  33.466  1.00  0.00    -0.237 OA
ATOM     59  O   UNL A   1      36.546  30.611  32.806  1.00  0.00    -0.237 OA
ATOM     60  O   UNL A   1      37.344  28.293  33.067  1.00  0.00    -0.744 OA
ENDBRANCH  53  57
ENDBRANCH  26  50
BRANCH  38  61
ATOM     61  C   UNL A   1      45.878  32.843  29.134  1.00  0.00     0.023 A 
ATOM     62  C   UNL A   1      45.613  33.835  28.173  1.00  0.00     0.031 A 
ATOM     63  C   UNL A   1      46.495  33.235  30.335  1.00  0.00     0.131 A 
ATOM     64  C   UNL A   1      46.025  35.156  28.400  1.00  0.00     0.055 A 
ATOM     65  C   UNL A   1      46.845  34.562  30.582  1.00  0.00     0.041 A 
ATOM     66  F   UNL A   1      46.773  32.330  31.287  1.00  0.00    -0.206 F 
ATOM     67  C   UNL A   1      46.626  35.530  29.605  1.00  0.00     0.022 A 
BRANCH  64  68
ATOM     68  S   UNL A   1      45.864  36.363  27.055  1.00  0.00     0.124 S 
ATOM     69  O   UNL A   1      46.176  37.618  27.733  1.00  0.00    -0.237 OA
ATOM     70  O   UNL A   1      46.857  35.893  26.095  1.00  0.00    -0.237 OA
ATOM     71  O   UNL A   1      44.473  36.218  26.628  1.00  0.00    -0.744 OA
ENDBRANCH  64  68
ENDBRANCH  38  61
ENDBRANCH  12  13
ENDBRANCH   5   7
ENDBRANCH   2   3
ENDBRANCH   1   2
BRANCH   1  72
ATOM     72  C   UNL A   1      37.464  21.998  24.441  1.00  0.00     0.023 C 
BRANCH  72  73
ATOM     73  C   UNL A   1      35.950  22.172  24.399  1.00  0.00     0.116 C 
BRANCH  73  74
ATOM     74  N   UNL A   1      35.304  21.984  25.686  1.00  0.00    -0.352 N 
ATOM     75  C   UNL A   1      34.358  21.050  26.047  1.00  0.00     0.251 C 
ATOM     76  H   UNL A   1      35.579  22.608  26.396  1.00  0.00     0.163 HD
ATOM     77  O   UNL A   1      33.890  21.041  27.175  1.00  0.00    -0.269 OA
BRANCH  75  78
ATOM     78  C   UNL A   1      33.866  20.071  25.049  1.00  0.00     0.047 A 
ATOM     79  C   UNL A   1      34.630  18.907  24.892  1.00  0.00     0.014 A 
ATOM     80  C   UNL A   1      32.694  20.267  24.293  1.00  0.00    -0.012 A 
ATOM     81  C   UNL A   1      34.198  17.905  24.026  1.00  0.00     0.001 A 
ATOM     82  C   UNL A   1      32.269  19.248  23.432  1.00  0.00     0.009 A 
ATOM     83  C   UNL A   1      33.016  18.072  23.305  1.00  0.00     0.001 A 
BRANCH  80  84
ATOM     84  C   UNL A   1      31.843  21.446  24.476  1.00  0.00     0.030 C 
ATOM     85  C   UNL A   1      31.970  22.637  23.880  1.00  0.00     0.081 C 
ATOM     86  S   UNL A   1      32.916  23.092  22.533  1.00  0.00    -0.054 SA
ATOM     87  C   UNL A   1      31.289  23.820  24.456  1.00  0.00     0.266 C 
ATOM     88  C   UNL A   1      32.331  24.761  22.582  1.00  0.00     0.148 C 
ATOM     89  N   UNL A   1      31.499  24.934  23.669  1.00  0.00    -0.288 N 
ATOM     90  O   UNL A   1      30.702  23.780  25.531  1.00  0.00    -0.268 OA
ATOM     91  S   UNL A   1      32.778  25.878  21.428  1.00  0.00    -0.052 S 
BRANCH  89  92
ATOM     92  C   UNL A   1      30.910  26.206  24.090  1.00  0.00     0.163 C 
BRANCH  92  93
ATOM     93  C   UNL A   1      31.737  26.908  25.145  1.00  0.00    -0.028 A 
ATOM     94  C   UNL A   1      33.064  27.280  24.892  1.00  0.00     0.005 A 
ATOM     95  C   UNL A   1      31.187  27.200  26.404  1.00  0.00     0.005 A 
ATOM     96  C   UNL A   1      33.816  27.930  25.874  1.00  0.00     0.000 A 
ATOM     97  C   UNL A   1      31.933  27.863  27.378  1.00  0.00     0.000 A 
ATOM     98  C   UNL A   1      33.250  28.227  27.113  1.00  0.00     0.000 A 
ENDBRANCH  92  93
ENDBRANCH  89  92
ENDBRANCH  80  84
ENDBRANCH  75  78
ENDBRANCH  73  74
ENDBRANCH  72  73
ENDBRANCH   1  72
TORSDOF 17
ENDMDL
