MODEL 1
REMARK VINA RESULT:     -12.7      0.000      0.000
REMARK SMILES CC(C)Oc1ccc(/C=C(\NC(=O)c2ccccc2)C(=O)NCCCCNC(=O)c2ccc(-c3c4nc(c(-c5cc(S(=O)(=O)[O-])ccc5F)c5ccc([nH]5)c(-c5cc(S(=O)(=O)[O-])ccc5F)c5nc(c(-c6cc(S(=O)(=O)[O-])ccc6F)c6ccc3[nH]6)C=C5)C=C4)cc2)cc1
REMARK SMILES IDX 24 1 23 2 22 3 20 4 21 5 10 7 9 8 8 9 5 10 6 11 94 12 7 13
REMARK SMILES IDX 93 14 4 15 2 16 1 17 3 18 11 19 12 20 13 22 14 23 15 24
REMARK SMILES IDX 19 25 16 26 18 27 17 28 25 29 26 30 27 31 28 32 29 34 30 35
REMARK SMILES IDX 31 36 92 37 32 38 91 39 33 40 34 41 35 42 85 43 36 44 90 45
REMARK SMILES IDX 84 46 86 47 37 48 89 49 83 50 82 51 38 53 70 54 50 55 69 56
REMARK SMILES IDX 51 57 54 58 68 59 87 60 52 61 53 62 67 64 88 65 55 66 39 67
REMARK SMILES IDX 40 68 48 69 41 70 47 71 49 72 46 73 42 74 43 75 44 76 45 77
REMARK SMILES IDX 71 78 72 79 80 80 73 81 79 82 81 83 78 84 74 85 75 86 76 87
REMARK SMILES IDX 77 88 56 89 57 90 65 91 58 92 64 93 66 94 63 95 59 96 60 97
REMARK SMILES IDX 61 98 62 99
REMARK H PARENT 22 6 11 21 27 33 86 52 54 63
REMARK Flexibility Score: inf
ROOT
ATOM      1  C   UNL A   1      32.296  28.818  23.577  1.00  0.00     0.023 C 
ENDROOT
BRANCH   1   2
ATOM      2  C   UNL A   1      31.792  27.727  22.629  1.00  0.00     0.116 C 
BRANCH   2   3
ATOM      3  N   UNL A   1      32.686  27.103  21.667  1.00  0.00    -0.351 N 
ATOM      4  C   UNL A   1      33.129  25.805  21.605  1.00  0.00     0.267 C 
ATOM      5  O   UNL A   1      33.154  25.236  20.511  1.00  0.00    -0.268 OA
ATOM      6  H   UNL A   1      33.022  27.696  20.957  1.00  0.00     0.163 HD
BRANCH   4   7
ATOM      7  C   UNL A   1      33.620  25.103  22.836  1.00  0.00     0.107 C 
ATOM      8  C   UNL A   1      33.653  23.758  22.698  1.00  0.00     0.040 C 
BRANCH   8   9
ATOM      9  C   UNL A   1      33.708  22.640  23.667  1.00  0.00    -0.023 A 
ATOM     10  C   UNL A   1      34.070  20.004  24.615  1.00  0.00     0.119 A 
ATOM     11  C   UNL A   1      32.863  20.388  24.031  1.00  0.00     0.047 A 
ATOM     12  C   UNL A   1      35.078  20.948  24.787  1.00  0.00     0.047 A 
ATOM     13  C   UNL A   1      32.674  21.700  23.585  1.00  0.00     0.012 A 
ATOM     14  C   UNL A   1      34.899  22.265  24.314  1.00  0.00     0.012 A 
BRANCH  10  15
ATOM     15  O   UNL A   1      34.270  18.661  24.767  1.00  0.00    -0.491 OA
BRANCH  15  16
ATOM     16  C   UNL A   1      33.317  17.742  24.218  1.00  0.00     0.167 C 
ATOM     17  C   UNL A   1      33.906  16.912  23.084  1.00  0.00     0.052 C 
ATOM     18  C   UNL A   1      32.570  16.903  25.249  1.00  0.00     0.052 C 
ENDBRANCH  15  16
ENDBRANCH  10  15
ENDBRANCH   8   9
BRANCH   7  19
ATOM     19  N   UNL A   1      34.002  25.770  23.975  1.00  0.00    -0.317 N 
ATOM     20  C   UNL A   1      33.572  25.785  25.296  1.00  0.00     0.255 C 
ATOM     21  H   UNL A   1      34.758  26.379  23.818  1.00  0.00     0.170 HD
ATOM     22  O   UNL A   1      34.300  26.406  26.080  1.00  0.00    -0.269 OA
BRANCH  20  23
ATOM     23  C   UNL A   1      32.336  25.139  25.868  1.00  0.00     0.040 A 
ATOM     24  C   UNL A   1      32.508  23.921  26.559  1.00  0.00     0.014 A 
ATOM     25  C   UNL A   1      31.036  25.641  25.796  1.00  0.00     0.014 A 
ATOM     26  C   UNL A   1      31.417  23.158  26.994  1.00  0.00     0.001 A 
ATOM     27  C   UNL A   1      29.935  24.857  26.179  1.00  0.00     0.001 A 
ATOM     28  C   UNL A   1      30.125  23.607  26.759  1.00  0.00     0.000 A 
ENDBRANCH  20  23
ENDBRANCH   7  19
ENDBRANCH   4   7
ENDBRANCH   2   3
ENDBRANCH   1   2
BRANCH   1  29
ATOM     29  C   UNL A   1      31.522  29.242  24.839  1.00  0.00     0.023 C 
BRANCH  29  30
ATOM     30  C   UNL A   1      32.250  29.781  26.074  1.00  0.00     0.116 C 
BRANCH  30  31
ATOM     31  N   UNL A   1      32.042  31.209  26.253  1.00  0.00    -0.352 N 
ATOM     32  C   UNL A   1      32.663  32.087  27.116  1.00  0.00     0.251 C 
ATOM     33  H   UNL A   1      31.354  31.608  25.673  1.00  0.00     0.163 HD
ATOM     34  O   UNL A   1      32.176  33.205  27.270  1.00  0.00    -0.269 OA
BRANCH  32  35
ATOM     35  C   UNL A   1      33.894  31.720  27.871  1.00  0.00     0.039 A 
ATOM     36  C   UNL A   1      34.219  30.364  28.011  1.00  0.00     0.014 A 
ATOM     37  C   UNL A   1      34.672  32.677  28.530  1.00  0.00     0.014 A 
ATOM     38  C   UNL A   1      35.339  29.973  28.760  1.00  0.00     0.010 A 
ATOM     39  C   UNL A   1      35.804  32.285  29.265  1.00  0.00     0.010 A 
ATOM     40  C   UNL A   1      36.159  30.930  29.379  1.00  0.00    -0.014 A 
BRANCH  40  41
ATOM     41  C   UNL A   1      37.410  30.524  30.092  1.00  0.00     0.031 A 
ATOM     42  C   UNL A   1      38.412  29.600  29.449  1.00  0.00     0.074 A 
ATOM     43  C   UNL A   1      37.632  30.971  31.346  1.00  0.00     0.049 A 
ATOM     44  N   UNL A   1      39.513  29.096  29.952  1.00  0.00    -0.248 NA
ATOM     45  C   UNL A   1      38.140  29.184  28.066  1.00  0.00     0.031 C 
ATOM     46  C   UNL A   1      36.746  31.876  32.082  1.00  0.00     0.029 A 
ATOM     47  N   UNL A   1      38.658  30.725  32.228  1.00  0.00    -0.354 N 
ATOM     48  C   UNL A   1      40.075  28.314  28.945  1.00  0.00     0.074 A 
ATOM     49  C   UNL A   1      39.162  28.374  27.821  1.00  0.00     0.031 C 
ATOM     50  C   UNL A   1      37.267  32.110  33.297  1.00  0.00     0.029 A 
ATOM     51  C   UNL A   1      38.495  31.334  33.453  1.00  0.00     0.049 A 
ATOM     52  H   UNL A   1      39.436  30.165  32.006  1.00  0.00     0.167 HD
ATOM     53  C   UNL A   1      41.245  27.626  28.954  1.00  0.00     0.034 A 
ATOM     54  C   UNL A   1      39.228  31.257  34.584  1.00  0.00     0.034 A 
ATOM     55  C   UNL A   1      42.145  27.563  30.082  1.00  0.00     0.049 A 
ATOM     56  C   UNL A   1      40.473  30.401  34.596  1.00  0.00     0.074 A 
ATOM     57  C   UNL A   1      43.368  26.915  30.174  1.00  0.00     0.029 A 
ATOM     58  N   UNL A   1      41.921  28.152  31.318  1.00  0.00    -0.354 N 
ATOM     59  N   UNL A   1      41.005  29.703  33.619  1.00  0.00    -0.248 NA
ATOM     60  C   UNL A   1      41.220  30.325  35.860  1.00  0.00     0.031 C 
ATOM     61  C   UNL A   1      43.842  27.048  31.482  1.00  0.00     0.029 A 
ATOM     62  C   UNL A   1      42.958  27.845  32.189  1.00  0.00     0.049 A 
ATOM     63  H   UNL A   1      41.140  28.708  31.545  1.00  0.00     0.167 HD
ATOM     64  C   UNL A   1      42.157  29.127  34.149  1.00  0.00     0.074 A 
ATOM     65  C   UNL A   1      42.260  29.582  35.518  1.00  0.00     0.031 C 
ATOM     66  C   UNL A   1      43.048  28.292  33.558  1.00  0.00     0.034 A 
BRANCH  53  67
ATOM     67  C   UNL A   1      41.622  26.861  27.707  1.00  0.00     0.023 A 
ATOM     68  C   UNL A   1      41.415  25.476  27.604  1.00  0.00     0.031 A 
ATOM     69  C   UNL A   1      42.158  27.531  26.592  1.00  0.00     0.131 A 
ATOM     70  C   UNL A   1      41.784  24.797  26.432  1.00  0.00     0.055 A 
ATOM     71  C   UNL A   1      42.459  26.861  25.404  1.00  0.00     0.041 A 
ATOM     72  F   UNL A   1      42.392  28.852  26.636  1.00  0.00    -0.206 F 
ATOM     73  C   UNL A   1      42.280  25.484  25.322  1.00  0.00     0.022 A 
BRANCH  70  74
ATOM     74  S   UNL A   1      41.701  22.985  26.416  1.00  0.00     0.124 S 
ATOM     75  O   UNL A   1      42.387  22.647  27.660  1.00  0.00    -0.237 OA
ATOM     76  O   UNL A   1      40.265  22.734  26.388  1.00  0.00    -0.237 OA
ATOM     77  O   UNL A   1      42.421  22.620  25.198  1.00  0.00    -0.744 OA
ENDBRANCH  70  74
ENDBRANCH  53  67
BRANCH  54  78
ATOM     78  C   UNL A   1      38.789  31.958  35.829  1.00  0.00     0.023 A 
ATOM     79  C   UNL A   1      38.167  31.258  36.876  1.00  0.00     0.031 A 
ATOM     80  C   UNL A   1      38.899  33.355  35.950  1.00  0.00     0.131 A 
ATOM     81  C   UNL A   1      37.619  31.961  37.960  1.00  0.00     0.055 A 
ATOM     82  C   UNL A   1      38.416  34.043  37.065  1.00  0.00     0.041 A 
ATOM     83  F   UNL A   1      39.477  34.079  34.978  1.00  0.00    -0.206 F 
ATOM     84  C   UNL A   1      37.753  33.347  38.070  1.00  0.00     0.022 A 
BRANCH  81  85
ATOM     85  S   UNL A   1      36.600  31.052  39.155  1.00  0.00     0.124 S 
ATOM     86  O   UNL A   1      37.482  30.996  40.314  1.00  0.00    -0.237 OA
ATOM     87  O   UNL A   1      35.432  31.918  39.277  1.00  0.00    -0.237 OA
ATOM     88  O   UNL A   1      36.358  29.772  38.491  1.00  0.00    -0.744 OA
ENDBRANCH  81  85
ENDBRANCH  54  78
BRANCH  66  89
ATOM     89  C   UNL A   1      44.225  27.838  34.387  1.00  0.00     0.023 A 
ATOM     90  C   UNL A   1      44.168  26.668  35.166  1.00  0.00     0.031 A 
ATOM     91  C   UNL A   1      45.418  28.582  34.403  1.00  0.00     0.131 A 
ATOM     92  C   UNL A   1      45.263  26.302  35.963  1.00  0.00     0.055 A 
ATOM     93  C   UNL A   1      46.526  28.182  35.151  1.00  0.00     0.041 A 
ATOM     94  F   UNL A   1      45.529  29.710  33.683  1.00  0.00    -0.206 F 
ATOM     95  C   UNL A   1      46.449  27.042  35.946  1.00  0.00     0.022 A 
BRANCH  92  96
ATOM     96  S   UNL A   1      45.093  24.886  37.083  1.00  0.00     0.124 S 
ATOM     97  O   UNL A   1      46.452  24.733  37.590  1.00  0.00    -0.237 OA
ATOM     98  O   UNL A   1      44.104  25.364  38.044  1.00  0.00    -0.237 OA
ATOM     99  O   UNL A   1      44.632  23.809  36.208  1.00  0.00    -0.744 OA
ENDBRANCH  92  96
ENDBRANCH  66  89
ENDBRANCH  40  41
ENDBRANCH  32  35
ENDBRANCH  30  31
ENDBRANCH  29  30
ENDBRANCH   1  29
TORSDOF 19
ENDMDL
MODEL 2
REMARK VINA RESULT:     -12.7      5.286     10.583
REMARK SMILES CC(C)Oc1ccc(/C=C(\NC(=O)c2ccccc2)C(=O)NCCCCNC(=O)c2ccc(-c3c4nc(c(-c5cc(S(=O)(=O)[O-])ccc5F)c5ccc([nH]5)c(-c5cc(S(=O)(=O)[O-])ccc5F)c5nc(c(-c6cc(S(=O)(=O)[O-])ccc6F)c6ccc3[nH]6)C=C5)C=C4)cc2)cc1
REMARK SMILES IDX 24 1 23 2 22 3 20 4 21 5 10 7 9 8 8 9 5 10 6 11 94 12 7 13
REMARK SMILES IDX 93 14 4 15 2 16 1 17 3 18 11 19 12 20 13 22 14 23 15 24
REMARK SMILES IDX 19 25 16 26 18 27 17 28 25 29 26 30 27 31 28 32 29 34 30 35
REMARK SMILES IDX 31 36 92 37 32 38 91 39 33 40 34 41 35 42 85 43 36 44 90 45
REMARK SMILES IDX 84 46 86 47 37 48 89 49 83 50 82 51 38 53 70 54 50 55 69 56
REMARK SMILES IDX 51 57 54 58 68 59 87 60 52 61 53 62 67 64 88 65 55 66 39 67
REMARK SMILES IDX 40 68 48 69 41 70 47 71 49 72 46 73 42 74 43 75 44 76 45 77
REMARK SMILES IDX 71 78 72 79 80 80 73 81 79 82 81 83 78 84 74 85 75 86 76 87
REMARK SMILES IDX 77 88 56 89 57 90 65 91 58 92 64 93 66 94 63 95 59 96 60 97
REMARK SMILES IDX 61 98 62 99
REMARK H PARENT 22 6 11 21 27 33 86 52 54 63
REMARK Flexibility Score: inf
ROOT
ATOM      1  C   UNL A   1      35.543  22.542  25.200  1.00  0.00     0.023 C 
ENDROOT
BRANCH   1   2
ATOM      2  C   UNL A   1      34.084  22.291  24.813  1.00  0.00     0.116 C 
BRANCH   2   3
ATOM      3  N   UNL A   1      33.611  22.569  23.466  1.00  0.00    -0.351 N 
ATOM      4  C   UNL A   1      33.078  23.725  22.952  1.00  0.00     0.267 C 
ATOM      5  O   UNL A   1      33.447  24.108  21.839  1.00  0.00    -0.268 OA
ATOM      6  H   UNL A   1      33.684  21.821  22.830  1.00  0.00     0.163 HD
BRANCH   4   7
ATOM      7  C   UNL A   1      32.029  24.486  23.706  1.00  0.00     0.107 C 
ATOM      8  C   UNL A   1      31.383  25.394  22.940  1.00  0.00     0.040 C 
BRANCH   8   9
ATOM      9  C   UNL A   1      30.562  26.586  23.253  1.00  0.00    -0.023 A 
ATOM     10  C   UNL A   1      28.761  28.719  22.823  1.00  0.00     0.119 A 
ATOM     11  C   UNL A   1      30.105  28.845  22.476  1.00  0.00     0.047 A 
ATOM     12  C   UNL A   1      28.321  27.553  23.446  1.00  0.00     0.047 A 
ATOM     13  C   UNL A   1      31.003  27.799  22.712  1.00  0.00     0.012 A 
ATOM     14  C   UNL A   1      29.220  26.487  23.660  1.00  0.00     0.012 A 
BRANCH  10  15
ATOM     15  O   UNL A   1      27.911  29.660  22.315  1.00  0.00    -0.491 OA
BRANCH  15  16
ATOM     16  C   UNL A   1      28.318  31.034  22.291  1.00  0.00     0.167 C 
ATOM     17  C   UNL A   1      27.978  31.711  20.970  1.00  0.00     0.052 C 
ATOM     18  C   UNL A   1      27.894  31.848  23.508  1.00  0.00     0.052 C 
ENDBRANCH  15  16
ENDBRANCH  10  15
ENDBRANCH   8   9
BRANCH   7  19
ATOM     19  N   UNL A   1      31.756  24.268  25.035  1.00  0.00    -0.317 N 
ATOM     20  C   UNL A   1      31.770  25.050  26.183  1.00  0.00     0.255 C 
ATOM     21  H   UNL A   1      31.489  23.338  25.216  1.00  0.00     0.170 HD
ATOM     22  O   UNL A   1      31.283  24.519  27.188  1.00  0.00    -0.269 OA
BRANCH  20  23
ATOM     23  C   UNL A   1      32.303  26.452  26.334  1.00  0.00     0.040 A 
ATOM     24  C   UNL A   1      31.408  27.432  26.812  1.00  0.00     0.014 A 
ATOM     25  C   UNL A   1      33.606  26.870  26.064  1.00  0.00     0.014 A 
ATOM     26  C   UNL A   1      31.748  28.790  26.843  1.00  0.00     0.001 A 
ATOM     27  C   UNL A   1      33.938  28.235  26.039  1.00  0.00     0.001 A 
ATOM     28  C   UNL A   1      33.003  29.196  26.410  1.00  0.00     0.000 A 
ENDBRANCH  20  23
ENDBRANCH   7  19
ENDBRANCH   4   7
ENDBRANCH   2   3
ENDBRANCH   1   2
BRANCH   1  29
ATOM     29  C   UNL A   1      36.487  21.414  25.655  1.00  0.00     0.023 C 
BRANCH  29  30
ATOM     30  C   UNL A   1      37.873  21.236  25.029  1.00  0.00     0.116 C 
BRANCH  30  31
ATOM     31  N   UNL A   1      38.691  20.287  25.768  1.00  0.00    -0.352 N 
ATOM     32  C   UNL A   1      39.863  20.491  26.465  1.00  0.00     0.251 C 
ATOM     33  H   UNL A   1      38.357  19.361  25.772  1.00  0.00     0.163 HD
ATOM     34  O   UNL A   1      40.514  19.512  26.822  1.00  0.00    -0.269 OA
BRANCH  32  35
ATOM     35  C   UNL A   1      40.368  21.855  26.786  1.00  0.00     0.039 A 
ATOM     36  C   UNL A   1      41.222  22.016  27.886  1.00  0.00     0.014 A 
ATOM     37  C   UNL A   1      39.935  22.989  26.091  1.00  0.00     0.014 A 
ATOM     38  C   UNL A   1      41.676  23.291  28.256  1.00  0.00     0.010 A 
ATOM     39  C   UNL A   1      40.405  24.263  26.452  1.00  0.00     0.010 A 
ATOM     40  C   UNL A   1      41.291  24.430  27.529  1.00  0.00    -0.014 A 
BRANCH  40  41
ATOM     41  C   UNL A   1      41.853  25.776  27.858  1.00  0.00     0.031 A 
ATOM     42  C   UNL A   1      41.020  26.826  28.546  1.00  0.00     0.074 A 
ATOM     43  C   UNL A   1      43.124  26.066  27.507  1.00  0.00     0.049 A 
ATOM     44  N   UNL A   1      41.330  28.064  28.844  1.00  0.00    -0.248 NA
ATOM     45  C   UNL A   1      39.660  26.437  28.946  1.00  0.00     0.031 C 
ATOM     46  C   UNL A   1      44.042  25.138  26.842  1.00  0.00     0.029 A 
ATOM     47  N   UNL A   1      43.864  27.217  27.648  1.00  0.00    -0.354 N 
ATOM     48  C   UNL A   1      40.213  28.601  29.479  1.00  0.00     0.074 A 
ATOM     49  C   UNL A   1      39.201  27.564  29.476  1.00  0.00     0.031 C 
ATOM     50  C   UNL A   1      45.218  25.754  26.638  1.00  0.00     0.029 A 
ATOM     51  C   UNL A   1      45.127  27.134  27.105  1.00  0.00     0.049 A 
ATOM     52  H   UNL A   1      43.522  28.025  28.094  1.00  0.00     0.167 HD
ATOM     53  C   UNL A   1      40.053  29.834  30.024  1.00  0.00     0.034 A 
ATOM     54  C   UNL A   1      46.094  28.067  26.969  1.00  0.00     0.034 A 
ATOM     55  C   UNL A   1      41.063  30.867  30.014  1.00  0.00     0.049 A 
ATOM     56  C   UNL A   1      45.849  29.462  27.495  1.00  0.00     0.074 A 
ATOM     57  C   UNL A   1      41.002  32.137  30.567  1.00  0.00     0.029 A 
ATOM     58  N   UNL A   1      42.309  30.761  29.413  1.00  0.00    -0.354 N 
ATOM     59  N   UNL A   1      44.799  29.934  28.127  1.00  0.00    -0.248 NA
ATOM     60  C   UNL A   1      46.920  30.450  27.294  1.00  0.00     0.031 C 
ATOM     61  C   UNL A   1      42.176  32.821  30.235  1.00  0.00     0.029 A 
ATOM     62  C   UNL A   1      43.004  31.956  29.543  1.00  0.00     0.049 A 
ATOM     63  H   UNL A   1      42.651  29.956  28.961  1.00  0.00     0.167 HD
ATOM     64  C   UNL A   1      45.097  31.264  28.416  1.00  0.00     0.074 A 
ATOM     65  C   UNL A   1      46.433  31.510  27.918  1.00  0.00     0.031 C 
ATOM     66  C   UNL A   1      44.332  32.200  29.033  1.00  0.00     0.034 A 
BRANCH  53  67
ATOM     67  C   UNL A   1      38.724  30.153  30.667  1.00  0.00     0.023 A 
ATOM     68  C   UNL A   1      37.719  30.847  29.973  1.00  0.00     0.031 A 
ATOM     69  C   UNL A   1      38.442  29.723  31.977  1.00  0.00     0.131 A 
ATOM     70  C   UNL A   1      36.499  31.132  30.605  1.00  0.00     0.055 A 
ATOM     71  C   UNL A   1      37.201  29.949  32.576  1.00  0.00     0.041 A 
ATOM     72  F   UNL A   1      39.368  29.068  32.695  1.00  0.00    -0.206 F 
ATOM     73  C   UNL A   1      36.223  30.666  31.892  1.00  0.00     0.022 A 
BRANCH  70  74
ATOM     74  S   UNL A   1      35.313  32.211  29.757  1.00  0.00     0.124 S 
ATOM     75  O   UNL A   1      36.172  33.311  29.325  1.00  0.00    -0.237 OA
ATOM     76  O   UNL A   1      34.799  31.349  28.701  1.00  0.00    -0.237 OA
ATOM     77  O   UNL A   1      34.354  32.555  30.804  1.00  0.00    -0.744 OA
ENDBRANCH  70  74
ENDBRANCH  53  67
BRANCH  54  78
ATOM     78  C   UNL A   1      47.368  27.749  26.255  1.00  0.00     0.023 A 
ATOM     79  C   UNL A   1      47.498  27.956  24.871  1.00  0.00     0.031 A 
ATOM     80  C   UNL A   1      48.444  27.144  26.930  1.00  0.00     0.131 A 
ATOM     81  C   UNL A   1      48.642  27.498  24.199  1.00  0.00     0.055 A 
ATOM     82  C   UNL A   1      49.611  26.757  26.269  1.00  0.00     0.041 A 
ATOM     83  F   UNL A   1      48.375  26.914  28.251  1.00  0.00    -0.206 F 
ATOM     84  C   UNL A   1      49.706  26.915  24.890  1.00  0.00     0.022 A 
BRANCH  81  85
ATOM     85  S   UNL A   1      48.657  27.547  22.385  1.00  0.00     0.124 S 
ATOM     86  O   UNL A   1      47.389  28.205  22.096  1.00  0.00    -0.237 OA
ATOM     87  O   UNL A   1      49.862  28.325  22.114  1.00  0.00    -0.237 OA
ATOM     88  O   UNL A   1      48.730  26.137  22.008  1.00  0.00    -0.744 OA
ENDBRANCH  81  85
ENDBRANCH  54  78
BRANCH  66  89
ATOM     89  C   UNL A   1      44.937  33.569  29.224  1.00  0.00     0.023 A 
ATOM     90  C   UNL A   1      44.877  34.546  28.214  1.00  0.00     0.031 A 
ATOM     91  C   UNL A   1      45.582  33.904  30.428  1.00  0.00     0.131 A 
ATOM     92  C   UNL A   1      45.493  35.793  28.407  1.00  0.00     0.055 A 
ATOM     93  C   UNL A   1      46.141  35.166  30.638  1.00  0.00     0.041 A 
ATOM     94  F   UNL A   1      45.673  33.010  31.426  1.00  0.00    -0.206 F 
ATOM     95  C   UNL A   1      46.109  36.115  29.620  1.00  0.00     0.022 A 
BRANCH  92  96
ATOM     96  S   UNL A   1      45.546  36.963  27.023  1.00  0.00     0.124 S 
ATOM     97  O   UNL A   1      46.066  36.133  25.942  1.00  0.00    -0.237 OA
ATOM     98  O   UNL A   1      44.149  37.367  26.901  1.00  0.00    -0.237 OA
ATOM     99  O   UNL A   1      46.452  38.011  27.493  1.00  0.00    -0.744 OA
ENDBRANCH  92  96
ENDBRANCH  66  89
ENDBRANCH  40  41
ENDBRANCH  32  35
ENDBRANCH  30  31
ENDBRANCH  29  30
ENDBRANCH   1  29
TORSDOF 19
ENDMDL
MODEL 3
REMARK VINA RESULT:     -12.4      1.554      2.643
REMARK SMILES CC(C)Oc1ccc(/C=C(\NC(=O)c2ccccc2)C(=O)NCCCCNC(=O)c2ccc(-c3c4nc(c(-c5cc(S(=O)(=O)[O-])ccc5F)c5ccc([nH]5)c(-c5cc(S(=O)(=O)[O-])ccc5F)c5nc(c(-c6cc(S(=O)(=O)[O-])ccc6F)c6ccc3[nH]6)C=C5)C=C4)cc2)cc1
REMARK SMILES IDX 24 1 23 2 22 3 20 4 21 5 10 7 9 8 8 9 5 10 6 11 94 12 7 13
REMARK SMILES IDX 93 14 4 15 2 16 1 17 3 18 11 19 12 20 13 22 14 23 15 24
REMARK SMILES IDX 19 25 16 26 18 27 17 28 25 29 26 30 27 31 28 32 29 34 30 35
REMARK SMILES IDX 31 36 92 37 32 38 91 39 33 40 34 41 35 42 85 43 36 44 90 45
REMARK SMILES IDX 84 46 86 47 37 48 89 49 83 50 82 51 38 53 70 54 50 55 69 56
REMARK SMILES IDX 51 57 54 58 68 59 87 60 52 61 53 62 67 64 88 65 55 66 39 67
REMARK SMILES IDX 40 68 48 69 41 70 47 71 49 72 46 73 42 74 43 75 44 76 45 77
REMARK SMILES IDX 71 78 72 79 80 80 73 81 79 82 81 83 78 84 74 85 75 86 76 87
REMARK SMILES IDX 77 88 56 89 57 90 65 91 58 92 64 93 66 94 63 95 59 96 60 97
REMARK SMILES IDX 61 98 62 99
REMARK H PARENT 22 6 11 21 27 33 86 52 54 63
REMARK Flexibility Score: inf
ROOT
ATOM      1  C   UNL A   1      31.976  27.692  24.677  1.00  0.00     0.023 C 
ENDROOT
BRANCH   1   2
ATOM      2  C   UNL A   1      30.776  26.750  24.553  1.00  0.00     0.116 C 
BRANCH   2   3
ATOM      3  N   UNL A   1      30.480  25.777  25.593  1.00  0.00    -0.351 N 
ATOM      4  C   UNL A   1      31.194  24.669  25.977  1.00  0.00     0.267 C 
ATOM      5  O   UNL A   1      31.339  24.441  27.180  1.00  0.00    -0.268 OA
ATOM      6  H   UNL A   1      29.648  25.936  26.094  1.00  0.00     0.163 HD
BRANCH   4   7
ATOM      7  C   UNL A   1      31.750  23.723  24.954  1.00  0.00     0.107 C 
ATOM      8  C   UNL A   1      31.628  22.426  25.315  1.00  0.00     0.040 C 
BRANCH   8   9
ATOM      9  C   UNL A   1      32.293  21.181  24.867  1.00  0.00    -0.023 A 
ATOM     10  C   UNL A   1      32.651  18.419  24.399  1.00  0.00     0.119 A 
ATOM     11  C   UNL A   1      32.924  18.967  25.651  1.00  0.00     0.047 A 
ATOM     12  C   UNL A   1      32.259  19.254  23.356  1.00  0.00     0.047 A 
ATOM     13  C   UNL A   1      32.772  20.339  25.877  1.00  0.00     0.012 A 
ATOM     14  C   UNL A   1      32.080  20.634  23.588  1.00  0.00     0.012 A 
BRANCH  10  15
ATOM     15  O   UNL A   1      32.558  17.057  24.340  1.00  0.00    -0.491 OA
BRANCH  15  16
ATOM     16  C   UNL A   1      33.734  16.284  24.071  1.00  0.00     0.167 C 
ATOM     17  C   UNL A   1      34.403  16.691  22.763  1.00  0.00     0.052 C 
ATOM     18  C   UNL A   1      34.712  16.181  25.236  1.00  0.00     0.052 C 
ENDBRANCH  15  16
ENDBRANCH  10  15
ENDBRANCH   8   9
BRANCH   7  19
ATOM     19  N   UNL A   1      32.314  24.144  23.774  1.00  0.00    -0.317 N 
ATOM     20  C   UNL A   1      33.584  24.085  23.215  1.00  0.00     0.255 C 
ATOM     21  H   UNL A   1      31.665  24.594  23.187  1.00  0.00     0.170 HD
ATOM     22  O   UNL A   1      33.655  24.432  22.030  1.00  0.00    -0.269 OA
BRANCH  20  23
ATOM     23  C   UNL A   1      34.863  23.650  23.883  1.00  0.00     0.040 A 
ATOM     24  C   UNL A   1      35.167  24.234  25.132  1.00  0.00     0.014 A 
ATOM     25  C   UNL A   1      35.770  22.709  23.394  1.00  0.00     0.014 A 
ATOM     26  C   UNL A   1      36.398  24.023  25.766  1.00  0.00     0.001 A 
ATOM     27  C   UNL A   1      37.028  22.535  23.994  1.00  0.00     0.001 A 
ATOM     28  C   UNL A   1      37.350  23.207  25.169  1.00  0.00     0.000 A 
ENDBRANCH  20  23
ENDBRANCH   7  19
ENDBRANCH   4   7
ENDBRANCH   2   3
ENDBRANCH   1   2
BRANCH   1  29
ATOM     29  C   UNL A   1      31.958  28.943  25.573  1.00  0.00     0.023 C 
BRANCH  29  30
ATOM     30  C   UNL A   1      33.257  29.591  26.060  1.00  0.00     0.116 C 
BRANCH  30  31
ATOM     31  N   UNL A   1      33.064  30.977  26.457  1.00  0.00    -0.352 N 
ATOM     32  C   UNL A   1      33.719  31.716  27.419  1.00  0.00     0.251 C 
ATOM     33  H   UNL A   1      32.360  31.458  25.965  1.00  0.00     0.163 HD
ATOM     34  O   UNL A   1      33.244  32.799  27.754  1.00  0.00    -0.269 OA
BRANCH  32  35
ATOM     35  C   UNL A   1      34.971  31.240  28.070  1.00  0.00     0.039 A 
ATOM     36  C   UNL A   1      36.115  32.046  27.998  1.00  0.00     0.014 A 
ATOM     37  C   UNL A   1      35.067  29.973  28.653  1.00  0.00     0.014 A 
ATOM     38  C   UNL A   1      37.330  31.610  28.550  1.00  0.00     0.010 A 
ATOM     39  C   UNL A   1      36.280  29.546  29.221  1.00  0.00     0.010 A 
ATOM     40  C   UNL A   1      37.422  30.363  29.188  1.00  0.00    -0.014 A 
BRANCH  40  41
ATOM     41  C   UNL A   1      38.687  29.940  29.866  1.00  0.00     0.031 A 
ATOM     42  C   UNL A   1      39.586  28.892  29.261  1.00  0.00     0.074 A 
ATOM     43  C   UNL A   1      39.016  30.486  31.055  1.00  0.00     0.049 A 
ATOM     44  N   UNL A   1      40.683  28.363  29.747  1.00  0.00    -0.248 NA
ATOM     45  C   UNL A   1      39.202  28.368  27.943  1.00  0.00     0.031 C 
ATOM     46  C   UNL A   1      38.237  31.516  31.748  1.00  0.00     0.029 A 
ATOM     47  N   UNL A   1      40.078  30.254  31.898  1.00  0.00    -0.354 N 
ATOM     48  C   UNL A   1      41.129  27.454  28.792  1.00  0.00     0.074 A 
ATOM     49  C   UNL A   1      40.154  27.470  27.721  1.00  0.00     0.031 C 
ATOM     50  C   UNL A   1      38.847  31.826  32.903  1.00  0.00     0.029 A 
ATOM     51  C   UNL A   1      40.031  30.985  33.065  1.00  0.00     0.049 A 
ATOM     52  H   UNL A   1      40.803  29.623  31.688  1.00  0.00     0.167 HD
ATOM     53  C   UNL A   1      42.252  26.690  28.801  1.00  0.00     0.034 A 
ATOM     54  C   UNL A   1      40.828  30.964  34.154  1.00  0.00     0.034 A 
ATOM     55  C   UNL A   1      43.215  26.671  29.878  1.00  0.00     0.049 A 
ATOM     56  C   UNL A   1      42.014  30.030  34.179  1.00  0.00     0.074 A 
ATOM     57  C   UNL A   1      44.398  25.952  29.963  1.00  0.00     0.029 A 
ATOM     58  N   UNL A   1      43.107  27.388  31.061  1.00  0.00    -0.354 N 
ATOM     59  N   UNL A   1      42.438  29.208  33.247  1.00  0.00    -0.248 NA
ATOM     60  C   UNL A   1      42.833  30.021  35.401  1.00  0.00     0.031 C 
ATOM     61  C   UNL A   1      44.962  26.175  31.223  1.00  0.00     0.029 A 
ATOM     62  C   UNL A   1      44.176  27.093  31.897  1.00  0.00     0.049 A 
ATOM     63  H   UNL A   1      42.380  28.015  31.276  1.00  0.00     0.167 HD
ATOM     64  C   UNL A   1      43.583  28.605  33.765  1.00  0.00     0.074 A 
ATOM     65  C   UNL A   1      43.800  29.179  35.075  1.00  0.00     0.031 C 
ATOM     66  C   UNL A   1      44.380  27.659  33.209  1.00  0.00     0.034 A 
BRANCH  53  67
ATOM     67  C   UNL A   1      42.501  25.787  27.616  1.00  0.00     0.023 A 
ATOM     68  C   UNL A   1      42.004  24.474  27.575  1.00  0.00     0.031 A 
ATOM     69  C   UNL A   1      43.208  26.258  26.495  1.00  0.00     0.131 A 
ATOM     70  C   UNL A   1      42.261  23.661  26.460  1.00  0.00     0.055 A 
ATOM     71  C   UNL A   1      43.400  25.468  25.359  1.00  0.00     0.041 A 
ATOM     72  F   UNL A   1      43.719  27.500  26.481  1.00  0.00    -0.206 F 
ATOM     73  C   UNL A   1      42.933  24.158  25.341  1.00  0.00     0.022 A 
BRANCH  70  74
ATOM     74  S   UNL A   1      41.791  21.912  26.535  1.00  0.00     0.124 S 
ATOM     75  O   UNL A   1      42.509  21.363  25.387  1.00  0.00    -0.237 OA
ATOM     76  O   UNL A   1      42.279  21.508  27.848  1.00  0.00    -0.237 OA
ATOM     77  O   UNL A   1      40.336  21.941  26.392  1.00  0.00    -0.744 OA
ENDBRANCH  70  74
ENDBRANCH  53  67
BRANCH  54  78
ATOM     78  C   UNL A   1      40.514  31.807  35.348  1.00  0.00     0.023 A 
ATOM     79  C   UNL A   1      39.506  31.438  36.254  1.00  0.00     0.031 A 
ATOM     80  C   UNL A   1      41.152  33.045  35.548  1.00  0.00     0.131 A 
ATOM     81  C   UNL A   1      39.119  32.324  37.272  1.00  0.00     0.055 A 
ATOM     82  C   UNL A   1      40.814  33.891  36.605  1.00  0.00     0.041 A 
ATOM     83  F   UNL A   1      42.117  33.456  34.710  1.00  0.00    -0.206 F 
ATOM     84  C   UNL A   1      39.777  33.541  37.464  1.00  0.00     0.022 A 
BRANCH  81  85
ATOM     85  S   UNL A   1      37.646  31.926  38.253  1.00  0.00     0.124 S 
ATOM     86  O   UNL A   1      37.362  30.563  37.822  1.00  0.00    -0.237 OA
ATOM     87  O   UNL A   1      38.142  32.079  39.617  1.00  0.00    -0.237 OA
ATOM     88  O   UNL A   1      36.673  32.931  37.828  1.00  0.00    -0.744 OA
ENDBRANCH  81  85
ENDBRANCH  54  78
BRANCH  66  89
ATOM     89  C   UNL A   1      45.576  27.205  34.010  1.00  0.00     0.023 A 
ATOM     90  C   UNL A   1      45.506  26.093  34.868  1.00  0.00     0.031 A 
ATOM     91  C   UNL A   1      46.800  27.891  33.918  1.00  0.00     0.131 A 
ATOM     92  C   UNL A   1      46.623  25.728  35.637  1.00  0.00     0.055 A 
ATOM     93  C   UNL A   1      47.926  27.488  34.639  1.00  0.00     0.041 A 
ATOM     94  F   UNL A   1      46.925  28.962  33.119  1.00  0.00    -0.206 F 
ATOM     95  C   UNL A   1      47.838  26.408  35.513  1.00  0.00     0.022 A 
BRANCH  92  96
ATOM     96  S   UNL A   1      46.446  24.399  36.857  1.00  0.00     0.124 S 
ATOM     97  O   UNL A   1      45.051  24.541  37.262  1.00  0.00    -0.237 OA
ATOM     98  O   UNL A   1      46.764  23.210  36.073  1.00  0.00    -0.237 OA
ATOM     99  O   UNL A   1      47.428  24.742  37.884  1.00  0.00    -0.744 OA
ENDBRANCH  92  96
ENDBRANCH  66  89
ENDBRANCH  40  41
ENDBRANCH  32  35
ENDBRANCH  30  31
ENDBRANCH  29  30
ENDBRANCH   1  29
TORSDOF 19
ENDMDL
