MODEL 1
REMARK VINA RESULT:     -11.9      0.000      0.000
REMARK SMILES N#C/C(=C/c1ccc(-c2cccc(C(=O)NCCCCNC(=O)c3ccc(-c4c5nc(c(-c6cc(S(=O)(=O)[O-])ccc6F)c6ccc([nH]6)c(-c6cc(S(=O)(=O)[O-])ccc6F)c6nc(c(-c7cc(S(=O)(=O)[O-])ccc7F)c7ccc4[nH]7)C=C6)C=C5)cc3)c2)o1)c1ccc(F)cc1
REMARK SMILES IDX 18 1 17 2 16 3 14 4 15 5 13 7 9 8 10 9 87 10 11 11 12 12
REMARK SMILES IDX 8 13 5 14 6 15 88 16 7 17 4 18 3 19 2 20 1 21 89 22 90 23
REMARK SMILES IDX 95 24 91 25 94 26 92 27 93 28 19 29 20 30 21 31 22 32 23 34
REMARK SMILES IDX 24 35 25 36 86 37 26 38 85 39 27 40 28 41 29 42 79 43 30 44
REMARK SMILES IDX 84 45 78 46 80 47 31 48 83 49 77 50 76 51 32 53 64 54 44 55
REMARK SMILES IDX 63 56 45 57 48 58 62 59 81 60 46 61 47 62 61 64 82 65 49 66
REMARK SMILES IDX 33 67 34 68 42 69 35 70 41 71 43 72 40 73 36 74 37 75 38 76
REMARK SMILES IDX 39 77 65 78 66 79 74 80 67 81 73 82 75 83 72 84 68 85 69 86
REMARK SMILES IDX 70 87 71 88 50 89 51 90 59 91 52 92 58 93 60 94 57 95 53 96
REMARK SMILES IDX 54 97 55 98 56 99
REMARK H PARENT 16 6 21 33 80 52 48 63
REMARK Flexibility Score: inf
ROOT
ATOM      1  C   UNL A   1      38.925  22.791  26.351  1.00  0.00     0.023 C 
ENDROOT
BRANCH   1   2
ATOM      2  C   UNL A   1      37.661  23.447  25.814  1.00  0.00     0.116 C 
BRANCH   2   3
ATOM      3  N   UNL A   1      37.499  23.399  24.365  1.00  0.00    -0.352 N 
ATOM      4  C   UNL A   1      36.449  22.956  23.582  1.00  0.00     0.251 C 
ATOM      5  O   UNL A   1      36.543  23.003  22.358  1.00  0.00    -0.269 OA
ATOM      6  H   UNL A   1      38.271  23.741  23.858  1.00  0.00     0.163 HD
BRANCH   4   7
ATOM      7  C   UNL A   1      35.232  22.354  24.189  1.00  0.00     0.040 A 
ATOM      8  C   UNL A   1      33.003  22.685  25.076  1.00  0.00     0.018 A 
ATOM      9  C   UNL A   1      33.113  21.487  25.787  1.00  0.00     0.012 A 
ATOM     10  C   UNL A   1      34.013  23.022  24.168  1.00  0.00     0.025 A 
ATOM     11  C   UNL A   1      34.253  20.688  25.641  1.00  0.00     0.002 A 
ATOM     12  C   UNL A   1      35.331  21.142  24.876  1.00  0.00     0.014 A 
BRANCH   8  13
ATOM     13  C   UNL A   1      31.995  23.698  25.358  1.00  0.00     0.134 A 
ATOM     14  C   UNL A   1      30.663  25.371  24.745  1.00  0.00     0.128 A 
ATOM     15  C   UNL A   1      30.167  24.835  25.929  1.00  0.00     0.051 A 
ATOM     16  O   UNL A   1      31.779  24.641  24.393  1.00  0.00    -0.457 OA
ATOM     17  C   UNL A   1      31.040  23.812  26.343  1.00  0.00     0.051 A 
BRANCH  14  18
ATOM     18  C   UNL A   1      30.192  26.508  24.020  1.00  0.00     0.067 C 
ATOM     19  C   UNL A   1      30.654  27.741  24.303  1.00  0.00     0.063 C 
BRANCH  19  20
ATOM     20  C   UNL A   1      30.119  28.987  23.614  1.00  0.00     0.100 C 
ATOM     21  N   UNL A   1      29.675  30.020  23.043  1.00  0.00    -0.192 NA
ENDBRANCH  19  20
BRANCH  19  22
ATOM     22  C   UNL A   1      31.746  27.999  25.289  1.00  0.00    -0.007 A 
ATOM     23  C   UNL A   1      31.453  28.208  26.651  1.00  0.00     0.012 A 
ATOM     24  C   UNL A   1      33.084  28.073  24.869  1.00  0.00     0.012 A 
ATOM     25  C   UNL A   1      32.461  28.550  27.554  1.00  0.00     0.040 A 
ATOM     26  C   UNL A   1      34.094  28.395  25.779  1.00  0.00     0.040 A 
ATOM     27  C   UNL A   1      33.772  28.644  27.109  1.00  0.00     0.123 A 
ATOM     28  F   UNL A   1      34.738  28.984  27.971  1.00  0.00    -0.207 F 
ENDBRANCH  19  22
ENDBRANCH  14  18
ENDBRANCH   8  13
ENDBRANCH   4   7
ENDBRANCH   2   3
ENDBRANCH   1   2
BRANCH   1  29
ATOM     29  C   UNL A   1      39.249  21.401  25.824  1.00  0.00     0.023 C 
BRANCH  29  30
ATOM     30  C   UNL A   1      39.992  20.473  26.779  1.00  0.00     0.116 C 
BRANCH  30  31
ATOM     31  N   UNL A   1      40.942  19.584  26.127  1.00  0.00    -0.352 N 
ATOM     32  C   UNL A   1      42.257  19.810  25.776  1.00  0.00     0.251 C 
ATOM     33  H   UNL A   1      40.596  18.690  25.904  1.00  0.00     0.163 HD
ATOM     34  O   UNL A   1      42.878  18.947  25.171  1.00  0.00    -0.269 OA
BRANCH  32  35
ATOM     35  C   UNL A   1      42.891  21.113  26.089  1.00  0.00     0.039 A 
ATOM     36  C   UNL A   1      43.036  22.055  25.066  1.00  0.00     0.014 A 
ATOM     37  C   UNL A   1      43.307  21.420  27.386  1.00  0.00     0.014 A 
ATOM     38  C   UNL A   1      43.513  23.335  25.365  1.00  0.00     0.010 A 
ATOM     39  C   UNL A   1      43.700  22.718  27.696  1.00  0.00     0.010 A 
ATOM     40  C   UNL A   1      43.805  23.693  26.691  1.00  0.00    -0.014 A 
BRANCH  40  41
ATOM     41  C   UNL A   1      44.233  25.071  27.051  1.00  0.00     0.031 A 
ATOM     42  C   UNL A   1      43.230  26.044  27.612  1.00  0.00     0.074 A 
ATOM     43  C   UNL A   1      45.496  25.473  26.801  1.00  0.00     0.049 A 
ATOM     44  N   UNL A   1      43.367  27.317  27.881  1.00  0.00    -0.248 NA
ATOM     45  C   UNL A   1      41.881  25.519  27.866  1.00  0.00     0.031 C 
ATOM     46  C   UNL A   1      46.550  24.639  26.218  1.00  0.00     0.029 A 
ATOM     47  N   UNL A   1      46.106  26.688  26.993  1.00  0.00    -0.354 N 
ATOM     48  C   UNL A   1      42.118  27.750  28.314  1.00  0.00     0.074 A 
ATOM     49  C   UNL A   1      41.224  26.617  28.209  1.00  0.00     0.031 C 
ATOM     50  C   UNL A   1      47.678  25.361  26.119  1.00  0.00     0.029 A 
ATOM     51  C   UNL A   1      47.422  26.718  26.590  1.00  0.00     0.049 A 
ATOM     52  H   UNL A   1      45.646  27.465  27.382  1.00  0.00     0.167 HD
ATOM     53  C   UNL A   1      41.756  28.972  28.780  1.00  0.00     0.034 A 
ATOM     54  C   UNL A   1      48.315  27.727  26.588  1.00  0.00     0.034 A 
ATOM     55  C   UNL A   1      42.665  30.085  28.900  1.00  0.00     0.049 A 
ATOM     56  C   UNL A   1      47.892  29.078  27.110  1.00  0.00     0.074 A 
ATOM     57  C   UNL A   1      42.420  31.350  29.407  1.00  0.00     0.029 A 
ATOM     58  N   UNL A   1      43.998  30.068  28.508  1.00  0.00    -0.354 N 
ATOM     59  N   UNL A   1      46.717  29.459  27.558  1.00  0.00    -0.248 NA
ATOM     60  C   UNL A   1      48.917  30.128  27.141  1.00  0.00     0.031 C 
ATOM     61  C   UNL A   1      43.585  32.112  29.270  1.00  0.00     0.029 A 
ATOM     62  C   UNL A   1      44.580  31.305  28.744  1.00  0.00     0.049 A 
ATOM     63  H   UNL A   1      44.462  29.292  28.120  1.00  0.00     0.167 HD
ATOM     64  C   UNL A   1      46.876  30.784  27.955  1.00  0.00     0.074 A 
ATOM     65  C   UNL A   1      48.259  31.130  27.705  1.00  0.00     0.031 C 
ATOM     66  C   UNL A   1      45.961  31.635  28.486  1.00  0.00     0.034 A 
BRANCH  53  67
ATOM     67  C   UNL A   1      40.308  29.162  29.169  1.00  0.00     0.023 A 
ATOM     68  C   UNL A   1      39.899  29.147  30.514  1.00  0.00     0.031 A 
ATOM     69  C   UNL A   1      39.319  29.319  28.182  1.00  0.00     0.131 A 
ATOM     70  C   UNL A   1      38.534  29.196  30.832  1.00  0.00     0.055 A 
ATOM     71  C   UNL A   1      37.968  29.458  28.511  1.00  0.00     0.041 A 
ATOM     72  F   UNL A   1      39.644  29.323  26.881  1.00  0.00    -0.206 F 
ATOM     73  C   UNL A   1      37.566  29.379  29.842  1.00  0.00     0.022 A 
BRANCH  70  74
ATOM     74  S   UNL A   1      38.034  28.861  32.543  1.00  0.00     0.124 S 
ATOM     75  O   UNL A   1      38.227  27.416  32.628  1.00  0.00    -0.237 OA
ATOM     76  O   UNL A   1      38.966  29.678  33.310  1.00  0.00    -0.237 OA
ATOM     77  O   UNL A   1      36.639  29.299  32.583  1.00  0.00    -0.744 OA
ENDBRANCH  70  74
ENDBRANCH  53  67
BRANCH  54  78
ATOM     78  C   UNL A   1      49.699  27.514  26.075  1.00  0.00     0.023 A 
ATOM     79  C   UNL A   1      49.996  27.667  24.711  1.00  0.00     0.031 A 
ATOM     80  C   UNL A   1      50.738  27.110  26.934  1.00  0.00     0.131 A 
ATOM     81  C   UNL A   1      51.282  27.370  24.237  1.00  0.00     0.055 A 
ATOM     82  C   UNL A   1      52.029  26.866  26.465  1.00  0.00     0.041 A 
ATOM     83  F   UNL A   1      50.510  26.957  28.248  1.00  0.00    -0.206 F 
ATOM     84  C   UNL A   1      52.305  26.982  25.106  1.00  0.00     0.022 A 
BRANCH  81  85
ATOM     85  S   UNL A   1      51.581  27.419  22.448  1.00  0.00     0.124 S 
ATOM     86  O   UNL A   1      50.268  27.070  21.918  1.00  0.00    -0.237 OA
ATOM     87  O   UNL A   1      52.007  28.801  22.251  1.00  0.00    -0.237 OA
ATOM     88  O   UNL A   1      52.623  26.414  22.249  1.00  0.00    -0.744 OA
ENDBRANCH  81  85
ENDBRANCH  54  78
BRANCH  66  89
ATOM     89  C   UNL A   1      46.452  33.006  28.883  1.00  0.00     0.023 A 
ATOM     90  C   UNL A   1      46.407  34.097  27.998  1.00  0.00     0.031 A 
ATOM     91  C   UNL A   1      46.981  33.217  30.170  1.00  0.00     0.131 A 
ATOM     92  C   UNL A   1      46.933  35.337  28.393  1.00  0.00     0.055 A 
ATOM     93  C   UNL A   1      47.449  34.467  30.575  1.00  0.00     0.041 A 
ATOM     94  F   UNL A   1      47.048  32.209  31.054  1.00  0.00    -0.206 F 
ATOM     95  C   UNL A   1      47.439  35.533  29.680  1.00  0.00     0.022 A 
BRANCH  92  96
ATOM     96  S   UNL A   1      47.027  36.672  27.169  1.00  0.00     0.124 S 
ATOM     97  O   UNL A   1      47.933  37.615  27.815  1.00  0.00    -0.237 OA
ATOM     98  O   UNL A   1      47.554  35.982  25.995  1.00  0.00    -0.237 OA
ATOM     99  O   UNL A   1      45.642  37.126  27.048  1.00  0.00    -0.744 OA
ENDBRANCH  92  96
ENDBRANCH  66  89
ENDBRANCH  40  41
ENDBRANCH  32  35
ENDBRANCH  30  31
ENDBRANCH  29  30
ENDBRANCH   1  29
TORSDOF 18
ENDMDL
MODEL 2
REMARK VINA RESULT:     -11.6      0.866      7.558
REMARK SMILES N#C/C(=C/c1ccc(-c2cccc(C(=O)NCCCCNC(=O)c3ccc(-c4c5nc(c(-c6cc(S(=O)(=O)[O-])ccc6F)c6ccc([nH]6)c(-c6cc(S(=O)(=O)[O-])ccc6F)c6nc(c(-c7cc(S(=O)(=O)[O-])ccc7F)c7ccc4[nH]7)C=C6)C=C5)cc3)c2)o1)c1ccc(F)cc1
REMARK SMILES IDX 18 1 17 2 16 3 14 4 15 5 13 7 9 8 10 9 87 10 11 11 12 12
REMARK SMILES IDX 8 13 5 14 6 15 88 16 7 17 4 18 3 19 2 20 1 21 89 22 90 23
REMARK SMILES IDX 95 24 91 25 94 26 92 27 93 28 19 29 20 30 21 31 22 32 23 34
REMARK SMILES IDX 24 35 25 36 86 37 26 38 85 39 27 40 28 41 29 42 79 43 30 44
REMARK SMILES IDX 84 45 78 46 80 47 31 48 83 49 77 50 76 51 32 53 64 54 44 55
REMARK SMILES IDX 63 56 45 57 48 58 62 59 81 60 46 61 47 62 61 64 82 65 49 66
REMARK SMILES IDX 33 67 34 68 42 69 35 70 41 71 43 72 40 73 36 74 37 75 38 76
REMARK SMILES IDX 39 77 65 78 66 79 74 80 67 81 73 82 75 83 72 84 68 85 69 86
REMARK SMILES IDX 70 87 71 88 50 89 51 90 59 91 52 92 58 93 60 94 57 95 53 96
REMARK SMILES IDX 54 97 55 98 56 99
REMARK H PARENT 16 6 21 33 80 52 48 63
REMARK Flexibility Score: inf
ROOT
ATOM      1  C   UNL A   1      39.276  22.838  26.573  1.00  0.00     0.023 C 
ENDROOT
BRANCH   1   2
ATOM      2  C   UNL A   1      38.029  23.565  26.091  1.00  0.00     0.116 C 
BRANCH   2   3
ATOM      3  N   UNL A   1      37.759  23.462  24.661  1.00  0.00    -0.352 N 
ATOM      4  C   UNL A   1      36.639  23.025  23.977  1.00  0.00     0.251 C 
ATOM      5  O   UNL A   1      36.643  23.018  22.749  1.00  0.00    -0.269 OA
ATOM      6  H   UNL A   1      38.501  23.754  24.084  1.00  0.00     0.163 HD
BRANCH   4   7
ATOM      7  C   UNL A   1      35.451  22.494  24.696  1.00  0.00     0.040 A 
ATOM      8  C   UNL A   1      33.208  22.884  25.522  1.00  0.00     0.018 A 
ATOM      9  C   UNL A   1      33.373  21.851  26.447  1.00  0.00     0.012 A 
ATOM     10  C   UNL A   1      34.202  23.089  24.559  1.00  0.00     0.025 A 
ATOM     11  C   UNL A   1      34.549  21.092  26.447  1.00  0.00     0.002 A 
ATOM     12  C   UNL A   1      35.605  21.442  25.601  1.00  0.00     0.014 A 
BRANCH   8  13
ATOM     13  C   UNL A   1      32.153  23.885  25.614  1.00  0.00     0.134 A 
ATOM     14  C   UNL A   1      30.827  25.433  24.721  1.00  0.00     0.128 A 
ATOM     15  C   UNL A   1      30.255  25.011  25.917  1.00  0.00     0.051 A 
ATOM     16  O   UNL A   1      31.987  24.710  24.537  1.00  0.00    -0.457 OA
ATOM     17  C   UNL A   1      31.121  24.071  26.505  1.00  0.00     0.051 A 
BRANCH  14  18
ATOM     18  C   UNL A   1      30.384  26.467  23.842  1.00  0.00     0.067 C 
ATOM     19  C   UNL A   1      30.789  27.739  24.018  1.00  0.00     0.063 C 
BRANCH  19  20
ATOM     20  C   UNL A   1      30.276  28.882  23.158  1.00  0.00     0.100 C 
ATOM     21  N   UNL A   1      29.851  29.831  22.444  1.00  0.00    -0.192 NA
ENDBRANCH  19  20
BRANCH  19  22
ATOM     22  C   UNL A   1      31.797  28.140  25.046  1.00  0.00    -0.007 A 
ATOM     23  C   UNL A   1      33.177  28.047  24.777  1.00  0.00     0.012 A 
ATOM     24  C   UNL A   1      31.385  28.583  26.313  1.00  0.00     0.012 A 
ATOM     25  C   UNL A   1      34.118  28.323  25.771  1.00  0.00     0.040 A 
ATOM     26  C   UNL A   1      32.330  28.879  27.300  1.00  0.00     0.040 A 
ATOM     27  C   UNL A   1      33.685  28.733  27.024  1.00  0.00     0.123 A 
ATOM     28  F   UNL A   1      34.586  28.987  27.982  1.00  0.00    -0.207 F 
ENDBRANCH  19  22
ENDBRANCH  14  18
ENDBRANCH   8  13
ENDBRANCH   4   7
ENDBRANCH   2   3
ENDBRANCH   1   2
BRANCH   1  29
ATOM     29  C   UNL A   1      39.526  21.453  25.991  1.00  0.00     0.023 C 
BRANCH  29  30
ATOM     30  C   UNL A   1      40.391  20.517  26.826  1.00  0.00     0.116 C 
BRANCH  30  31
ATOM     31  N   UNL A   1      41.405  19.804  26.063  1.00  0.00    -0.352 N 
ATOM     32  C   UNL A   1      42.643  20.234  25.632  1.00  0.00     0.251 C 
ATOM     33  H   UNL A   1      41.174  18.879  25.819  1.00  0.00     0.163 HD
ATOM     34  O   UNL A   1      43.332  19.497  24.940  1.00  0.00    -0.269 OA
BRANCH  32  35
ATOM     35  C   UNL A   1      43.107  21.602  25.966  1.00  0.00     0.039 A 
ATOM     36  C   UNL A   1      43.072  22.586  24.974  1.00  0.00     0.014 A 
ATOM     37  C   UNL A   1      43.538  21.923  27.254  1.00  0.00     0.014 A 
ATOM     38  C   UNL A   1      43.382  23.911  25.300  1.00  0.00     0.010 A 
ATOM     39  C   UNL A   1      43.764  23.253  27.596  1.00  0.00     0.010 A 
ATOM     40  C   UNL A   1      43.686  24.264  26.624  1.00  0.00    -0.014 A 
BRANCH  40  41
ATOM     41  C   UNL A   1      43.938  25.676  27.018  1.00  0.00     0.031 A 
ATOM     42  C   UNL A   1      45.339  26.226  26.979  1.00  0.00     0.074 A 
ATOM     43  C   UNL A   1      42.928  26.437  27.486  1.00  0.00     0.049 A 
ATOM     44  N   UNL A   1      45.790  27.384  27.387  1.00  0.00    -0.248 NA
ATOM     45  C   UNL A   1      46.377  25.332  26.442  1.00  0.00     0.031 C 
ATOM     46  C   UNL A   1      41.533  26.006  27.616  1.00  0.00     0.029 A 
ATOM     47  N   UNL A   1      42.918  27.729  27.951  1.00  0.00    -0.354 N 
ATOM     48  C   UNL A   1      47.164  27.350  27.178  1.00  0.00     0.074 A 
ATOM     49  C   UNL A   1      47.478  26.033  26.668  1.00  0.00     0.031 C 
ATOM     50  C   UNL A   1      40.803  27.021  28.107  1.00  0.00     0.029 A 
ATOM     51  C   UNL A   1      41.678  28.159  28.368  1.00  0.00     0.049 A 
ATOM     52  H   UNL A   1      43.722  28.295  27.984  1.00  0.00     0.167 HD
ATOM     53  C   UNL A   1      48.078  28.335  27.371  1.00  0.00     0.034 A 
ATOM     54  C   UNL A   1      41.294  29.332  28.909  1.00  0.00     0.034 A 
ATOM     55  C   UNL A   1      47.746  29.651  27.860  1.00  0.00     0.049 A 
ATOM     56  C   UNL A   1      42.326  30.414  29.115  1.00  0.00     0.074 A 
ATOM     57  C   UNL A   1      48.581  30.740  28.043  1.00  0.00     0.029 A 
ATOM     58  N   UNL A   1      46.474  30.059  28.244  1.00  0.00    -0.354 N 
ATOM     59  N   UNL A   1      43.617  30.381  28.871  1.00  0.00    -0.248 NA
ATOM     60  C   UNL A   1      41.847  31.692  29.654  1.00  0.00     0.031 C 
ATOM     61  C   UNL A   1      47.827  31.785  28.589  1.00  0.00     0.029 A 
ATOM     62  C   UNL A   1      46.507  31.374  28.681  1.00  0.00     0.049 A 
ATOM     63  H   UNL A   1      45.668  29.496  28.211  1.00  0.00     0.167 HD
ATOM     64  C   UNL A   1      44.094  31.648  29.195  1.00  0.00     0.074 A 
ATOM     65  C   UNL A   1      42.953  32.422  29.640  1.00  0.00     0.031 C 
ATOM     66  C   UNL A   1      45.361  32.131  29.125  1.00  0.00     0.034 A 
BRANCH  53  67
ATOM     67  C   UNL A   1      49.522  28.006  27.072  1.00  0.00     0.023 A 
ATOM     68  C   UNL A   1      50.118  28.355  25.847  1.00  0.00     0.031 A 
ATOM     69  C   UNL A   1      50.302  27.300  28.004  1.00  0.00     0.131 A 
ATOM     70  C   UNL A   1      51.419  27.922  25.551  1.00  0.00     0.055 A 
ATOM     71  C   UNL A   1      51.628  26.949  27.739  1.00  0.00     0.041 A 
ATOM     72  F   UNL A   1      49.784  26.922  29.183  1.00  0.00    -0.206 F 
ATOM     73  C   UNL A   1      52.188  27.244  26.498  1.00  0.00     0.022 A 
BRANCH  70  74
ATOM     74  S   UNL A   1      52.030  28.121  23.855  1.00  0.00     0.124 S 
ATOM     75  O   UNL A   1      53.471  28.231  24.074  1.00  0.00    -0.237 OA
ATOM     76  O   UNL A   1      51.572  26.899  23.208  1.00  0.00    -0.237 OA
ATOM     77  O   UNL A   1      51.382  29.350  23.401  1.00  0.00    -0.744 OA
ENDBRANCH  70  74
ENDBRANCH  53  67
BRANCH  54  78
ATOM     78  C   UNL A   1      39.873  29.557  29.302  1.00  0.00     0.023 A 
ATOM     79  C   UNL A   1      39.493  29.582  30.653  1.00  0.00     0.031 A 
ATOM     80  C   UNL A   1      38.866  29.705  28.331  1.00  0.00     0.131 A 
ATOM     81  C   UNL A   1      38.137  29.701  30.997  1.00  0.00     0.055 A 
ATOM     82  C   UNL A   1      37.526  29.875  28.679  1.00  0.00     0.041 A 
ATOM     83  F   UNL A   1      39.177  29.696  27.025  1.00  0.00    -0.206 F 
ATOM     84  C   UNL A   1      37.153  29.860  30.019  1.00  0.00     0.022 A 
BRANCH  81  85
ATOM     85  S   UNL A   1      37.670  29.564  32.744  1.00  0.00     0.124 S 
ATOM     86  O   UNL A   1      37.514  28.122  32.897  1.00  0.00    -0.237 OA
ATOM     87  O   UNL A   1      38.821  30.161  33.413  1.00  0.00    -0.237 OA
ATOM     88  O   UNL A   1      36.433  30.338  32.827  1.00  0.00    -0.744 OA
ENDBRANCH  81  85
ENDBRANCH  54  78
BRANCH  66  89
ATOM     89  C   UNL A   1      45.562  33.583  29.485  1.00  0.00     0.023 A 
ATOM     90  C   UNL A   1      45.540  34.599  28.516  1.00  0.00     0.031 A 
ATOM     91  C   UNL A   1      45.788  33.948  30.825  1.00  0.00     0.131 A 
ATOM     92  C   UNL A   1      45.794  35.928  28.892  1.00  0.00     0.055 A 
ATOM     93  C   UNL A   1      45.983  35.278  31.200  1.00  0.00     0.041 A 
ATOM     94  F   UNL A   1      45.820  33.016  31.791  1.00  0.00    -0.206 F 
ATOM     95  C   UNL A   1      46.000  36.275  30.230  1.00  0.00     0.022 A 
BRANCH  92  96
ATOM     96  S   UNL A   1      45.940  37.187  27.595  1.00  0.00     0.124 S 
ATOM     97  O   UNL A   1      45.931  36.378  26.381  1.00  0.00    -0.237 OA
ATOM     98  O   UNL A   1      44.754  38.008  27.823  1.00  0.00    -0.237 OA
ATOM     99  O   UNL A   1      47.211  37.843  27.894  1.00  0.00    -0.744 OA
ENDBRANCH  92  96
ENDBRANCH  66  89
ENDBRANCH  40  41
ENDBRANCH  32  35
ENDBRANCH  30  31
ENDBRANCH  29  30
ENDBRANCH   1  29
TORSDOF 18
ENDMDL
MODEL 3
REMARK VINA RESULT:     -11.2      2.055      7.664
REMARK SMILES N#C/C(=C/c1ccc(-c2cccc(C(=O)NCCCCNC(=O)c3ccc(-c4c5nc(c(-c6cc(S(=O)(=O)[O-])ccc6F)c6ccc([nH]6)c(-c6cc(S(=O)(=O)[O-])ccc6F)c6nc(c(-c7cc(S(=O)(=O)[O-])ccc7F)c7ccc4[nH]7)C=C6)C=C5)cc3)c2)o1)c1ccc(F)cc1
REMARK SMILES IDX 18 1 17 2 16 3 14 4 15 5 13 7 9 8 10 9 87 10 11 11 12 12
REMARK SMILES IDX 8 13 5 14 6 15 88 16 7 17 4 18 3 19 2 20 1 21 89 22 90 23
REMARK SMILES IDX 95 24 91 25 94 26 92 27 93 28 19 29 20 30 21 31 22 32 23 34
REMARK SMILES IDX 24 35 25 36 86 37 26 38 85 39 27 40 28 41 29 42 79 43 30 44
REMARK SMILES IDX 84 45 78 46 80 47 31 48 83 49 77 50 76 51 32 53 64 54 44 55
REMARK SMILES IDX 63 56 45 57 48 58 62 59 81 60 46 61 47 62 61 64 82 65 49 66
REMARK SMILES IDX 33 67 34 68 42 69 35 70 41 71 43 72 40 73 36 74 37 75 38 76
REMARK SMILES IDX 39 77 65 78 66 79 74 80 67 81 73 82 75 83 72 84 68 85 69 86
REMARK SMILES IDX 70 87 71 88 50 89 51 90 59 91 52 92 58 93 60 94 57 95 53 96
REMARK SMILES IDX 54 97 55 98 56 99
REMARK H PARENT 16 6 21 33 80 52 48 63
REMARK Flexibility Score: inf
ROOT
ATOM      1  C   UNL A   1      38.345  23.111  26.089  1.00  0.00     0.023 C 
ENDROOT
BRANCH   1   2
ATOM      2  C   UNL A   1      36.961  22.821  25.526  1.00  0.00     0.116 C 
BRANCH   2   3
ATOM      3  N   UNL A   1      35.993  22.300  26.485  1.00  0.00    -0.352 N 
ATOM      4  C   UNL A   1      34.702  21.834  26.310  1.00  0.00     0.251 C 
ATOM      5  O   UNL A   1      34.060  21.448  27.284  1.00  0.00    -0.269 OA
ATOM      6  H   UNL A   1      36.313  22.276  27.416  1.00  0.00     0.163 HD
BRANCH   4   7
ATOM      7  C   UNL A   1      34.044  21.858  24.977  1.00  0.00     0.040 A 
ATOM      8  C   UNL A   1      33.206  23.175  23.126  1.00  0.00     0.018 A 
ATOM      9  C   UNL A   1      32.378  22.115  22.752  1.00  0.00     0.012 A 
ATOM     10  C   UNL A   1      34.138  22.971  24.150  1.00  0.00     0.025 A 
ATOM     11  C   UNL A   1      32.437  20.900  23.446  1.00  0.00     0.002 A 
ATOM     12  C   UNL A   1      33.238  20.787  24.586  1.00  0.00     0.014 A 
BRANCH   8  13
ATOM     13  C   UNL A   1      33.031  24.540  22.646  1.00  0.00     0.134 A 
ATOM     14  C   UNL A   1      31.801  26.362  22.302  1.00  0.00     0.128 A 
ATOM     15  C   UNL A   1      33.142  26.730  22.254  1.00  0.00     0.051 A 
ATOM     16  O   UNL A   1      31.750  25.009  22.570  1.00  0.00    -0.457 OA
ATOM     17  C   UNL A   1      33.918  25.568  22.418  1.00  0.00     0.051 A 
BRANCH  14  18
ATOM     18  C   UNL A   1      30.649  27.170  22.058  1.00  0.00     0.067 C 
ATOM     19  C   UNL A   1      30.127  27.933  23.037  1.00  0.00     0.063 C 
BRANCH  19  20
ATOM     20  C   UNL A   1      28.855  28.743  22.845  1.00  0.00     0.100 C 
ATOM     21  N   UNL A   1      27.799  29.414  22.686  1.00  0.00    -0.192 NA
ENDBRANCH  19  20
BRANCH  19  22
ATOM     22  C   UNL A   1      30.757  28.080  24.384  1.00  0.00    -0.007 A 
ATOM     23  C   UNL A   1      31.412  29.274  24.746  1.00  0.00     0.012 A 
ATOM     24  C   UNL A   1      30.740  27.016  25.300  1.00  0.00     0.012 A 
ATOM     25  C   UNL A   1      32.090  29.375  25.963  1.00  0.00     0.040 A 
ATOM     26  C   UNL A   1      31.403  27.127  26.526  1.00  0.00     0.040 A 
ATOM     27  C   UNL A   1      32.082  28.300  26.839  1.00  0.00     0.123 A 
ATOM     28  F   UNL A   1      32.741  28.391  28.001  1.00  0.00    -0.207 F 
ENDBRANCH  19  22
ENDBRANCH  14  18
ENDBRANCH   8  13
ENDBRANCH   4   7
ENDBRANCH   2   3
ENDBRANCH   1   2
BRANCH   1  29
ATOM     29  C   UNL A   1      39.145  21.914  26.583  1.00  0.00     0.023 C 
BRANCH  29  30
ATOM     30  C   UNL A   1      39.368  20.790  25.578  1.00  0.00     0.116 C 
BRANCH  30  31
ATOM     31  N   UNL A   1      40.374  19.818  25.984  1.00  0.00    -0.352 N 
ATOM     32  C   UNL A   1      41.620  20.025  26.537  1.00  0.00     0.251 C 
ATOM     33  H   UNL A   1      40.128  18.876  25.843  1.00  0.00     0.163 HD
ATOM     34  O   UNL A   1      42.353  19.069  26.752  1.00  0.00    -0.269 OA
BRANCH  32  35
ATOM     35  C   UNL A   1      42.084  21.405  26.818  1.00  0.00     0.039 A 
ATOM     36  C   UNL A   1      42.285  22.281  25.747  1.00  0.00     0.014 A 
ATOM     37  C   UNL A   1      42.285  21.846  28.128  1.00  0.00     0.014 A 
ATOM     38  C   UNL A   1      42.596  23.621  25.996  1.00  0.00     0.010 A 
ATOM     39  C   UNL A   1      42.512  23.196  28.375  1.00  0.00     0.010 A 
ATOM     40  C   UNL A   1      42.667  24.101  27.313  1.00  0.00    -0.014 A 
BRANCH  40  41
ATOM     41  C   UNL A   1      42.914  25.538  27.608  1.00  0.00     0.031 A 
ATOM     42  C   UNL A   1      44.301  26.105  27.461  1.00  0.00     0.074 A 
ATOM     43  C   UNL A   1      41.916  26.311  28.084  1.00  0.00     0.049 A 
ATOM     44  N   UNL A   1      44.752  27.292  27.775  1.00  0.00    -0.248 NA
ATOM     45  C   UNL A   1      45.324  25.197  26.922  1.00  0.00     0.031 C 
ATOM     46  C   UNL A   1      40.539  25.868  28.315  1.00  0.00     0.029 A 
ATOM     47  N   UNL A   1      41.908  27.628  28.472  1.00  0.00    -0.354 N 
ATOM     48  C   UNL A   1      46.113  27.267  27.494  1.00  0.00     0.074 A 
ATOM     49  C   UNL A   1      46.423  25.926  27.046  1.00  0.00     0.031 C 
ATOM     50  C   UNL A   1      39.818  26.899  28.784  1.00  0.00     0.029 A 
ATOM     51  C   UNL A   1      40.685  28.064  28.929  1.00  0.00     0.049 A 
ATOM     52  H   UNL A   1      42.702  28.207  28.428  1.00  0.00     0.167 HD
ATOM     53  C   UNL A   1      47.018  28.275  27.579  1.00  0.00     0.034 A 
ATOM     54  C   UNL A   1      40.309  29.261  29.421  1.00  0.00     0.034 A 
ATOM     55  C   UNL A   1      46.689  29.614  28.006  1.00  0.00     0.049 A 
ATOM     56  C   UNL A   1      41.330  30.368  29.506  1.00  0.00     0.074 A 
ATOM     57  C   UNL A   1      47.513  30.724  28.079  1.00  0.00     0.029 A 
ATOM     58  N   UNL A   1      45.432  30.024  28.434  1.00  0.00    -0.354 N 
ATOM     59  N   UNL A   1      42.606  30.341  29.194  1.00  0.00    -0.248 NA
ATOM     60  C   UNL A   1      40.858  31.670  29.994  1.00  0.00     0.031 C 
ATOM     61  C   UNL A   1      46.770  31.788  28.602  1.00  0.00     0.029 A 
ATOM     62  C   UNL A   1      45.465  31.364  28.790  1.00  0.00     0.049 A 
ATOM     63  H   UNL A   1      44.635  29.448  28.478  1.00  0.00     0.167 HD
ATOM     64  C   UNL A   1      43.077  31.632  29.417  1.00  0.00     0.074 A 
ATOM     65  C   UNL A   1      41.948  32.413  29.877  1.00  0.00     0.031 C 
ATOM     66  C   UNL A   1      44.330  32.129  29.250  1.00  0.00     0.034 A 
BRANCH  53  67
ATOM     67  C   UNL A   1      48.450  27.951  27.221  1.00  0.00     0.023 A 
ATOM     68  C   UNL A   1      48.967  28.214  25.940  1.00  0.00     0.031 A 
ATOM     69  C   UNL A   1      49.298  27.334  28.158  1.00  0.00     0.131 A 
ATOM     70  C   UNL A   1      50.258  27.782  25.603  1.00  0.00     0.055 A 
ATOM     71  C   UNL A   1      50.614  26.988  27.844  1.00  0.00     0.041 A 
ATOM     72  F   UNL A   1      48.857  27.041  29.391  1.00  0.00    -0.206 F 
ATOM     73  C   UNL A   1      51.096  27.195  26.553  1.00  0.00     0.022 A 
BRANCH  70  74
ATOM     74  S   UNL A   1      50.768  27.860  23.864  1.00  0.00     0.124 S 
ATOM     75  O   UNL A   1      51.675  26.719  23.773  1.00  0.00    -0.237 OA
ATOM     76  O   UNL A   1      49.500  27.727  23.157  1.00  0.00    -0.237 OA
ATOM     77  O   UNL A   1      51.411  29.168  23.754  1.00  0.00    -0.744 OA
ENDBRANCH  70  74
ENDBRANCH  53  67
BRANCH  54  78
ATOM     78  C   UNL A   1      38.907  29.488  29.876  1.00  0.00     0.023 A 
ATOM     79  C   UNL A   1      37.984  30.163  29.061  1.00  0.00     0.031 A 
ATOM     80  C   UNL A   1      38.481  29.073  31.150  1.00  0.00     0.131 A 
ATOM     81  C   UNL A   1      36.698  30.447  29.546  1.00  0.00     0.055 A 
ATOM     82  C   UNL A   1      37.185  29.313  31.608  1.00  0.00     0.041 A 
ATOM     83  F   UNL A   1      39.321  28.417  31.965  1.00  0.00    -0.206 F 
ATOM     84  C   UNL A   1      36.288  30.016  30.810  1.00  0.00     0.022 A 
BRANCH  81  85
ATOM     85  S   UNL A   1      35.592  31.463  28.530  1.00  0.00     0.124 S 
ATOM     86  O   UNL A   1      36.507  32.477  28.018  1.00  0.00    -0.237 OA
ATOM     87  O   UNL A   1      35.098  30.494  27.558  1.00  0.00    -0.237 OA
ATOM     88  O   UNL A   1      34.598  31.945  29.487  1.00  0.00    -0.744 OA
ENDBRANCH  81  85
ENDBRANCH  54  78
BRANCH  66  89
ATOM     89  C   UNL A   1      44.523  33.602  29.513  1.00  0.00     0.023 A 
ATOM     90  C   UNL A   1      44.312  34.569  28.516  1.00  0.00     0.031 A 
ATOM     91  C   UNL A   1      44.936  34.039  30.785  1.00  0.00     0.131 A 
ATOM     92  C   UNL A   1      44.565  35.922  28.791  1.00  0.00     0.055 A 
ATOM     93  C   UNL A   1      45.132  35.392  31.067  1.00  0.00     0.041 A 
ATOM     94  F   UNL A   1      45.155  33.157  31.773  1.00  0.00    -0.206 F 
ATOM     95  C   UNL A   1      44.959  36.340  30.064  1.00  0.00     0.022 A 
BRANCH  92  96
ATOM     96  S   UNL A   1      44.458  37.121  27.434  1.00  0.00     0.124 S 
ATOM     97  O   UNL A   1      43.197  36.753  26.800  1.00  0.00    -0.237 OA
ATOM     98  O   UNL A   1      44.465  38.397  28.145  1.00  0.00    -0.237 OA
ATOM     99  O   UNL A   1      45.655  36.849  26.640  1.00  0.00    -0.744 OA
ENDBRANCH  92  96
ENDBRANCH  66  89
ENDBRANCH  40  41
ENDBRANCH  32  35
ENDBRANCH  30  31
ENDBRANCH  29  30
ENDBRANCH   1  29
TORSDOF 18
ENDMDL
