MODEL 1
REMARK VINA RESULT:     -12.1      0.000      0.000
REMARK SMILES C[C@@H](C(=O)NCCCCNC(=O)c1ccc(-c2c3nc(c(-c4cc(S(=O)(=O)[O-])ccc4F)c4ccc([nH]4)c(-c4cc(S(=O)(=O)[O-])ccc4F)c4nc(c(-c5cc(S(=O)(=O)[O-])ccc5F)c5ccc2[nH]5)C=C4)C=C3)cc1)c1ccc(-c2ccn(C(F)F)c(=O)c2)cc1
REMARK SMILES IDX 7 1 6 2 5 3 3 4 4 5 2 7 1 8 76 9 77 10 91 11 78 12 90 13
REMARK SMILES IDX 79 14 80 15 81 16 89 17 82 18 87 19 83 20 88 21 84 22 85 23
REMARK SMILES IDX 86 24 8 25 9 26 10 27 11 28 12 30 13 31 14 32 75 33 15 34
REMARK SMILES IDX 74 35 16 36 17 37 18 38 68 39 19 40 73 41 67 42 69 43 20 44
REMARK SMILES IDX 72 45 66 46 65 47 21 49 53 50 33 51 52 52 34 53 37 54 51 55
REMARK SMILES IDX 70 56 35 57 36 58 50 60 71 61 38 62 22 63 23 64 31 65 24 66
REMARK SMILES IDX 30 67 32 68 29 69 25 70 26 71 27 72 28 73 54 74 55 75 63 76
REMARK SMILES IDX 56 77 62 78 64 79 61 80 57 81 58 82 59 83 60 84 39 85 40 86
REMARK SMILES IDX 48 87 41 88 47 89 49 90 46 91 42 92 43 93 44 94 45 95
REMARK H PARENT 5 6 10 29 69 48 37 59
REMARK Flexibility Score: inf
ROOT
ATOM      1  C   UNL A   1      34.836  24.440  25.825  1.00  0.00     0.023 C 
ENDROOT
BRANCH   1   2
ATOM      2  C   UNL A   1      34.318  25.572  24.931  1.00  0.00     0.116 C 
BRANCH   2   3
ATOM      3  N   UNL A   1      33.259  26.300  25.599  1.00  0.00    -0.356 N 
ATOM      4  C   UNL A   1      31.979  26.555  25.193  1.00  0.00     0.227 C 
ATOM      5  O   UNL A   1      31.364  27.418  25.825  1.00  0.00    -0.274 OA
ATOM      6  H   UNL A   1      33.498  26.669  26.480  1.00  0.00     0.163 HD
BRANCH   4   7
ATOM      7  C   UNL A   1      31.356  25.746  24.034  1.00  0.00     0.105 C 
ATOM      8  C   UNL A   1      29.864  26.082  23.905  1.00  0.00     0.023 C 
BRANCH   7   9
ATOM      9  C   UNL A   1      31.608  24.233  24.148  1.00  0.00    -0.036 A 
ATOM     10  C   UNL A   1      31.237  23.495  25.285  1.00  0.00     0.005 A 
ATOM     11  C   UNL A   1      32.200  23.529  23.084  1.00  0.00     0.005 A 
ATOM     12  C   UNL A   1      31.501  22.128  25.385  1.00  0.00     0.009 A 
ATOM     13  C   UNL A   1      32.477  22.162  23.186  1.00  0.00     0.009 A 
ATOM     14  C   UNL A   1      32.133  21.454  24.340  1.00  0.00    -0.018 A 
BRANCH  14  15
ATOM     15  C   UNL A   1      32.438  20.020  24.455  1.00  0.00    -0.011 A 
ATOM     16  C   UNL A   1      32.688  19.372  25.725  1.00  0.00     0.027 A 
ATOM     17  C   UNL A   1      32.495  19.297  23.324  1.00  0.00     0.080 A 
ATOM     18  C   UNL A   1      33.008  18.073  25.770  1.00  0.00     0.095 A 
ATOM     19  C   UNL A   1      32.834  17.851  23.359  1.00  0.00     0.255 A 
ATOM     20  N   UNL A   1      33.094  17.321  24.614  1.00  0.00    -0.258 N 
ATOM     21  O   UNL A   1      32.869  17.230  22.301  1.00  0.00    -0.269 OA
BRANCH  20  22
ATOM     22  C   UNL A   1      33.489  15.940  24.667  1.00  0.00     0.451 C 
ATOM     23  F   UNL A   1      34.428  15.730  25.621  1.00  0.00    -0.185 F 
ATOM     24  F   UNL A   1      32.428  15.142  24.944  1.00  0.00    -0.185 F 
ENDBRANCH  20  22
ENDBRANCH  14  15
ENDBRANCH   7   9
ENDBRANCH   4   7
ENDBRANCH   2   3
ENDBRANCH   1   2
BRANCH   1  25
ATOM     25  C   UNL A   1      35.496  23.281  25.073  1.00  0.00     0.023 C 
BRANCH  25  26
ATOM     26  C   UNL A   1      36.968  23.487  24.738  1.00  0.00     0.116 C 
BRANCH  26  27
ATOM     27  N   UNL A   1      37.821  22.485  25.353  1.00  0.00    -0.352 N 
ATOM     28  C   UNL A   1      38.927  22.651  26.147  1.00  0.00     0.251 C 
ATOM     29  H   UNL A   1      37.569  21.550  25.173  1.00  0.00     0.163 HD
ATOM     30  O   UNL A   1      39.612  21.668  26.428  1.00  0.00    -0.269 OA
BRANCH  28  31
ATOM     31  C   UNL A   1      39.311  23.995  26.628  1.00  0.00     0.039 A 
ATOM     32  C   UNL A   1      38.959  24.360  27.929  1.00  0.00     0.014 A 
ATOM     33  C   UNL A   1      40.003  24.897  25.813  1.00  0.00     0.014 A 
ATOM     34  C   UNL A   1      39.347  25.604  28.427  1.00  0.00     0.010 A 
ATOM     35  C   UNL A   1      40.461  26.104  26.339  1.00  0.00     0.010 A 
ATOM     36  C   UNL A   1      40.134  26.473  27.652  1.00  0.00    -0.014 A 
BRANCH  36  37
ATOM     37  C   UNL A   1      40.622  27.755  28.225  1.00  0.00     0.031 A 
ATOM     38  C   UNL A   1      42.096  28.030  28.354  1.00  0.00     0.074 A 
ATOM     39  C   UNL A   1      39.724  28.672  28.637  1.00  0.00     0.049 A 
ATOM     40  N   UNL A   1      42.700  29.102  28.798  1.00  0.00    -0.248 NA
ATOM     41  C   UNL A   1      43.012  26.950  27.954  1.00  0.00     0.031 C 
ATOM     42  C   UNL A   1      38.268  28.492  28.619  1.00  0.00     0.029 A 
ATOM     43  N   UNL A   1      39.892  29.935  29.143  1.00  0.00    -0.354 N 
ATOM     44  C   UNL A   1      44.062  28.833  28.721  1.00  0.00     0.074 A 
ATOM     45  C   UNL A   1      44.192  27.466  28.261  1.00  0.00     0.031 C 
ATOM     46  C   UNL A   1      37.681  29.619  29.051  1.00  0.00     0.029 A 
ATOM     47  C   UNL A   1      38.710  30.583  29.420  1.00  0.00     0.049 A 
ATOM     48  H   UNL A   1      40.777  30.342  29.294  1.00  0.00     0.167 HD
ATOM     49  C   UNL A   1      45.107  29.660  28.976  1.00  0.00     0.034 A 
ATOM     50  C   UNL A   1      38.480  31.814  29.919  1.00  0.00     0.034 A 
ATOM     51  C   UNL A   1      44.961  31.018  29.442  1.00  0.00     0.049 A 
ATOM     52  C   UNL A   1      39.660  32.706  30.212  1.00  0.00     0.074 A 
ATOM     53  C   UNL A   1      45.949  31.951  29.706  1.00  0.00     0.029 A 
ATOM     54  N   UNL A   1      43.749  31.641  29.717  1.00  0.00    -0.354 N 
ATOM     55  N   UNL A   1      40.943  32.453  30.075  1.00  0.00    -0.248 NA
ATOM     56  C   UNL A   1      39.361  34.054  30.707  1.00  0.00     0.031 C 
ATOM     57  C   UNL A   1      45.342  33.108  30.206  1.00  0.00     0.029 A 
ATOM     58  C   UNL A   1      43.968  32.932  30.174  1.00  0.00     0.049 A 
ATOM     59  H   UNL A   1      42.864  31.225  29.604  1.00  0.00     0.167 HD
ATOM     60  C   UNL A   1      41.599  33.624  30.446  1.00  0.00     0.074 A 
ATOM     61  C   UNL A   1      40.569  34.589  30.772  1.00  0.00     0.031 C 
ATOM     62  C   UNL A   1      42.932  33.878  30.520  1.00  0.00     0.034 A 
BRANCH  49  63
ATOM     63  C   UNL A   1      46.499  29.107  28.767  1.00  0.00     0.023 A 
ATOM     64  C   UNL A   1      47.031  28.927  27.477  1.00  0.00     0.031 A 
ATOM     65  C   UNL A   1      47.303  28.750  29.864  1.00  0.00     0.131 A 
ATOM     66  C   UNL A   1      48.298  28.347  27.314  1.00  0.00     0.055 A 
ATOM     67  C   UNL A   1      48.596  28.249  29.697  1.00  0.00     0.041 A 
ATOM     68  F   UNL A   1      46.843  28.877  31.118  1.00  0.00    -0.206 F 
ATOM     69  C   UNL A   1      49.096  28.032  28.417  1.00  0.00     0.022 A 
BRANCH  66  70
ATOM     70  S   UNL A   1      48.833  27.887  25.643  1.00  0.00     0.124 S 
ATOM     71  O   UNL A   1      50.081  28.637  25.516  1.00  0.00    -0.237 OA
ATOM     72  O   UNL A   1      48.964  26.438  25.741  1.00  0.00    -0.237 OA
ATOM     73  O   UNL A   1      47.742  28.360  24.793  1.00  0.00    -0.744 OA
ENDBRANCH  66  70
ENDBRANCH  49  63
BRANCH  50  74
ATOM     74  C   UNL A   1      37.087  32.277  30.188  1.00  0.00     0.023 A 
ATOM     75  C   UNL A   1      36.320  32.905  29.193  1.00  0.00     0.031 A 
ATOM     76  C   UNL A   1      36.521  32.149  31.470  1.00  0.00     0.131 A 
ATOM     77  C   UNL A   1      35.060  33.438  29.511  1.00  0.00     0.055 A 
ATOM     78  C   UNL A   1      35.241  32.621  31.764  1.00  0.00     0.041 A 
ATOM     79  F   UNL A   1      37.207  31.553  32.458  1.00  0.00    -0.206 F 
ATOM     80  C   UNL A   1      34.509  33.287  30.785  1.00  0.00     0.022 A 
BRANCH  77  81
ATOM     81  S   UNL A   1      34.197  34.433  28.264  1.00  0.00     0.124 S 
ATOM     82  O   UNL A   1      35.211  34.548  27.222  1.00  0.00    -0.237 OA
ATOM     83  O   UNL A   1      33.047  33.593  27.950  1.00  0.00    -0.237 OA
ATOM     84  O   UNL A   1      33.887  35.672  28.974  1.00  0.00    -0.744 OA
ENDBRANCH  77  81
ENDBRANCH  50  74
BRANCH  62  85
ATOM     85  C   UNL A   1      43.334  35.271  30.948  1.00  0.00     0.023 A 
ATOM     86  C   UNL A   1      43.343  35.650  32.302  1.00  0.00     0.031 A 
ATOM     87  C   UNL A   1      43.658  36.247  29.988  1.00  0.00     0.131 A 
ATOM     88  C   UNL A   1      43.578  36.987  32.653  1.00  0.00     0.055 A 
ATOM     89  C   UNL A   1      43.971  37.557  30.350  1.00  0.00     0.041 A 
ATOM     90  F   UNL A   1      43.664  35.945  28.680  1.00  0.00    -0.206 F 
ATOM     91  C   UNL A   1      43.910  37.940  31.687  1.00  0.00     0.022 A 
BRANCH  88  92
ATOM     92  S   UNL A   1      43.300  37.494  34.372  1.00  0.00     0.124 S 
ATOM     93  O   UNL A   1      42.810  38.859  34.209  1.00  0.00    -0.237 OA
ATOM     94  O   UNL A   1      42.319  36.515  34.830  1.00  0.00    -0.237 OA
ATOM     95  O   UNL A   1      44.622  37.378  34.982  1.00  0.00    -0.744 OA
ENDBRANCH  88  92
ENDBRANCH  62  85
ENDBRANCH  36  37
ENDBRANCH  28  31
ENDBRANCH  26  27
ENDBRANCH  25  26
ENDBRANCH   1  25
TORSDOF 17
ENDMDL
MODEL 2
REMARK VINA RESULT:     -12.0      3.801      9.048
REMARK SMILES C[C@@H](C(=O)NCCCCNC(=O)c1ccc(-c2c3nc(c(-c4cc(S(=O)(=O)[O-])ccc4F)c4ccc([nH]4)c(-c4cc(S(=O)(=O)[O-])ccc4F)c4nc(c(-c5cc(S(=O)(=O)[O-])ccc5F)c5ccc2[nH]5)C=C4)C=C3)cc1)c1ccc(-c2ccn(C(F)F)c(=O)c2)cc1
REMARK SMILES IDX 7 1 6 2 5 3 3 4 4 5 2 7 1 8 76 9 77 10 91 11 78 12 90 13
REMARK SMILES IDX 79 14 80 15 81 16 89 17 82 18 87 19 83 20 88 21 84 22 85 23
REMARK SMILES IDX 86 24 8 25 9 26 10 27 11 28 12 30 13 31 14 32 75 33 15 34
REMARK SMILES IDX 74 35 16 36 17 37 18 38 68 39 19 40 73 41 67 42 69 43 20 44
REMARK SMILES IDX 72 45 66 46 65 47 21 49 53 50 33 51 52 52 34 53 37 54 51 55
REMARK SMILES IDX 70 56 35 57 36 58 50 60 71 61 38 62 22 63 23 64 31 65 24 66
REMARK SMILES IDX 30 67 32 68 29 69 25 70 26 71 27 72 28 73 54 74 55 75 63 76
REMARK SMILES IDX 56 77 62 78 64 79 61 80 57 81 58 82 59 83 60 84 39 85 40 86
REMARK SMILES IDX 48 87 41 88 47 89 49 90 46 91 42 92 43 93 44 94 45 95
REMARK H PARENT 5 6 10 29 69 48 37 59
REMARK Flexibility Score: inf
ROOT
ATOM      1  C   UNL A   1      31.682  28.673  26.695  1.00  0.00     0.023 C 
ENDROOT
BRANCH   1   2
ATOM      2  C   UNL A   1      31.573  29.582  25.466  1.00  0.00     0.116 C 
BRANCH   2   3
ATOM      3  N   UNL A   1      31.068  28.839  24.330  1.00  0.00    -0.356 N 
ATOM      4  C   UNL A   1      31.745  28.158  23.357  1.00  0.00     0.227 C 
ATOM      5  O   UNL A   1      31.094  27.834  22.360  1.00  0.00    -0.274 OA
ATOM      6  H   UNL A   1      30.088  28.820  24.246  1.00  0.00     0.163 HD
BRANCH   4   7
ATOM      7  C   UNL A   1      33.232  27.791  23.557  1.00  0.00     0.105 C 
ATOM      8  C   UNL A   1      34.077  28.398  22.429  1.00  0.00     0.023 C 
BRANCH   7   9
ATOM      9  C   UNL A   1      33.466  26.279  23.715  1.00  0.00    -0.036 A 
ATOM     10  C   UNL A   1      33.478  25.404  22.615  1.00  0.00     0.005 A 
ATOM     11  C   UNL A   1      33.708  25.726  24.985  1.00  0.00     0.005 A 
ATOM     12  C   UNL A   1      33.662  24.030  22.779  1.00  0.00     0.009 A 
ATOM     13  C   UNL A   1      33.879  24.348  25.155  1.00  0.00     0.009 A 
ATOM     14  C   UNL A   1      33.851  23.491  24.052  1.00  0.00    -0.018 A 
BRANCH  14  15
ATOM     15  C   UNL A   1      34.016  22.040  24.230  1.00  0.00    -0.011 A 
ATOM     16  C   UNL A   1      35.220  21.450  24.776  1.00  0.00     0.027 A 
ATOM     17  C   UNL A   1      33.002  21.242  23.854  1.00  0.00     0.080 A 
ATOM     18  C   UNL A   1      35.336  20.120  24.873  1.00  0.00     0.095 A 
ATOM     19  C   UNL A   1      33.111  19.764  23.971  1.00  0.00     0.255 A 
ATOM     20  N   UNL A   1      34.312  19.284  24.470  1.00  0.00    -0.258 N 
ATOM     21  O   UNL A   1      32.157  19.076  23.620  1.00  0.00    -0.269 OA
BRANCH  20  22
ATOM     22  C   UNL A   1      34.467  17.856  24.529  1.00  0.00     0.451 C 
ATOM     23  F   UNL A   1      34.201  17.279  23.331  1.00  0.00    -0.185 F 
ATOM     24  F   UNL A   1      35.733  17.520  24.881  1.00  0.00    -0.185 F 
ENDBRANCH  20  22
ENDBRANCH  14  15
ENDBRANCH   7   9
ENDBRANCH   4   7
ENDBRANCH   2   3
ENDBRANCH   1   2
BRANCH   1  25
ATOM     25  C   UNL A   1      33.090  28.564  27.287  1.00  0.00     0.023 C 
BRANCH  25  26
ATOM     26  C   UNL A   1      34.085  29.599  26.777  1.00  0.00     0.116 C 
BRANCH  26  27
ATOM     27  N   UNL A   1      33.799  30.933  27.274  1.00  0.00    -0.352 N 
ATOM     28  C   UNL A   1      34.473  31.679  28.207  1.00  0.00     0.251 C 
ATOM     29  H   UNL A   1      33.006  31.367  26.883  1.00  0.00     0.163 HD
ATOM     30  O   UNL A   1      33.968  32.725  28.614  1.00  0.00    -0.269 OA
BRANCH  28  31
ATOM     31  C   UNL A   1      35.770  31.215  28.744  1.00  0.00     0.039 A 
ATOM     32  C   UNL A   1      35.789  30.060  29.528  1.00  0.00     0.014 A 
ATOM     33  C   UNL A   1      36.959  31.907  28.491  1.00  0.00     0.014 A 
ATOM     34  C   UNL A   1      37.004  29.572  30.011  1.00  0.00     0.010 A 
ATOM     35  C   UNL A   1      38.179  31.373  28.905  1.00  0.00     0.010 A 
ATOM     36  C   UNL A   1      38.214  30.201  29.673  1.00  0.00    -0.014 A 
BRANCH  36  37
ATOM     37  C   UNL A   1      39.510  29.620  30.114  1.00  0.00     0.031 A 
ATOM     38  C   UNL A   1      40.250  30.193  31.292  1.00  0.00     0.074 A 
ATOM     39  C   UNL A   1      40.021  28.572  29.438  1.00  0.00     0.049 A 
ATOM     40  N   UNL A   1      41.372  29.795  31.835  1.00  0.00    -0.248 NA
ATOM     41  C   UNL A   1      39.666  31.384  31.930  1.00  0.00     0.031 C 
ATOM     42  C   UNL A   1      39.424  27.970  28.242  1.00  0.00     0.029 A 
ATOM     43  N   UNL A   1      41.148  27.821  29.656  1.00  0.00    -0.354 N 
ATOM     44  C   UNL A   1      41.622  30.675  32.883  1.00  0.00     0.074 A 
ATOM     45  C   UNL A   1      40.576  31.674  32.848  1.00  0.00     0.031 C 
ATOM     46  C   UNL A   1      40.168  26.919  27.860  1.00  0.00     0.029 A 
ATOM     47  C   UNL A   1      41.315  26.798  28.751  1.00  0.00     0.049 A 
ATOM     48  H   UNL A   1      41.778  27.998  30.392  1.00  0.00     0.167 HD
ATOM     49  C   UNL A   1      42.614  30.633  33.809  1.00  0.00     0.034 A 
ATOM     50  C   UNL A   1      42.286  25.868  28.647  1.00  0.00     0.034 A 
ATOM     51  C   UNL A   1      43.655  29.633  33.826  1.00  0.00     0.049 A 
ATOM     52  C   UNL A   1      43.387  25.856  29.679  1.00  0.00     0.074 A 
ATOM     53  C   UNL A   1      44.691  29.482  34.731  1.00  0.00     0.029 A 
ATOM     54  N   UNL A   1      43.797  28.615  32.891  1.00  0.00    -0.354 N 
ATOM     55  N   UNL A   1      43.573  26.662  30.699  1.00  0.00    -0.248 NA
ATOM     56  C   UNL A   1      44.393  24.796  29.555  1.00  0.00     0.031 C 
ATOM     57  C   UNL A   1      45.496  28.420  34.306  1.00  0.00     0.029 A 
ATOM     58  C   UNL A   1      44.918  27.851  33.183  1.00  0.00     0.049 A 
ATOM     59  H   UNL A   1      43.191  28.458  32.131  1.00  0.00     0.167 HD
ATOM     60  C   UNL A   1      44.709  26.189  31.351  1.00  0.00     0.074 A 
ATOM     61  C   UNL A   1      45.135  25.007  30.631  1.00  0.00     0.031 C 
ATOM     62  C   UNL A   1      45.347  26.688  32.441  1.00  0.00     0.034 A 
BRANCH  49  63
ATOM     63  C   UNL A   1      42.620  31.709  34.870  1.00  0.00     0.023 A 
ATOM     64  C   UNL A   1      41.691  31.704  35.927  1.00  0.00     0.031 A 
ATOM     65  C   UNL A   1      43.557  32.756  34.827  1.00  0.00     0.131 A 
ATOM     66  C   UNL A   1      41.679  32.755  36.857  1.00  0.00     0.055 A 
ATOM     67  C   UNL A   1      43.591  33.756  35.802  1.00  0.00     0.041 A 
ATOM     68  F   UNL A   1      44.454  32.830  33.831  1.00  0.00    -0.206 F 
ATOM     69  C   UNL A   1      42.640  33.766  36.818  1.00  0.00     0.022 A 
BRANCH  66  70
ATOM     70  S   UNL A   1      40.305  32.850  38.038  1.00  0.00     0.124 S 
ATOM     71  O   UNL A   1      40.942  32.389  39.269  1.00  0.00    -0.237 OA
ATOM     72  O   UNL A   1      39.947  34.263  37.993  1.00  0.00    -0.237 OA
ATOM     73  O   UNL A   1      39.310  31.935  37.480  1.00  0.00    -0.744 OA
ENDBRANCH  66  70
ENDBRANCH  49  63
BRANCH  50  74
ATOM     74  C   UNL A   1      42.277  24.882  27.527  1.00  0.00     0.023 A 
ATOM     75  C   UNL A   1      41.489  23.720  27.582  1.00  0.00     0.031 A 
ATOM     76  C   UNL A   1      43.107  25.060  26.405  1.00  0.00     0.131 A 
ATOM     77  C   UNL A   1      41.595  22.754  26.568  1.00  0.00     0.055 A 
ATOM     78  C   UNL A   1      43.159  24.128  25.368  1.00  0.00     0.041 A 
ATOM     79  F   UNL A   1      43.878  26.154  26.298  1.00  0.00    -0.206 F 
ATOM     80  C   UNL A   1      42.413  22.957  25.455  1.00  0.00     0.022 A 
BRANCH  77  81
ATOM     81  S   UNL A   1      40.733  21.172  26.782  1.00  0.00     0.124 S 
ATOM     82  O   UNL A   1      40.767  21.009  28.232  1.00  0.00    -0.237 OA
ATOM     83  O   UNL A   1      39.428  21.458  26.198  1.00  0.00    -0.237 OA
ATOM     84  O   UNL A   1      41.559  20.231  26.028  1.00  0.00    -0.744 OA
ENDBRANCH  77  81
ENDBRANCH  50  74
BRANCH  62  85
ATOM     85  C   UNL A   1      46.561  25.927  32.923  1.00  0.00     0.023 A 
ATOM     86  C   UNL A   1      47.830  26.127  32.350  1.00  0.00     0.031 A 
ATOM     87  C   UNL A   1      46.439  24.951  33.928  1.00  0.00     0.131 A 
ATOM     88  C   UNL A   1      48.903  25.302  32.719  1.00  0.00     0.055 A 
ATOM     89  C   UNL A   1      47.529  24.188  34.349  1.00  0.00     0.041 A 
ATOM     90  F   UNL A   1      45.253  24.713  34.512  1.00  0.00    -0.206 F 
ATOM     91  C   UNL A   1      48.766  24.346  33.728  1.00  0.00     0.022 A 
BRANCH  88  92
ATOM     92  S   UNL A   1      50.438  25.397  31.759  1.00  0.00     0.124 S 
ATOM     93  O   UNL A   1      50.001  26.101  30.558  1.00  0.00    -0.237 OA
ATOM     94  O   UNL A   1      51.318  26.146  32.651  1.00  0.00    -0.237 OA
ATOM     95  O   UNL A   1      50.805  23.997  31.559  1.00  0.00    -0.744 OA
ENDBRANCH  88  92
ENDBRANCH  62  85
ENDBRANCH  36  37
ENDBRANCH  28  31
ENDBRANCH  26  27
ENDBRANCH  25  26
ENDBRANCH   1  25
TORSDOF 17
ENDMDL
MODEL 3
REMARK VINA RESULT:     -11.9      1.804      2.069
REMARK SMILES C[C@@H](C(=O)NCCCCNC(=O)c1ccc(-c2c3nc(c(-c4cc(S(=O)(=O)[O-])ccc4F)c4ccc([nH]4)c(-c4cc(S(=O)(=O)[O-])ccc4F)c4nc(c(-c5cc(S(=O)(=O)[O-])ccc5F)c5ccc2[nH]5)C=C4)C=C3)cc1)c1ccc(-c2ccn(C(F)F)c(=O)c2)cc1
REMARK SMILES IDX 7 1 6 2 5 3 3 4 4 5 2 7 1 8 76 9 77 10 91 11 78 12 90 13
REMARK SMILES IDX 79 14 80 15 81 16 89 17 82 18 87 19 83 20 88 21 84 22 85 23
REMARK SMILES IDX 86 24 8 25 9 26 10 27 11 28 12 30 13 31 14 32 75 33 15 34
REMARK SMILES IDX 74 35 16 36 17 37 18 38 68 39 19 40 73 41 67 42 69 43 20 44
REMARK SMILES IDX 72 45 66 46 65 47 21 49 53 50 33 51 52 52 34 53 37 54 51 55
REMARK SMILES IDX 70 56 35 57 36 58 50 60 71 61 38 62 22 63 23 64 31 65 24 66
REMARK SMILES IDX 30 67 32 68 29 69 25 70 26 71 27 72 28 73 54 74 55 75 63 76
REMARK SMILES IDX 56 77 62 78 64 79 61 80 57 81 58 82 59 83 60 84 39 85 40 86
REMARK SMILES IDX 48 87 41 88 47 89 49 90 46 91 42 92 43 93 44 94 45 95
REMARK H PARENT 5 6 10 29 69 48 37 59
REMARK Flexibility Score: inf
ROOT
ATOM      1  C   UNL A   1      34.774  24.411  25.982  1.00  0.00     0.023 C 
ENDROOT
BRANCH   1   2
ATOM      2  C   UNL A   1      34.301  25.546  25.067  1.00  0.00     0.116 C 
BRANCH   2   3
ATOM      3  N   UNL A   1      33.208  26.269  25.682  1.00  0.00    -0.356 N 
ATOM      4  C   UNL A   1      31.951  26.528  25.210  1.00  0.00     0.227 C 
ATOM      5  O   UNL A   1      31.303  27.386  25.814  1.00  0.00    -0.274 OA
ATOM      6  H   UNL A   1      33.398  26.630  26.578  1.00  0.00     0.163 HD
BRANCH   4   7
ATOM      7  C   UNL A   1      31.393  25.729  24.011  1.00  0.00     0.105 C 
ATOM      8  C   UNL A   1      29.910  26.068  23.803  1.00  0.00     0.023 C 
BRANCH   7   9
ATOM      9  C   UNL A   1      31.637  24.215  24.127  1.00  0.00    -0.036 A 
ATOM     10  C   UNL A   1      31.223  23.473  25.246  1.00  0.00     0.005 A 
ATOM     11  C   UNL A   1      32.266  23.515  23.082  1.00  0.00     0.005 A 
ATOM     12  C   UNL A   1      31.480  22.105  25.348  1.00  0.00     0.009 A 
ATOM     13  C   UNL A   1      32.537  22.146  23.187  1.00  0.00     0.009 A 
ATOM     14  C   UNL A   1      32.149  21.434  24.324  1.00  0.00    -0.018 A 
BRANCH  14  15
ATOM     15  C   UNL A   1      32.446  19.998  24.443  1.00  0.00    -0.011 A 
ATOM     16  C   UNL A   1      32.683  19.351  25.716  1.00  0.00     0.027 A 
ATOM     17  C   UNL A   1      32.509  19.274  23.313  1.00  0.00     0.080 A 
ATOM     18  C   UNL A   1      32.996  18.050  25.764  1.00  0.00     0.095 A 
ATOM     19  C   UNL A   1      32.840  17.826  23.352  1.00  0.00     0.255 A 
ATOM     20  N   UNL A   1      33.087  17.296  24.609  1.00  0.00    -0.258 N 
ATOM     21  O   UNL A   1      32.880  17.205  22.294  1.00  0.00    -0.269 OA
BRANCH  20  22
ATOM     22  C   UNL A   1      33.476  15.914  24.667  1.00  0.00     0.451 C 
ATOM     23  F   UNL A   1      34.455  15.712  25.582  1.00  0.00    -0.185 F 
ATOM     24  F   UNL A   1      32.423  15.128  25.003  1.00  0.00    -0.185 F 
ENDBRANCH  20  22
ENDBRANCH  14  15
ENDBRANCH   7   9
ENDBRANCH   4   7
ENDBRANCH   2   3
ENDBRANCH   1   2
BRANCH   1  25
ATOM     25  C   UNL A   1      35.493  23.267  25.262  1.00  0.00     0.023 C 
BRANCH  25  26
ATOM     26  C   UNL A   1      36.944  23.549  24.894  1.00  0.00     0.116 C 
BRANCH  26  27
ATOM     27  N   UNL A   1      37.858  22.568  25.453  1.00  0.00    -0.352 N 
ATOM     28  C   UNL A   1      38.999  22.759  26.189  1.00  0.00     0.251 C 
ATOM     29  H   UNL A   1      37.624  21.627  25.277  1.00  0.00     0.163 HD
ATOM     30  O   UNL A   1      39.727  21.795  26.423  1.00  0.00    -0.269 OA
BRANCH  28  31
ATOM     31  C   UNL A   1      39.368  24.110  26.663  1.00  0.00     0.039 A 
ATOM     32  C   UNL A   1      39.013  24.477  27.963  1.00  0.00     0.014 A 
ATOM     33  C   UNL A   1      40.050  25.015  25.844  1.00  0.00     0.014 A 
ATOM     34  C   UNL A   1      39.388  25.727  28.455  1.00  0.00     0.010 A 
ATOM     35  C   UNL A   1      40.495  26.230  26.364  1.00  0.00     0.010 A 
ATOM     36  C   UNL A   1      40.165  26.601  27.675  1.00  0.00    -0.014 A 
BRANCH  36  37
ATOM     37  C   UNL A   1      40.639  27.892  28.241  1.00  0.00     0.031 A 
ATOM     38  C   UNL A   1      42.106  28.226  28.273  1.00  0.00     0.074 A 
ATOM     39  C   UNL A   1      39.735  28.762  28.736  1.00  0.00     0.049 A 
ATOM     40  N   UNL A   1      42.695  29.315  28.699  1.00  0.00    -0.248 NA
ATOM     41  C   UNL A   1      43.035  27.195  27.786  1.00  0.00     0.031 C 
ATOM     42  C   UNL A   1      38.291  28.520  28.814  1.00  0.00     0.029 A 
ATOM     43  N   UNL A   1      39.887  30.020  29.257  1.00  0.00    -0.354 N 
ATOM     44  C   UNL A   1      44.058  29.106  28.520  1.00  0.00     0.074 A 
ATOM     45  C   UNL A   1      44.211  27.755  28.022  1.00  0.00     0.031 C 
ATOM     46  C   UNL A   1      37.689  29.612  29.312  1.00  0.00     0.029 A 
ATOM     47  C   UNL A   1      38.701  30.612  29.630  1.00  0.00     0.049 A 
ATOM     48  H   UNL A   1      40.762  30.461  29.354  1.00  0.00     0.167 HD
ATOM     49  C   UNL A   1      45.084  29.971  28.721  1.00  0.00     0.034 A 
ATOM     50  C   UNL A   1      38.457  31.822  30.171  1.00  0.00     0.034 A 
ATOM     51  C   UNL A   1      44.915  31.313  29.226  1.00  0.00     0.049 A 
ATOM     52  C   UNL A   1      39.617  32.758  30.402  1.00  0.00     0.074 A 
ATOM     53  C   UNL A   1      45.880  32.281  29.442  1.00  0.00     0.029 A 
ATOM     54  N   UNL A   1      43.701  31.877  29.599  1.00  0.00    -0.354 N 
ATOM     55  N   UNL A   1      40.896  32.562  30.170  1.00  0.00    -0.248 NA
ATOM     56  C   UNL A   1      39.298  34.082  30.946  1.00  0.00     0.031 C 
ATOM     57  C   UNL A   1      45.263  33.401  30.009  1.00  0.00     0.029 A 
ATOM     58  C   UNL A   1      43.898  33.168  30.069  1.00  0.00     0.049 A 
ATOM     59  H   UNL A   1      42.827  31.427  29.539  1.00  0.00     0.167 HD
ATOM     60  C   UNL A   1      41.528  33.752  30.521  1.00  0.00     0.074 A 
ATOM     61  C   UNL A   1      40.485  34.666  30.939  1.00  0.00     0.031 C 
ATOM     62  C   UNL A   1      42.851  34.061  30.507  1.00  0.00     0.034 A 
BRANCH  49  63
ATOM     63  C   UNL A   1      46.479  29.483  28.402  1.00  0.00     0.023 A 
ATOM     64  C   UNL A   1      47.276  28.852  29.375  1.00  0.00     0.031 A 
ATOM     65  C   UNL A   1      47.024  29.652  27.117  1.00  0.00     0.131 A 
ATOM     66  C   UNL A   1      48.591  28.473  29.068  1.00  0.00     0.055 A 
ATOM     67  C   UNL A   1      48.305  29.199  26.795  1.00  0.00     0.041 A 
ATOM     68  F   UNL A   1      46.322  30.267  26.153  1.00  0.00    -0.206 F 
ATOM     69  C   UNL A   1      49.102  28.617  27.776  1.00  0.00     0.022 A 
BRANCH  66  70
ATOM     70  S   UNL A   1      49.668  27.912  30.415  1.00  0.00     0.124 S 
ATOM     71  O   UNL A   1      49.918  26.523  30.034  1.00  0.00    -0.237 OA
ATOM     72  O   UNL A   1      50.805  28.819  30.309  1.00  0.00    -0.237 OA
ATOM     73  O   UNL A   1      48.841  28.083  31.608  1.00  0.00    -0.744 OA
ENDBRANCH  66  70
ENDBRANCH  49  63
BRANCH  50  74
ATOM     74  C   UNL A   1      37.068  32.219  30.547  1.00  0.00     0.023 A 
ATOM     75  C   UNL A   1      36.186  32.774  29.605  1.00  0.00     0.031 A 
ATOM     76  C   UNL A   1      36.621  32.104  31.877  1.00  0.00     0.131 A 
ATOM     77  C   UNL A   1      34.930  33.249  30.017  1.00  0.00     0.055 A 
ATOM     78  C   UNL A   1      35.347  32.517  32.267  1.00  0.00     0.041 A 
ATOM     79  F   UNL A   1      37.421  31.578  32.818  1.00  0.00    -0.206 F 
ATOM     80  C   UNL A   1      34.499  33.111  31.337  1.00  0.00     0.022 A 
BRANCH  77  81
ATOM     81  S   UNL A   1      33.910  34.157  28.821  1.00  0.00     0.124 S 
ATOM     82  O   UNL A   1      33.524  33.098  27.895  1.00  0.00    -0.237 OA
ATOM     83  O   UNL A   1      32.849  34.686  29.670  1.00  0.00    -0.237 OA
ATOM     84  O   UNL A   1      34.830  35.156  28.281  1.00  0.00    -0.744 OA
ENDBRANCH  77  81
ENDBRANCH  50  74
BRANCH  62  85
ATOM     85  C   UNL A   1      43.224  35.461  30.937  1.00  0.00     0.023 A 
ATOM     86  C   UNL A   1      43.372  36.503  30.003  1.00  0.00     0.031 A 
ATOM     87  C   UNL A   1      43.492  35.746  32.288  1.00  0.00     0.131 A 
ATOM     88  C   UNL A   1      43.860  37.750  30.417  1.00  0.00     0.055 A 
ATOM     89  C   UNL A   1      43.900  37.013  32.705  1.00  0.00     0.041 A 
ATOM     90  F   UNL A   1      43.371  34.793  33.226  1.00  0.00    -0.206 F 
ATOM     91  C   UNL A   1      44.109  38.019  31.765  1.00  0.00     0.022 A 
BRANCH  88  92
ATOM     92  S   UNL A   1      44.307  38.969  29.150  1.00  0.00     0.124 S 
ATOM     93  O   UNL A   1      44.109  38.211  27.919  1.00  0.00    -0.237 OA
ATOM     94  O   UNL A   1      43.350  40.042  29.399  1.00  0.00    -0.237 OA
ATOM     95  O   UNL A   1      45.697  39.294  29.463  1.00  0.00    -0.744 OA
ENDBRANCH  88  92
ENDBRANCH  62  85
ENDBRANCH  36  37
ENDBRANCH  28  31
ENDBRANCH  26  27
ENDBRANCH  25  26
ENDBRANCH   1  25
TORSDOF 17
ENDMDL
