MODEL 1
REMARK VINA RESULT:     -12.7      0.000      0.000
REMARK SMILES O=C(NCCCCNC(=O)c1cc(Cl)ncc1-c1cccc(C(F)(F)F)c1)c1ccc(-c2c3nc(c(-c4cc(S(=O)(=O)[O-])ccc4F)c4ccc([nH]4)c(-c4cc(S(=O)(=O)[O-])ccc4F)c4nc(c(-c5cc(S(=O)(=O)[O-])ccc5F)c5ccc2[nH]5)C=C4)C=C3)cc1
REMARK SMILES IDX 5 1 4 2 3 3 1 4 2 5 28 7 29 8 90 9 30 10 89 11 31 12 32 13
REMARK SMILES IDX 33 14 83 15 34 16 88 17 82 18 84 19 35 20 87 21 81 22 80 23
REMARK SMILES IDX 36 25 68 26 48 27 67 28 49 29 52 30 66 31 85 32 50 33 51 34
REMARK SMILES IDX 65 36 86 37 53 38 37 39 38 40 46 41 39 42 45 43 47 44 44 45
REMARK SMILES IDX 40 46 41 47 42 48 43 49 69 50 70 51 78 52 71 53 77 54 79 55
REMARK SMILES IDX 76 56 72 57 73 58 74 59 75 60 54 61 55 62 63 63 56 64 62 65
REMARK SMILES IDX 64 66 61 67 57 68 58 69 59 70 60 71 6 72 7 73 8 74 9 75
REMARK SMILES IDX 10 77 11 78 12 79 17 80 13 81 16 82 14 83 15 84 18 85 19 86
REMARK SMILES IDX 27 87 20 88 22 89 21 90 23 91 24 92 25 93 26 94
REMARK H PARENT 3 6 84 24 52 35 8 76
REMARK Flexibility Score: inf
ROOT
ATOM      1  C   UNL A   1      31.450  31.557  26.613  1.00  0.00     0.023 C 
ENDROOT
BRANCH   1   2
ATOM      2  C   UNL A   1      32.706  32.239  27.139  1.00  0.00     0.116 C 
BRANCH   2   3
ATOM      3  N   UNL A   1      32.485  33.629  27.508  1.00  0.00    -0.352 N 
ATOM      4  O   UNL A   1      32.726  35.506  28.730  1.00  0.00    -0.269 OA
ATOM      5  C   UNL A   1      33.138  34.384  28.453  1.00  0.00     0.251 C 
ATOM      6  H   UNL A   1      31.770  34.091  27.013  1.00  0.00     0.163 HD
BRANCH   5   7
ATOM      7  C   UNL A   1      34.325  33.832  29.142  1.00  0.00     0.039 A 
ATOM      8  C   UNL A   1      34.181  32.873  30.150  1.00  0.00     0.014 A 
ATOM      9  C   UNL A   1      35.598  34.270  28.765  1.00  0.00     0.014 A 
ATOM     10  C   UNL A   1      35.298  32.437  30.855  1.00  0.00     0.010 A 
ATOM     11  C   UNL A   1      36.725  33.772  29.424  1.00  0.00     0.010 A 
ATOM     12  C   UNL A   1      36.582  32.861  30.482  1.00  0.00    -0.014 A 
BRANCH  12  13
ATOM     13  C   UNL A   1      37.769  32.248  31.132  1.00  0.00     0.031 A 
ATOM     14  C   UNL A   1      38.522  31.122  30.480  1.00  0.00     0.074 A 
ATOM     15  C   UNL A   1      38.150  32.723  32.334  1.00  0.00     0.049 A 
ATOM     16  N   UNL A   1      39.554  30.458  30.931  1.00  0.00    -0.248 NA
ATOM     17  C   UNL A   1      38.056  30.682  29.156  1.00  0.00     0.031 C 
ATOM     18  C   UNL A   1      37.478  33.808  33.058  1.00  0.00     0.029 A 
ATOM     19  N   UNL A   1      39.179  32.363  33.164  1.00  0.00    -0.354 N 
ATOM     20  C   UNL A   1      39.850  29.505  29.962  1.00  0.00     0.074 A 
ATOM     21  C   UNL A   1      38.880  29.672  28.900  1.00  0.00     0.031 C 
ATOM     22  C   UNL A   1      38.122  34.033  34.212  1.00  0.00     0.029 A 
ATOM     23  C   UNL A   1      39.204  33.067  34.347  1.00  0.00     0.049 A 
ATOM     24  H   UNL A   1      39.838  31.668  32.936  1.00  0.00     0.167 HD
ATOM     25  C   UNL A   1      40.843  28.581  29.969  1.00  0.00     0.034 A 
ATOM     26  C   UNL A   1      39.978  32.923  35.438  1.00  0.00     0.034 A 
ATOM     27  C   UNL A   1      41.809  28.446  31.032  1.00  0.00     0.049 A 
ATOM     28  C   UNL A   1      41.037  31.853  35.431  1.00  0.00     0.074 A 
ATOM     29  C   UNL A   1      42.912  27.612  31.091  1.00  0.00     0.029 A 
ATOM     30  N   UNL A   1      41.776  29.143  32.234  1.00  0.00    -0.354 N 
ATOM     31  N   UNL A   1      41.346  31.008  34.475  1.00  0.00    -0.248 NA
ATOM     32  C   UNL A   1      41.845  31.713  36.648  1.00  0.00     0.031 C 
ATOM     33  C   UNL A   1      43.499  27.748  32.354  1.00  0.00     0.029 A 
ATOM     34  C   UNL A   1      42.804  28.716  33.060  1.00  0.00     0.049 A 
ATOM     35  H   UNL A   1      41.118  29.839  32.464  1.00  0.00     0.167 HD
ATOM     36  C   UNL A   1      42.392  30.240  34.975  1.00  0.00     0.074 A 
ATOM     37  C   UNL A   1      42.679  30.744  36.303  1.00  0.00     0.031 C 
ATOM     38  C   UNL A   1      43.054  29.209  34.392  1.00  0.00     0.034 A 
BRANCH  25  39
ATOM     39  C   UNL A   1      40.916  27.607  28.820  1.00  0.00     0.023 A 
ATOM     40  C   UNL A   1      41.857  27.739  27.784  1.00  0.00     0.031 A 
ATOM     41  C   UNL A   1      40.053  26.497  28.791  1.00  0.00     0.131 A 
ATOM     42  C   UNL A   1      41.889  26.794  26.746  1.00  0.00     0.055 A 
ATOM     43  C   UNL A   1      40.127  25.531  27.786  1.00  0.00     0.041 A 
ATOM     44  F   UNL A   1      39.124  26.330  29.745  1.00  0.00    -0.206 F 
ATOM     45  C   UNL A   1      41.046  25.679  26.752  1.00  0.00     0.022 A 
BRANCH  42  46
ATOM     46  S   UNL A   1      43.001  27.079  25.340  1.00  0.00     0.124 S 
ATOM     47  O   UNL A   1      42.320  28.166  24.641  1.00  0.00    -0.237 OA
ATOM     48  O   UNL A   1      44.255  27.430  25.996  1.00  0.00    -0.237 OA
ATOM     49  O   UNL A   1      43.001  25.798  24.638  1.00  0.00    -0.744 OA
ENDBRANCH  42  46
ENDBRANCH  25  39
BRANCH  26  50
ATOM     50  C   UNL A   1      39.737  33.756  36.649  1.00  0.00     0.023 A 
ATOM     51  C   UNL A   1      39.194  33.203  37.818  1.00  0.00     0.031 A 
ATOM     52  C   UNL A   1      40.004  35.139  36.637  1.00  0.00     0.131 A 
ATOM     53  C   UNL A   1      38.891  34.033  38.908  1.00  0.00     0.055 A 
ATOM     54  C   UNL A   1      39.757  35.950  37.744  1.00  0.00     0.041 A 
ATOM     55  F   UNL A   1      40.523  35.721  35.543  1.00  0.00    -0.206 F 
ATOM     56  C   UNL A   1      39.181  35.400  38.884  1.00  0.00     0.022 A 
BRANCH  53  57
ATOM     57  S   UNL A   1      38.006  33.320  40.320  1.00  0.00     0.124 S 
ATOM     58  O   UNL A   1      36.663  33.149  39.778  1.00  0.00    -0.237 OA
ATOM     59  O   UNL A   1      38.761  32.094  40.559  1.00  0.00    -0.237 OA
ATOM     60  O   UNL A   1      38.137  34.343  41.356  1.00  0.00    -0.744 OA
ENDBRANCH  53  57
ENDBRANCH  26  50
BRANCH  38  61
ATOM     61  C   UNL A   1      44.157  28.576  35.198  1.00  0.00     0.023 A 
ATOM     62  C   UNL A   1      43.894  27.527  36.096  1.00  0.00     0.031 A 
ATOM     63  C   UNL A   1      45.480  29.038  35.085  1.00  0.00     0.131 A 
ATOM     64  C   UNL A   1      44.931  27.007  36.885  1.00  0.00     0.055 A 
ATOM     65  C   UNL A   1      46.518  28.478  35.829  1.00  0.00     0.041 A 
ATOM     66  F   UNL A   1      45.783  30.040  34.244  1.00  0.00    -0.206 F 
ATOM     67  C   UNL A   1      46.244  27.464  36.744  1.00  0.00     0.022 A 
BRANCH  64  68
ATOM     68  S   UNL A   1      44.527  25.773  38.151  1.00  0.00     0.124 S 
ATOM     69  O   UNL A   1      45.648  24.845  38.037  1.00  0.00    -0.237 OA
ATOM     70  O   UNL A   1      44.486  26.575  39.370  1.00  0.00    -0.237 OA
ATOM     71  O   UNL A   1      43.237  25.245  37.714  1.00  0.00    -0.744 OA
ENDBRANCH  64  68
ENDBRANCH  38  61
ENDBRANCH  12  13
ENDBRANCH   5   7
ENDBRANCH   2   3
ENDBRANCH   1   2
BRANCH   1  72
ATOM     72  C   UNL A   1      31.684  30.453  25.584  1.00  0.00     0.023 C 
BRANCH  72  73
ATOM     73  C   UNL A   1      32.381  29.204  26.112  1.00  0.00     0.116 C 
BRANCH  73  74
ATOM     74  N   UNL A   1      31.455  28.219  26.652  1.00  0.00    -0.352 N 
ATOM     75  C   UNL A   1      31.060  27.017  26.120  1.00  0.00     0.252 C 
ATOM     76  H   UNL A   1      31.056  28.447  27.522  1.00  0.00     0.163 HD
ATOM     77  O   UNL A   1      30.270  26.289  26.711  1.00  0.00    -0.269 OA
BRANCH  75  78
ATOM     78  C   UNL A   1      31.612  26.597  24.821  1.00  0.00     0.052 A 
ATOM     79  C   UNL A   1      32.738  25.768  24.843  1.00  0.00     0.055 A 
ATOM     80  C   UNL A   1      31.021  26.993  23.610  1.00  0.00     0.013 A 
ATOM     81  C   UNL A   1      33.296  25.424  23.634  1.00  0.00     0.129 A 
ATOM     82  C   UNL A   1      31.690  26.571  22.460  1.00  0.00     0.122 A 
ATOM     83  Cl  UNL A   1      34.717  24.469  23.558  1.00  0.00    -0.062 Cl
ATOM     84  N   UNL A   1      32.814  25.813  22.440  1.00  0.00    -0.244 NA
BRANCH  80  85
ATOM     85  C   UNL A   1      29.775  27.770  23.495  1.00  0.00    -0.015 A 
ATOM     86  C   UNL A   1      28.533  27.116  23.568  1.00  0.00     0.009 A 
ATOM     87  C   UNL A   1      29.777  29.163  23.302  1.00  0.00     0.021 A 
ATOM     88  C   UNL A   1      27.334  27.821  23.453  1.00  0.00     0.001 A 
ATOM     89  C   UNL A   1      28.574  29.886  23.194  1.00  0.00     0.056 A 
ATOM     90  C   UNL A   1      27.354  29.199  23.267  1.00  0.00     0.013 A 
BRANCH  89  91
ATOM     91  C   UNL A   1      28.576  31.384  22.999  1.00  0.00     0.416 C 
ATOM     92  F   UNL A   1      29.378  32.014  23.902  1.00  0.00    -0.166 F 
ATOM     93  F   UNL A   1      29.033  31.752  21.772  1.00  0.00    -0.166 F 
ATOM     94  F   UNL A   1      27.346  31.953  23.135  1.00  0.00    -0.166 F 
ENDBRANCH  89  91
ENDBRANCH  80  85
ENDBRANCH  75  78
ENDBRANCH  73  74
ENDBRANCH  72  73
ENDBRANCH   1  72
TORSDOF 16
ENDMDL
MODEL 2
REMARK VINA RESULT:     -12.5      1.351      1.695
REMARK SMILES O=C(NCCCCNC(=O)c1cc(Cl)ncc1-c1cccc(C(F)(F)F)c1)c1ccc(-c2c3nc(c(-c4cc(S(=O)(=O)[O-])ccc4F)c4ccc([nH]4)c(-c4cc(S(=O)(=O)[O-])ccc4F)c4nc(c(-c5cc(S(=O)(=O)[O-])ccc5F)c5ccc2[nH]5)C=C4)C=C3)cc1
REMARK SMILES IDX 5 1 4 2 3 3 1 4 2 5 28 7 29 8 90 9 30 10 89 11 31 12 32 13
REMARK SMILES IDX 33 14 83 15 34 16 88 17 82 18 84 19 35 20 87 21 81 22 80 23
REMARK SMILES IDX 36 25 68 26 48 27 67 28 49 29 52 30 66 31 85 32 50 33 51 34
REMARK SMILES IDX 65 36 86 37 53 38 37 39 38 40 46 41 39 42 45 43 47 44 44 45
REMARK SMILES IDX 40 46 41 47 42 48 43 49 69 50 70 51 78 52 71 53 77 54 79 55
REMARK SMILES IDX 76 56 72 57 73 58 74 59 75 60 54 61 55 62 63 63 56 64 62 65
REMARK SMILES IDX 64 66 61 67 57 68 58 69 59 70 60 71 6 72 7 73 8 74 9 75
REMARK SMILES IDX 10 77 11 78 12 79 17 80 13 81 16 82 14 83 15 84 18 85 19 86
REMARK SMILES IDX 27 87 20 88 22 89 21 90 23 91 24 92 25 93 26 94
REMARK H PARENT 3 6 84 24 52 35 8 76
REMARK Flexibility Score: inf
ROOT
ATOM      1  C   UNL A   1      31.339  31.477  26.506  1.00  0.00     0.023 C 
ENDROOT
BRANCH   1   2
ATOM      2  C   UNL A   1      32.656  32.118  26.927  1.00  0.00     0.116 C 
BRANCH   2   3
ATOM      3  N   UNL A   1      32.497  33.487  27.392  1.00  0.00    -0.352 N 
ATOM      4  O   UNL A   1      32.861  35.276  28.712  1.00  0.00    -0.269 OA
ATOM      5  C   UNL A   1      33.223  34.163  28.344  1.00  0.00     0.251 C 
ATOM      6  H   UNL A   1      31.772  33.999  26.967  1.00  0.00     0.163 HD
BRANCH   5   7
ATOM      7  C   UNL A   1      34.427  33.536  28.933  1.00  0.00     0.039 A 
ATOM      8  C   UNL A   1      35.703  34.018  28.624  1.00  0.00     0.014 A 
ATOM      9  C   UNL A   1      34.276  32.462  29.814  1.00  0.00     0.014 A 
ATOM     10  C   UNL A   1      36.828  33.358  29.106  1.00  0.00     0.010 A 
ATOM     11  C   UNL A   1      35.407  31.848  30.358  1.00  0.00     0.010 A 
ATOM     12  C   UNL A   1      36.692  32.283  29.999  1.00  0.00    -0.014 A 
BRANCH  12  13
ATOM     13  C   UNL A   1      37.902  31.708  30.637  1.00  0.00     0.031 A 
ATOM     14  C   UNL A   1      38.755  30.695  29.926  1.00  0.00     0.074 A 
ATOM     15  C   UNL A   1      38.213  32.111  31.885  1.00  0.00     0.049 A 
ATOM     16  N   UNL A   1      39.821  30.073  30.358  1.00  0.00    -0.248 NA
ATOM     17  C   UNL A   1      38.360  30.329  28.557  1.00  0.00     0.031 C 
ATOM     18  C   UNL A   1      37.443  33.083  32.668  1.00  0.00     0.029 A 
ATOM     19  N   UNL A   1      39.243  31.761  32.718  1.00  0.00    -0.354 N 
ATOM     20  C   UNL A   1      40.214  29.225  29.328  1.00  0.00     0.074 A 
ATOM     21  C   UNL A   1      39.264  29.406  28.251  1.00  0.00     0.031 C 
ATOM     22  C   UNL A   1      38.036  33.261  33.857  1.00  0.00     0.029 A 
ATOM     23  C   UNL A   1      39.183  32.368  33.952  1.00  0.00     0.049 A 
ATOM     24  H   UNL A   1      39.959  31.136  32.459  1.00  0.00     0.167 HD
ATOM     25  C   UNL A   1      41.273  28.378  29.296  1.00  0.00     0.034 A 
ATOM     26  C   UNL A   1      39.936  32.194  35.054  1.00  0.00     0.034 A 
ATOM     27  C   UNL A   1      42.217  28.228  30.377  1.00  0.00     0.049 A 
ATOM     28  C   UNL A   1      41.071  31.206  35.000  1.00  0.00     0.074 A 
ATOM     29  C   UNL A   1      43.376  27.474  30.408  1.00  0.00     0.029 A 
ATOM     30  N   UNL A   1      42.098  28.822  31.627  1.00  0.00    -0.354 N 
ATOM     31  N   UNL A   1      41.469  30.466  33.991  1.00  0.00    -0.248 NA
ATOM     32  C   UNL A   1      41.854  31.028  36.228  1.00  0.00     0.031 C 
ATOM     33  C   UNL A   1      43.917  27.550  31.697  1.00  0.00     0.029 A 
ATOM     34  C   UNL A   1      43.132  28.406  32.452  1.00  0.00     0.049 A 
ATOM     35  H   UNL A   1      41.385  29.448  31.889  1.00  0.00     0.167 HD
ATOM     36  C   UNL A   1      42.555  29.738  34.465  1.00  0.00     0.074 A 
ATOM     37  C   UNL A   1      42.767  30.153  35.837  1.00  0.00     0.031 C 
ATOM     38  C   UNL A   1      43.308  28.808  33.826  1.00  0.00     0.034 A 
BRANCH  25  39
ATOM     39  C   UNL A   1      41.450  27.506  28.077  1.00  0.00     0.023 A 
ATOM     40  C   UNL A   1      41.093  26.147  28.070  1.00  0.00     0.031 A 
ATOM     41  C   UNL A   1      41.945  28.067  26.886  1.00  0.00     0.131 A 
ATOM     42  C   UNL A   1      41.267  25.387  26.902  1.00  0.00     0.055 A 
ATOM     43  C   UNL A   1      42.063  27.319  25.713  1.00  0.00     0.041 A 
ATOM     44  F   UNL A   1      42.318  29.356  26.841  1.00  0.00    -0.206 F 
ATOM     45  C   UNL A   1      41.728  25.969  25.718  1.00  0.00     0.022 A 
BRANCH  42  46
ATOM     46  S   UNL A   1      40.953  23.601  26.968  1.00  0.00     0.124 S 
ATOM     47  O   UNL A   1      41.856  23.103  25.934  1.00  0.00    -0.237 OA
ATOM     48  O   UNL A   1      41.311  23.269  28.342  1.00  0.00    -0.237 OA
ATOM     49  O   UNL A   1      39.531  23.490  26.651  1.00  0.00    -0.744 OA
ENDBRANCH  42  46
ENDBRANCH  25  39
BRANCH  26  50
ATOM     50  C   UNL A   1      39.600  32.907  36.318  1.00  0.00     0.023 A 
ATOM     51  C   UNL A   1      38.697  32.364  37.244  1.00  0.00     0.031 A 
ATOM     52  C   UNL A   1      40.145  34.175  36.596  1.00  0.00     0.131 A 
ATOM     53  C   UNL A   1      38.329  33.106  38.377  1.00  0.00     0.055 A 
ATOM     54  C   UNL A   1      39.823  34.882  37.754  1.00  0.00     0.041 A 
ATOM     55  F   UNL A   1      41.014  34.743  35.743  1.00  0.00    -0.206 F 
ATOM     56  C   UNL A   1      38.897  34.354  38.646  1.00  0.00     0.022 A 
BRANCH  53  57
ATOM     57  S   UNL A   1      37.011  32.461  39.443  1.00  0.00     0.124 S 
ATOM     58  O   UNL A   1      37.408  31.067  39.600  1.00  0.00    -0.237 OA
ATOM     59  O   UNL A   1      37.145  33.303  40.628  1.00  0.00    -0.237 OA
ATOM     60  O   UNL A   1      35.799  32.682  38.657  1.00  0.00    -0.744 OA
ENDBRANCH  53  57
ENDBRANCH  26  50
BRANCH  38  61
ATOM     61  C   UNL A   1      44.433  28.193  34.616  1.00  0.00     0.023 A 
ATOM     62  C   UNL A   1      44.239  27.022  35.369  1.00  0.00     0.031 A 
ATOM     63  C   UNL A   1      45.703  28.794  34.636  1.00  0.00     0.131 A 
ATOM     64  C   UNL A   1      45.288  26.515  36.152  1.00  0.00     0.055 A 
ATOM     65  C   UNL A   1      46.758  28.254  35.371  1.00  0.00     0.041 A 
ATOM     66  F   UNL A   1      45.938  29.917  33.937  1.00  0.00    -0.206 F 
ATOM     67  C   UNL A   1      46.550  27.113  36.143  1.00  0.00     0.022 A 
BRANCH  64  68
ATOM     68  S   UNL A   1      44.957  25.102  37.239  1.00  0.00     0.124 S 
ATOM     69  O   UNL A   1      45.500  23.990  36.464  1.00  0.00    -0.237 OA
ATOM     70  O   UNL A   1      45.695  25.455  38.447  1.00  0.00    -0.237 OA
ATOM     71  O   UNL A   1      43.503  25.110  37.378  1.00  0.00    -0.744 OA
ENDBRANCH  64  68
ENDBRANCH  38  61
ENDBRANCH  12  13
ENDBRANCH   5   7
ENDBRANCH   2   3
ENDBRANCH   1   2
BRANCH   1  72
ATOM     72  C   UNL A   1      31.440  30.446  25.384  1.00  0.00     0.023 C 
BRANCH  72  73
ATOM     73  C   UNL A   1      32.224  29.184  25.725  1.00  0.00     0.116 C 
BRANCH  73  74
ATOM     74  N   UNL A   1      31.430  28.194  26.438  1.00  0.00    -0.352 N 
ATOM     75  C   UNL A   1      31.095  26.916  26.062  1.00  0.00     0.252 C 
ATOM     76  H   UNL A   1      31.084  28.480  27.314  1.00  0.00     0.163 HD
ATOM     77  O   UNL A   1      30.418  26.197  26.788  1.00  0.00    -0.269 OA
BRANCH  75  78
ATOM     78  C   UNL A   1      31.575  26.406  24.766  1.00  0.00     0.052 A 
ATOM     79  C   UNL A   1      32.748  25.644  24.775  1.00  0.00     0.055 A 
ATOM     80  C   UNL A   1      30.875  26.655  23.575  1.00  0.00     0.013 A 
ATOM     81  C   UNL A   1      33.235  25.218  23.562  1.00  0.00     0.129 A 
ATOM     82  C   UNL A   1      31.483  26.163  22.419  1.00  0.00     0.122 A 
ATOM     83  Cl  UNL A   1      34.701  24.336  23.461  1.00  0.00    -0.062 Cl
ATOM     84  N   UNL A   1      32.645  25.468  22.379  1.00  0.00    -0.244 NA
BRANCH  80  85
ATOM     85  C   UNL A   1      29.580  27.352  23.488  1.00  0.00    -0.015 A 
ATOM     86  C   UNL A   1      28.398  26.678  23.844  1.00  0.00     0.009 A 
ATOM     87  C   UNL A   1      29.474  28.683  23.049  1.00  0.00     0.021 A 
ATOM     88  C   UNL A   1      27.154  27.305  23.764  1.00  0.00     0.001 A 
ATOM     89  C   UNL A   1      28.226  29.329  22.973  1.00  0.00     0.056 A 
ATOM     90  C   UNL A   1      27.068  28.624  23.330  1.00  0.00     0.013 A 
BRANCH  89  91
ATOM     91  C   UNL A   1      28.113  30.763  22.511  1.00  0.00     0.416 C 
ATOM     92  F   UNL A   1      27.254  31.481  23.289  1.00  0.00    -0.166 F 
ATOM     93  F   UNL A   1      29.300  31.424  22.557  1.00  0.00    -0.166 F 
ATOM     94  F   UNL A   1      27.652  30.890  21.236  1.00  0.00    -0.166 F 
ENDBRANCH  89  91
ENDBRANCH  80  85
ENDBRANCH  75  78
ENDBRANCH  73  74
ENDBRANCH  72  73
ENDBRANCH   1  72
TORSDOF 16
ENDMDL
MODEL 3
REMARK VINA RESULT:     -12.3      2.140      7.725
REMARK SMILES O=C(NCCCCNC(=O)c1cc(Cl)ncc1-c1cccc(C(F)(F)F)c1)c1ccc(-c2c3nc(c(-c4cc(S(=O)(=O)[O-])ccc4F)c4ccc([nH]4)c(-c4cc(S(=O)(=O)[O-])ccc4F)c4nc(c(-c5cc(S(=O)(=O)[O-])ccc5F)c5ccc2[nH]5)C=C4)C=C3)cc1
REMARK SMILES IDX 5 1 4 2 3 3 1 4 2 5 28 7 29 8 90 9 30 10 89 11 31 12 32 13
REMARK SMILES IDX 33 14 83 15 34 16 88 17 82 18 84 19 35 20 87 21 81 22 80 23
REMARK SMILES IDX 36 25 68 26 48 27 67 28 49 29 52 30 66 31 85 32 50 33 51 34
REMARK SMILES IDX 65 36 86 37 53 38 37 39 38 40 46 41 39 42 45 43 47 44 44 45
REMARK SMILES IDX 40 46 41 47 42 48 43 49 69 50 70 51 78 52 71 53 77 54 79 55
REMARK SMILES IDX 76 56 72 57 73 58 74 59 75 60 54 61 55 62 63 63 56 64 62 65
REMARK SMILES IDX 64 66 61 67 57 68 58 69 59 70 60 71 6 72 7 73 8 74 9 75
REMARK SMILES IDX 10 77 11 78 12 79 17 80 13 81 16 82 14 83 15 84 18 85 19 86
REMARK SMILES IDX 27 87 20 88 22 89 21 90 23 91 24 92 25 93 26 94
REMARK H PARENT 3 6 84 24 52 35 8 76
REMARK Flexibility Score: inf
ROOT
ATOM      1  C   UNL A   1      31.840  29.759  25.470  1.00  0.00     0.023 C 
ENDROOT
BRANCH   1   2
ATOM      2  C   UNL A   1      31.996  30.364  26.859  1.00  0.00     0.116 C 
BRANCH   2   3
ATOM      3  N   UNL A   1      31.977  31.819  26.851  1.00  0.00    -0.352 N 
ATOM      4  O   UNL A   1      32.603  33.897  27.453  1.00  0.00    -0.269 OA
ATOM      5  C   UNL A   1      32.851  32.695  27.448  1.00  0.00     0.251 C 
ATOM      6  H   UNL A   1      31.238  32.231  26.348  1.00  0.00     0.163 HD
BRANCH   5   7
ATOM      7  C   UNL A   1      34.078  32.182  28.097  1.00  0.00     0.039 A 
ATOM      8  C   UNL A   1      35.077  33.061  28.527  1.00  0.00     0.014 A 
ATOM      9  C   UNL A   1      34.223  30.806  28.289  1.00  0.00     0.014 A 
ATOM     10  C   UNL A   1      36.265  32.559  29.045  1.00  0.00     0.010 A 
ATOM     11  C   UNL A   1      35.388  30.308  28.881  1.00  0.00     0.010 A 
ATOM     12  C   UNL A   1      36.423  31.180  29.251  1.00  0.00    -0.014 A 
BRANCH  12  13
ATOM     13  C   UNL A   1      37.625  30.682  29.967  1.00  0.00     0.031 A 
ATOM     14  C   UNL A   1      37.934  31.117  31.372  1.00  0.00     0.074 A 
ATOM     15  C   UNL A   1      38.445  29.834  29.315  1.00  0.00     0.049 A 
ATOM     16  N   UNL A   1      38.959  30.802  32.121  1.00  0.00    -0.248 NA
ATOM     17  C   UNL A   1      36.974  32.024  32.020  1.00  0.00     0.031 C 
ATOM     18  C   UNL A   1      38.240  29.359  27.943  1.00  0.00     0.029 A 
ATOM     19  N   UNL A   1      39.609  29.224  29.703  1.00  0.00    -0.354 N 
ATOM     20  C   UNL A   1      38.785  31.486  33.318  1.00  0.00     0.074 A 
ATOM     21  C   UNL A   1      37.557  32.244  33.193  1.00  0.00     0.031 C 
ATOM     22  C   UNL A   1      39.233  28.522  27.612  1.00  0.00     0.029 A 
ATOM     23  C   UNL A   1      40.182  28.455  28.716  1.00  0.00     0.049 A 
ATOM     24  H   UNL A   1      39.997  29.325  30.602  1.00  0.00     0.167 HD
ATOM     25  C   UNL A   1      39.582  31.477  34.415  1.00  0.00     0.034 A 
ATOM     26  C   UNL A   1      41.361  27.806  28.682  1.00  0.00     0.034 A 
ATOM     27  C   UNL A   1      40.793  30.699  34.522  1.00  0.00     0.049 A 
ATOM     28  C   UNL A   1      42.245  27.859  29.899  1.00  0.00     0.074 A 
ATOM     29  C   UNL A   1      41.619  30.541  35.622  1.00  0.00     0.029 A 
ATOM     30  N   UNL A   1      41.368  29.971  33.488  1.00  0.00    -0.354 N 
ATOM     31  N   UNL A   1      42.028  28.456  31.048  1.00  0.00    -0.248 NA
ATOM     32  C   UNL A   1      43.532  27.158  29.814  1.00  0.00     0.031 C 
ATOM     33  C   UNL A   1      42.729  29.782  35.232  1.00  0.00     0.029 A 
ATOM     34  C   UNL A   1      42.564  29.409  33.909  1.00  0.00     0.049 A 
ATOM     35  H   UNL A   1      40.981  29.867  32.589  1.00  0.00     0.167 HD
ATOM     36  C   UNL A   1      43.151  28.195  31.825  1.00  0.00     0.074 A 
ATOM     37  C   UNL A   1      44.026  27.362  31.025  1.00  0.00     0.031 C 
ATOM     38  C   UNL A   1      43.436  28.608  33.086  1.00  0.00     0.034 A 
BRANCH  25  39
ATOM     39  C   UNL A   1      39.208  32.365  35.576  1.00  0.00     0.023 A 
ATOM     40  C   UNL A   1      39.701  33.674  35.706  1.00  0.00     0.031 A 
ATOM     41  C   UNL A   1      38.300  31.900  36.544  1.00  0.00     0.131 A 
ATOM     42  C   UNL A   1      39.307  34.462  36.801  1.00  0.00     0.055 A 
ATOM     43  C   UNL A   1      37.869  32.707  37.598  1.00  0.00     0.041 A 
ATOM     44  F   UNL A   1      37.810  30.652  36.478  1.00  0.00    -0.206 F 
ATOM     45  C   UNL A   1      38.378  33.995  37.735  1.00  0.00     0.022 A 
BRANCH  42  46
ATOM     46  S   UNL A   1      40.085  36.085  37.032  1.00  0.00     0.124 S 
ATOM     47  O   UNL A   1      39.333  36.613  38.168  1.00  0.00    -0.237 OA
ATOM     48  O   UNL A   1      41.475  35.734  37.296  1.00  0.00    -0.237 OA
ATOM     49  O   UNL A   1      39.843  36.766  35.762  1.00  0.00    -0.744 OA
ENDBRANCH  42  46
ENDBRANCH  25  39
BRANCH  26  50
ATOM     50  C   UNL A   1      41.807  27.118  27.438  1.00  0.00     0.023 A 
ATOM     51  C   UNL A   1      41.749  25.721  27.317  1.00  0.00     0.031 A 
ATOM     52  C   UNL A   1      42.348  27.850  26.364  1.00  0.00     0.131 A 
ATOM     53  C   UNL A   1      42.266  25.098  26.172  1.00  0.00     0.055 A 
ATOM     54  C   UNL A   1      42.805  27.230  25.202  1.00  0.00     0.041 A 
ATOM     55  F   UNL A   1      42.429  29.189  26.427  1.00  0.00    -0.206 F 
ATOM     56  C   UNL A   1      42.781  25.843  25.107  1.00  0.00     0.022 A 
BRANCH  53  57
ATOM     57  S   UNL A   1      42.358  23.287  26.138  1.00  0.00     0.124 S 
ATOM     58  O   UNL A   1      43.243  23.011  27.264  1.00  0.00    -0.237 OA
ATOM     59  O   UNL A   1      40.959  22.913  26.314  1.00  0.00    -0.237 OA
ATOM     60  O   UNL A   1      42.918  23.000  24.818  1.00  0.00    -0.744 OA
ENDBRANCH  53  57
ENDBRANCH  26  50
BRANCH  38  61
ATOM     61  C   UNL A   1      44.748  28.147  33.665  1.00  0.00     0.023 A 
ATOM     62  C   UNL A   1      44.846  26.937  34.375  1.00  0.00     0.031 A 
ATOM     63  C   UNL A   1      45.904  28.933  33.525  1.00  0.00     0.131 A 
ATOM     64  C   UNL A   1      46.067  26.572  34.962  1.00  0.00     0.055 A 
ATOM     65  C   UNL A   1      47.129  28.536  34.063  1.00  0.00     0.041 A 
ATOM     66  F   UNL A   1      45.861  30.098  32.860  1.00  0.00    -0.206 F 
ATOM     67  C   UNL A   1      47.212  27.355  34.796  1.00  0.00     0.022 A 
BRANCH  64  68
ATOM     68  S   UNL A   1      46.119  25.093  36.010  1.00  0.00     0.124 S 
ATOM     69  O   UNL A   1      47.553  24.919  36.217  1.00  0.00    -0.237 OA
ATOM     70  O   UNL A   1      45.353  25.509  37.180  1.00  0.00    -0.237 OA
ATOM     71  O   UNL A   1      45.482  24.067  35.186  1.00  0.00    -0.744 OA
ENDBRANCH  64  68
ENDBRANCH  38  61
ENDBRANCH  12  13
ENDBRANCH   5   7
ENDBRANCH   2   3
ENDBRANCH   1   2
BRANCH   1  72
ATOM     72  C   UNL A   1      33.140  29.348  24.782  1.00  0.00     0.023 C 
BRANCH  72  73
ATOM     73  C   UNL A   1      33.839  28.133  25.382  1.00  0.00     0.116 C 
BRANCH  73  74
ATOM     74  N   UNL A   1      32.952  27.300  26.181  1.00  0.00    -0.352 N 
ATOM     75  C   UNL A   1      32.430  26.063  25.892  1.00  0.00     0.252 C 
ATOM     76  H   UNL A   1      32.689  27.676  27.051  1.00  0.00     0.163 HD
ATOM     77  O   UNL A   1      31.696  25.483  26.684  1.00  0.00    -0.269 OA
BRANCH  75  78
ATOM     78  C   UNL A   1      32.776  25.425  24.610  1.00  0.00     0.052 A 
ATOM     79  C   UNL A   1      33.897  24.590  24.593  1.00  0.00     0.055 A 
ATOM     80  C   UNL A   1      32.001  25.630  23.457  1.00  0.00     0.013 A 
ATOM     81  C   UNL A   1      34.261  24.042  23.386  1.00  0.00     0.129 A 
ATOM     82  C   UNL A   1      32.485  25.013  22.302  1.00  0.00     0.122 A 
ATOM     83  Cl  UNL A   1      35.658  23.059  23.250  1.00  0.00    -0.062 Cl
ATOM     84  N   UNL A   1      33.597  24.240  22.233  1.00  0.00    -0.244 NA
BRANCH  80  85
ATOM     85  C   UNL A   1      30.748  26.403  23.409  1.00  0.00    -0.015 A 
ATOM     86  C   UNL A   1      29.569  25.858  23.947  1.00  0.00     0.009 A 
ATOM     87  C   UNL A   1      30.678  27.682  22.830  1.00  0.00     0.021 A 
ATOM     88  C   UNL A   1      28.363  26.559  23.910  1.00  0.00     0.001 A 
ATOM     89  C   UNL A   1      29.470  28.403  22.795  1.00  0.00     0.056 A 
ATOM     90  C   UNL A   1      28.313  27.825  23.336  1.00  0.00     0.013 A 
BRANCH  89  91
ATOM     91  C   UNL A   1      29.398  29.782  22.182  1.00  0.00     0.416 C 
ATOM     92  F   UNL A   1      30.508  30.070  21.447  1.00  0.00    -0.166 F 
ATOM     93  F   UNL A   1      28.342  29.926  21.338  1.00  0.00    -0.166 F 
ATOM     94  F   UNL A   1      29.292  30.781  23.101  1.00  0.00    -0.166 F 
ENDBRANCH  89  91
ENDBRANCH  80  85
ENDBRANCH  75  78
ENDBRANCH  73  74
ENDBRANCH  72  73
ENDBRANCH   1  72
TORSDOF 16
ENDMDL
