MODEL 1
REMARK VINA RESULT:     -11.9      0.000      0.000
REMARK SMILES COc1ccc(/C=C(\Sc2nc(C)n[nH]2)C(=O)NCCCCNC(=O)c2ccc(-c3c4nc(c(-c5cc(S(=O)(=O)[O-])ccc5F)c5ccc([nH]5)c(-c5cc(S(=O)(=O)[O-])ccc5F)c5nc(c(-c6cc(S(=O)(=O)[O-])ccc6F)c6ccc3[nH]6)C=C5)C=C4)cc2)c(OC)c1
REMARK SMILES IDX 21 1 20 2 19 3 18 4 16 5 17 6 8 8 7 9 6 10 3 11 4 12 92 13
REMARK SMILES IDX 5 14 89 15 2 16 1 17 90 18 91 19 9 20 10 21 11 22 15 23
REMARK SMILES IDX 12 24 14 25 13 27 22 28 23 29 24 30 25 32 26 33 27 34 88 35
REMARK SMILES IDX 28 36 87 37 29 38 30 39 31 40 81 41 32 42 86 43 80 44 82 45
REMARK SMILES IDX 33 46 85 47 79 48 78 49 34 51 66 52 46 53 65 54 47 55 50 56
REMARK SMILES IDX 64 57 83 58 48 59 49 60 63 62 84 63 51 64 35 65 36 66 44 67
REMARK SMILES IDX 37 68 43 69 45 70 42 71 38 72 39 73 40 74 41 75 67 76 68 77
REMARK SMILES IDX 76 78 69 79 75 80 77 81 74 82 70 83 71 84 72 85 73 86 52 87
REMARK SMILES IDX 53 88 61 89 54 90 60 91 62 92 59 93 55 94 56 95 57 96 58 97
REMARK H PARENT 18 7 15 26 23 31 82 50 50 61
REMARK Flexibility Score: inf
ROOT
ATOM      1  C   UNL A   1      33.958  29.516  27.163  1.00  0.00     0.023 C 
ENDROOT
BRANCH   1   2
ATOM      2  C   UNL A   1      33.279  28.205  26.728  1.00  0.00     0.023 C 
BRANCH   2   3
ATOM      3  C   UNL A   1      31.891  27.907  27.327  1.00  0.00     0.116 C 
BRANCH   3   4
ATOM      4  N   UNL A   1      30.934  27.450  26.329  1.00  0.00    -0.352 N 
ATOM      5  C   UNL A   1      30.769  26.295  25.614  1.00  0.00     0.258 C 
ATOM      6  O   UNL A   1      29.741  26.258  24.925  1.00  0.00    -0.269 OA
ATOM      7  H   UNL A   1      30.247  28.126  26.123  1.00  0.00     0.163 HD
BRANCH   5   8
ATOM      8  C   UNL A   1      31.760  25.120  25.572  1.00  0.00     0.081 C 
ATOM      9  C   UNL A   1      32.738  25.237  24.619  1.00  0.00     0.033 C 
BRANCH   9  10
ATOM     10  C   UNL A   1      33.986  24.459  24.284  1.00  0.00     0.018 A 
ATOM     11  C   UNL A   1      36.364  22.896  24.055  1.00  0.00     0.122 A 
ATOM     12  C   UNL A   1      36.187  23.705  25.141  1.00  0.00     0.047 A 
ATOM     13  C   UNL A   1      35.377  22.840  23.077  1.00  0.00     0.093 A 
ATOM     14  C   UNL A   1      35.011  24.434  25.220  1.00  0.00     0.016 A 
ATOM     15  C   UNL A   1      34.184  23.606  23.178  1.00  0.00     0.129 A 
BRANCH  11  16
ATOM     16  O   UNL A   1      37.416  22.034  24.017  1.00  0.00    -0.497 OA
ATOM     17  C   UNL A   1      37.701  21.499  25.306  1.00  0.00     0.278 C 
ENDBRANCH  11  16
BRANCH  15  18
ATOM     18  O   UNL A   1      33.185  23.524  22.234  1.00  0.00    -0.496 OA
ATOM     19  C   UNL A   1      33.061  24.651  21.365  1.00  0.00     0.278 C 
ENDBRANCH  15  18
ENDBRANCH   9  10
BRANCH   8  20
ATOM     20  S   UNL A   1      31.782  24.094  26.987  1.00  0.00    -0.045 SA
BRANCH  20  21
ATOM     21  C   UNL A   1      31.932  22.460  26.407  1.00  0.00     0.188 A 
ATOM     22  N   UNL A   1      31.367  21.853  25.384  1.00  0.00    -0.206 NA
ATOM     23  N   UNL A   1      33.080  21.792  26.734  1.00  0.00    -0.254 N 
ATOM     24  C   UNL A   1      32.334  20.938  24.988  1.00  0.00     0.148 A 
ATOM     25  N   UNL A   1      33.389  20.859  25.813  1.00  0.00    -0.158 NA
ATOM     26  H   UNL A   1      33.615  21.971  27.540  1.00  0.00     0.192 HD
ATOM     27  C   UNL A   1      32.409  20.417  23.595  1.00  0.00     0.092 C 
ENDBRANCH  20  21
ENDBRANCH   8  20
ENDBRANCH   5   8
ENDBRANCH   3   4
ENDBRANCH   2   3
ENDBRANCH   1   2
BRANCH   1  28
ATOM     28  C   UNL A   1      35.365  29.362  27.724  1.00  0.00     0.116 C 
BRANCH  28  29
ATOM     29  N   UNL A   1      35.505  29.844  29.107  1.00  0.00    -0.352 N 
ATOM     30  C   UNL A   1      36.503  29.540  30.022  1.00  0.00     0.251 C 
ATOM     31  H   UNL A   1      34.804  30.459  29.423  1.00  0.00     0.163 HD
ATOM     32  O   UNL A   1      36.307  29.668  31.234  1.00  0.00    -0.269 OA
BRANCH  30  33
ATOM     33  C   UNL A   1      37.809  29.096  29.509  1.00  0.00     0.039 A 
ATOM     34  C   UNL A   1      38.451  29.638  28.388  1.00  0.00     0.014 A 
ATOM     35  C   UNL A   1      38.421  28.106  30.263  1.00  0.00     0.014 A 
ATOM     36  C   UNL A   1      39.741  29.195  28.077  1.00  0.00     0.010 A 
ATOM     37  C   UNL A   1      39.758  27.903  30.130  1.00  0.00     0.010 A 
ATOM     38  C   UNL A   1      40.380  28.319  28.963  1.00  0.00    -0.014 A 
BRANCH  38  39
ATOM     39  C   UNL A   1      41.742  27.822  28.817  1.00  0.00     0.031 A 
ATOM     40  C   UNL A   1      41.825  26.546  28.058  1.00  0.00     0.074 A 
ATOM     41  C   UNL A   1      42.788  28.668  28.990  1.00  0.00     0.049 A 
ATOM     42  N   UNL A   1      42.128  25.372  28.503  1.00  0.00    -0.248 NA
ATOM     43  C   UNL A   1      41.292  26.527  26.680  1.00  0.00     0.031 C 
ATOM     44  C   UNL A   1      42.755  30.084  29.395  1.00  0.00     0.029 A 
ATOM     45  N   UNL A   1      44.105  28.491  28.712  1.00  0.00    -0.354 N 
ATOM     46  C   UNL A   1      42.104  24.537  27.388  1.00  0.00     0.074 A 
ATOM     47  C   UNL A   1      41.297  25.219  26.420  1.00  0.00     0.031 C 
ATOM     48  C   UNL A   1      43.941  30.675  29.118  1.00  0.00     0.029 A 
ATOM     49  C   UNL A   1      44.873  29.659  28.662  1.00  0.00     0.049 A 
ATOM     50  H   UNL A   1      44.494  27.599  28.556  1.00  0.00     0.167 HD
ATOM     51  C   UNL A   1      43.015  23.532  27.238  1.00  0.00     0.034 A 
ATOM     52  C   UNL A   1      46.171  29.778  28.256  1.00  0.00     0.034 A 
ATOM     53  C   UNL A   1      43.721  23.312  28.485  1.00  0.00     0.049 A 
ATOM     54  C   UNL A   1      46.745  28.407  28.319  1.00  0.00     0.074 A 
ATOM     55  C   UNL A   1      43.344  22.961  29.768  1.00  0.00     0.029 A 
ATOM     56  N   UNL A   1      44.976  23.872  28.609  1.00  0.00    -0.354 N 
ATOM     57  N   UNL A   1      46.872  27.744  29.438  1.00  0.00    -0.248 NA
ATOM     58  C   UNL A   1      46.663  27.584  27.121  1.00  0.00     0.031 C 
ATOM     59  C   UNL A   1      44.148  23.778  30.620  1.00  0.00     0.029 A 
ATOM     60  C   UNL A   1      45.045  24.500  29.829  1.00  0.00     0.049 A 
ATOM     61  H   UNL A   1      45.697  23.829  27.940  1.00  0.00     0.167 HD
ATOM     62  C   UNL A   1      46.448  26.455  29.145  1.00  0.00     0.074 A 
ATOM     63  C   UNL A   1      46.420  26.393  27.681  1.00  0.00     0.031 C 
ATOM     64  C   UNL A   1      45.860  25.672  30.100  1.00  0.00     0.034 A 
BRANCH  51  65
ATOM     65  C   UNL A   1      43.582  23.044  25.913  1.00  0.00     0.023 A 
ATOM     66  C   UNL A   1      43.497  21.658  25.672  1.00  0.00     0.031 A 
ATOM     67  C   UNL A   1      44.418  23.757  25.024  1.00  0.00     0.131 A 
ATOM     68  C   UNL A   1      44.318  21.031  24.719  1.00  0.00     0.055 A 
ATOM     69  C   UNL A   1      45.190  23.135  24.035  1.00  0.00     0.041 A 
ATOM     70  F   UNL A   1      44.606  25.078  25.087  1.00  0.00    -0.206 F 
ATOM     71  C   UNL A   1      45.174  21.760  23.905  1.00  0.00     0.022 A 
BRANCH  68  72
ATOM     72  S   UNL A   1      44.379  19.222  24.708  1.00  0.00     0.124 S 
ATOM     73  O   UNL A   1      43.084  18.884  25.289  1.00  0.00    -0.237 OA
ATOM     74  O   UNL A   1      44.545  18.939  23.287  1.00  0.00    -0.237 OA
ATOM     75  O   UNL A   1      45.538  18.920  25.545  1.00  0.00    -0.744 OA
ENDBRANCH  68  72
ENDBRANCH  51  65
BRANCH  52  76
ATOM     76  C   UNL A   1      46.805  30.900  27.492  1.00  0.00     0.023 A 
ATOM     77  C   UNL A   1      46.096  32.011  26.968  1.00  0.00     0.031 A 
ATOM     78  C   UNL A   1      48.215  31.004  27.486  1.00  0.00     0.131 A 
ATOM     79  C   UNL A   1      46.796  33.144  26.470  1.00  0.00     0.055 A 
ATOM     80  C   UNL A   1      48.898  32.124  27.002  1.00  0.00     0.041 A 
ATOM     81  F   UNL A   1      48.979  30.045  28.034  1.00  0.00    -0.206 F 
ATOM     82  C   UNL A   1      48.191  33.203  26.498  1.00  0.00     0.022 A 
BRANCH  79  83
ATOM     83  S   UNL A   1      45.903  34.606  25.827  1.00  0.00     0.124 S 
ATOM     84  O   UNL A   1      46.967  35.595  25.703  1.00  0.00    -0.237 OA
ATOM     85  O   UNL A   1      45.332  34.106  24.583  1.00  0.00    -0.237 OA
ATOM     86  O   UNL A   1      44.920  34.896  26.874  1.00  0.00    -0.744 OA
ENDBRANCH  79  83
ENDBRANCH  52  76
BRANCH  64  87
ATOM     87  C   UNL A   1      45.904  26.149  31.543  1.00  0.00     0.023 A 
ATOM     88  C   UNL A   1      44.825  26.745  32.242  1.00  0.00     0.031 A 
ATOM     89  C   UNL A   1      47.063  25.847  32.274  1.00  0.00     0.131 A 
ATOM     90  C   UNL A   1      44.942  27.018  33.622  1.00  0.00     0.055 A 
ATOM     91  C   UNL A   1      47.166  26.096  33.641  1.00  0.00     0.041 A 
ATOM     92  F   UNL A   1      48.109  25.254  31.674  1.00  0.00    -0.206 F 
ATOM     93  C   UNL A   1      46.107  26.686  34.321  1.00  0.00     0.022 A 
BRANCH  90  94
ATOM     94  S   UNL A   1      43.582  27.817  34.541  1.00  0.00     0.124 S 
ATOM     95  O   UNL A   1      43.248  26.839  35.570  1.00  0.00    -0.237 OA
ATOM     96  O   UNL A   1      44.196  29.056  35.011  1.00  0.00    -0.237 OA
ATOM     97  O   UNL A   1      42.546  28.004  33.523  1.00  0.00    -0.744 OA
ENDBRANCH  90  94
ENDBRANCH  64  87
ENDBRANCH  38  39
ENDBRANCH  30  33
ENDBRANCH  28  29
ENDBRANCH   1  28
TORSDOF 19
ENDMDL
MODEL 2
REMARK VINA RESULT:     -11.9      4.387     10.106
REMARK SMILES COc1ccc(/C=C(\Sc2nc(C)n[nH]2)C(=O)NCCCCNC(=O)c2ccc(-c3c4nc(c(-c5cc(S(=O)(=O)[O-])ccc5F)c5ccc([nH]5)c(-c5cc(S(=O)(=O)[O-])ccc5F)c5nc(c(-c6cc(S(=O)(=O)[O-])ccc6F)c6ccc3[nH]6)C=C5)C=C4)cc2)c(OC)c1
REMARK SMILES IDX 21 1 20 2 19 3 18 4 16 5 17 6 8 8 7 9 6 10 3 11 4 12 92 13
REMARK SMILES IDX 5 14 89 15 2 16 1 17 90 18 91 19 9 20 10 21 11 22 15 23
REMARK SMILES IDX 12 24 14 25 13 27 22 28 23 29 24 30 25 32 26 33 27 34 88 35
REMARK SMILES IDX 28 36 87 37 29 38 30 39 31 40 81 41 32 42 86 43 80 44 82 45
REMARK SMILES IDX 33 46 85 47 79 48 78 49 34 51 66 52 46 53 65 54 47 55 50 56
REMARK SMILES IDX 64 57 83 58 48 59 49 60 63 62 84 63 51 64 35 65 36 66 44 67
REMARK SMILES IDX 37 68 43 69 45 70 42 71 38 72 39 73 40 74 41 75 67 76 68 77
REMARK SMILES IDX 76 78 69 79 75 80 77 81 74 82 70 83 71 84 72 85 73 86 52 87
REMARK SMILES IDX 53 88 61 89 54 90 60 91 62 92 59 93 55 94 56 95 57 96 58 97
REMARK H PARENT 18 7 15 26 23 31 82 50 50 61
REMARK Flexibility Score: inf
ROOT
ATOM      1  C   UNL A   1      37.263  23.316  25.977  1.00  0.00     0.023 C 
ENDROOT
BRANCH   1   2
ATOM      2  C   UNL A   1      36.458  23.678  24.716  1.00  0.00     0.023 C 
BRANCH   2   3
ATOM      3  C   UNL A   1      35.002  23.180  24.653  1.00  0.00     0.116 C 
BRANCH   3   4
ATOM      4  N   UNL A   1      34.508  23.058  23.288  1.00  0.00    -0.352 N 
ATOM      5  C   UNL A   1      33.515  23.667  22.568  1.00  0.00     0.258 C 
ATOM      6  O   UNL A   1      33.479  23.352  21.372  1.00  0.00    -0.269 OA
ATOM      7  H   UNL A   1      35.000  22.386  22.763  1.00  0.00     0.163 HD
BRANCH   5   8
ATOM      8  C   UNL A   1      32.458  24.628  23.137  1.00  0.00     0.081 C 
ATOM      9  C   UNL A   1      32.758  25.957  22.981  1.00  0.00     0.033 C 
BRANCH   9  10
ATOM     10  C   UNL A   1      32.010  27.244  23.222  1.00  0.00     0.018 A 
ATOM     11  C   UNL A   1      30.259  29.477  23.540  1.00  0.00     0.122 A 
ATOM     12  C   UNL A   1      30.120  28.655  22.458  1.00  0.00     0.047 A 
ATOM     13  C   UNL A   1      31.251  29.209  24.477  1.00  0.00     0.093 A 
ATOM     14  C   UNL A   1      30.980  27.574  22.352  1.00  0.00     0.016 A 
ATOM     15  C   UNL A   1      32.127  28.098  24.339  1.00  0.00     0.129 A 
BRANCH  11  16
ATOM     16  O   UNL A   1      29.334  30.445  23.778  1.00  0.00    -0.497 OA
ATOM     17  C   UNL A   1      28.572  30.739  22.611  1.00  0.00     0.278 C 
ENDBRANCH  11  16
BRANCH  15  18
ATOM     18  O   UNL A   1      33.083  27.804  25.284  1.00  0.00    -0.496 OA
ATOM     19  C   UNL A   1      33.691  28.929  25.921  1.00  0.00     0.278 C 
ENDBRANCH  15  18
ENDBRANCH   9  10
BRANCH   8  20
ATOM     20  S   UNL A   1      30.887  23.930  23.450  1.00  0.00    -0.045 SA
BRANCH  20  21
ATOM     21  C   UNL A   1      30.945  23.295  25.070  1.00  0.00     0.188 A 
ATOM     22  N   UNL A   1      31.733  22.389  25.611  1.00  0.00    -0.206 NA
ATOM     23  N   UNL A   1      30.438  24.087  26.062  1.00  0.00    -0.254 N 
ATOM     24  C   UNL A   1      31.838  22.814  26.930  1.00  0.00     0.148 A 
ATOM     25  N   UNL A   1      31.035  23.842  27.244  1.00  0.00    -0.158 NA
ATOM     26  H   UNL A   1      29.727  24.754  25.930  1.00  0.00     0.192 HD
ATOM     27  C   UNL A   1      33.008  22.467  27.783  1.00  0.00     0.092 C 
ENDBRANCH  20  21
ENDBRANCH   8  20
ENDBRANCH   5   8
ENDBRANCH   3   4
ENDBRANCH   2   3
ENDBRANCH   1   2
BRANCH   1  28
ATOM     28  C   UNL A   1      38.095  24.449  26.562  1.00  0.00     0.116 C 
BRANCH  28  29
ATOM     29  N   UNL A   1      39.457  24.528  26.009  1.00  0.00    -0.352 N 
ATOM     30  C   UNL A   1      40.354  25.583  26.095  1.00  0.00     0.251 C 
ATOM     31  H   UNL A   1      39.771  23.734  25.519  1.00  0.00     0.163 HD
ATOM     32  O   UNL A   1      41.272  25.697  25.276  1.00  0.00    -0.269 OA
BRANCH  30  33
ATOM     33  C   UNL A   1      40.204  26.541  27.201  1.00  0.00     0.039 A 
ATOM     34  C   UNL A   1      39.924  26.188  28.528  1.00  0.00     0.014 A 
ATOM     35  C   UNL A   1      40.419  27.866  26.855  1.00  0.00     0.014 A 
ATOM     36  C   UNL A   1      39.915  27.194  29.500  1.00  0.00     0.010 A 
ATOM     37  C   UNL A   1      40.697  28.770  27.830  1.00  0.00     0.010 A 
ATOM     38  C   UNL A   1      40.304  28.487  29.129  1.00  0.00    -0.014 A 
BRANCH  38  39
ATOM     39  C   UNL A   1      40.414  29.624  30.034  1.00  0.00     0.031 A 
ATOM     40  C   UNL A   1      39.125  30.334  30.248  1.00  0.00     0.074 A 
ATOM     41  C   UNL A   1      41.474  29.712  30.876  1.00  0.00     0.049 A 
ATOM     42  N   UNL A   1      38.786  31.511  29.839  1.00  0.00    -0.248 NA
ATOM     43  C   UNL A   1      37.991  29.557  30.791  1.00  0.00     0.031 C 
ATOM     44  C   UNL A   1      42.637  28.812  30.971  1.00  0.00     0.029 A 
ATOM     45  N   UNL A   1      41.683  30.547  31.926  1.00  0.00    -0.354 N 
ATOM     46  C   UNL A   1      37.501  31.719  30.336  1.00  0.00     0.074 A 
ATOM     47  C   UNL A   1      36.984  30.411  30.609  1.00  0.00     0.031 C 
ATOM     48  C   UNL A   1      43.288  29.017  32.140  1.00  0.00     0.029 A 
ATOM     49  C   UNL A   1      42.694  30.159  32.812  1.00  0.00     0.049 A 
ATOM     50  H   UNL A   1      41.159  31.370  32.055  1.00  0.00     0.167 HD
ATOM     51  C   UNL A   1      37.109  32.944  30.792  1.00  0.00     0.034 A 
ATOM     52  C   UNL A   1      43.001  30.727  34.015  1.00  0.00     0.034 A 
ATOM     53  C   UNL A   1      38.070  33.953  30.390  1.00  0.00     0.049 A 
ATOM     54  C   UNL A   1      42.387  32.081  33.994  1.00  0.00     0.074 A 
ATOM     55  C   UNL A   1      38.552  34.409  29.178  1.00  0.00     0.029 A 
ATOM     56  N   UNL A   1      38.995  34.357  31.331  1.00  0.00    -0.354 N 
ATOM     57  N   UNL A   1      42.755  33.013  33.155  1.00  0.00    -0.248 NA
ATOM     58  C   UNL A   1      41.032  32.218  34.510  1.00  0.00     0.031 C 
ATOM     59  C   UNL A   1      39.951  34.601  29.391  1.00  0.00     0.029 A 
ATOM     60  C   UNL A   1      40.234  34.361  30.738  1.00  0.00     0.049 A 
ATOM     61  H   UNL A   1      38.800  34.600  32.265  1.00  0.00     0.167 HD
ATOM     62  C   UNL A   1      41.572  33.581  32.702  1.00  0.00     0.074 A 
ATOM     63  C   UNL A   1      40.548  33.114  33.642  1.00  0.00     0.031 C 
ATOM     64  C   UNL A   1      41.478  34.108  31.444  1.00  0.00     0.034 A 
BRANCH  51  65
ATOM     65  C   UNL A   1      36.135  33.192  31.935  1.00  0.00     0.023 A 
ATOM     66  C   UNL A   1      35.032  34.018  31.643  1.00  0.00     0.031 A 
ATOM     67  C   UNL A   1      36.338  32.924  33.307  1.00  0.00     0.131 A 
ATOM     68  C   UNL A   1      34.303  34.650  32.666  1.00  0.00     0.055 A 
ATOM     69  C   UNL A   1      35.571  33.508  34.323  1.00  0.00     0.041 A 
ATOM     70  F   UNL A   1      37.321  32.147  33.770  1.00  0.00    -0.206 F 
ATOM     71  C   UNL A   1      34.573  34.409  34.007  1.00  0.00     0.022 A 
BRANCH  68  72
ATOM     72  S   UNL A   1      33.125  35.941  32.197  1.00  0.00     0.124 S 
ATOM     73  O   UNL A   1      33.439  36.986  33.165  1.00  0.00    -0.237 OA
ATOM     74  O   UNL A   1      33.507  36.204  30.813  1.00  0.00    -0.237 OA
ATOM     75  O   UNL A   1      31.828  35.293  32.374  1.00  0.00    -0.744 OA
ENDBRANCH  68  72
ENDBRANCH  51  65
BRANCH  52  76
ATOM     76  C   UNL A   1      43.457  30.050  35.271  1.00  0.00     0.023 A 
ATOM     77  C   UNL A   1      42.996  28.781  35.707  1.00  0.00     0.031 A 
ATOM     78  C   UNL A   1      44.580  30.571  35.953  1.00  0.00     0.131 A 
ATOM     79  C   UNL A   1      43.648  28.104  36.773  1.00  0.00     0.055 A 
ATOM     80  C   UNL A   1      45.222  29.896  36.996  1.00  0.00     0.041 A 
ATOM     81  F   UNL A   1      45.146  31.725  35.566  1.00  0.00    -0.206 F 
ATOM     82  C   UNL A   1      44.764  28.656  37.407  1.00  0.00     0.022 A 
BRANCH  79  83
ATOM     83  S   UNL A   1      43.098  26.448  37.326  1.00  0.00     0.124 S 
ATOM     84  O   UNL A   1      41.647  26.585  37.329  1.00  0.00    -0.237 OA
ATOM     85  O   UNL A   1      43.667  25.571  36.310  1.00  0.00    -0.237 OA
ATOM     86  O   UNL A   1      43.700  26.311  38.654  1.00  0.00    -0.744 OA
ENDBRANCH  79  83
ENDBRANCH  52  76
BRANCH  64  87
ATOM     87  C   UNL A   1      42.759  34.279  30.643  1.00  0.00     0.023 A 
ATOM     88  C   UNL A   1      43.224  33.394  29.640  1.00  0.00     0.031 A 
ATOM     89  C   UNL A   1      43.459  35.483  30.822  1.00  0.00     0.131 A 
ATOM     90  C   UNL A   1      44.355  33.732  28.867  1.00  0.00     0.055 A 
ATOM     91  C   UNL A   1      44.562  35.824  30.040  1.00  0.00     0.041 A 
ATOM     92  F   UNL A   1      43.050  36.377  31.736  1.00  0.00    -0.206 F 
ATOM     93  C   UNL A   1      45.016  34.949  29.061  1.00  0.00     0.022 A 
BRANCH  90  94
ATOM     94  S   UNL A   1      44.997  32.594  27.591  1.00  0.00     0.124 S 
ATOM     95  O   UNL A   1      46.371  33.043  27.398  1.00  0.00    -0.237 OA
ATOM     96  O   UNL A   1      44.834  31.285  28.218  1.00  0.00    -0.237 OA
ATOM     97  O   UNL A   1      44.114  32.832  26.448  1.00  0.00    -0.744 OA
ENDBRANCH  90  94
ENDBRANCH  64  87
ENDBRANCH  38  39
ENDBRANCH  30  33
ENDBRANCH  28  29
ENDBRANCH   1  28
TORSDOF 19
ENDMDL
MODEL 3
REMARK VINA RESULT:     -11.8      4.334      5.904
REMARK SMILES COc1ccc(/C=C(\Sc2nc(C)n[nH]2)C(=O)NCCCCNC(=O)c2ccc(-c3c4nc(c(-c5cc(S(=O)(=O)[O-])ccc5F)c5ccc([nH]5)c(-c5cc(S(=O)(=O)[O-])ccc5F)c5nc(c(-c6cc(S(=O)(=O)[O-])ccc6F)c6ccc3[nH]6)C=C5)C=C4)cc2)c(OC)c1
REMARK SMILES IDX 21 1 20 2 19 3 18 4 16 5 17 6 8 8 7 9 6 10 3 11 4 12 92 13
REMARK SMILES IDX 5 14 89 15 2 16 1 17 90 18 91 19 9 20 10 21 11 22 15 23
REMARK SMILES IDX 12 24 14 25 13 27 22 28 23 29 24 30 25 32 26 33 27 34 88 35
REMARK SMILES IDX 28 36 87 37 29 38 30 39 31 40 81 41 32 42 86 43 80 44 82 45
REMARK SMILES IDX 33 46 85 47 79 48 78 49 34 51 66 52 46 53 65 54 47 55 50 56
REMARK SMILES IDX 64 57 83 58 48 59 49 60 63 62 84 63 51 64 35 65 36 66 44 67
REMARK SMILES IDX 37 68 43 69 45 70 42 71 38 72 39 73 40 74 41 75 67 76 68 77
REMARK SMILES IDX 76 78 69 79 75 80 77 81 74 82 70 83 71 84 72 85 73 86 52 87
REMARK SMILES IDX 53 88 61 89 54 90 60 91 62 92 59 93 55 94 56 95 57 96 58 97
REMARK H PARENT 18 7 15 26 23 31 82 50 50 61
REMARK Flexibility Score: inf
ROOT
ATOM      1  C   UNL A   1      31.043  31.671  25.976  1.00  0.00     0.023 C 
ENDROOT
BRANCH   1   2
ATOM      2  C   UNL A   1      31.277  30.313  25.290  1.00  0.00     0.023 C 
BRANCH   2   3
ATOM      3  C   UNL A   1      32.273  29.353  25.967  1.00  0.00     0.116 C 
BRANCH   3   4
ATOM      4  N   UNL A   1      31.658  28.095  26.369  1.00  0.00    -0.352 N 
ATOM      5  C   UNL A   1      32.000  26.776  26.245  1.00  0.00     0.258 C 
ATOM      6  O   UNL A   1      31.242  25.990  26.828  1.00  0.00    -0.269 OA
ATOM      7  H   UNL A   1      30.800  28.223  26.837  1.00  0.00     0.163 HD
BRANCH   5   8
ATOM      8  C   UNL A   1      33.178  26.231  25.422  1.00  0.00     0.081 C 
ATOM      9  C   UNL A   1      33.770  25.112  25.949  1.00  0.00     0.033 C 
BRANCH   9  10
ATOM     10  C   UNL A   1      34.822  24.146  25.467  1.00  0.00     0.018 A 
ATOM     11  C   UNL A   1      36.965  22.334  24.943  1.00  0.00     0.122 A 
ATOM     12  C   UNL A   1      37.174  23.412  25.753  1.00  0.00     0.047 A 
ATOM     13  C   UNL A   1      35.707  22.129  24.388  1.00  0.00     0.093 A 
ATOM     14  C   UNL A   1      36.102  24.257  25.994  1.00  0.00     0.016 A 
ATOM     15  C   UNL A   1      34.626  23.017  24.645  1.00  0.00     0.129 A 
BRANCH  11  16
ATOM     16  O   UNL A   1      37.933  21.386  24.815  1.00  0.00    -0.497 OA
ATOM     17  C   UNL A   1      38.953  21.545  25.796  1.00  0.00     0.278 C 
ENDBRANCH  11  16
BRANCH  15  18
ATOM     18  O   UNL A   1      33.367  22.797  24.133  1.00  0.00    -0.496 OA
ATOM     19  C   UNL A   1      32.554  21.878  24.864  1.00  0.00     0.278 C 
ENDBRANCH  15  18
ENDBRANCH   9  10
BRANCH   8  20
ATOM     20  S   UNL A   1      33.280  26.800  23.773  1.00  0.00    -0.045 SA
BRANCH  20  21
ATOM     21  C   UNL A   1      31.656  26.792  23.148  1.00  0.00     0.188 A 
ATOM     22  N   UNL A   1      30.634  26.007  23.417  1.00  0.00    -0.206 NA
ATOM     23  N   UNL A   1      31.183  27.972  22.643  1.00  0.00    -0.254 N 
ATOM     24  C   UNL A   1      29.541  26.848  23.254  1.00  0.00     0.148 A 
ATOM     25  N   UNL A   1      29.844  28.056  22.755  1.00  0.00    -0.158 NA
ATOM     26  H   UNL A   1      31.750  28.672  22.247  1.00  0.00     0.192 HD
ATOM     27  C   UNL A   1      28.246  26.609  23.950  1.00  0.00     0.092 C 
ENDBRANCH  20  21
ENDBRANCH   8  20
ENDBRANCH   5   8
ENDBRANCH   3   4
ENDBRANCH   2   3
ENDBRANCH   1   2
BRANCH   1  28
ATOM     28  C   UNL A   1      32.061  32.040  27.047  1.00  0.00     0.116 C 
BRANCH  28  29
ATOM     29  N   UNL A   1      32.002  33.452  27.456  1.00  0.00    -0.352 N 
ATOM     30  C   UNL A   1      32.885  34.142  28.274  1.00  0.00     0.251 C 
ATOM     31  H   UNL A   1      31.244  33.972  27.104  1.00  0.00     0.163 HD
ATOM     32  O   UNL A   1      32.528  35.170  28.860  1.00  0.00    -0.269 OA
BRANCH  30  33
ATOM     33  C   UNL A   1      34.262  33.639  28.399  1.00  0.00     0.039 A 
ATOM     34  C   UNL A   1      35.382  34.225  27.795  1.00  0.00     0.014 A 
ATOM     35  C   UNL A   1      34.404  32.538  29.230  1.00  0.00     0.014 A 
ATOM     36  C   UNL A   1      36.647  33.705  28.087  1.00  0.00     0.010 A 
ATOM     37  C   UNL A   1      35.631  32.237  29.729  1.00  0.00     0.010 A 
ATOM     38  C   UNL A   1      36.752  32.703  29.060  1.00  0.00    -0.014 A 
BRANCH  38  39
ATOM     39  C   UNL A   1      37.999  32.110  29.524  1.00  0.00     0.031 A 
ATOM     40  C   UNL A   1      38.146  30.678  29.150  1.00  0.00     0.074 A 
ATOM     41  C   UNL A   1      39.038  32.912  29.866  1.00  0.00     0.049 A 
ATOM     42  N   UNL A   1      38.113  29.645  29.923  1.00  0.00    -0.248 NA
ATOM     43  C   UNL A   1      38.103  30.333  27.713  1.00  0.00     0.031 C 
ATOM     44  C   UNL A   1      39.075  34.384  29.906  1.00  0.00     0.029 A 
ATOM     45  N   UNL A   1      40.333  32.595  30.123  1.00  0.00    -0.354 N 
ATOM     46  C   UNL A   1      38.340  28.552  29.089  1.00  0.00     0.074 A 
ATOM     47  C   UNL A   1      38.007  29.004  27.771  1.00  0.00     0.031 C 
ATOM     48  C   UNL A   1      40.358  34.816  29.946  1.00  0.00     0.029 A 
ATOM     49  C   UNL A   1      41.233  33.666  30.091  1.00  0.00     0.049 A 
ATOM     50  H   UNL A   1      40.620  31.674  30.319  1.00  0.00     0.167 HD
ATOM     51  C   UNL A   1      39.096  27.493  29.503  1.00  0.00     0.034 A 
ATOM     52  C   UNL A   1      42.595  33.603  30.160  1.00  0.00     0.034 A 
ATOM     53  C   UNL A   1      39.309  27.565  30.935  1.00  0.00     0.049 A 
ATOM     54  C   UNL A   1      42.913  32.266  30.728  1.00  0.00     0.074 A 
ATOM     55  C   UNL A   1      38.482  27.580  32.042  1.00  0.00     0.029 A 
ATOM     56  N   UNL A   1      40.518  28.067  31.371  1.00  0.00    -0.354 N 
ATOM     57  N   UNL A   1      42.565  31.909  31.936  1.00  0.00    -0.248 NA
ATOM     58  C   UNL A   1      43.116  31.166  29.796  1.00  0.00     0.031 C 
ATOM     59  C   UNL A   1      39.066  28.543  32.920  1.00  0.00     0.029 A 
ATOM     60  C   UNL A   1      40.268  28.984  32.362  1.00  0.00     0.049 A 
ATOM     61  H   UNL A   1      41.406  27.811  31.030  1.00  0.00     0.167 HD
ATOM     62  C   UNL A   1      42.082  30.614  31.806  1.00  0.00     0.074 A 
ATOM     63  C   UNL A   1      42.533  30.176  30.482  1.00  0.00     0.031 C 
ATOM     64  C   UNL A   1      41.106  30.138  32.637  1.00  0.00     0.034 A 
BRANCH  51  65
ATOM     65  C   UNL A   1      39.995  26.647  28.612  1.00  0.00     0.023 A 
ATOM     66  C   UNL A   1      41.081  27.314  28.013  1.00  0.00     0.031 A 
ATOM     67  C   UNL A   1      39.724  25.359  28.098  1.00  0.00     0.131 A 
ATOM     68  C   UNL A   1      41.728  26.787  26.881  1.00  0.00     0.055 A 
ATOM     69  C   UNL A   1      40.411  24.811  27.007  1.00  0.00     0.041 A 
ATOM     70  F   UNL A   1      38.746  24.572  28.554  1.00  0.00    -0.206 F 
ATOM     71  C   UNL A   1      41.392  25.542  26.366  1.00  0.00     0.022 A 
BRANCH  68  72
ATOM     72  S   UNL A   1      42.882  27.856  25.987  1.00  0.00     0.124 S 
ATOM     73  O   UNL A   1      44.162  27.236  26.310  1.00  0.00    -0.237 OA
ATOM     74  O   UNL A   1      42.419  27.707  24.610  1.00  0.00    -0.237 OA
ATOM     75  O   UNL A   1      42.655  29.170  26.583  1.00  0.00    -0.744 OA
ENDBRANCH  68  72
ENDBRANCH  51  65
BRANCH  52  76
ATOM     76  C   UNL A   1      43.601  34.452  29.444  1.00  0.00     0.023 A 
ATOM     77  C   UNL A   1      44.217  34.096  28.217  1.00  0.00     0.031 A 
ATOM     78  C   UNL A   1      43.784  35.788  29.866  1.00  0.00     0.131 A 
ATOM     79  C   UNL A   1      44.971  35.054  27.484  1.00  0.00     0.055 A 
ATOM     80  C   UNL A   1      44.520  36.727  29.138  1.00  0.00     0.041 A 
ATOM     81  F   UNL A   1      43.175  36.251  30.971  1.00  0.00    -0.206 F 
ATOM     82  C   UNL A   1      45.112  36.367  27.939  1.00  0.00     0.022 A 
BRANCH  79  83
ATOM     83  S   UNL A   1      45.741  34.630  25.879  1.00  0.00     0.124 S 
ATOM     84  O   UNL A   1      46.323  33.320  26.146  1.00  0.00    -0.237 OA
ATOM     85  O   UNL A   1      44.607  34.664  24.965  1.00  0.00    -0.237 OA
ATOM     86  O   UNL A   1      46.721  35.701  25.674  1.00  0.00    -0.744 OA
ENDBRANCH  79  83
ENDBRANCH  52  76
BRANCH  64  87
ATOM     87  C   UNL A   1      40.736  30.970  33.855  1.00  0.00     0.023 A 
ATOM     88  C   UNL A   1      39.609  31.823  33.954  1.00  0.00     0.031 A 
ATOM     89  C   UNL A   1      41.499  30.765  35.016  1.00  0.00     0.131 A 
ATOM     90  C   UNL A   1      39.292  32.435  35.186  1.00  0.00     0.055 A 
ATOM     91  C   UNL A   1      41.168  31.352  36.236  1.00  0.00     0.041 A 
ATOM     92  F   UNL A   1      42.561  29.944  34.994  1.00  0.00    -0.206 F 
ATOM     93  C   UNL A   1      40.065  32.193  36.325  1.00  0.00     0.022 A 
BRANCH  90  94
ATOM     94  S   UNL A   1      37.867  33.567  35.334  1.00  0.00     0.124 S 
ATOM     95  O   UNL A   1      36.742  32.756  34.882  1.00  0.00    -0.237 OA
ATOM     96  O   UNL A   1      37.878  33.912  36.753  1.00  0.00    -0.237 OA
ATOM     97  O   UNL A   1      38.215  34.673  34.440  1.00  0.00    -0.744 OA
ENDBRANCH  90  94
ENDBRANCH  64  87
ENDBRANCH  38  39
ENDBRANCH  30  33
ENDBRANCH  28  29
ENDBRANCH   1  28
TORSDOF 19
ENDMDL
