MODEL 1
REMARK VINA RESULT:     -12.7      0.000      0.000
REMARK SMILES Cc1c(Cl)cc2c(c1C)O[C@H](C(F)(F)F)C(C(=O)NCCCCNC(=O)c1ccc(-c3c4nc(c(-c5cc(S(=O)(=O)[O-])ccc5F)c5ccc([nH]5)c(-c5cc(S(=O)(=O)[O-])ccc5F)c5nc(c(-c6cc(S(=O)(=O)[O-])ccc6F)c6ccc3[nH]6)C=C5)C=C4)cc1)=C2
REMARK SMILES IDX 22 1 21 2 20 3 19 4 17 5 18 6 16 8 1 9 2 10 3 11 8 12 4 13
REMARK SMILES IDX 5 14 7 15 9 16 6 17 10 18 90 19 11 20 12 21 13 22 14 23
REMARK SMILES IDX 15 24 23 25 24 26 25 27 26 29 27 30 28 31 89 32 29 33 88 34
REMARK SMILES IDX 30 35 31 36 32 37 82 38 33 39 87 40 81 41 83 42 34 43 86 44
REMARK SMILES IDX 80 45 79 46 35 48 67 49 47 50 66 51 48 52 51 53 65 54 84 55
REMARK SMILES IDX 49 56 50 57 64 59 85 60 52 61 36 62 37 63 45 64 38 65 44 66
REMARK SMILES IDX 46 67 43 68 39 69 40 70 41 71 42 72 68 73 69 74 77 75 70 76
REMARK SMILES IDX 76 77 78 78 75 79 71 80 72 81 73 82 74 83 53 84 54 85 62 86
REMARK SMILES IDX 55 87 61 88 63 89 60 90 56 91 57 92 58 93 59 94
REMARK H PARENT 19 7 24 28 83 47 51 58
REMARK Flexibility Score: inf
ROOT
ATOM      1  C   UNL A   1      32.975  28.954  24.040  1.00  0.00     0.023 C 
ENDROOT
BRANCH   1   2
ATOM      2  C   UNL A   1      32.689  27.529  23.560  1.00  0.00     0.023 C 
BRANCH   2   3
ATOM      3  C   UNL A   1      31.204  27.186  23.484  1.00  0.00     0.116 C 
BRANCH   3   4
ATOM      4  N   UNL A   1      30.681  26.759  24.770  1.00  0.00    -0.352 N 
ATOM      5  C   UNL A   1      30.874  25.725  25.620  1.00  0.00     0.251 C 
ATOM      6  O   UNL A   1      30.185  25.746  26.645  1.00  0.00    -0.270 OA
ATOM      7  H   UNL A   1      30.007  27.389  25.114  1.00  0.00     0.163 HD
BRANCH   5   8
ATOM      8  C   UNL A   1      31.835  24.601  25.407  1.00  0.00     0.067 C 
ATOM      9  C   UNL A   1      37.041  20.659  25.001  1.00  0.00     0.046 C 
ATOM     10  C   UNL A   1      36.027  21.755  25.203  1.00  0.00    -0.026 A 
ATOM     11  C   UNL A   1      36.415  23.063  25.562  1.00  0.00     0.045 A 
ATOM     12  C   UNL A   1      34.645  21.473  25.072  1.00  0.00    -0.004 A 
ATOM     13  Cl  UNL A   1      38.071  23.501  25.812  1.00  0.00    -0.084 Cl
ATOM     14  C   UNL A   1      35.466  24.075  25.747  1.00  0.00     0.032 A 
ATOM     15  C   UNL A   1      33.711  22.514  25.239  1.00  0.00     0.131 A 
ATOM     16  C   UNL A   1      34.124  20.101  24.714  1.00  0.00     0.049 C 
ATOM     17  C   UNL A   1      34.111  23.806  25.578  1.00  0.00     0.019 A 
ATOM     18  O   UNL A   1      32.386  22.194  25.104  1.00  0.00    -0.475 OA
ATOM     19  C   UNL A   1      33.105  24.841  25.787  1.00  0.00     0.025 C 
ATOM     20  C   UNL A   1      31.485  23.287  24.775  1.00  0.00     0.314 C 
BRANCH  20  21
ATOM     21  C   UNL A   1      31.336  23.381  23.245  1.00  0.00     0.429 C 
ATOM     22  F   UNL A   1      31.467  22.155  22.680  1.00  0.00    -0.167 F 
ATOM     23  F   UNL A   1      30.125  23.851  22.867  1.00  0.00    -0.167 F 
ATOM     24  F   UNL A   1      32.265  24.185  22.680  1.00  0.00    -0.167 F 
ENDBRANCH  20  21
ENDBRANCH   5   8
ENDBRANCH   3   4
ENDBRANCH   2   3
ENDBRANCH   1   2
BRANCH   1  25
ATOM     25  C   UNL A   1      32.980  29.148  25.555  1.00  0.00     0.116 C 
BRANCH  25  26
ATOM     26  N   UNL A   1      32.431  30.426  25.981  1.00  0.00    -0.352 N 
ATOM     27  C   UNL A   1      32.931  31.295  26.921  1.00  0.00     0.251 C 
ATOM     28  H   UNL A   1      31.596  30.704  25.539  1.00  0.00     0.163 HD
ATOM     29  O   UNL A   1      32.295  32.296  27.237  1.00  0.00    -0.269 OA
BRANCH  27  30
ATOM     30  C   UNL A   1      34.217  30.980  27.569  1.00  0.00     0.039 A 
ATOM     31  C   UNL A   1      35.092  32.024  27.876  1.00  0.00     0.014 A 
ATOM     32  C   UNL A   1      34.525  29.662  27.921  1.00  0.00     0.014 A 
ATOM     33  C   UNL A   1      36.254  31.754  28.597  1.00  0.00     0.010 A 
ATOM     34  C   UNL A   1      35.655  29.404  28.690  1.00  0.00     0.010 A 
ATOM     35  C   UNL A   1      36.527  30.448  29.036  1.00  0.00    -0.014 A 
BRANCH  35  36
ATOM     36  C   UNL A   1      37.737  30.148  29.837  1.00  0.00     0.031 A 
ATOM     37  C   UNL A   1      38.830  29.307  29.241  1.00  0.00     0.074 A 
ATOM     38  C   UNL A   1      37.830  30.593  31.105  1.00  0.00     0.049 A 
ATOM     39  N   UNL A   1      39.920  28.850  29.801  1.00  0.00    -0.248 NA
ATOM     40  C   UNL A   1      38.658  28.906  27.837  1.00  0.00     0.031 C 
ATOM     41  C   UNL A   1      36.824  31.404  31.794  1.00  0.00     0.029 A 
ATOM     42  N   UNL A   1      38.819  30.428  32.040  1.00  0.00    -0.354 N 
ATOM     43  C   UNL A   1      40.560  28.102  28.822  1.00  0.00     0.074 A 
ATOM     44  C   UNL A   1      39.709  28.121  27.651  1.00  0.00     0.031 C 
ATOM     45  C   UNL A   1      37.263  31.691  33.031  1.00  0.00     0.029 A 
ATOM     46  C   UNL A   1      38.560  31.055  33.236  1.00  0.00     0.049 A 
ATOM     47  H   UNL A   1      39.639  29.909  31.871  1.00  0.00     0.167 HD
ATOM     48  C   UNL A   1      41.759  27.475  28.885  1.00  0.00     0.034 A 
ATOM     49  C   UNL A   1      39.285  31.103  34.370  1.00  0.00     0.034 A 
ATOM     50  C   UNL A   1      42.607  27.480  30.048  1.00  0.00     0.049 A 
ATOM     51  C   UNL A   1      40.601  30.373  34.427  1.00  0.00     0.074 A 
ATOM     52  C   UNL A   1      43.854  26.902  30.210  1.00  0.00     0.029 A 
ATOM     53  N   UNL A   1      42.297  28.101  31.251  1.00  0.00    -0.354 N 
ATOM     54  N   UNL A   1      41.187  29.657  33.496  1.00  0.00    -0.248 NA
ATOM     55  C   UNL A   1      41.349  30.455  35.688  1.00  0.00     0.031 C 
ATOM     56  C   UNL A   1      44.278  27.136  31.524  1.00  0.00     0.029 A 
ATOM     57  C   UNL A   1      43.319  27.904  32.164  1.00  0.00     0.049 A 
ATOM     58  H   UNL A   1      41.472  28.608  31.428  1.00  0.00     0.167 HD
ATOM     59  C   UNL A   1      42.378  29.210  34.057  1.00  0.00     0.074 A 
ATOM     60  C   UNL A   1      42.434  29.749  35.401  1.00  0.00     0.031 C 
ATOM     61  C   UNL A   1      43.341  28.428  33.509  1.00  0.00     0.034 A 
BRANCH  48  62
ATOM     62  C   UNL A   1      42.207  26.723  27.660  1.00  0.00     0.023 A 
ATOM     63  C   UNL A   1      42.019  25.336  27.544  1.00  0.00     0.031 A 
ATOM     64  C   UNL A   1      42.849  27.396  26.606  1.00  0.00     0.131 A 
ATOM     65  C   UNL A   1      42.525  24.654  26.428  1.00  0.00     0.055 A 
ATOM     66  C   UNL A   1      43.290  26.722  25.467  1.00  0.00     0.041 A 
ATOM     67  F   UNL A   1      43.072  28.718  26.676  1.00  0.00    -0.206 F 
ATOM     68  C   UNL A   1      43.138  25.340  25.377  1.00  0.00     0.022 A 
BRANCH  65  69
ATOM     69  S   UNL A   1      42.457  22.842  26.413  1.00  0.00     0.124 S 
ATOM     70  O   UNL A   1      41.118  22.596  26.944  1.00  0.00    -0.237 OA
ATOM     71  O   UNL A   1      42.652  22.528  25.003  1.00  0.00    -0.237 OA
ATOM     72  O   UNL A   1      43.554  22.451  27.296  1.00  0.00    -0.744 OA
ENDBRANCH  65  69
ENDBRANCH  48  62
BRANCH  49  73
ATOM     73  C   UNL A   1      38.784  31.861  35.547  1.00  0.00     0.023 A 
ATOM     74  C   UNL A   1      38.165  31.197  36.618  1.00  0.00     0.031 A 
ATOM     75  C   UNL A   1      38.907  33.259  35.614  1.00  0.00     0.131 A 
ATOM     76  C   UNL A   1      37.667  31.935  37.702  1.00  0.00     0.055 A 
ATOM     77  C   UNL A   1      38.440  33.986  36.710  1.00  0.00     0.041 A 
ATOM     78  F   UNL A   1      39.502  33.936  34.619  1.00  0.00    -0.206 F 
ATOM     79  C   UNL A   1      37.811  33.324  37.761  1.00  0.00     0.022 A 
BRANCH  76  80
ATOM     80  S   UNL A   1      36.809  31.055  39.035  1.00  0.00     0.124 S 
ATOM     81  O   UNL A   1      37.758  31.186  40.136  1.00  0.00    -0.237 OA
ATOM     82  O   UNL A   1      35.572  31.819  39.159  1.00  0.00    -0.237 OA
ATOM     83  O   UNL A   1      36.651  29.703  38.502  1.00  0.00    -0.744 OA
ENDBRANCH  76  80
ENDBRANCH  49  73
BRANCH  61  84
ATOM     84  C   UNL A   1      44.538  28.120  34.365  1.00  0.00     0.023 A 
ATOM     85  C   UNL A   1      44.565  26.992  35.203  1.00  0.00     0.031 A 
ATOM     86  C   UNL A   1      45.670  28.951  34.328  1.00  0.00     0.131 A 
ATOM     87  C   UNL A   1      45.692  26.745  36.000  1.00  0.00     0.055 A 
ATOM     88  C   UNL A   1      46.806  28.675  35.090  1.00  0.00     0.041 A 
ATOM     89  F   UNL A   1      45.692  30.039  33.541  1.00  0.00    -0.206 F 
ATOM     90  C   UNL A   1      46.819  27.571  35.937  1.00  0.00     0.022 A 
BRANCH  87  91
ATOM     91  S   UNL A   1      45.652  25.348  37.156  1.00  0.00     0.124 S 
ATOM     92  O   UNL A   1      44.919  25.913  38.285  1.00  0.00    -0.237 OA
ATOM     93  O   UNL A   1      44.951  24.323  36.390  1.00  0.00    -0.237 OA
ATOM     94  O   UNL A   1      47.064  25.071  37.408  1.00  0.00    -0.744 OA
ENDBRANCH  87  91
ENDBRANCH  61  84
ENDBRANCH  35  36
ENDBRANCH  27  30
ENDBRANCH  25  26
ENDBRANCH   1  25
TORSDOF 15
ENDMDL
MODEL 2
REMARK VINA RESULT:     -12.5      2.315      3.207
REMARK SMILES Cc1c(Cl)cc2c(c1C)O[C@H](C(F)(F)F)C(C(=O)NCCCCNC(=O)c1ccc(-c3c4nc(c(-c5cc(S(=O)(=O)[O-])ccc5F)c5ccc([nH]5)c(-c5cc(S(=O)(=O)[O-])ccc5F)c5nc(c(-c6cc(S(=O)(=O)[O-])ccc6F)c6ccc3[nH]6)C=C5)C=C4)cc1)=C2
REMARK SMILES IDX 22 1 21 2 20 3 19 4 17 5 18 6 16 8 1 9 2 10 3 11 8 12 4 13
REMARK SMILES IDX 5 14 7 15 9 16 6 17 10 18 90 19 11 20 12 21 13 22 14 23
REMARK SMILES IDX 15 24 23 25 24 26 25 27 26 29 27 30 28 31 89 32 29 33 88 34
REMARK SMILES IDX 30 35 31 36 32 37 82 38 33 39 87 40 81 41 83 42 34 43 86 44
REMARK SMILES IDX 80 45 79 46 35 48 67 49 47 50 66 51 48 52 51 53 65 54 84 55
REMARK SMILES IDX 49 56 50 57 64 59 85 60 52 61 36 62 37 63 45 64 38 65 44 66
REMARK SMILES IDX 46 67 43 68 39 69 40 70 41 71 42 72 68 73 69 74 77 75 70 76
REMARK SMILES IDX 76 77 78 78 75 79 71 80 72 81 73 82 74 83 53 84 54 85 62 86
REMARK SMILES IDX 55 87 61 88 63 89 60 90 56 91 57 92 58 93 59 94
REMARK H PARENT 19 7 24 28 83 47 51 58
REMARK Flexibility Score: inf
ROOT
ATOM      1  C   UNL A   1      31.784  31.495  26.826  1.00  0.00     0.023 C 
ENDROOT
BRANCH   1   2
ATOM      2  C   UNL A   1      32.055  29.990  26.767  1.00  0.00     0.023 C 
BRANCH   2   3
ATOM      3  C   UNL A   1      33.466  29.631  26.312  1.00  0.00     0.116 C 
BRANCH   3   4
ATOM      4  N   UNL A   1      33.542  29.455  24.872  1.00  0.00    -0.352 N 
ATOM      5  C   UNL A   1      33.427  28.431  23.996  1.00  0.00     0.251 C 
ATOM      6  O   UNL A   1      33.578  28.732  22.807  1.00  0.00    -0.270 OA
ATOM      7  H   UNL A   1      33.726  30.305  24.412  1.00  0.00     0.163 HD
BRANCH   5   8
ATOM      8  C   UNL A   1      33.138  27.011  24.361  1.00  0.00     0.067 C 
ATOM      9  C   UNL A   1      33.350  20.720  26.145  1.00  0.00     0.046 C 
ATOM     10  C   UNL A   1      33.584  22.162  25.776  1.00  0.00    -0.026 A 
ATOM     11  C   UNL A   1      34.885  22.681  25.609  1.00  0.00     0.045 A 
ATOM     12  C   UNL A   1      32.483  23.041  25.627  1.00  0.00    -0.004 A 
ATOM     13  Cl  UNL A   1      36.303  21.712  25.830  1.00  0.00    -0.084 Cl
ATOM     14  C   UNL A   1      35.092  24.022  25.265  1.00  0.00     0.032 A 
ATOM     15  C   UNL A   1      32.716  24.380  25.256  1.00  0.00     0.131 A 
ATOM     16  C   UNL A   1      31.052  22.592  25.806  1.00  0.00     0.049 C 
ATOM     17  C   UNL A   1      34.007  24.874  25.079  1.00  0.00     0.019 A 
ATOM     18  O   UNL A   1      31.622  25.193  25.124  1.00  0.00    -0.475 OA
ATOM     19  C   UNL A   1      34.202  26.280  24.741  1.00  0.00     0.025 C 
ATOM     20  C   UNL A   1      31.784  26.370  24.286  1.00  0.00     0.314 C 
BRANCH  20  21
ATOM     21  C   UNL A   1      31.363  26.030  22.844  1.00  0.00     0.429 C 
ATOM     22  F   UNL A   1      30.756  27.096  22.264  1.00  0.00    -0.167 F 
ATOM     23  F   UNL A   1      32.414  25.710  22.056  1.00  0.00    -0.167 F 
ATOM     24  F   UNL A   1      30.497  24.993  22.785  1.00  0.00    -0.167 F 
ENDBRANCH  20  21
ENDBRANCH   5   8
ENDBRANCH   3   4
ENDBRANCH   2   3
ENDBRANCH   1   2
BRANCH   1  25
ATOM     25  C   UNL A   1      32.929  32.347  27.375  1.00  0.00     0.116 C 
BRANCH  25  26
ATOM     26  N   UNL A   1      32.552  33.727  27.640  1.00  0.00    -0.352 N 
ATOM     27  C   UNL A   1      33.095  34.596  28.556  1.00  0.00     0.251 C 
ATOM     28  H   UNL A   1      31.814  34.083  27.095  1.00  0.00     0.163 HD
ATOM     29  O   UNL A   1      32.600  35.705  28.726  1.00  0.00    -0.269 OA
BRANCH  27  30
ATOM     30  C   UNL A   1      34.253  34.154  29.356  1.00  0.00     0.039 A 
ATOM     31  C   UNL A   1      34.026  33.422  30.523  1.00  0.00     0.014 A 
ATOM     32  C   UNL A   1      35.554  34.415  28.917  1.00  0.00     0.014 A 
ATOM     33  C   UNL A   1      35.111  32.894  31.221  1.00  0.00     0.010 A 
ATOM     34  C   UNL A   1      36.631  33.839  29.583  1.00  0.00     0.010 A 
ATOM     35  C   UNL A   1      36.418  33.072  30.738  1.00  0.00    -0.014 A 
BRANCH  35  36
ATOM     36  C   UNL A   1      37.581  32.485  31.445  1.00  0.00     0.031 A 
ATOM     37  C   UNL A   1      38.332  31.345  30.817  1.00  0.00     0.074 A 
ATOM     38  C   UNL A   1      37.931  32.948  32.661  1.00  0.00     0.049 A 
ATOM     39  N   UNL A   1      39.311  30.631  31.307  1.00  0.00    -0.248 NA
ATOM     40  C   UNL A   1      37.904  30.941  29.470  1.00  0.00     0.031 C 
ATOM     41  C   UNL A   1      37.265  34.039  33.376  1.00  0.00     0.029 A 
ATOM     42  N   UNL A   1      38.934  32.558  33.510  1.00  0.00    -0.354 N 
ATOM     43  C   UNL A   1      39.612  29.688  30.333  1.00  0.00     0.074 A 
ATOM     44  C   UNL A   1      38.675  29.886  29.248  1.00  0.00     0.031 C 
ATOM     45  C   UNL A   1      37.899  34.251  34.541  1.00  0.00     0.029 A 
ATOM     46  C   UNL A   1      38.988  33.289  34.674  1.00  0.00     0.049 A 
ATOM     47  H   UNL A   1      39.558  31.824  33.307  1.00  0.00     0.167 HD
ATOM     48  C   UNL A   1      40.594  28.755  30.334  1.00  0.00     0.034 A 
ATOM     49  C   UNL A   1      39.819  33.188  35.729  1.00  0.00     0.034 A 
ATOM     50  C   UNL A   1      41.534  28.580  31.410  1.00  0.00     0.049 A 
ATOM     51  C   UNL A   1      40.884  32.125  35.720  1.00  0.00     0.074 A 
ATOM     52  C   UNL A   1      42.587  27.686  31.499  1.00  0.00     0.029 A 
ATOM     53  N   UNL A   1      41.539  29.320  32.585  1.00  0.00    -0.354 N 
ATOM     54  N   UNL A   1      41.147  31.230  34.797  1.00  0.00    -0.248 NA
ATOM     55  C   UNL A   1      41.760  32.055  36.897  1.00  0.00     0.031 C 
ATOM     56  C   UNL A   1      43.200  27.855  32.747  1.00  0.00     0.029 A 
ATOM     57  C   UNL A   1      42.563  28.890  33.412  1.00  0.00     0.049 A 
ATOM     58  H   UNL A   1      40.907  30.044  32.798  1.00  0.00     0.167 HD
ATOM     59  C   UNL A   1      42.226  30.496  35.278  1.00  0.00     0.074 A 
ATOM     60  C   UNL A   1      42.574  31.062  36.566  1.00  0.00     0.031 C 
ATOM     61  C   UNL A   1      42.874  29.451  34.704  1.00  0.00     0.034 A 
BRANCH  48  62
ATOM     62  C   UNL A   1      40.683  27.851  29.133  1.00  0.00     0.023 A 
ATOM     63  C   UNL A   1      41.608  28.091  28.104  1.00  0.00     0.031 A 
ATOM     64  C   UNL A   1      39.818  26.750  29.004  1.00  0.00     0.131 A 
ATOM     65  C   UNL A   1      41.606  27.281  26.959  1.00  0.00     0.055 A 
ATOM     66  C   UNL A   1      39.867  25.906  27.894  1.00  0.00     0.041 A 
ATOM     67  F   UNL A   1      38.903  26.487  29.950  1.00  0.00    -0.206 F 
ATOM     68  C   UNL A   1      40.758  26.175  26.858  1.00  0.00     0.022 A 
BRANCH  65  69
ATOM     69  S   UNL A   1      42.660  27.748  25.561  1.00  0.00     0.124 S 
ATOM     70  O   UNL A   1      41.916  28.874  24.999  1.00  0.00    -0.237 OA
ATOM     71  O   UNL A   1      43.923  28.079  26.210  1.00  0.00    -0.237 OA
ATOM     72  O   UNL A   1      42.682  26.546  24.732  1.00  0.00    -0.744 OA
ENDBRANCH  65  69
ENDBRANCH  48  62
BRANCH  49  73
ATOM     73  C   UNL A   1      39.675  34.112  36.886  1.00  0.00     0.023 A 
ATOM     74  C   UNL A   1      39.078  33.678  38.080  1.00  0.00     0.031 A 
ATOM     75  C   UNL A   1      40.123  35.442  36.811  1.00  0.00     0.131 A 
ATOM     76  C   UNL A   1      38.920  34.576  39.146  1.00  0.00     0.055 A 
ATOM     77  C   UNL A   1      39.994  36.322  37.886  1.00  0.00     0.041 A 
ATOM     78  F   UNL A   1      40.710  35.898  35.693  1.00  0.00    -0.206 F 
ATOM     79  C   UNL A   1      39.384  35.892  39.062  1.00  0.00     0.022 A 
BRANCH  76  80
ATOM     80  S   UNL A   1      38.080  34.006  40.649  1.00  0.00     0.124 S 
ATOM     81  O   UNL A   1      37.635  35.265  41.236  1.00  0.00    -0.237 OA
ATOM     82  O   UNL A   1      37.034  33.145  40.106  1.00  0.00    -0.237 OA
ATOM     83  O   UNL A   1      39.134  33.310  41.384  1.00  0.00    -0.744 OA
ENDBRANCH  76  80
ENDBRANCH  49  73
BRANCH  61  84
ATOM     84  C   UNL A   1      44.029  28.863  35.468  1.00  0.00     0.023 A 
ATOM     85  C   UNL A   1      43.838  27.823  36.393  1.00  0.00     0.031 A 
ATOM     86  C   UNL A   1      45.335  29.336  35.254  1.00  0.00     0.131 A 
ATOM     87  C   UNL A   1      44.936  27.310  37.098  1.00  0.00     0.055 A 
ATOM     88  C   UNL A   1      46.429  28.791  35.926  1.00  0.00     0.041 A 
ATOM     89  F   UNL A   1      45.567  30.327  34.379  1.00  0.00    -0.206 F 
ATOM     90  C   UNL A   1      46.232  27.777  36.859  1.00  0.00     0.022 A 
BRANCH  87  91
ATOM     91  S   UNL A   1      44.643  26.048  38.368  1.00  0.00     0.124 S 
ATOM     92  O   UNL A   1      45.981  25.496  38.558  1.00  0.00    -0.237 OA
ATOM     93  O   UNL A   1      44.115  26.834  39.478  1.00  0.00    -0.237 OA
ATOM     94  O   UNL A   1      43.682  25.145  37.739  1.00  0.00    -0.744 OA
ENDBRANCH  87  91
ENDBRANCH  61  84
ENDBRANCH  35  36
ENDBRANCH  27  30
ENDBRANCH  25  26
ENDBRANCH   1  25
TORSDOF 15
ENDMDL
MODEL 3
REMARK VINA RESULT:     -12.5      5.073      7.588
REMARK SMILES Cc1c(Cl)cc2c(c1C)O[C@H](C(F)(F)F)C(C(=O)NCCCCNC(=O)c1ccc(-c3c4nc(c(-c5cc(S(=O)(=O)[O-])ccc5F)c5ccc([nH]5)c(-c5cc(S(=O)(=O)[O-])ccc5F)c5nc(c(-c6cc(S(=O)(=O)[O-])ccc6F)c6ccc3[nH]6)C=C5)C=C4)cc1)=C2
REMARK SMILES IDX 22 1 21 2 20 3 19 4 17 5 18 6 16 8 1 9 2 10 3 11 8 12 4 13
REMARK SMILES IDX 5 14 7 15 9 16 6 17 10 18 90 19 11 20 12 21 13 22 14 23
REMARK SMILES IDX 15 24 23 25 24 26 25 27 26 29 27 30 28 31 89 32 29 33 88 34
REMARK SMILES IDX 30 35 31 36 32 37 82 38 33 39 87 40 81 41 83 42 34 43 86 44
REMARK SMILES IDX 80 45 79 46 35 48 67 49 47 50 66 51 48 52 51 53 65 54 84 55
REMARK SMILES IDX 49 56 50 57 64 59 85 60 52 61 36 62 37 63 45 64 38 65 44 66
REMARK SMILES IDX 46 67 43 68 39 69 40 70 41 71 42 72 68 73 69 74 77 75 70 76
REMARK SMILES IDX 76 77 78 78 75 79 71 80 72 81 73 82 74 83 53 84 54 85 62 86
REMARK SMILES IDX 55 87 61 88 63 89 60 90 56 91 57 92 58 93 59 94
REMARK H PARENT 19 7 24 28 83 47 51 58
REMARK Flexibility Score: inf
ROOT
ATOM      1  C   UNL A   1      35.476  22.976  26.486  1.00  0.00     0.023 C 
ENDROOT
BRANCH   1   2
ATOM      2  C   UNL A   1      34.738  21.720  26.015  1.00  0.00     0.023 C 
BRANCH   2   3
ATOM      3  C   UNL A   1      33.511  22.007  25.156  1.00  0.00     0.116 C 
BRANCH   3   4
ATOM      4  N   UNL A   1      33.874  22.386  23.802  1.00  0.00    -0.352 N 
ATOM      5  C   UNL A   1      33.774  23.489  23.025  1.00  0.00     0.251 C 
ATOM      6  O   UNL A   1      34.222  23.373  21.881  1.00  0.00    -0.270 OA
ATOM      7  H   UNL A   1      34.308  21.644  23.322  1.00  0.00     0.163 HD
BRANCH   5   8
ATOM      8  C   UNL A   1      33.178  24.791  23.450  1.00  0.00     0.067 C 
ATOM      9  C   UNL A   1      31.783  30.573  26.176  1.00  0.00     0.046 C 
ATOM     10  C   UNL A   1      32.342  29.255  25.706  1.00  0.00    -0.026 A 
ATOM     11  C   UNL A   1      33.473  28.672  26.316  1.00  0.00     0.045 A 
ATOM     12  C   UNL A   1      31.754  28.591  24.602  1.00  0.00    -0.004 A 
ATOM     13  Cl  UNL A   1      34.309  29.429  27.630  1.00  0.00    -0.084 Cl
ATOM     14  C   UNL A   1      33.984  27.447  25.873  1.00  0.00     0.032 A 
ATOM     15  C   UNL A   1      32.271  27.347  24.190  1.00  0.00     0.131 A 
ATOM     16  C   UNL A   1      30.555  29.140  23.865  1.00  0.00     0.049 C 
ATOM     17  C   UNL A   1      33.380  26.776  24.814  1.00  0.00     0.019 A 
ATOM     18  O   UNL A   1      31.671  26.742  23.119  1.00  0.00    -0.475 OA
ATOM     19  C   UNL A   1      33.910  25.509  24.323  1.00  0.00     0.025 C 
ATOM     20  C   UNL A   1      31.839  25.302  23.006  1.00  0.00     0.314 C 
BRANCH  20  21
ATOM     21  C   UNL A   1      30.667  24.596  23.712  1.00  0.00     0.429 C 
ATOM     22  F   UNL A   1      29.581  25.408  23.754  1.00  0.00    -0.167 F 
ATOM     23  F   UNL A   1      30.279  23.467  23.076  1.00  0.00    -0.167 F 
ATOM     24  F   UNL A   1      30.959  24.249  24.986  1.00  0.00    -0.167 F 
ENDBRANCH  20  21
ENDBRANCH   5   8
ENDBRANCH   3   4
ENDBRANCH   2   3
ENDBRANCH   1   2
BRANCH   1  25
ATOM     25  C   UNL A   1      36.746  23.321  25.708  1.00  0.00     0.116 C 
BRANCH  25  26
ATOM     26  N   UNL A   1      37.850  22.407  25.963  1.00  0.00    -0.352 N 
ATOM     27  C   UNL A   1      39.092  22.697  26.476  1.00  0.00     0.251 C 
ATOM     28  H   UNL A   1      37.687  21.463  25.738  1.00  0.00     0.163 HD
ATOM     29  O   UNL A   1      39.952  21.825  26.542  1.00  0.00    -0.269 OA
BRANCH  27  30
ATOM     30  C   UNL A   1      39.380  24.078  26.904  1.00  0.00     0.039 A 
ATOM     31  C   UNL A   1      39.120  24.443  28.226  1.00  0.00     0.014 A 
ATOM     32  C   UNL A   1      39.958  24.987  26.012  1.00  0.00     0.014 A 
ATOM     33  C   UNL A   1      39.501  25.706  28.676  1.00  0.00     0.010 A 
ATOM     34  C   UNL A   1      40.389  26.225  26.478  1.00  0.00     0.010 A 
ATOM     35  C   UNL A   1      40.166  26.593  27.814  1.00  0.00    -0.014 A 
BRANCH  35  36
ATOM     36  C   UNL A   1      40.614  27.925  28.283  1.00  0.00     0.031 A 
ATOM     37  C   UNL A   1      42.075  28.274  28.240  1.00  0.00     0.074 A 
ATOM     38  C   UNL A   1      39.717  28.797  28.784  1.00  0.00     0.049 A 
ATOM     39  N   UNL A   1      42.683  29.340  28.689  1.00  0.00    -0.248 NA
ATOM     40  C   UNL A   1      42.970  27.277  27.635  1.00  0.00     0.031 C 
ATOM     41  C   UNL A   1      38.275  28.561  28.892  1.00  0.00     0.029 A 
ATOM     42  N   UNL A   1      39.886  30.057  29.297  1.00  0.00    -0.354 N 
ATOM     43  C   UNL A   1      44.033  29.140  28.428  1.00  0.00     0.074 A 
ATOM     44  C   UNL A   1      44.159  27.827  27.833  1.00  0.00     0.031 C 
ATOM     45  C   UNL A   1      37.689  29.655  29.406  1.00  0.00     0.029 A 
ATOM     46  C   UNL A   1      38.713  30.651  29.701  1.00  0.00     0.049 A 
ATOM     47  H   UNL A   1      40.764  30.497  29.369  1.00  0.00     0.167 HD
ATOM     48  C   UNL A   1      45.071  29.984  28.645  1.00  0.00     0.034 A 
ATOM     49  C   UNL A   1      38.493  31.860  30.253  1.00  0.00     0.034 A 
ATOM     50  C   UNL A   1      44.932  31.297  29.219  1.00  0.00     0.049 A 
ATOM     51  C   UNL A   1      39.665  32.768  30.512  1.00  0.00     0.074 A 
ATOM     52  C   UNL A   1      45.912  32.244  29.455  1.00  0.00     0.029 A 
ATOM     53  N   UNL A   1      43.731  31.852  29.644  1.00  0.00    -0.354 N 
ATOM     54  N   UNL A   1      40.939  32.558  30.273  1.00  0.00    -0.248 NA
ATOM     55  C   UNL A   1      39.371  34.072  31.119  1.00  0.00     0.031 C 
ATOM     56  C   UNL A   1      45.312  33.353  30.062  1.00  0.00     0.029 A 
ATOM     57  C   UNL A   1      43.950  33.119  30.156  1.00  0.00     0.049 A 
ATOM     58  H   UNL A   1      42.854  31.409  29.587  1.00  0.00     0.167 HD
ATOM     59  C   UNL A   1      41.597  33.709  30.693  1.00  0.00     0.074 A 
ATOM     60  C   UNL A   1      40.579  34.615  31.186  1.00  0.00     0.031 C 
ATOM     61  C   UNL A   1      42.923  33.994  30.668  1.00  0.00     0.034 A 
BRANCH  48  62
ATOM     62  C   UNL A   1      46.443  29.495  28.268  1.00  0.00     0.023 A 
ATOM     63  C   UNL A   1      47.279  28.866  29.206  1.00  0.00     0.031 A 
ATOM     64  C   UNL A   1      46.932  29.680  26.963  1.00  0.00     0.131 A 
ATOM     65  C   UNL A   1      48.584  28.501  28.845  1.00  0.00     0.055 A 
ATOM     66  C   UNL A   1      48.207  29.252  26.591  1.00  0.00     0.041 A 
ATOM     67  F   UNL A   1      46.182  30.292  26.034  1.00  0.00    -0.206 F 
ATOM     68  C   UNL A   1      49.046  28.668  27.537  1.00  0.00     0.022 A 
BRANCH  65  69
ATOM     69  S   UNL A   1      49.704  27.893  30.133  1.00  0.00     0.124 S 
ATOM     70  O   UNL A   1      50.616  27.057  29.355  1.00  0.00    -0.237 OA
ATOM     71  O   UNL A   1      50.270  29.125  30.671  1.00  0.00    -0.237 OA
ATOM     72  O   UNL A   1      48.820  27.165  31.040  1.00  0.00    -0.744 OA
ENDBRANCH  65  69
ENDBRANCH  48  62
BRANCH  49  73
ATOM     73  C   UNL A   1      37.111  32.281  30.606  1.00  0.00     0.023 A 
ATOM     74  C   UNL A   1      36.277  32.880  29.649  1.00  0.00     0.031 A 
ATOM     75  C   UNL A   1      36.609  32.101  31.906  1.00  0.00     0.131 A 
ATOM     76  C   UNL A   1      34.990  33.302  30.014  1.00  0.00     0.055 A 
ATOM     77  C   UNL A   1      35.316  32.492  32.256  1.00  0.00     0.041 A 
ATOM     78  F   UNL A   1      37.367  31.522  32.852  1.00  0.00    -0.206 F 
ATOM     79  C   UNL A   1      34.500  33.103  31.307  1.00  0.00     0.022 A 
BRANCH  76  80
ATOM     80  S   UNL A   1      33.963  34.138  28.774  1.00  0.00     0.124 S 
ATOM     81  O   UNL A   1      34.888  35.135  28.247  1.00  0.00    -0.237 OA
ATOM     82  O   UNL A   1      33.619  33.042  27.874  1.00  0.00    -0.237 OA
ATOM     83  O   UNL A   1      32.850  34.669  29.557  1.00  0.00    -0.744 OA
ENDBRANCH  76  80
ENDBRANCH  49  73
BRANCH  61  84
ATOM     84  C   UNL A   1      43.340  35.344  31.184  1.00  0.00     0.023 A 
ATOM     85  C   UNL A   1      43.503  36.438  30.316  1.00  0.00     0.031 A 
ATOM     86  C   UNL A   1      43.559  35.543  32.557  1.00  0.00     0.131 A 
ATOM     87  C   UNL A   1      43.909  37.677  30.830  1.00  0.00     0.055 A 
ATOM     88  C   UNL A   1      43.919  36.790  33.068  1.00  0.00     0.041 A 
ATOM     89  F   UNL A   1      43.413  34.528  33.425  1.00  0.00    -0.206 F 
ATOM     90  C   UNL A   1      44.103  37.864  32.202  1.00  0.00     0.022 A 
BRANCH  87  91
ATOM     91  S   UNL A   1      44.222  39.039  29.674  1.00  0.00     0.124 S 
ATOM     92  O   UNL A   1      45.503  39.551  30.151  1.00  0.00    -0.237 OA
ATOM     93  O   UNL A   1      44.250  38.358  28.383  1.00  0.00    -0.237 OA
ATOM     94  O   UNL A   1      43.083  39.931  29.876  1.00  0.00    -0.744 OA
ENDBRANCH  87  91
ENDBRANCH  61  84
ENDBRANCH  35  36
ENDBRANCH  27  30
ENDBRANCH  25  26
ENDBRANCH   1  25
TORSDOF 15
ENDMDL
