MODEL 1
REMARK VINA RESULT:     -12.4      0.000      0.000
REMARK SMILES Cc1oc2c(c1C(=O)NCCCC(=O)NCCCCNC(=O)c1ccc(-c3c4nc(c(-c5cc(S(=O)(=O)[O-])ccc5F)c5ccc([nH]5)c(-c5cc(S(=O)(=O)[O-])ccc5F)c5nc(c(-c6cc(S(=O)(=O)[O-])ccc6F)c6ccc3[nH]6)C=C5)C=C4)cc1)CCCC2
REMARK SMILES IDX 17 1 16 2 15 3 13 4 14 5 12 7 11 8 10 9 9 10 7 11 8 12 6 14
REMARK SMILES IDX 1 15 2 16 3 17 4 18 5 19 89 20 86 21 88 22 87 23 18 24 19 25
REMARK SMILES IDX 20 26 21 27 22 29 23 30 24 31 85 32 25 33 84 34 26 35 27 36
REMARK SMILES IDX 28 37 78 38 29 39 83 40 77 41 79 42 30 43 82 44 76 45 75 46
REMARK SMILES IDX 31 48 63 49 43 50 62 51 44 52 47 53 61 54 80 55 45 56 46 57
REMARK SMILES IDX 60 59 81 60 48 61 32 62 33 63 41 64 34 65 40 66 42 67 39 68
REMARK SMILES IDX 35 69 36 70 37 71 38 72 64 73 65 74 73 75 66 76 72 77 74 78
REMARK SMILES IDX 71 79 67 80 68 81 69 82 70 83 49 84 50 85 58 86 51 87 57 88
REMARK SMILES IDX 59 89 56 90 52 91 53 92 54 93 55 94
REMARK H PARENT 15 6 9 13 20 28 79 47 47 58
REMARK Flexibility Score: inf
ROOT
ATOM      1  C   UNL A   1      33.124  30.054  26.410  1.00  0.00     0.023 C 
ENDROOT
BRANCH   1   2
ATOM      2  C   UNL A   1      31.763  29.492  25.985  1.00  0.00     0.116 C 
BRANCH   2   3
ATOM      3  N   UNL A   1      31.592  28.131  26.470  1.00  0.00    -0.356 N 
ATOM      4  C   UNL A   1      31.061  27.036  25.862  1.00  0.00     0.220 C 
ATOM      5  O   UNL A   1      30.857  26.029  26.543  1.00  0.00    -0.275 OA
ATOM      6  H   UNL A   1      31.912  27.978  27.388  1.00  0.00     0.163 HD
BRANCH   4   7
ATOM      7  C   UNL A   1      30.733  27.043  24.381  1.00  0.00     0.102 C 
BRANCH   7   8
ATOM      8  C   UNL A   1      29.698  25.997  23.964  1.00  0.00     0.031 C 
BRANCH   8   9
ATOM      9  C   UNL A   1      30.246  24.685  23.409  1.00  0.00     0.116 C 
BRANCH   9  10
ATOM     10  N   UNL A   1      31.341  24.822  22.485  1.00  0.00    -0.352 N 
ATOM     11  C   UNL A   1      32.643  24.399  22.536  1.00  0.00     0.255 C 
ATOM     12  O   UNL A   1      33.313  24.679  21.538  1.00  0.00    -0.269 OA
ATOM     13  H   UNL A   1      31.111  25.311  21.662  1.00  0.00     0.163 HD
BRANCH  11  14
ATOM     14  C   UNL A   1      33.264  23.737  23.688  1.00  0.00     0.084 A 
ATOM     15  C   UNL A   1      34.374  25.500  25.382  1.00  0.00     0.088 C 
ATOM     16  C   UNL A   1      33.983  24.201  24.795  1.00  0.00     0.114 A 
ATOM     17  O   UNL A   1      34.398  23.156  25.578  1.00  0.00    -0.465 OA
ATOM     18  C   UNL A   1      33.901  22.036  25.037  1.00  0.00     0.108 A 
ATOM     19  C   UNL A   1      33.160  22.311  23.918  1.00  0.00     0.007 A 
ATOM     20  C   UNL A   1      34.151  20.731  25.679  1.00  0.00     0.076 C 
ATOM     21  C   UNL A   1      32.466  21.223  23.161  1.00  0.00     0.040 C 
ATOM     22  C   UNL A   1      33.790  19.618  24.679  1.00  0.00     0.008 C 
ATOM     23  C   UNL A   1      32.453  19.899  23.964  1.00  0.00     0.005 C 
ENDBRANCH  11  14
ENDBRANCH   9  10
ENDBRANCH   8   9
ENDBRANCH   7   8
ENDBRANCH   4   7
ENDBRANCH   2   3
ENDBRANCH   1   2
BRANCH   1  24
ATOM     24  C   UNL A   1      33.989  29.142  27.287  1.00  0.00     0.023 C 
BRANCH  24  25
ATOM     25  C   UNL A   1      35.375  29.688  27.600  1.00  0.00     0.116 C 
BRANCH  25  26
ATOM     26  N   UNL A   1      35.519  30.123  28.989  1.00  0.00    -0.352 N 
ATOM     27  C   UNL A   1      36.417  29.642  29.931  1.00  0.00     0.251 C 
ATOM     28  H   UNL A   1      34.909  30.835  29.290  1.00  0.00     0.163 HD
ATOM     29  O   UNL A   1      36.203  29.749  31.122  1.00  0.00    -0.269 OA
BRANCH  27  30
ATOM     30  C   UNL A   1      37.640  28.993  29.425  1.00  0.00     0.039 A 
ATOM     31  C   UNL A   1      38.275  29.440  28.265  1.00  0.00     0.014 A 
ATOM     32  C   UNL A   1      38.202  27.994  30.217  1.00  0.00     0.014 A 
ATOM     33  C   UNL A   1      39.545  28.948  27.966  1.00  0.00     0.010 A 
ATOM     34  C   UNL A   1      39.501  27.611  29.991  1.00  0.00     0.010 A 
ATOM     35  C   UNL A   1      40.172  28.057  28.853  1.00  0.00    -0.014 A 
BRANCH  35  36
ATOM     36  C   UNL A   1      41.579  27.692  28.678  1.00  0.00     0.031 A 
ATOM     37  C   UNL A   1      41.832  26.438  27.909  1.00  0.00     0.074 A 
ATOM     38  C   UNL A   1      42.598  28.537  28.944  1.00  0.00     0.049 A 
ATOM     39  N   UNL A   1      42.342  25.331  28.338  1.00  0.00    -0.248 NA
ATOM     40  C   UNL A   1      41.353  26.360  26.520  1.00  0.00     0.031 C 
ATOM     41  C   UNL A   1      42.529  29.933  29.393  1.00  0.00     0.029 A 
ATOM     42  N   UNL A   1      43.931  28.361  28.735  1.00  0.00    -0.354 N 
ATOM     43  C   UNL A   1      42.469  24.497  27.229  1.00  0.00     0.074 A 
ATOM     44  C   UNL A   1      41.668  25.104  26.199  1.00  0.00     0.031 C 
ATOM     45  C   UNL A   1      43.717  30.538  29.175  1.00  0.00     0.029 A 
ATOM     46  C   UNL A   1      44.677  29.535  28.750  1.00  0.00     0.049 A 
ATOM     47  H   UNL A   1      44.334  27.475  28.586  1.00  0.00     0.167 HD
ATOM     48  C   UNL A   1      43.403  23.500  27.192  1.00  0.00     0.034 A 
ATOM     49  C   UNL A   1      45.983  29.683  28.413  1.00  0.00     0.034 A 
ATOM     50  C   UNL A   1      43.933  23.246  28.515  1.00  0.00     0.049 A 
ATOM     51  C   UNL A   1      46.610  28.346  28.552  1.00  0.00     0.074 A 
ATOM     52  C   UNL A   1      43.376  22.904  29.734  1.00  0.00     0.029 A 
ATOM     53  N   UNL A   1      45.193  23.721  28.818  1.00  0.00    -0.354 N 
ATOM     54  N   UNL A   1      46.719  27.722  29.694  1.00  0.00    -0.248 NA
ATOM     55  C   UNL A   1      46.671  27.492  27.374  1.00  0.00     0.031 C 
ATOM     56  C   UNL A   1      44.084  23.695  30.688  1.00  0.00     0.029 A 
ATOM     57  C   UNL A   1      45.088  24.391  30.012  1.00  0.00     0.049 A 
ATOM     58  H   UNL A   1      46.009  23.603  28.281  1.00  0.00     0.167 HD
ATOM     59  C   UNL A   1      46.417  26.400  29.410  1.00  0.00     0.074 A 
ATOM     60  C   UNL A   1      46.498  26.300  27.953  1.00  0.00     0.031 C 
ATOM     61  C   UNL A   1      45.851  25.579  30.346  1.00  0.00     0.034 A 
BRANCH  48  62
ATOM     62  C   UNL A   1      44.117  22.993  25.949  1.00  0.00     0.023 A 
ATOM     63  C   UNL A   1      44.060  21.606  25.702  1.00  0.00     0.031 A 
ATOM     64  C   UNL A   1      45.066  23.705  25.183  1.00  0.00     0.131 A 
ATOM     65  C   UNL A   1      44.996  20.974  24.865  1.00  0.00     0.055 A 
ATOM     66  C   UNL A   1      45.948  23.080  24.292  1.00  0.00     0.041 A 
ATOM     67  F   UNL A   1      45.260  25.021  25.304  1.00  0.00    -0.206 F 
ATOM     68  C   UNL A   1      45.946  21.702  24.161  1.00  0.00     0.022 A 
BRANCH  65  69
ATOM     69  S   UNL A   1      45.076  19.164  24.889  1.00  0.00     0.124 S 
ATOM     70  O   UNL A   1      46.326  18.938  25.606  1.00  0.00    -0.237 OA
ATOM     71  O   UNL A   1      43.851  18.820  25.603  1.00  0.00    -0.237 OA
ATOM     72  O   UNL A   1      45.093  18.807  23.472  1.00  0.00    -0.744 OA
ENDBRANCH  65  69
ENDBRANCH  48  62
BRANCH  49  73
ATOM     73  C   UNL A   1      46.620  30.835  27.717  1.00  0.00     0.023 A 
ATOM     74  C   UNL A   1      45.890  31.730  26.907  1.00  0.00     0.031 A 
ATOM     75  C   UNL A   1      47.943  31.213  28.042  1.00  0.00     0.131 A 
ATOM     76  C   UNL A   1      46.480  32.937  26.466  1.00  0.00     0.055 A 
ATOM     77  C   UNL A   1      48.523  32.405  27.601  1.00  0.00     0.041 A 
ATOM     78  F   UNL A   1      48.694  30.475  28.875  1.00  0.00    -0.206 F 
ATOM     79  C   UNL A   1      47.787  33.280  26.819  1.00  0.00     0.022 A 
BRANCH  76  80
ATOM     80  S   UNL A   1      45.507  34.145  25.509  1.00  0.00     0.124 S 
ATOM     81  O   UNL A   1      46.546  34.903  24.824  1.00  0.00    -0.237 OA
ATOM     82  O   UNL A   1      44.670  33.289  24.677  1.00  0.00    -0.237 OA
ATOM     83  O   UNL A   1      44.781  34.890  26.540  1.00  0.00    -0.744 OA
ENDBRANCH  76  80
ENDBRANCH  49  73
BRANCH  61  84
ATOM     84  C   UNL A   1      45.811  26.027  31.793  1.00  0.00     0.023 A 
ATOM     85  C   UNL A   1      44.676  26.560  32.448  1.00  0.00     0.031 A 
ATOM     86  C   UNL A   1      46.949  25.765  32.576  1.00  0.00     0.131 A 
ATOM     87  C   UNL A   1      44.717  26.814  33.835  1.00  0.00     0.055 A 
ATOM     88  C   UNL A   1      46.979  25.997  33.950  1.00  0.00     0.041 A 
ATOM     89  F   UNL A   1      48.051  25.233  32.019  1.00  0.00    -0.206 F 
ATOM     90  C   UNL A   1      45.863  26.527  34.585  1.00  0.00     0.022 A 
BRANCH  87  91
ATOM     91  S   UNL A   1      43.282  27.536  34.696  1.00  0.00     0.124 S 
ATOM     92  O   UNL A   1      43.769  27.753  36.053  1.00  0.00    -0.237 OA
ATOM     93  O   UNL A   1      43.014  28.739  33.911  1.00  0.00    -0.237 OA
ATOM     94  O   UNL A   1      42.257  26.496  34.577  1.00  0.00    -0.744 OA
ENDBRANCH  87  91
ENDBRANCH  61  84
ENDBRANCH  35  36
ENDBRANCH  27  30
ENDBRANCH  25  26
ENDBRANCH  24  25
ENDBRANCH   1  24
TORSDOF 18
ENDMDL
MODEL 2
REMARK VINA RESULT:     -12.3      2.440      6.737
REMARK SMILES Cc1oc2c(c1C(=O)NCCCC(=O)NCCCCNC(=O)c1ccc(-c3c4nc(c(-c5cc(S(=O)(=O)[O-])ccc5F)c5ccc([nH]5)c(-c5cc(S(=O)(=O)[O-])ccc5F)c5nc(c(-c6cc(S(=O)(=O)[O-])ccc6F)c6ccc3[nH]6)C=C5)C=C4)cc1)CCCC2
REMARK SMILES IDX 17 1 16 2 15 3 13 4 14 5 12 7 11 8 10 9 9 10 7 11 8 12 6 14
REMARK SMILES IDX 1 15 2 16 3 17 4 18 5 19 89 20 86 21 88 22 87 23 18 24 19 25
REMARK SMILES IDX 20 26 21 27 22 29 23 30 24 31 85 32 25 33 84 34 26 35 27 36
REMARK SMILES IDX 28 37 78 38 29 39 83 40 77 41 79 42 30 43 82 44 76 45 75 46
REMARK SMILES IDX 31 48 63 49 43 50 62 51 44 52 47 53 61 54 80 55 45 56 46 57
REMARK SMILES IDX 60 59 81 60 48 61 32 62 33 63 41 64 34 65 40 66 42 67 39 68
REMARK SMILES IDX 35 69 36 70 37 71 38 72 64 73 65 74 73 75 66 76 72 77 74 78
REMARK SMILES IDX 71 79 67 80 68 81 69 82 70 83 49 84 50 85 58 86 51 87 57 88
REMARK SMILES IDX 59 89 56 90 52 91 53 92 54 93 55 94
REMARK H PARENT 15 6 9 13 20 28 79 47 47 58
REMARK Flexibility Score: inf
ROOT
ATOM      1  C   UNL A   1      33.038  29.250  27.137  1.00  0.00     0.023 C 
ENDROOT
BRANCH   1   2
ATOM      2  C   UNL A   1      31.610  28.695  27.180  1.00  0.00     0.116 C 
BRANCH   2   3
ATOM      3  N   UNL A   1      31.623  27.249  27.335  1.00  0.00    -0.356 N 
ATOM      4  C   UNL A   1      31.463  26.259  26.416  1.00  0.00     0.220 C 
ATOM      5  O   UNL A   1      31.333  25.101  26.818  1.00  0.00    -0.275 OA
ATOM      6  H   UNL A   1      31.771  26.935  28.257  1.00  0.00     0.163 HD
BRANCH   4   7
ATOM      7  C   UNL A   1      31.455  26.563  24.930  1.00  0.00     0.102 C 
BRANCH   7   8
ATOM      8  C   UNL A   1      30.244  26.003  24.184  1.00  0.00     0.031 C 
BRANCH   8   9
ATOM      9  C   UNL A   1      30.458  24.694  23.428  1.00  0.00     0.116 C 
BRANCH   9  10
ATOM     10  N   UNL A   1      31.491  24.729  22.426  1.00  0.00    -0.352 N 
ATOM     11  C   UNL A   1      32.747  24.182  22.383  1.00  0.00     0.255 C 
ATOM     12  O   UNL A   1      33.366  24.400  21.338  1.00  0.00    -0.269 OA
ATOM     13  H   UNL A   1      31.250  25.241  21.622  1.00  0.00     0.163 HD
BRANCH  11  14
ATOM     14  C   UNL A   1      33.383  23.457  23.489  1.00  0.00     0.084 A 
ATOM     15  C   UNL A   1      34.720  25.106  25.132  1.00  0.00     0.088 C 
ATOM     16  C   UNL A   1      34.198  23.849  24.555  1.00  0.00     0.114 A 
ATOM     17  O   UNL A   1      34.579  22.764  25.301  1.00  0.00    -0.465 OA
ATOM     18  C   UNL A   1      33.968  21.693  24.778  1.00  0.00     0.108 A 
ATOM     19  C   UNL A   1      33.185  22.039  23.709  1.00  0.00     0.007 A 
ATOM     20  C   UNL A   1      34.156  20.362  25.390  1.00  0.00     0.076 C 
ATOM     21  C   UNL A   1      32.368  21.018  22.983  1.00  0.00     0.040 C 
ATOM     22  C   UNL A   1      33.655  19.295  24.400  1.00  0.00     0.008 C 
ATOM     23  C   UNL A   1      32.303  19.686  23.770  1.00  0.00     0.005 C 
ENDBRANCH  11  14
ENDBRANCH   9  10
ENDBRANCH   8   9
ENDBRANCH   7   8
ENDBRANCH   4   7
ENDBRANCH   2   3
ENDBRANCH   1   2
BRANCH   1  24
ATOM     24  C   UNL A   1      33.173  30.776  27.185  1.00  0.00     0.023 C 
BRANCH  24  25
ATOM     25  C   UNL A   1      34.561  31.281  27.553  1.00  0.00     0.116 C 
BRANCH  25  26
ATOM     26  N   UNL A   1      34.569  32.108  28.758  1.00  0.00    -0.352 N 
ATOM     27  C   UNL A   1      35.423  31.999  29.847  1.00  0.00     0.251 C 
ATOM     28  H   UNL A   1      33.892  32.822  28.804  1.00  0.00     0.163 HD
ATOM     29  O   UNL A   1      35.113  32.426  30.941  1.00  0.00    -0.269 OA
BRANCH  27  30
ATOM     30  C   UNL A   1      36.723  31.340  29.619  1.00  0.00     0.039 A 
ATOM     31  C   UNL A   1      37.926  32.031  29.775  1.00  0.00     0.014 A 
ATOM     32  C   UNL A   1      36.703  29.972  29.360  1.00  0.00     0.014 A 
ATOM     33  C   UNL A   1      39.117  31.306  29.779  1.00  0.00     0.010 A 
ATOM     34  C   UNL A   1      37.863  29.248  29.494  1.00  0.00     0.010 A 
ATOM     35  C   UNL A   1      39.079  29.906  29.672  1.00  0.00    -0.014 A 
BRANCH  35  36
ATOM     36  C   UNL A   1      40.286  29.105  29.887  1.00  0.00     0.031 A 
ATOM     37  C   UNL A   1      40.576  28.737  31.304  1.00  0.00     0.074 A 
ATOM     38  C   UNL A   1      40.961  28.504  28.883  1.00  0.00     0.049 A 
ATOM     39  N   UNL A   1      41.566  29.121  32.039  1.00  0.00    -0.248 NA
ATOM     40  C   UNL A   1      39.581  27.937  32.036  1.00  0.00     0.031 C 
ATOM     41  C   UNL A   1      40.631  28.479  27.453  1.00  0.00     0.029 A 
ATOM     42  N   UNL A   1      42.027  27.662  28.954  1.00  0.00    -0.354 N 
ATOM     43  C   UNL A   1      41.455  28.432  33.246  1.00  0.00     0.074 A 
ATOM     44  C   UNL A   1      40.125  27.886  33.254  1.00  0.00     0.031 C 
ATOM     45  C   UNL A   1      41.307  27.478  26.850  1.00  0.00     0.029 A 
ATOM     46  C   UNL A   1      42.250  26.916  27.801  1.00  0.00     0.049 A 
ATOM     47  H   UNL A   1      42.593  27.587  29.756  1.00  0.00     0.167 HD
ATOM     48  C   UNL A   1      42.549  28.186  34.028  1.00  0.00     0.034 A 
ATOM     49  C   UNL A   1      43.127  25.892  27.641  1.00  0.00     0.034 A 
ATOM     50  C   UNL A   1      43.669  29.005  33.614  1.00  0.00     0.049 A 
ATOM     51  C   UNL A   1      44.161  26.054  28.692  1.00  0.00     0.074 A 
ATOM     52  C   UNL A   1      43.874  30.365  33.467  1.00  0.00     0.029 A 
ATOM     53  N   UNL A   1      44.683  28.410  32.892  1.00  0.00    -0.354 N 
ATOM     54  N   UNL A   1      44.977  27.072  28.741  1.00  0.00    -0.248 NA
ATOM     55  C   UNL A   1      43.972  25.352  29.954  1.00  0.00     0.031 C 
ATOM     56  C   UNL A   1      44.619  30.489  32.256  1.00  0.00     0.029 A 
ATOM     57  C   UNL A   1      44.906  29.203  31.794  1.00  0.00     0.049 A 
ATOM     58  H   UNL A   1      45.156  27.577  33.121  1.00  0.00     0.167 HD
ATOM     59  C   UNL A   1      45.050  27.407  30.084  1.00  0.00     0.074 A 
ATOM     60  C   UNL A   1      44.494  26.253  30.791  1.00  0.00     0.031 C 
ATOM     61  C   UNL A   1      45.283  28.693  30.488  1.00  0.00     0.034 A 
BRANCH  48  62
ATOM     62  C   UNL A   1      42.752  26.973  34.921  1.00  0.00     0.023 A 
ATOM     63  C   UNL A   1      43.568  25.939  34.417  1.00  0.00     0.031 A 
ATOM     64  C   UNL A   1      41.989  26.639  36.062  1.00  0.00     0.131 A 
ATOM     65  C   UNL A   1      43.493  24.633  34.931  1.00  0.00     0.055 A 
ATOM     66  C   UNL A   1      41.975  25.353  36.618  1.00  0.00     0.041 A 
ATOM     67  F   UNL A   1      41.154  27.496  36.656  1.00  0.00    -0.206 F 
ATOM     68  C   UNL A   1      42.696  24.330  36.027  1.00  0.00     0.022 A 
BRANCH  65  69
ATOM     69  S   UNL A   1      44.295  23.302  33.999  1.00  0.00     0.124 S 
ATOM     70  O   UNL A   1      44.654  22.376  35.067  1.00  0.00    -0.237 OA
ATOM     71  O   UNL A   1      43.224  22.873  33.107  1.00  0.00    -0.237 OA
ATOM     72  O   UNL A   1      45.418  23.973  33.348  1.00  0.00    -0.744 OA
ENDBRANCH  65  69
ENDBRANCH  48  62
BRANCH  49  73
ATOM     73  C   UNL A   1      42.947  24.658  26.829  1.00  0.00     0.023 A 
ATOM     74  C   UNL A   1      43.846  24.284  25.808  1.00  0.00     0.031 A 
ATOM     75  C   UNL A   1      41.998  23.685  27.222  1.00  0.00     0.131 A 
ATOM     76  C   UNL A   1      43.776  22.994  25.232  1.00  0.00     0.055 A 
ATOM     77  C   UNL A   1      41.931  22.415  26.647  1.00  0.00     0.041 A 
ATOM     78  F   UNL A   1      41.154  23.908  28.242  1.00  0.00    -0.206 F 
ATOM     79  C   UNL A   1      42.829  22.058  25.655  1.00  0.00     0.022 A 
BRANCH  76  80
ATOM     80  S   UNL A   1      45.000  22.470  23.988  1.00  0.00     0.124 S 
ATOM     81  O   UNL A   1      45.564  21.272  24.597  1.00  0.00    -0.237 OA
ATOM     82  O   UNL A   1      44.178  22.271  22.800  1.00  0.00    -0.237 OA
ATOM     83  O   UNL A   1      45.915  23.611  23.910  1.00  0.00    -0.744 OA
ENDBRANCH  76  80
ENDBRANCH  49  73
BRANCH  61  84
ATOM     84  C   UNL A   1      45.749  29.714  29.470  1.00  0.00     0.023 A 
ATOM     85  C   UNL A   1      44.918  30.352  28.519  1.00  0.00     0.031 A 
ATOM     86  C   UNL A   1      47.080  30.157  29.570  1.00  0.00     0.131 A 
ATOM     87  C   UNL A   1      45.436  31.387  27.712  1.00  0.00     0.055 A 
ATOM     88  C   UNL A   1      47.582  31.195  28.787  1.00  0.00     0.041 A 
ATOM     89  F   UNL A   1      47.913  29.611  30.472  1.00  0.00    -0.206 F 
ATOM     90  C   UNL A   1      46.762  31.812  27.851  1.00  0.00     0.022 A 
BRANCH  87  91
ATOM     91  S   UNL A   1      44.397  32.199  26.454  1.00  0.00     0.124 S 
ATOM     92  O   UNL A   1      43.414  31.179  26.111  1.00  0.00    -0.237 OA
ATOM     93  O   UNL A   1      43.886  33.365  27.170  1.00  0.00    -0.237 OA
ATOM     94  O   UNL A   1      45.345  32.514  25.383  1.00  0.00    -0.744 OA
ENDBRANCH  87  91
ENDBRANCH  61  84
ENDBRANCH  35  36
ENDBRANCH  27  30
ENDBRANCH  25  26
ENDBRANCH  24  25
ENDBRANCH   1  24
TORSDOF 18
ENDMDL
MODEL 3
REMARK VINA RESULT:     -12.2      3.127      8.515
REMARK SMILES Cc1oc2c(c1C(=O)NCCCC(=O)NCCCCNC(=O)c1ccc(-c3c4nc(c(-c5cc(S(=O)(=O)[O-])ccc5F)c5ccc([nH]5)c(-c5cc(S(=O)(=O)[O-])ccc5F)c5nc(c(-c6cc(S(=O)(=O)[O-])ccc6F)c6ccc3[nH]6)C=C5)C=C4)cc1)CCCC2
REMARK SMILES IDX 17 1 16 2 15 3 13 4 14 5 12 7 11 8 10 9 9 10 7 11 8 12 6 14
REMARK SMILES IDX 1 15 2 16 3 17 4 18 5 19 89 20 86 21 88 22 87 23 18 24 19 25
REMARK SMILES IDX 20 26 21 27 22 29 23 30 24 31 85 32 25 33 84 34 26 35 27 36
REMARK SMILES IDX 28 37 78 38 29 39 83 40 77 41 79 42 30 43 82 44 76 45 75 46
REMARK SMILES IDX 31 48 63 49 43 50 62 51 44 52 47 53 61 54 80 55 45 56 46 57
REMARK SMILES IDX 60 59 81 60 48 61 32 62 33 63 41 64 34 65 40 66 42 67 39 68
REMARK SMILES IDX 35 69 36 70 37 71 38 72 64 73 65 74 73 75 66 76 72 77 74 78
REMARK SMILES IDX 71 79 67 80 68 81 69 82 70 83 49 84 50 85 58 86 51 87 57 88
REMARK SMILES IDX 59 89 56 90 52 91 53 92 54 93 55 94
REMARK H PARENT 15 6 9 13 20 28 79 47 47 58
REMARK Flexibility Score: inf
ROOT
ATOM      1  C   UNL A   1      36.386  21.800  24.333  1.00  0.00     0.023 C 
ENDROOT
BRANCH   1   2
ATOM      2  C   UNL A   1      34.947  22.084  24.777  1.00  0.00     0.116 C 
BRANCH   2   3
ATOM      3  N   UNL A   1      34.129  20.887  24.674  1.00  0.00    -0.356 N 
ATOM      4  C   UNL A   1      32.791  20.712  24.849  1.00  0.00     0.220 C 
ATOM      5  O   UNL A   1      32.350  19.561  24.885  1.00  0.00    -0.275 OA
ATOM      6  H   UNL A   1      34.624  20.068  24.438  1.00  0.00     0.163 HD
BRANCH   4   7
ATOM      7  C   UNL A   1      31.857  21.898  24.990  1.00  0.00     0.102 C 
BRANCH   7   8
ATOM      8  C   UNL A   1      31.927  22.592  26.351  1.00  0.00     0.031 C 
BRANCH   8   9
ATOM      9  C   UNL A   1      30.809  23.581  26.667  1.00  0.00     0.116 C 
BRANCH   9  10
ATOM     10  N   UNL A   1      30.205  24.208  25.520  1.00  0.00    -0.352 N 
ATOM     11  C   UNL A   1      30.665  25.152  24.641  1.00  0.00     0.255 C 
ATOM     12  O   UNL A   1      29.871  25.451  23.745  1.00  0.00    -0.269 OA
ATOM     13  H   UNL A   1      29.289  23.900  25.333  1.00  0.00     0.163 HD
BRANCH  11  14
ATOM     14  C   UNL A   1      31.955  25.843  24.754  1.00  0.00     0.084 A 
ATOM     15  C   UNL A   1      33.711  25.000  22.907  1.00  0.00     0.088 C 
ATOM     16  C   UNL A   1      33.169  25.735  24.069  1.00  0.00     0.114 A 
ATOM     17  O   UNL A   1      34.102  26.589  24.596  1.00  0.00    -0.465 OA
ATOM     18  C   UNL A   1      33.493  27.293  25.559  1.00  0.00     0.108 A 
ATOM     19  C   UNL A   1      32.176  26.935  25.680  1.00  0.00     0.007 A 
ATOM     20  C   UNL A   1      34.237  28.330  26.301  1.00  0.00     0.076 C 
ATOM     21  C   UNL A   1      31.275  27.613  26.662  1.00  0.00     0.040 C 
ATOM     22  C   UNL A   1      33.428  28.710  27.554  1.00  0.00     0.008 C 
ATOM     23  C   UNL A   1      31.930  28.893  27.236  1.00  0.00     0.005 C 
ENDBRANCH  11  14
ENDBRANCH   9  10
ENDBRANCH   8   9
ENDBRANCH   7   8
ENDBRANCH   4   7
ENDBRANCH   2   3
ENDBRANCH   1   2
BRANCH   1  24
ATOM     24  C   UNL A   1      37.090  20.629  25.026  1.00  0.00     0.023 C 
BRANCH  24  25
ATOM     25  C   UNL A   1      38.542  20.890  25.401  1.00  0.00     0.116 C 
BRANCH  25  26
ATOM     26  N   UNL A   1      39.309  19.663  25.610  1.00  0.00    -0.352 N 
ATOM     27  C   UNL A   1      40.662  19.556  25.901  1.00  0.00     0.251 C 
ATOM     28  H   UNL A   1      38.810  18.816  25.536  1.00  0.00     0.163 HD
ATOM     29  O   UNL A   1      41.284  18.542  25.655  1.00  0.00    -0.269 OA
BRANCH  27  30
ATOM     30  C   UNL A   1      41.312  20.727  26.519  1.00  0.00     0.039 A 
ATOM     31  C   UNL A   1      41.920  21.715  25.743  1.00  0.00     0.014 A 
ATOM     32  C   UNL A   1      41.189  20.864  27.899  1.00  0.00     0.014 A 
ATOM     33  C   UNL A   1      42.307  22.905  26.359  1.00  0.00     0.010 A 
ATOM     34  C   UNL A   1      41.451  22.083  28.476  1.00  0.00     0.010 A 
ATOM     35  C   UNL A   1      42.038  23.100  27.724  1.00  0.00    -0.014 A 
BRANCH  35  36
ATOM     36  C   UNL A   1      42.236  24.410  28.347  1.00  0.00     0.031 A 
ATOM     37  C   UNL A   1      41.160  25.414  28.098  1.00  0.00     0.074 A 
ATOM     38  C   UNL A   1      43.170  24.643  29.294  1.00  0.00     0.049 A 
ATOM     39  N   UNL A   1      41.239  26.517  27.431  1.00  0.00    -0.248 NA
ATOM     40  C   UNL A   1      39.794  25.100  28.546  1.00  0.00     0.031 C 
ATOM     41  C   UNL A   1      44.102  23.689  29.906  1.00  0.00     0.029 A 
ATOM     42  N   UNL A   1      43.391  25.775  30.015  1.00  0.00    -0.354 N 
ATOM     43  C   UNL A   1      40.007  27.154  27.569  1.00  0.00     0.074 A 
ATOM     44  C   UNL A   1      39.113  26.152  28.087  1.00  0.00     0.031 C 
ATOM     45  C   UNL A   1      44.589  24.206  31.055  1.00  0.00     0.029 A 
ATOM     46  C   UNL A   1      44.155  25.587  31.163  1.00  0.00     0.049 A 
ATOM     47  H   UNL A   1      43.039  26.655  29.747  1.00  0.00     0.167 HD
ATOM     48  C   UNL A   1      39.890  28.511  27.456  1.00  0.00     0.034 A 
ATOM     49  C   UNL A   1      44.394  26.490  32.148  1.00  0.00     0.034 A 
ATOM     50  C   UNL A   1      41.081  29.078  26.858  1.00  0.00     0.049 A 
ATOM     51  C   UNL A   1      44.175  27.832  31.554  1.00  0.00     0.074 A 
ATOM     52  C   UNL A   1      41.764  28.872  25.674  1.00  0.00     0.029 A 
ATOM     53  N   UNL A   1      41.976  29.733  27.679  1.00  0.00    -0.354 N 
ATOM     54  N   UNL A   1      44.912  28.316  30.591  1.00  0.00    -0.248 NA
ATOM     55  C   UNL A   1      42.854  28.431  31.682  1.00  0.00     0.031 C 
ATOM     56  C   UNL A   1      43.143  28.901  26.043  1.00  0.00     0.029 A 
ATOM     57  C   UNL A   1      43.218  29.219  27.400  1.00  0.00     0.049 A 
ATOM     58  H   UNL A   1      41.765  30.434  28.337  1.00  0.00     0.167 HD
ATOM     59  C   UNL A   1      44.018  28.939  29.735  1.00  0.00     0.074 A 
ATOM     60  C   UNL A   1      42.783  29.067  30.508  1.00  0.00     0.031 C 
ATOM     61  C   UNL A   1      44.261  29.035  28.392  1.00  0.00     0.034 A 
BRANCH  48  62
ATOM     62  C   UNL A   1      38.890  29.385  28.194  1.00  0.00     0.023 A 
ATOM     63  C   UNL A   1      39.054  29.501  29.590  1.00  0.00     0.031 A 
ATOM     64  C   UNL A   1      37.657  29.852  27.690  1.00  0.00     0.131 A 
ATOM     65  C   UNL A   1      37.994  29.909  30.419  1.00  0.00     0.055 A 
ATOM     66  C   UNL A   1      36.629  30.329  28.514  1.00  0.00     0.041 A 
ATOM     67  F   UNL A   1      37.333  29.801  26.394  1.00  0.00    -0.206 F 
ATOM     68  C   UNL A   1      36.777  30.319  29.890  1.00  0.00     0.022 A 
BRANCH  65  69
ATOM     69  S   UNL A   1      38.174  29.684  32.208  1.00  0.00     0.124 S 
ATOM     70  O   UNL A   1      36.899  29.067  32.552  1.00  0.00    -0.237 OA
ATOM     71  O   UNL A   1      39.349  28.823  32.284  1.00  0.00    -0.237 OA
ATOM     72  O   UNL A   1      38.365  31.045  32.702  1.00  0.00    -0.744 OA
ENDBRANCH  65  69
ENDBRANCH  48  62
BRANCH  49  73
ATOM     73  C   UNL A   1      44.514  26.234  33.609  1.00  0.00     0.023 A 
ATOM     74  C   UNL A   1      43.440  26.428  34.503  1.00  0.00     0.031 A 
ATOM     75  C   UNL A   1      45.643  25.552  34.118  1.00  0.00     0.131 A 
ATOM     76  C   UNL A   1      43.520  25.947  35.831  1.00  0.00     0.055 A 
ATOM     77  C   UNL A   1      45.719  25.082  35.430  1.00  0.00     0.041 A 
ATOM     78  F   UNL A   1      46.682  25.240  33.327  1.00  0.00    -0.206 F 
ATOM     79  C   UNL A   1      44.650  25.267  36.292  1.00  0.00     0.022 A 
BRANCH  76  80
ATOM     80  S   UNL A   1      42.097  26.101  36.958  1.00  0.00     0.124 S 
ATOM     81  O   UNL A   1      41.403  27.264  36.419  1.00  0.00    -0.237 OA
ATOM     82  O   UNL A   1      41.428  24.814  36.801  1.00  0.00    -0.237 OA
ATOM     83  O   UNL A   1      42.720  26.307  38.266  1.00  0.00    -0.744 OA
ENDBRANCH  76  80
ENDBRANCH  49  73
BRANCH  61  84
ATOM     84  C   UNL A   1      45.647  28.714  27.869  1.00  0.00     0.023 A 
ATOM     85  C   UNL A   1      46.084  27.433  27.458  1.00  0.00     0.031 A 
ATOM     86  C   UNL A   1      46.516  29.798  27.649  1.00  0.00     0.131 A 
ATOM     87  C   UNL A   1      47.352  27.279  26.859  1.00  0.00     0.055 A 
ATOM     88  C   UNL A   1      47.759  29.646  27.037  1.00  0.00     0.041 A 
ATOM     89  F   UNL A   1      46.149  31.045  27.991  1.00  0.00    -0.206 F 
ATOM     90  C   UNL A   1      48.184  28.384  26.642  1.00  0.00     0.022 A 
BRANCH  87  91
ATOM     91  S   UNL A   1      47.954  25.634  26.356  1.00  0.00     0.124 S 
ATOM     92  O   UNL A   1      47.284  25.398  25.082  1.00  0.00    -0.237 OA
ATOM     93  O   UNL A   1      49.400  25.832  26.291  1.00  0.00    -0.237 OA
ATOM     94  O   UNL A   1      47.511  24.762  27.446  1.00  0.00    -0.744 OA
ENDBRANCH  87  91
ENDBRANCH  61  84
ENDBRANCH  35  36
ENDBRANCH  27  30
ENDBRANCH  25  26
ENDBRANCH  24  25
ENDBRANCH   1  24
TORSDOF 18
ENDMDL
