MODEL 1
REMARK VINA RESULT:     -12.5      0.000      0.000
REMARK SMILES CCOc1ccc(-c2ccc(C(=O)NCCCCNC(=O)c3ccc(-c4c5nc(c(-c6cc(S(=O)(=O)[O-])ccc6F)c6ccc([nH]6)c(-c6cc(S(=O)(=O)[O-])ccc6F)c6nc(c(-c7cc(S(=O)(=O)[O-])ccc7F)c7ccc4[nH]7)C=C6)C=C5)cc3)cn2)c(C)c1
REMARK SMILES IDX 16 1 15 2 14 3 12 4 13 5 11 7 8 8 9 9 86 10 10 11 85 12 7 13
REMARK SMILES IDX 4 14 5 15 89 16 6 17 87 18 88 19 3 20 2 21 1 22 17 23 18 24
REMARK SMILES IDX 19 25 20 26 21 28 22 29 23 30 84 31 24 32 83 33 25 34 26 35
REMARK SMILES IDX 27 36 77 37 28 38 82 39 76 40 78 41 29 42 81 43 75 44 74 45
REMARK SMILES IDX 30 47 62 48 42 49 61 50 43 51 46 52 60 53 79 54 44 55 45 56
REMARK SMILES IDX 59 58 80 59 47 60 31 61 32 62 40 63 33 64 39 65 41 66 38 67
REMARK SMILES IDX 34 68 35 69 36 70 37 71 63 72 64 73 72 74 65 75 71 76 73 77
REMARK SMILES IDX 70 78 66 79 67 80 68 81 69 82 48 83 49 84 57 85 50 86 56 87
REMARK SMILES IDX 58 88 55 89 51 90 52 91 53 92 54 93
REMARK H PARENT 14 6 19 27 78 46 46 57
REMARK Flexibility Score: inf
ROOT
ATOM      1  C   UNL A   1      36.860  21.344  25.678  1.00  0.00     0.023 C 
ENDROOT
BRANCH   1   2
ATOM      2  C   UNL A   1      36.338  20.288  24.688  1.00  0.00     0.116 C 
BRANCH   2   3
ATOM      3  N   UNL A   1      35.074  19.706  25.125  1.00  0.00    -0.352 N 
ATOM      4  C   UNL A   1      33.838  20.249  25.372  1.00  0.00     0.252 C 
ATOM      5  O   UNL A   1      32.924  19.477  25.670  1.00  0.00    -0.269 OA
ATOM      6  H   UNL A   1      35.115  18.734  25.271  1.00  0.00     0.163 HD
BRANCH   4   7
ATOM      7  C   UNL A   1      33.539  21.700  25.297  1.00  0.00     0.058 A 
ATOM      8  C   UNL A   1      33.074  24.429  25.428  1.00  0.00     0.070 A 
ATOM      9  C   UNL A   1      32.998  23.780  24.201  1.00  0.00     0.030 A 
ATOM     10  N   UNL A   1      33.407  23.782  26.569  1.00  0.00    -0.255 NA
ATOM     11  C   UNL A   1      33.244  22.411  24.139  1.00  0.00     0.018 A 
ATOM     12  C   UNL A   1      33.617  22.440  26.476  1.00  0.00     0.125 A 
BRANCH   8  13
ATOM     13  C   UNL A   1      32.852  25.873  25.526  1.00  0.00     0.003 A 
ATOM     14  C   UNL A   1      32.528  28.659  25.439  1.00  0.00     0.119 A 
ATOM     15  C   UNL A   1      33.803  28.113  25.360  1.00  0.00     0.047 A 
ATOM     16  C   UNL A   1      31.419  27.840  25.637  1.00  0.00     0.050 A 
ATOM     17  C   UNL A   1      33.960  26.730  25.389  1.00  0.00     0.014 A 
ATOM     18  C   UNL A   1      31.568  26.442  25.698  1.00  0.00    -0.038 A 
ATOM     19  C   UNL A   1      30.335  25.604  25.922  1.00  0.00     0.045 C 
BRANCH  14  20
ATOM     20  O   UNL A   1      32.356  30.015  25.415  1.00  0.00    -0.494 OA
BRANCH  20  21
ATOM     21  C   UNL A   1      31.746  30.497  26.620  1.00  0.00     0.226 C 
ATOM     22  C   UNL A   1      31.357  31.961  26.489  1.00  0.00     0.049 C 
ENDBRANCH  20  21
ENDBRANCH  14  20
ENDBRANCH   8  13
ENDBRANCH   4   7
ENDBRANCH   2   3
ENDBRANCH   1   2
BRANCH   1  23
ATOM     23  C   UNL A   1      38.341  21.696  25.521  1.00  0.00     0.023 C 
BRANCH  23  24
ATOM     24  C   UNL A   1      38.772  22.884  26.369  1.00  0.00     0.116 C 
BRANCH  24  25
ATOM     25  N   UNL A   1      40.199  22.969  26.652  1.00  0.00    -0.352 N 
ATOM     26  C   UNL A   1      40.952  24.108  26.905  1.00  0.00     0.251 C 
ATOM     27  H   UNL A   1      40.689  22.114  26.666  1.00  0.00     0.163 HD
ATOM     28  O   UNL A   1      42.167  24.068  26.998  1.00  0.00    -0.269 OA
BRANCH  26  29
ATOM     29  C   UNL A   1      40.227  25.376  27.172  1.00  0.00     0.039 A 
ATOM     30  C   UNL A   1      40.593  26.494  26.413  1.00  0.00     0.014 A 
ATOM     31  C   UNL A   1      39.437  25.518  28.309  1.00  0.00     0.014 A 
ATOM     32  C   UNL A   1      40.381  27.767  26.936  1.00  0.00     0.010 A 
ATOM     33  C   UNL A   1      39.316  26.775  28.874  1.00  0.00     0.010 A 
ATOM     34  C   UNL A   1      39.860  27.891  28.223  1.00  0.00    -0.014 A 
BRANCH  34  35
ATOM     35  C   UNL A   1      40.012  29.100  29.031  1.00  0.00     0.031 A 
ATOM     36  C   UNL A   1      39.003  30.178  28.997  1.00  0.00     0.074 A 
ATOM     37  C   UNL A   1      41.066  29.218  29.872  1.00  0.00     0.049 A 
ATOM     38  N   UNL A   1      39.208  31.373  29.439  1.00  0.00    -0.248 NA
ATOM     39  C   UNL A   1      37.700  30.022  28.362  1.00  0.00     0.031 C 
ATOM     40  C   UNL A   1      41.237  30.182  30.956  1.00  0.00     0.029 A 
ATOM     41  N   UNL A   1      42.332  28.660  29.705  1.00  0.00    -0.354 N 
ATOM     42  C   UNL A   1      38.004  32.033  29.443  1.00  0.00     0.074 A 
ATOM     43  C   UNL A   1      37.148  31.210  28.627  1.00  0.00     0.031 C 
ATOM     44  C   UNL A   1      42.547  30.353  31.182  1.00  0.00     0.029 A 
ATOM     45  C   UNL A   1      43.264  29.614  30.162  1.00  0.00     0.049 A 
ATOM     46  H   UNL A   1      42.536  27.770  29.339  1.00  0.00     0.167 HD
ATOM     47  C   UNL A   1      37.854  33.121  30.252  1.00  0.00     0.034 A 
ATOM     48  C   UNL A   1      44.208  30.128  29.321  1.00  0.00     0.034 A 
ATOM     49  C   UNL A   1      39.156  33.629  30.714  1.00  0.00     0.049 A 
ATOM     50  C   UNL A   1      44.121  31.630  29.124  1.00  0.00     0.074 A 
ATOM     51  C   UNL A   1      39.825  33.687  31.926  1.00  0.00     0.029 A 
ATOM     52  N   UNL A   1      40.085  34.019  29.758  1.00  0.00    -0.354 N 
ATOM     53  N   UNL A   1      43.225  32.403  29.673  1.00  0.00    -0.248 NA
ATOM     54  C   UNL A   1      44.990  32.362  28.201  1.00  0.00     0.031 C 
ATOM     55  C   UNL A   1      41.176  34.081  31.670  1.00  0.00     0.029 A 
ATOM     56  C   UNL A   1      41.320  34.293  30.311  1.00  0.00     0.049 A 
ATOM     57  H   UNL A   1      39.886  34.090  28.796  1.00  0.00     0.167 HD
ATOM     58  C   UNL A   1      43.314  33.662  29.135  1.00  0.00     0.074 A 
ATOM     59  C   UNL A   1      44.443  33.588  28.224  1.00  0.00     0.031 C 
ATOM     60  C   UNL A   1      42.420  34.656  29.423  1.00  0.00     0.034 A 
BRANCH  47  61
ATOM     61  C   UNL A   1      36.524  33.637  30.790  1.00  0.00     0.023 A 
ATOM     62  C   UNL A   1      35.592  34.186  29.879  1.00  0.00     0.031 A 
ATOM     63  C   UNL A   1      36.145  33.745  32.147  1.00  0.00     0.131 A 
ATOM     64  C   UNL A   1      34.412  34.825  30.317  1.00  0.00     0.055 A 
ATOM     65  C   UNL A   1      34.958  34.350  32.580  1.00  0.00     0.041 A 
ATOM     66  F   UNL A   1      36.902  33.306  33.154  1.00  0.00    -0.206 F 
ATOM     67  C   UNL A   1      34.088  34.907  31.665  1.00  0.00     0.022 A 
BRANCH  64  68
ATOM     68  S   UNL A   1      33.323  35.618  29.102  1.00  0.00     0.124 S 
ATOM     69  O   UNL A   1      32.573  34.482  28.574  1.00  0.00    -0.237 OA
ATOM     70  O   UNL A   1      32.578  36.563  29.925  1.00  0.00    -0.237 OA
ATOM     71  O   UNL A   1      34.258  36.228  28.157  1.00  0.00    -0.744 OA
ENDBRANCH  64  68
ENDBRANCH  47  61
BRANCH  48  72
ATOM     72  C   UNL A   1      44.665  29.137  28.302  1.00  0.00     0.023 A 
ATOM     73  C   UNL A   1      45.517  28.109  28.760  1.00  0.00     0.031 A 
ATOM     74  C   UNL A   1      43.999  28.944  27.086  1.00  0.00     0.131 A 
ATOM     75  C   UNL A   1      45.529  26.865  28.116  1.00  0.00     0.055 A 
ATOM     76  C   UNL A   1      44.095  27.730  26.390  1.00  0.00     0.041 A 
ATOM     77  F   UNL A   1      43.143  29.863  26.617  1.00  0.00    -0.206 F 
ATOM     78  C   UNL A   1      44.822  26.667  26.930  1.00  0.00     0.022 A 
BRANCH  75  79
ATOM     79  S   UNL A   1      46.218  25.448  29.027  1.00  0.00     0.124 S 
ATOM     80  O   UNL A   1      46.908  26.101  30.133  1.00  0.00    -0.237 OA
ATOM     81  O   UNL A   1      45.018  24.688  29.385  1.00  0.00    -0.237 OA
ATOM     82  O   UNL A   1      47.075  24.790  28.046  1.00  0.00    -0.744 OA
ENDBRANCH  75  79
ENDBRANCH  48  72
BRANCH  60  83
ATOM     83  C   UNL A   1      42.497  36.042  28.824  1.00  0.00     0.023 A 
ATOM     84  C   UNL A   1      42.953  37.153  29.556  1.00  0.00     0.031 A 
ATOM     85  C   UNL A   1      42.062  36.310  27.506  1.00  0.00     0.131 A 
ATOM     86  C   UNL A   1      43.053  38.423  28.958  1.00  0.00     0.055 A 
ATOM     87  C   UNL A   1      42.079  37.590  26.943  1.00  0.00     0.041 A 
ATOM     88  F   UNL A   1      41.639  35.335  26.689  1.00  0.00    -0.206 F 
ATOM     89  C   UNL A   1      42.595  38.654  27.663  1.00  0.00     0.022 A 
BRANCH  86  90
ATOM     90  S   UNL A   1      43.870  39.756  29.875  1.00  0.00     0.124 S 
ATOM     91  O   UNL A   1      45.209  39.769  29.294  1.00  0.00    -0.237 OA
ATOM     92  O   UNL A   1      43.025  40.901  29.546  1.00  0.00    -0.237 OA
ATOM     93  O   UNL A   1      43.799  39.313  31.266  1.00  0.00    -0.744 OA
ENDBRANCH  86  90
ENDBRANCH  60  83
ENDBRANCH  34  35
ENDBRANCH  26  29
ENDBRANCH  24  25
ENDBRANCH  23  24
ENDBRANCH   1  23
TORSDOF 17
ENDMDL
MODEL 2
REMARK VINA RESULT:     -11.9      4.041     10.189
REMARK SMILES CCOc1ccc(-c2ccc(C(=O)NCCCCNC(=O)c3ccc(-c4c5nc(c(-c6cc(S(=O)(=O)[O-])ccc6F)c6ccc([nH]6)c(-c6cc(S(=O)(=O)[O-])ccc6F)c6nc(c(-c7cc(S(=O)(=O)[O-])ccc7F)c7ccc4[nH]7)C=C6)C=C5)cc3)cn2)c(C)c1
REMARK SMILES IDX 16 1 15 2 14 3 12 4 13 5 11 7 8 8 9 9 86 10 10 11 85 12 7 13
REMARK SMILES IDX 4 14 5 15 89 16 6 17 87 18 88 19 3 20 2 21 1 22 17 23 18 24
REMARK SMILES IDX 19 25 20 26 21 28 22 29 23 30 84 31 24 32 83 33 25 34 26 35
REMARK SMILES IDX 27 36 77 37 28 38 82 39 76 40 78 41 29 42 81 43 75 44 74 45
REMARK SMILES IDX 30 47 62 48 42 49 61 50 43 51 46 52 60 53 79 54 44 55 45 56
REMARK SMILES IDX 59 58 80 59 47 60 31 61 32 62 40 63 33 64 39 65 41 66 38 67
REMARK SMILES IDX 34 68 35 69 36 70 37 71 63 72 64 73 72 74 65 75 71 76 73 77
REMARK SMILES IDX 70 78 66 79 67 80 68 81 69 82 48 83 49 84 57 85 50 86 56 87
REMARK SMILES IDX 58 88 55 89 51 90 52 91 53 92 54 93
REMARK H PARENT 14 6 19 27 78 46 46 57
REMARK Flexibility Score: inf
ROOT
ATOM      1  C   UNL A   1      32.748  30.576  26.763  1.00  0.00     0.023 C 
ENDROOT
BRANCH   1   2
ATOM      2  C   UNL A   1      32.186  29.737  25.603  1.00  0.00     0.116 C 
BRANCH   2   3
ATOM      3  N   UNL A   1      33.097  29.700  24.464  1.00  0.00    -0.352 N 
ATOM      4  C   UNL A   1      33.702  28.668  23.792  1.00  0.00     0.252 C 
ATOM      5  O   UNL A   1      34.381  28.952  22.802  1.00  0.00    -0.269 OA
ATOM      6  H   UNL A   1      33.320  30.589  24.107  1.00  0.00     0.163 HD
BRANCH   4   7
ATOM      7  C   UNL A   1      33.585  27.242  24.181  1.00  0.00     0.058 A 
ATOM      8  C   UNL A   1      33.342  24.518  24.629  1.00  0.00     0.070 A 
ATOM      9  C   UNL A   1      33.723  25.351  25.673  1.00  0.00     0.030 A 
ATOM     10  N   UNL A   1      33.119  24.983  23.377  1.00  0.00    -0.255 NA
ATOM     11  C   UNL A   1      33.855  26.718  25.440  1.00  0.00     0.018 A 
ATOM     12  C   UNL A   1      33.233  26.326  23.190  1.00  0.00     0.125 A 
BRANCH   8  13
ATOM     13  C   UNL A   1      33.224  23.072  24.830  1.00  0.00     0.003 A 
ATOM     14  C   UNL A   1      32.787  20.306  25.011  1.00  0.00     0.119 A 
ATOM     15  C   UNL A   1      31.777  21.186  25.380  1.00  0.00     0.047 A 
ATOM     16  C   UNL A   1      34.037  20.785  24.626  1.00  0.00     0.050 A 
ATOM     17  C   UNL A   1      31.992  22.558  25.275  1.00  0.00     0.014 A 
ATOM     18  C   UNL A   1      34.276  22.169  24.545  1.00  0.00    -0.038 A 
ATOM     19  C   UNL A   1      35.650  22.631  24.131  1.00  0.00     0.045 C 
BRANCH  14  20
ATOM     20  O   UNL A   1      32.594  18.956  25.110  1.00  0.00    -0.494 OA
BRANCH  20  21
ATOM     21  C   UNL A   1      32.902  18.283  23.882  1.00  0.00     0.226 C 
ATOM     22  C   UNL A   1      33.334  16.848  24.138  1.00  0.00     0.049 C 
ENDBRANCH  20  21
ENDBRANCH  14  20
ENDBRANCH   8  13
ENDBRANCH   4   7
ENDBRANCH   2   3
ENDBRANCH   1   2
BRANCH   1  23
ATOM     23  C   UNL A   1      34.133  30.149  27.254  1.00  0.00     0.023 C 
BRANCH  23  24
ATOM     24  C   UNL A   1      34.819  31.200  28.115  1.00  0.00     0.116 C 
BRANCH  24  25
ATOM     25  N   UNL A   1      33.998  32.348  28.478  1.00  0.00    -0.352 N 
ATOM     26  C   UNL A   1      34.276  33.331  29.418  1.00  0.00     0.251 C 
ATOM     27  H   UNL A   1      33.143  32.438  27.997  1.00  0.00     0.163 HD
ATOM     28  O   UNL A   1      33.451  34.172  29.732  1.00  0.00    -0.269 OA
BRANCH  26  29
ATOM     29  C   UNL A   1      35.655  33.403  29.963  1.00  0.00     0.039 A 
ATOM     30  C   UNL A   1      36.658  33.872  29.107  1.00  0.00     0.014 A 
ATOM     31  C   UNL A   1      35.983  32.766  31.157  1.00  0.00     0.014 A 
ATOM     32  C   UNL A   1      37.975  33.477  29.325  1.00  0.00     0.010 A 
ATOM     33  C   UNL A   1      37.271  32.292  31.319  1.00  0.00     0.010 A 
ATOM     34  C   UNL A   1      38.251  32.582  30.358  1.00  0.00    -0.014 A 
BRANCH  34  35
ATOM     35  C   UNL A   1      39.462  31.766  30.403  1.00  0.00     0.031 A 
ATOM     36  C   UNL A   1      39.475  30.382  29.887  1.00  0.00     0.074 A 
ATOM     37  C   UNL A   1      40.614  32.297  30.875  1.00  0.00     0.049 A 
ATOM     38  N   UNL A   1      40.397  29.519  30.156  1.00  0.00    -0.248 NA
ATOM     39  C   UNL A   1      38.385  29.822  29.097  1.00  0.00     0.031 C 
ATOM     40  C   UNL A   1      41.966  31.765  30.729  1.00  0.00     0.029 A 
ATOM     41  N   UNL A   1      40.738  33.290  31.845  1.00  0.00    -0.354 N 
ATOM     42  C   UNL A   1      40.201  28.427  29.348  1.00  0.00     0.074 A 
ATOM     43  C   UNL A   1      38.865  28.603  28.834  1.00  0.00     0.031 C 
ATOM     44  C   UNL A   1      42.724  32.224  31.735  1.00  0.00     0.029 A 
ATOM     45  C   UNL A   1      41.854  32.952  32.636  1.00  0.00     0.049 A 
ATOM     46  H   UNL A   1      40.157  34.077  31.955  1.00  0.00     0.167 HD
ATOM     47  C   UNL A   1      41.250  27.588  29.112  1.00  0.00     0.034 A 
ATOM     48  C   UNL A   1      41.717  32.719  33.975  1.00  0.00     0.034 A 
ATOM     49  C   UNL A   1      42.335  27.800  30.084  1.00  0.00     0.049 A 
ATOM     50  C   UNL A   1      42.115  31.322  34.411  1.00  0.00     0.074 A 
ATOM     51  C   UNL A   1      43.625  28.302  30.035  1.00  0.00     0.029 A 
ATOM     52  N   UNL A   1      42.047  27.644  31.433  1.00  0.00    -0.354 N 
ATOM     53  N   UNL A   1      42.537  30.383  33.609  1.00  0.00    -0.248 NA
ATOM     54  C   UNL A   1      41.968  30.846  35.788  1.00  0.00     0.031 C 
ATOM     55  C   UNL A   1      44.085  28.477  31.379  1.00  0.00     0.029 A 
ATOM     56  C   UNL A   1      43.090  28.053  32.240  1.00  0.00     0.049 A 
ATOM     57  H   UNL A   1      41.197  27.284  31.775  1.00  0.00     0.167 HD
ATOM     58  C   UNL A   1      42.621  29.197  34.296  1.00  0.00     0.074 A 
ATOM     59  C   UNL A   1      42.265  29.543  35.661  1.00  0.00     0.031 C 
ATOM     60  C   UNL A   1      42.914  28.008  33.688  1.00  0.00     0.034 A 
BRANCH  47  61
ATOM     61  C   UNL A   1      41.394  26.686  27.891  1.00  0.00     0.023 A 
ATOM     62  C   UNL A   1      41.711  25.322  28.090  1.00  0.00     0.031 A 
ATOM     63  C   UNL A   1      41.365  27.086  26.535  1.00  0.00     0.131 A 
ATOM     64  C   UNL A   1      42.015  24.464  27.010  1.00  0.00     0.055 A 
ATOM     65  C   UNL A   1      41.635  26.227  25.463  1.00  0.00     0.041 A 
ATOM     66  F   UNL A   1      41.108  28.337  26.148  1.00  0.00    -0.206 F 
ATOM     67  C   UNL A   1      41.975  24.910  25.695  1.00  0.00     0.022 A 
BRANCH  64  68
ATOM     68  S   UNL A   1      42.534  22.759  27.346  1.00  0.00     0.124 S 
ATOM     69  O   UNL A   1      42.529  22.168  26.011  1.00  0.00    -0.237 OA
ATOM     70  O   UNL A   1      43.839  22.951  27.967  1.00  0.00    -0.237 OA
ATOM     71  O   UNL A   1      41.494  22.258  28.243  1.00  0.00    -0.744 OA
ENDBRANCH  64  68
ENDBRANCH  47  61
BRANCH  48  72
ATOM     72  C   UNL A   1      40.649  33.559  34.594  1.00  0.00     0.023 A 
ATOM     73  C   UNL A   1      39.560  32.871  35.170  1.00  0.00     0.031 A 
ATOM     74  C   UNL A   1      40.863  34.888  34.979  1.00  0.00     0.131 A 
ATOM     75  C   UNL A   1      38.851  33.440  36.235  1.00  0.00     0.055 A 
ATOM     76  C   UNL A   1      40.084  35.489  35.977  1.00  0.00     0.041 A 
ATOM     77  F   UNL A   1      41.906  35.583  34.501  1.00  0.00    -0.206 F 
ATOM     78  C   UNL A   1      39.106  34.749  36.645  1.00  0.00     0.022 A 
BRANCH  75  79
ATOM     79  S   UNL A   1      37.835  32.334  37.262  1.00  0.00     0.124 S 
ATOM     80  O   UNL A   1      36.587  33.080  37.373  1.00  0.00    -0.237 OA
ATOM     81  O   UNL A   1      37.777  31.114  36.453  1.00  0.00    -0.237 OA
ATOM     82  O   UNL A   1      38.604  32.202  38.494  1.00  0.00    -0.744 OA
ENDBRANCH  75  79
ENDBRANCH  48  72
BRANCH  60  83
ATOM     83  C   UNL A   1      42.993  26.693  34.431  1.00  0.00     0.023 A 
ATOM     84  C   UNL A   1      44.215  26.041  34.676  1.00  0.00     0.031 A 
ATOM     85  C   UNL A   1      41.833  26.016  34.873  1.00  0.00     0.131 A 
ATOM     86  C   UNL A   1      44.260  24.839  35.407  1.00  0.00     0.055 A 
ATOM     87  C   UNL A   1      41.876  24.777  35.521  1.00  0.00     0.041 A 
ATOM     88  F   UNL A   1      40.610  26.544  34.734  1.00  0.00    -0.206 F 
ATOM     89  C   UNL A   1      43.095  24.189  35.809  1.00  0.00     0.022 A 
BRANCH  86  90
ATOM     90  S   UNL A   1      45.875  24.177  35.895  1.00  0.00     0.124 S 
ATOM     91  O   UNL A   1      46.307  23.470  34.693  1.00  0.00    -0.237 OA
ATOM     92  O   UNL A   1      46.611  25.399  36.211  1.00  0.00    -0.237 OA
ATOM     93  O   UNL A   1      45.568  23.325  37.042  1.00  0.00    -0.744 OA
ENDBRANCH  86  90
ENDBRANCH  60  83
ENDBRANCH  34  35
ENDBRANCH  26  29
ENDBRANCH  24  25
ENDBRANCH  23  24
ENDBRANCH   1  23
TORSDOF 17
ENDMDL
MODEL 3
REMARK VINA RESULT:     -11.8      2.771      3.513
REMARK SMILES CCOc1ccc(-c2ccc(C(=O)NCCCCNC(=O)c3ccc(-c4c5nc(c(-c6cc(S(=O)(=O)[O-])ccc6F)c6ccc([nH]6)c(-c6cc(S(=O)(=O)[O-])ccc6F)c6nc(c(-c7cc(S(=O)(=O)[O-])ccc7F)c7ccc4[nH]7)C=C6)C=C5)cc3)cn2)c(C)c1
REMARK SMILES IDX 16 1 15 2 14 3 12 4 13 5 11 7 8 8 9 9 86 10 10 11 85 12 7 13
REMARK SMILES IDX 4 14 5 15 89 16 6 17 87 18 88 19 3 20 2 21 1 22 17 23 18 24
REMARK SMILES IDX 19 25 20 26 21 28 22 29 23 30 84 31 24 32 83 33 25 34 26 35
REMARK SMILES IDX 27 36 77 37 28 38 82 39 76 40 78 41 29 42 81 43 75 44 74 45
REMARK SMILES IDX 30 47 62 48 42 49 61 50 43 51 46 52 60 53 79 54 44 55 45 56
REMARK SMILES IDX 59 58 80 59 47 60 31 61 32 62 40 63 33 64 39 65 41 66 38 67
REMARK SMILES IDX 34 68 35 69 36 70 37 71 63 72 64 73 72 74 65 75 71 76 73 77
REMARK SMILES IDX 70 78 66 79 67 80 68 81 69 82 48 83 49 84 57 85 50 86 56 87
REMARK SMILES IDX 58 88 55 89 51 90 52 91 53 92 54 93
REMARK H PARENT 14 6 19 27 78 46 46 57
REMARK Flexibility Score: inf
ROOT
ATOM      1  C   UNL A   1      35.839  23.016  24.496  1.00  0.00     0.023 C 
ENDROOT
BRANCH   1   2
ATOM      2  C   UNL A   1      35.361  23.322  23.066  1.00  0.00     0.116 C 
BRANCH   2   3
ATOM      3  N   UNL A   1      33.907  23.290  22.956  1.00  0.00    -0.352 N 
ATOM      4  C   UNL A   1      32.928  24.178  23.323  1.00  0.00     0.252 C 
ATOM      5  O   UNL A   1      31.763  23.897  23.033  1.00  0.00    -0.269 OA
ATOM      6  H   UNL A   1      33.560  22.471  22.536  1.00  0.00     0.163 HD
BRANCH   4   7
ATOM      7  C   UNL A   1      33.188  25.450  24.041  1.00  0.00     0.058 A 
ATOM      8  C   UNL A   1      33.651  27.675  25.626  1.00  0.00     0.070 A 
ATOM      9  C   UNL A   1      33.867  27.755  24.256  1.00  0.00     0.030 A 
ATOM     10  N   UNL A   1      33.256  26.531  26.231  1.00  0.00    -0.255 NA
ATOM     11  C   UNL A   1      33.644  26.630  23.465  1.00  0.00     0.018 A 
ATOM     12  C   UNL A   1      33.024  25.458  25.426  1.00  0.00     0.125 A 
BRANCH   8  13
ATOM     13  C   UNL A   1      33.905  28.829  26.492  1.00  0.00     0.003 A 
ATOM     14  C   UNL A   1      34.628  31.091  27.987  1.00  0.00     0.119 A 
ATOM     15  C   UNL A   1      35.460  29.978  27.979  1.00  0.00     0.047 A 
ATOM     16  C   UNL A   1      33.405  31.064  27.322  1.00  0.00     0.050 A 
ATOM     17  C   UNL A   1      35.106  28.862  27.226  1.00  0.00     0.014 A 
ATOM     18  C   UNL A   1      33.022  29.931  26.581  1.00  0.00    -0.038 A 
ATOM     19  C   UNL A   1      31.683  29.953  25.888  1.00  0.00     0.045 C 
BRANCH  14  20
ATOM     20  O   UNL A   1      34.959  32.194  28.724  1.00  0.00    -0.494 OA
BRANCH  20  21
ATOM     21  C   UNL A   1      35.824  33.079  27.999  1.00  0.00     0.226 C 
ATOM     22  C   UNL A   1      36.841  33.729  28.923  1.00  0.00     0.049 C 
ENDBRANCH  20  21
ENDBRANCH  14  20
ENDBRANCH   8  13
ENDBRANCH   4   7
ENDBRANCH   2   3
ENDBRANCH   1   2
BRANCH   1  23
ATOM     23  C   UNL A   1      37.160  23.680  24.888  1.00  0.00     0.023 C 
BRANCH  23  24
ATOM     24  C   UNL A   1      37.465  23.586  26.376  1.00  0.00     0.116 C 
BRANCH  24  25
ATOM     25  N   UNL A   1      38.833  23.219  26.715  1.00  0.00    -0.352 N 
ATOM     26  C   UNL A   1      39.825  24.029  27.252  1.00  0.00     0.251 C 
ATOM     27  H   UNL A   1      39.085  22.282  26.544  1.00  0.00     0.163 HD
ATOM     28  O   UNL A   1      40.976  23.644  27.370  1.00  0.00    -0.269 OA
BRANCH  26  29
ATOM     29  C   UNL A   1      39.427  25.356  27.786  1.00  0.00     0.039 A 
ATOM     30  C   UNL A   1      39.686  26.473  26.983  1.00  0.00     0.014 A 
ATOM     31  C   UNL A   1      39.086  25.510  29.127  1.00  0.00     0.014 A 
ATOM     32  C   UNL A   1      39.851  27.717  27.585  1.00  0.00     0.010 A 
ATOM     33  C   UNL A   1      39.347  26.723  29.738  1.00  0.00     0.010 A 
ATOM     34  C   UNL A   1      39.807  27.807  28.976  1.00  0.00    -0.014 A 
BRANCH  34  35
ATOM     35  C   UNL A   1      40.396  28.917  29.722  1.00  0.00     0.031 A 
ATOM     36  C   UNL A   1      39.558  30.001  30.275  1.00  0.00     0.074 A 
ATOM     37  C   UNL A   1      41.728  28.934  29.963  1.00  0.00     0.049 A 
ATOM     38  N   UNL A   1      40.019  31.138  30.675  1.00  0.00    -0.248 NA
ATOM     39  C   UNL A   1      38.102  29.926  30.329  1.00  0.00     0.031 C 
ATOM     40  C   UNL A   1      42.449  29.771  30.919  1.00  0.00     0.029 A 
ATOM     41  N   UNL A   1      42.727  28.388  29.160  1.00  0.00    -0.354 N 
ATOM     42  C   UNL A   1      39.002  31.802  31.315  1.00  0.00     0.074 A 
ATOM     43  C   UNL A   1      37.814  31.081  30.935  1.00  0.00     0.031 C 
ATOM     44  C   UNL A   1      43.718  29.906  30.506  1.00  0.00     0.029 A 
ATOM     45  C   UNL A   1      43.819  29.279  29.204  1.00  0.00     0.049 A 
ATOM     46  H   UNL A   1      42.680  27.543  28.660  1.00  0.00     0.167 HD
ATOM     47  C   UNL A   1      39.319  32.795  32.196  1.00  0.00     0.034 A 
ATOM     48  C   UNL A   1      44.280  29.876  28.065  1.00  0.00     0.034 A 
ATOM     49  C   UNL A   1      40.712  33.239  32.024  1.00  0.00     0.049 A 
ATOM     50  C   UNL A   1      44.200  31.391  28.075  1.00  0.00     0.074 A 
ATOM     51  C   UNL A   1      41.877  33.158  32.769  1.00  0.00     0.029 A 
ATOM     52  N   UNL A   1      41.098  33.725  30.781  1.00  0.00    -0.354 N 
ATOM     53  N   UNL A   1      43.719  32.105  29.056  1.00  0.00    -0.248 NA
ATOM     54  C   UNL A   1      44.569  32.214  26.923  1.00  0.00     0.031 C 
ATOM     55  C   UNL A   1      42.967  33.568  31.936  1.00  0.00     0.029 A 
ATOM     56  C   UNL A   1      42.460  33.927  30.700  1.00  0.00     0.049 A 
ATOM     57  H   UNL A   1      40.471  33.903  30.044  1.00  0.00     0.167 HD
ATOM     58  C   UNL A   1      43.616  33.416  28.661  1.00  0.00     0.074 A 
ATOM     59  C   UNL A   1      44.172  33.434  27.319  1.00  0.00     0.031 C 
ATOM     60  C   UNL A   1      43.027  34.378  29.433  1.00  0.00     0.034 A 
BRANCH  47  61
ATOM     61  C   UNL A   1      38.436  33.259  33.349  1.00  0.00     0.023 A 
ATOM     62  C   UNL A   1      38.633  32.683  34.626  1.00  0.00     0.031 A 
ATOM     63  C   UNL A   1      37.332  34.138  33.270  1.00  0.00     0.131 A 
ATOM     64  C   UNL A   1      37.756  32.944  35.702  1.00  0.00     0.055 A 
ATOM     65  C   UNL A   1      36.482  34.422  34.346  1.00  0.00     0.041 A 
ATOM     66  F   UNL A   1      36.973  34.760  32.145  1.00  0.00    -0.206 F 
ATOM     67  C   UNL A   1      36.682  33.815  35.569  1.00  0.00     0.022 A 
BRANCH  64  68
ATOM     68  S   UNL A   1      37.993  32.075  37.276  1.00  0.00     0.124 S 
ATOM     69  O   UNL A   1      39.387  32.375  37.586  1.00  0.00    -0.237 OA
ATOM     70  O   UNL A   1      36.989  32.700  38.128  1.00  0.00    -0.237 OA
ATOM     71  O   UNL A   1      37.728  30.678  36.935  1.00  0.00    -0.744 OA
ENDBRANCH  64  68
ENDBRANCH  47  61
BRANCH  48  72
ATOM     72  C   UNL A   1      44.139  29.000  26.865  1.00  0.00     0.023 A 
ATOM     73  C   UNL A   1      45.084  27.960  26.727  1.00  0.00     0.031 A 
ATOM     74  C   UNL A   1      42.946  28.901  26.138  1.00  0.00     0.131 A 
ATOM     75  C   UNL A   1      44.744  26.784  26.048  1.00  0.00     0.055 A 
ATOM     76  C   UNL A   1      42.653  27.763  25.375  1.00  0.00     0.041 A 
ATOM     77  F   UNL A   1      41.990  29.833  26.258  1.00  0.00    -0.206 F 
ATOM     78  C   UNL A   1      43.530  26.677  25.368  1.00  0.00     0.022 A 
BRANCH  75  79
ATOM     79  S   UNL A   1      45.769  25.310  26.344  1.00  0.00     0.124 S 
ATOM     80  O   UNL A   1      45.214  24.796  27.591  1.00  0.00    -0.237 OA
ATOM     81  O   UNL A   1      45.512  24.500  25.151  1.00  0.00    -0.237 OA
ATOM     82  O   UNL A   1      47.125  25.842  26.428  1.00  0.00    -0.744 OA
ENDBRANCH  75  79
ENDBRANCH  48  72
BRANCH  60  83
ATOM     83  C   UNL A   1      42.893  35.821  29.002  1.00  0.00     0.023 A 
ATOM     84  C   UNL A   1      43.621  36.858  29.613  1.00  0.00     0.031 A 
ATOM     85  C   UNL A   1      41.984  36.217  27.995  1.00  0.00     0.131 A 
ATOM     86  C   UNL A   1      43.506  38.187  29.162  1.00  0.00     0.055 A 
ATOM     87  C   UNL A   1      41.807  37.550  27.609  1.00  0.00     0.041 A 
ATOM     88  F   UNL A   1      41.256  35.325  27.309  1.00  0.00    -0.206 F 
ATOM     89  C   UNL A   1      42.584  38.544  28.180  1.00  0.00     0.022 A 
BRANCH  86  90
ATOM     90  S   UNL A   1      44.643  39.433  29.825  1.00  0.00     0.124 S 
ATOM     91  O   UNL A   1      43.850  40.061  30.877  1.00  0.00    -0.237 OA
ATOM     92  O   UNL A   1      45.756  38.604  30.280  1.00  0.00    -0.237 OA
ATOM     93  O   UNL A   1      44.934  40.283  28.673  1.00  0.00    -0.744 OA
ENDBRANCH  86  90
ENDBRANCH  60  83
ENDBRANCH  34  35
ENDBRANCH  26  29
ENDBRANCH  24  25
ENDBRANCH  23  24
ENDBRANCH   1  23
TORSDOF 17
ENDMDL
