MODEL 1
REMARK VINA RESULT:     -11.8      0.000      0.000
REMARK SMILES C[C@@H]1CCC[C@]1(Sc1ccc(F)cc1)C(=O)NCCCCNC(=O)c1ccc(-c2c3nc(c(-c4cc(S(=O)(=O)[O-])ccc4F)c4ccc([nH]4)c(-c4cc(S(=O)(=O)[O-])ccc4F)c4nc(c(-c5cc(S(=O)(=O)[O-])ccc5F)c5ccc2[nH]5)C=C4)C=C3)cc1
REMARK SMILES IDX 20 1 19 2 18 3 17 4 15 5 16 6 6 8 1 9 2 10 3 11 4 12 5 13
REMARK SMILES IDX 7 14 8 15 9 16 14 17 10 18 13 19 11 20 12 21 21 22 22 23
REMARK SMILES IDX 23 24 24 26 25 27 26 28 87 29 27 30 86 31 28 32 29 33 30 34
REMARK SMILES IDX 80 35 31 36 85 37 79 38 81 39 32 40 84 41 78 42 77 43 33 45
REMARK SMILES IDX 65 46 45 47 64 48 46 49 49 50 63 51 82 52 47 53 48 54 62 56
REMARK SMILES IDX 83 57 50 58 34 59 35 60 43 61 36 62 42 63 44 64 41 65 37 66
REMARK SMILES IDX 38 67 39 68 40 69 66 70 67 71 75 72 68 73 74 74 76 75 73 76
REMARK SMILES IDX 69 77 70 78 71 79 72 80 51 81 52 82 60 83 53 84 59 85 61 86
REMARK SMILES IDX 58 87 54 88 55 89 56 90 57 91
REMARK H PARENT 17 7 22 25 81 44 49 55
REMARK Flexibility Score: inf
ROOT
ATOM      1  C   UNL A   1      32.004  31.280  26.832  1.00  0.00     0.023 C 
ENDROOT
BRANCH   1   2
ATOM      2  C   UNL A   1      32.395  29.846  26.479  1.00  0.00     0.023 C 
BRANCH   2   3
ATOM      3  C   UNL A   1      32.886  29.647  25.048  1.00  0.00     0.116 C 
BRANCH   3   4
ATOM      4  N   UNL A   1      33.586  28.387  24.859  1.00  0.00    -0.355 N 
ATOM      5  C   UNL A   1      33.151  27.197  24.333  1.00  0.00     0.236 C 
ATOM      6  O   UNL A   1      33.998  26.309  24.195  1.00  0.00    -0.273 OA
ATOM      7  H   UNL A   1      34.523  28.388  25.156  1.00  0.00     0.163 HD
BRANCH   5   8
ATOM      8  C   UNL A   1      31.655  26.980  23.950  1.00  0.00     0.102 C 
ATOM      9  C   UNL A   1      31.377  26.300  26.438  1.00  0.00     0.009 C 
ATOM     10  C   UNL A   1      30.729  26.949  25.196  1.00  0.00     0.012 C 
ATOM     11  C   UNL A   1      29.532  26.071  24.798  1.00  0.00     0.005 C 
ATOM     12  C   UNL A   1      30.002  25.176  23.660  1.00  0.00     0.002 C 
ATOM     13  C   UNL A   1      31.444  25.572  23.352  1.00  0.00     0.028 C 
BRANCH   8  14
ATOM     14  S   UNL A   1      31.368  28.264  22.583  1.00  0.00    -0.109 SA
BRANCH  14  15
ATOM     15  C   UNL A   1      29.980  29.253  23.061  1.00  0.00     0.008 A 
ATOM     16  C   UNL A   1      30.142  30.508  23.655  1.00  0.00     0.018 A 
ATOM     17  C   UNL A   1      28.700  28.840  22.671  1.00  0.00     0.018 A 
ATOM     18  C   UNL A   1      29.028  31.307  23.929  1.00  0.00     0.040 A 
ATOM     19  C   UNL A   1      27.588  29.646  22.923  1.00  0.00     0.040 A 
ATOM     20  C   UNL A   1      27.762  30.868  23.560  1.00  0.00     0.123 A 
ATOM     21  F   UNL A   1      26.696  31.642  23.806  1.00  0.00    -0.207 F 
ENDBRANCH  14  15
ENDBRANCH   8  14
ENDBRANCH   5   8
ENDBRANCH   3   4
ENDBRANCH   2   3
ENDBRANCH   1   2
BRANCH   1  22
ATOM     22  C   UNL A   1      33.161  32.181  27.250  1.00  0.00     0.116 C 
BRANCH  22  23
ATOM     23  N   UNL A   1      32.732  33.527  27.601  1.00  0.00    -0.352 N 
ATOM     24  C   UNL A   1      33.222  34.357  28.583  1.00  0.00     0.251 C 
ATOM     25  H   UNL A   1      31.993  33.893  27.064  1.00  0.00     0.163 HD
ATOM     26  O   UNL A   1      32.651  35.415  28.832  1.00  0.00    -0.269 OA
BRANCH  24  27
ATOM     27  C   UNL A   1      34.414  33.945  29.353  1.00  0.00     0.039 A 
ATOM     28  C   UNL A   1      34.250  33.115  30.464  1.00  0.00     0.014 A 
ATOM     29  C   UNL A   1      35.690  34.353  28.956  1.00  0.00     0.014 A 
ATOM     30  C   UNL A   1      35.376  32.631  31.135  1.00  0.00     0.010 A 
ATOM     31  C   UNL A   1      36.810  33.820  29.587  1.00  0.00     0.010 A 
ATOM     32  C   UNL A   1      36.665  32.949  30.679  1.00  0.00    -0.014 A 
BRANCH  32  33
ATOM     33  C   UNL A   1      37.882  32.396  31.327  1.00  0.00     0.031 A 
ATOM     34  C   UNL A   1      38.626  31.267  30.667  1.00  0.00     0.074 A 
ATOM     35  C   UNL A   1      38.269  32.848  32.537  1.00  0.00     0.049 A 
ATOM     36  N   UNL A   1      39.595  30.529  31.141  1.00  0.00    -0.248 NA
ATOM     37  C   UNL A   1      38.201  30.902  29.305  1.00  0.00     0.031 C 
ATOM     38  C   UNL A   1      37.617  33.924  33.289  1.00  0.00     0.029 A 
ATOM     39  N   UNL A   1      39.294  32.449  33.357  1.00  0.00    -0.354 N 
ATOM     40  C   UNL A   1      39.877  29.596  30.151  1.00  0.00     0.074 A 
ATOM     41  C   UNL A   1      38.957  29.841  29.061  1.00  0.00     0.031 C 
ATOM     42  C   UNL A   1      38.266  34.105  34.450  1.00  0.00     0.029 A 
ATOM     43  C   UNL A   1      39.346  33.128  34.552  1.00  0.00     0.049 A 
ATOM     44  H   UNL A   1      39.934  31.740  33.113  1.00  0.00     0.167 HD
ATOM     45  C   UNL A   1      40.826  28.630  30.147  1.00  0.00     0.034 A 
ATOM     46  C   UNL A   1      40.154  32.967  35.619  1.00  0.00     0.034 A 
ATOM     47  C   UNL A   1      41.767  28.420  31.216  1.00  0.00     0.049 A 
ATOM     48  C   UNL A   1      41.203  31.885  35.586  1.00  0.00     0.074 A 
ATOM     49  C   UNL A   1      42.805  27.506  31.280  1.00  0.00     0.029 A 
ATOM     50  N   UNL A   1      41.793  29.136  32.404  1.00  0.00    -0.354 N 
ATOM     51  N   UNL A   1      41.453  31.008  34.642  1.00  0.00    -0.248 NA
ATOM     52  C   UNL A   1      42.074  31.769  36.764  1.00  0.00     0.031 C 
ATOM     53  C   UNL A   1      43.428  27.637  32.524  1.00  0.00     0.029 A 
ATOM     54  C   UNL A   1      42.815  28.672  33.214  1.00  0.00     0.049 A 
ATOM     55  H   UNL A   1      41.175  29.867  32.636  1.00  0.00     0.167 HD
ATOM     56  C   UNL A   1      42.518  30.245  35.109  1.00  0.00     0.074 A 
ATOM     57  C   UNL A   1      42.874  30.773  36.409  1.00  0.00     0.031 C 
ATOM     58  C   UNL A   1      43.146  29.200  34.514  1.00  0.00     0.034 A 
BRANCH  45  59
ATOM     59  C   UNL A   1      40.889  27.713  28.957  1.00  0.00     0.023 A 
ATOM     60  C   UNL A   1      41.848  27.886  27.945  1.00  0.00     0.031 A 
ATOM     61  C   UNL A   1      40.001  26.628  28.854  1.00  0.00     0.131 A 
ATOM     62  C   UNL A   1      41.876  27.005  26.855  1.00  0.00     0.055 A 
ATOM     63  C   UNL A   1      40.071  25.721  27.796  1.00  0.00     0.041 A 
ATOM     64  F   UNL A   1      39.055  26.429  29.786  1.00  0.00    -0.206 F 
ATOM     65  C   UNL A   1      41.010  25.909  26.786  1.00  0.00     0.022 A 
BRANCH  62  66
ATOM     66  S   UNL A   1      43.032  27.332  25.497  1.00  0.00     0.124 S 
ATOM     67  O   UNL A   1      43.211  25.994  24.939  1.00  0.00    -0.237 OA
ATOM     68  O   UNL A   1      42.293  28.276  24.667  1.00  0.00    -0.237 OA
ATOM     69  O   UNL A   1      44.205  27.883  26.173  1.00  0.00    -0.744 OA
ENDBRANCH  62  66
ENDBRANCH  45  59
BRANCH  46  70
ATOM     70  C   UNL A   1      39.986  33.822  36.828  1.00  0.00     0.023 A 
ATOM     71  C   UNL A   1      39.286  33.354  37.950  1.00  0.00     0.031 A 
ATOM     72  C   UNL A   1      40.498  35.130  36.862  1.00  0.00     0.131 A 
ATOM     73  C   UNL A   1      39.082  34.205  39.049  1.00  0.00     0.055 A 
ATOM     74  C   UNL A   1      40.329  35.958  37.972  1.00  0.00     0.041 A 
ATOM     75  F   UNL A   1      41.181  35.619  35.815  1.00  0.00    -0.206 F 
ATOM     76  C   UNL A   1      39.608  35.499  39.072  1.00  0.00     0.022 A 
BRANCH  73  77
ATOM     77  S   UNL A   1      38.075  33.610  40.434  1.00  0.00     0.124 S 
ATOM     78  O   UNL A   1      38.931  32.572  40.998  1.00  0.00    -0.237 OA
ATOM     79  O   UNL A   1      37.917  34.817  41.237  1.00  0.00    -0.237 OA
ATOM     80  O   UNL A   1      36.855  33.132  39.787  1.00  0.00    -0.744 OA
ENDBRANCH  73  77
ENDBRANCH  46  70
BRANCH  58  81
ATOM     81  C   UNL A   1      44.296  28.575  35.257  1.00  0.00     0.023 A 
ATOM     82  C   UNL A   1      44.083  27.605  36.250  1.00  0.00     0.031 A 
ATOM     83  C   UNL A   1      45.618  28.935  34.947  1.00  0.00     0.131 A 
ATOM     84  C   UNL A   1      45.179  27.051  36.928  1.00  0.00     0.055 A 
ATOM     85  C   UNL A   1      46.706  28.346  35.590  1.00  0.00     0.041 A 
ATOM     86  F   UNL A   1      45.871  29.854  34.002  1.00  0.00    -0.206 F 
ATOM     87  C   UNL A   1      46.490  27.403  36.591  1.00  0.00     0.022 A 
BRANCH  84  88
ATOM     88  S   UNL A   1      44.869  25.893  38.286  1.00  0.00     0.124 S 
ATOM     89  O   UNL A   1      46.132  25.937  39.016  1.00  0.00    -0.237 OA
ATOM     90  O   UNL A   1      43.723  26.494  38.959  1.00  0.00    -0.237 OA
ATOM     91  O   UNL A   1      44.591  24.630  37.603  1.00  0.00    -0.744 OA
ENDBRANCH  84  88
ENDBRANCH  58  81
ENDBRANCH  32  33
ENDBRANCH  24  27
ENDBRANCH  22  23
ENDBRANCH   1  22
TORSDOF 16
ENDMDL
MODEL 2
REMARK VINA RESULT:     -11.7      1.770      2.790
REMARK SMILES C[C@@H]1CCC[C@]1(Sc1ccc(F)cc1)C(=O)NCCCCNC(=O)c1ccc(-c2c3nc(c(-c4cc(S(=O)(=O)[O-])ccc4F)c4ccc([nH]4)c(-c4cc(S(=O)(=O)[O-])ccc4F)c4nc(c(-c5cc(S(=O)(=O)[O-])ccc5F)c5ccc2[nH]5)C=C4)C=C3)cc1
REMARK SMILES IDX 20 1 19 2 18 3 17 4 15 5 16 6 6 8 1 9 2 10 3 11 4 12 5 13
REMARK SMILES IDX 7 14 8 15 9 16 14 17 10 18 13 19 11 20 12 21 21 22 22 23
REMARK SMILES IDX 23 24 24 26 25 27 26 28 87 29 27 30 86 31 28 32 29 33 30 34
REMARK SMILES IDX 80 35 31 36 85 37 79 38 81 39 32 40 84 41 78 42 77 43 33 45
REMARK SMILES IDX 65 46 45 47 64 48 46 49 49 50 63 51 82 52 47 53 48 54 62 56
REMARK SMILES IDX 83 57 50 58 34 59 35 60 43 61 36 62 42 63 44 64 41 65 37 66
REMARK SMILES IDX 38 67 39 68 40 69 66 70 67 71 75 72 68 73 74 74 76 75 73 76
REMARK SMILES IDX 69 77 70 78 71 79 72 80 51 81 52 82 60 83 53 84 59 85 61 86
REMARK SMILES IDX 58 87 54 88 55 89 56 90 57 91
REMARK H PARENT 17 7 22 25 81 44 49 55
REMARK Flexibility Score: inf
ROOT
ATOM      1  C   UNL A   1      31.961  31.187  26.633  1.00  0.00     0.023 C 
ENDROOT
BRANCH   1   2
ATOM      2  C   UNL A   1      32.411  30.050  25.718  1.00  0.00     0.023 C 
BRANCH   2   3
ATOM      3  C   UNL A   1      31.316  29.059  25.335  1.00  0.00     0.116 C 
BRANCH   3   4
ATOM      4  N   UNL A   1      30.847  29.233  23.970  1.00  0.00    -0.355 N 
ATOM      5  C   UNL A   1      30.818  28.352  22.920  1.00  0.00     0.236 C 
ATOM      6  O   UNL A   1      30.263  28.737  21.886  1.00  0.00    -0.273 OA
ATOM      7  H   UNL A   1      30.492  30.127  23.768  1.00  0.00     0.163 HD
BRANCH   5   8
ATOM      8  C   UNL A   1      31.474  26.941  23.028  1.00  0.00     0.102 C 
ATOM      9  C   UNL A   1      33.697  28.222  22.640  1.00  0.00     0.009 C 
ATOM     10  C   UNL A   1      32.998  27.024  23.317  1.00  0.00     0.012 C 
ATOM     11  C   UNL A   1      33.602  25.746  22.715  1.00  0.00     0.005 C 
ATOM     12  C   UNL A   1      32.634  25.265  21.644  1.00  0.00     0.002 C 
ATOM     13  C   UNL A   1      31.441  26.217  21.665  1.00  0.00     0.028 C 
BRANCH   8  14
ATOM     14  S   UNL A   1      30.327  26.021  24.226  1.00  0.00    -0.109 SA
BRANCH  14  15
ATOM     15  C   UNL A   1      31.249  24.684  24.930  1.00  0.00     0.008 A 
ATOM     16  C   UNL A   1      31.975  24.836  26.115  1.00  0.00     0.018 A 
ATOM     17  C   UNL A   1      31.100  23.406  24.378  1.00  0.00     0.018 A 
ATOM     18  C   UNL A   1      32.610  23.736  26.698  1.00  0.00     0.040 A 
ATOM     19  C   UNL A   1      31.714  22.301  24.972  1.00  0.00     0.040 A 
ATOM     20  C   UNL A   1      32.474  22.480  26.121  1.00  0.00     0.123 A 
ATOM     21  F   UNL A   1      33.067  21.422  26.690  1.00  0.00    -0.207 F 
ENDBRANCH  14  15
ENDBRANCH   8  14
ENDBRANCH   5   8
ENDBRANCH   3   4
ENDBRANCH   2   3
ENDBRANCH   1   2
BRANCH   1  22
ATOM     22  C   UNL A   1      33.089  32.016  27.238  1.00  0.00     0.116 C 
BRANCH  22  23
ATOM     23  N   UNL A   1      32.690  33.384  27.535  1.00  0.00    -0.352 N 
ATOM     24  C   UNL A   1      33.199  34.242  28.482  1.00  0.00     0.251 C 
ATOM     25  H   UNL A   1      31.958  33.744  26.984  1.00  0.00     0.163 HD
ATOM     26  O   UNL A   1      32.652  35.321  28.689  1.00  0.00    -0.269 OA
BRANCH  24  27
ATOM     27  C   UNL A   1      34.383  33.835  29.267  1.00  0.00     0.039 A 
ATOM     28  C   UNL A   1      34.210  32.994  30.369  1.00  0.00     0.014 A 
ATOM     29  C   UNL A   1      35.661  34.259  28.894  1.00  0.00     0.014 A 
ATOM     30  C   UNL A   1      35.330  32.516  31.053  1.00  0.00     0.010 A 
ATOM     31  C   UNL A   1      36.777  33.732  29.538  1.00  0.00     0.010 A 
ATOM     32  C   UNL A   1      36.624  32.851  30.621  1.00  0.00    -0.014 A 
BRANCH  32  33
ATOM     33  C   UNL A   1      37.835  32.304  31.282  1.00  0.00     0.031 A 
ATOM     34  C   UNL A   1      38.604  31.193  30.622  1.00  0.00     0.074 A 
ATOM     35  C   UNL A   1      38.196  32.746  32.504  1.00  0.00     0.049 A 
ATOM     36  N   UNL A   1      39.574  30.460  31.103  1.00  0.00    -0.248 NA
ATOM     37  C   UNL A   1      38.208  30.840  29.248  1.00  0.00     0.031 C 
ATOM     38  C   UNL A   1      37.518  33.804  33.258  1.00  0.00     0.029 A 
ATOM     39  N   UNL A   1      39.212  32.348  33.337  1.00  0.00    -0.354 N 
ATOM     40  C   UNL A   1      39.885  29.543  30.107  1.00  0.00     0.074 A 
ATOM     41  C   UNL A   1      38.981  29.791  29.004  1.00  0.00     0.031 C 
ATOM     42  C   UNL A   1      38.145  33.979  34.433  1.00  0.00     0.029 A 
ATOM     43  C   UNL A   1      39.234  33.014  34.541  1.00  0.00     0.049 A 
ATOM     44  H   UNL A   1      39.864  31.651  33.095  1.00  0.00     0.167 HD
ATOM     45  C   UNL A   1      40.846  28.589  30.107  1.00  0.00     0.034 A 
ATOM     46  C   UNL A   1      40.026  32.849  35.620  1.00  0.00     0.034 A 
ATOM     47  C   UNL A   1      41.771  28.377  31.191  1.00  0.00     0.049 A 
ATOM     48  C   UNL A   1      41.088  31.781  35.592  1.00  0.00     0.074 A 
ATOM     49  C   UNL A   1      42.818  27.475  31.261  1.00  0.00     0.029 A 
ATOM     50  N   UNL A   1      41.767  29.078  32.387  1.00  0.00    -0.354 N 
ATOM     51  N   UNL A   1      41.365  30.918  34.642  1.00  0.00    -0.248 NA
ATOM     52  C   UNL A   1      41.940  31.660  36.783  1.00  0.00     0.031 C 
ATOM     53  C   UNL A   1      43.418  27.598  32.518  1.00  0.00     0.029 A 
ATOM     54  C   UNL A   1      42.781  28.616  33.209  1.00  0.00     0.049 A 
ATOM     55  H   UNL A   1      41.136  29.799  32.618  1.00  0.00     0.167 HD
ATOM     56  C   UNL A   1      42.431  30.162  35.118  1.00  0.00     0.074 A 
ATOM     57  C   UNL A   1      42.759  30.678  36.430  1.00  0.00     0.031 C 
ATOM     58  C   UNL A   1      43.082  29.132  34.521  1.00  0.00     0.034 A 
BRANCH  45  59
ATOM     59  C   UNL A   1      40.941  27.688  28.908  1.00  0.00     0.023 A 
ATOM     60  C   UNL A   1      41.912  27.887  27.913  1.00  0.00     0.031 A 
ATOM     61  C   UNL A   1      40.071  26.590  28.778  1.00  0.00     0.131 A 
ATOM     62  C   UNL A   1      41.970  27.020  26.813  1.00  0.00     0.055 A 
ATOM     63  C   UNL A   1      40.171  25.698  27.710  1.00  0.00     0.041 A 
ATOM     64  F   UNL A   1      39.115  26.366  29.693  1.00  0.00    -0.206 F 
ATOM     65  C   UNL A   1      41.122  25.912  26.717  1.00  0.00     0.022 A 
BRANCH  62  66
ATOM     66  S   UNL A   1      43.141  27.381  25.477  1.00  0.00     0.124 S 
ATOM     67  O   UNL A   1      44.219  28.043  26.206  1.00  0.00    -0.237 OA
ATOM     68  O   UNL A   1      43.446  26.057  24.950  1.00  0.00    -0.237 OA
ATOM     69  O   UNL A   1      42.378  28.246  24.579  1.00  0.00    -0.744 OA
ENDBRANCH  62  66
ENDBRANCH  45  59
BRANCH  46  70
ATOM     70  C   UNL A   1      39.827  33.686  36.836  1.00  0.00     0.023 A 
ATOM     71  C   UNL A   1      39.159  33.178  37.961  1.00  0.00     0.031 A 
ATOM     72  C   UNL A   1      40.273  35.018  36.875  1.00  0.00     0.131 A 
ATOM     73  C   UNL A   1      38.924  34.010  39.067  1.00  0.00     0.055 A 
ATOM     74  C   UNL A   1      40.073  35.829  37.993  1.00  0.00     0.041 A 
ATOM     75  F   UNL A   1      40.923  35.547  35.826  1.00  0.00    -0.206 F 
ATOM     76  C   UNL A   1      39.386  35.328  39.095  1.00  0.00     0.022 A 
BRANCH  73  77
ATOM     77  S   UNL A   1      37.959  33.357  40.457  1.00  0.00     0.124 S 
ATOM     78  O   UNL A   1      38.755  32.200  40.852  1.00  0.00    -0.237 OA
ATOM     79  O   UNL A   1      37.959  34.483  41.384  1.00  0.00    -0.237 OA
ATOM     80  O   UNL A   1      36.663  33.049  39.856  1.00  0.00    -0.744 OA
ENDBRANCH  73  77
ENDBRANCH  46  70
BRANCH  58  81
ATOM     81  C   UNL A   1      44.227  28.512  35.276  1.00  0.00     0.023 A 
ATOM     82  C   UNL A   1      44.013  27.492  36.218  1.00  0.00     0.031 A 
ATOM     83  C   UNL A   1      45.546  28.928  35.029  1.00  0.00     0.131 A 
ATOM     84  C   UNL A   1      45.104  26.944  36.909  1.00  0.00     0.055 A 
ATOM     85  C   UNL A   1      46.631  28.346  35.684  1.00  0.00     0.041 A 
ATOM     86  F   UNL A   1      45.799  29.897  34.136  1.00  0.00    -0.206 F 
ATOM     87  C   UNL A   1      46.413  27.353  36.635  1.00  0.00     0.022 A 
BRANCH  84  88
ATOM     88  S   UNL A   1      44.787  25.716  38.204  1.00  0.00     0.124 S 
ATOM     89  O   UNL A   1      44.102  24.663  37.461  1.00  0.00    -0.237 OA
ATOM     90  O   UNL A   1      46.131  25.395  38.671  1.00  0.00    -0.237 OA
ATOM     91  O   UNL A   1      43.955  26.439  39.165  1.00  0.00    -0.744 OA
ENDBRANCH  84  88
ENDBRANCH  58  81
ENDBRANCH  32  33
ENDBRANCH  24  27
ENDBRANCH  22  23
ENDBRANCH   1  22
TORSDOF 16
ENDMDL
MODEL 3
REMARK VINA RESULT:     -11.7      6.364     12.075
REMARK SMILES C[C@@H]1CCC[C@]1(Sc1ccc(F)cc1)C(=O)NCCCCNC(=O)c1ccc(-c2c3nc(c(-c4cc(S(=O)(=O)[O-])ccc4F)c4ccc([nH]4)c(-c4cc(S(=O)(=O)[O-])ccc4F)c4nc(c(-c5cc(S(=O)(=O)[O-])ccc5F)c5ccc2[nH]5)C=C4)C=C3)cc1
REMARK SMILES IDX 20 1 19 2 18 3 17 4 15 5 16 6 6 8 1 9 2 10 3 11 4 12 5 13
REMARK SMILES IDX 7 14 8 15 9 16 14 17 10 18 13 19 11 20 12 21 21 22 22 23
REMARK SMILES IDX 23 24 24 26 25 27 26 28 87 29 27 30 86 31 28 32 29 33 30 34
REMARK SMILES IDX 80 35 31 36 85 37 79 38 81 39 32 40 84 41 78 42 77 43 33 45
REMARK SMILES IDX 65 46 45 47 64 48 46 49 49 50 63 51 82 52 47 53 48 54 62 56
REMARK SMILES IDX 83 57 50 58 34 59 35 60 43 61 36 62 42 63 44 64 41 65 37 66
REMARK SMILES IDX 38 67 39 68 40 69 66 70 67 71 75 72 68 73 74 74 76 75 73 76
REMARK SMILES IDX 69 77 70 78 71 79 72 80 51 81 52 82 60 83 53 84 59 85 61 86
REMARK SMILES IDX 58 87 54 88 55 89 56 90 57 91
REMARK H PARENT 17 7 22 25 81 44 49 55
REMARK Flexibility Score: inf
ROOT
ATOM      1  C   UNL A   1      37.995  20.611  25.200  1.00  0.00     0.023 C 
ENDROOT
BRANCH   1   2
ATOM      2  C   UNL A   1      37.014  21.781  25.192  1.00  0.00     0.023 C 
BRANCH   2   3
ATOM      3  C   UNL A   1      35.800  21.611  26.101  1.00  0.00     0.116 C 
BRANCH   3   4
ATOM      4  N   UNL A   1      35.104  22.861  26.357  1.00  0.00    -0.355 N 
ATOM      5  C   UNL A   1      33.901  23.323  25.887  1.00  0.00     0.236 C 
ATOM      6  O   UNL A   1      33.495  24.391  26.355  1.00  0.00    -0.273 OA
ATOM      7  H   UNL A   1      35.572  23.476  26.966  1.00  0.00     0.163 HD
BRANCH   5   8
ATOM      8  C   UNL A   1      33.102  22.539  24.802  1.00  0.00     0.102 C 
ATOM      9  C   UNL A   1      34.663  23.763  23.129  1.00  0.00     0.009 C 
ATOM     10  C   UNL A   1      33.854  22.487  23.444  1.00  0.00     0.012 C 
ATOM     11  C   UNL A   1      32.761  22.365  22.371  1.00  0.00     0.005 C 
ATOM     12  C   UNL A   1      31.481  22.914  22.985  1.00  0.00     0.002 C 
ATOM     13  C   UNL A   1      31.807  23.293  24.426  1.00  0.00     0.028 C 
BRANCH   8  14
ATOM     14  S   UNL A   1      32.627  20.932  25.690  1.00  0.00    -0.109 SA
BRANCH  14  15
ATOM     15  C   UNL A   1      33.198  19.583  24.696  1.00  0.00     0.008 A 
ATOM     16  C   UNL A   1      34.398  18.921  24.974  1.00  0.00     0.018 A 
ATOM     17  C   UNL A   1      32.339  19.061  23.721  1.00  0.00     0.018 A 
ATOM     18  C   UNL A   1      34.771  17.797  24.233  1.00  0.00     0.040 A 
ATOM     19  C   UNL A   1      32.699  17.924  22.994  1.00  0.00     0.040 A 
ATOM     20  C   UNL A   1      33.918  17.309  23.250  1.00  0.00     0.123 A 
ATOM     21  F   UNL A   1      34.267  16.221  22.552  1.00  0.00    -0.207 F 
ENDBRANCH  14  15
ENDBRANCH   8  14
ENDBRANCH   5   8
ENDBRANCH   3   4
ENDBRANCH   2   3
ENDBRANCH   1   2
BRANCH   1  22
ATOM     22  C   UNL A   1      39.227  20.806  26.078  1.00  0.00     0.116 C 
BRANCH  22  23
ATOM     23  N   UNL A   1      40.165  19.697  25.992  1.00  0.00    -0.352 N 
ATOM     24  C   UNL A   1      41.538  19.724  26.065  1.00  0.00     0.251 C 
ATOM     25  H   UNL A   1      39.764  18.807  25.864  1.00  0.00     0.163 HD
ATOM     26  O   UNL A   1      42.185  18.706  25.838  1.00  0.00    -0.269 OA
BRANCH  24  27
ATOM     27  C   UNL A   1      42.222  20.995  26.385  1.00  0.00     0.039 A 
ATOM     28  C   UNL A   1      42.497  21.895  25.353  1.00  0.00     0.014 A 
ATOM     29  C   UNL A   1      42.559  21.306  27.705  1.00  0.00     0.014 A 
ATOM     30  C   UNL A   1      43.044  23.144  25.656  1.00  0.00     0.010 A 
ATOM     31  C   UNL A   1      43.045  22.574  28.010  1.00  0.00     0.010 A 
ATOM     32  C   UNL A   1      43.288  23.508  26.990  1.00  0.00    -0.014 A 
BRANCH  32  33
ATOM     33  C   UNL A   1      43.803  24.853  27.352  1.00  0.00     0.031 A 
ATOM     34  C   UNL A   1      42.868  25.872  27.942  1.00  0.00     0.074 A 
ATOM     35  C   UNL A   1      45.081  25.183  27.077  1.00  0.00     0.049 A 
ATOM     36  N   UNL A   1      43.066  27.146  28.162  1.00  0.00    -0.248 NA
ATOM     37  C   UNL A   1      41.520  25.402  28.305  1.00  0.00     0.031 C 
ATOM     38  C   UNL A   1      46.080  24.290  26.485  1.00  0.00     0.029 A 
ATOM     39  N   UNL A   1      45.756  26.367  27.243  1.00  0.00    -0.354 N 
ATOM     40  C   UNL A   1      41.865  27.635  28.661  1.00  0.00     0.074 A 
ATOM     41  C   UNL A   1      40.933  26.528  28.683  1.00  0.00     0.031 C 
ATOM     42  C   UNL A   1      47.240  24.953  26.351  1.00  0.00     0.029 A 
ATOM     43  C   UNL A   1      47.057  26.331  26.796  1.00  0.00     0.049 A 
ATOM     44  H   UNL A   1      45.347  27.169  27.643  1.00  0.00     0.167 HD
ATOM     45  C   UNL A   1      41.571  28.891  29.073  1.00  0.00     0.034 A 
ATOM     46  C   UNL A   1      47.990  27.303  26.729  1.00  0.00     0.034 A 
ATOM     47  C   UNL A   1      42.517  29.976  29.089  1.00  0.00     0.049 A 
ATOM     48  C   UNL A   1      47.635  28.691  27.197  1.00  0.00     0.074 A 
ATOM     49  C   UNL A   1      42.332  31.270  29.545  1.00  0.00     0.029 A 
ATOM     50  N   UNL A   1      43.826  29.896  28.638  1.00  0.00    -0.354 N 
ATOM     51  N   UNL A   1      46.491  29.136  27.662  1.00  0.00    -0.248 NA
ATOM     52  C   UNL A   1      48.695  29.706  27.127  1.00  0.00     0.031 C 
ATOM     53  C   UNL A   1      43.513  31.984  29.326  1.00  0.00     0.029 A 
ATOM     54  C   UNL A   1      44.454  31.121  28.787  1.00  0.00     0.049 A 
ATOM     55  H   UNL A   1      44.248  29.086  28.268  1.00  0.00     0.167 HD
ATOM     56  C   UNL A   1      46.699  30.481  27.950  1.00  0.00     0.074 A 
ATOM     57  C   UNL A   1      48.079  30.771  27.623  1.00  0.00     0.031 C 
ATOM     58  C   UNL A   1      45.826  31.395  28.441  1.00  0.00     0.034 A 
BRANCH  45  59
ATOM     59  C   UNL A   1      40.165  29.168  29.528  1.00  0.00     0.023 A 
ATOM     60  C   UNL A   1      39.835  29.244  30.891  1.00  0.00     0.031 A 
ATOM     61  C   UNL A   1      39.149  29.398  28.584  1.00  0.00     0.131 A 
ATOM     62  C   UNL A   1      38.513  29.511  31.274  1.00  0.00     0.055 A 
ATOM     63  C   UNL A   1      37.848  29.720  28.971  1.00  0.00     0.041 A 
ATOM     64  F   UNL A   1      39.410  29.321  27.269  1.00  0.00    -0.206 F 
ATOM     65  C   UNL A   1      37.522  29.774  30.322  1.00  0.00     0.022 A 
BRANCH  62  66
ATOM     66  S   UNL A   1      38.087  29.466  33.035  1.00  0.00     0.124 S 
ATOM     67  O   UNL A   1      37.337  30.709  33.185  1.00  0.00    -0.237 OA
ATOM     68  O   UNL A   1      37.313  28.236  33.147  1.00  0.00    -0.237 OA
ATOM     69  O   UNL A   1      39.388  29.443  33.700  1.00  0.00    -0.744 OA
ENDBRANCH  62  66
ENDBRANCH  45  59
BRANCH  46  70
ATOM     70  C   UNL A   1      49.338  27.016  26.165  1.00  0.00     0.023 A 
ATOM     71  C   UNL A   1      49.673  27.411  24.860  1.00  0.00     0.031 A 
ATOM     72  C   UNL A   1      50.298  26.314  26.913  1.00  0.00     0.131 A 
ATOM     73  C   UNL A   1      50.926  27.067  24.328  1.00  0.00     0.055 A 
ATOM     74  C   UNL A   1      51.557  26.011  26.395  1.00  0.00     0.041 A 
ATOM     75  F   UNL A   1      50.026  25.922  28.168  1.00  0.00    -0.206 F 
ATOM     76  C   UNL A   1      51.874  26.380  25.090  1.00  0.00     0.022 A 
BRANCH  73  77
ATOM     77  S   UNL A   1      51.284  27.491  22.602  1.00  0.00     0.124 S 
ATOM     78  O   UNL A   1      50.204  26.808  21.899  1.00  0.00    -0.237 OA
ATOM     79  O   UNL A   1      51.214  28.948  22.625  1.00  0.00    -0.237 OA
ATOM     80  O   UNL A   1      52.619  26.939  22.386  1.00  0.00    -0.744 OA
ENDBRANCH  73  77
ENDBRANCH  46  70
BRANCH  58  81
ATOM     81  C   UNL A   1      46.346  32.788  28.675  1.00  0.00     0.023 A 
ATOM     82  C   UNL A   1      46.248  33.781  27.685  1.00  0.00     0.031 A 
ATOM     83  C   UNL A   1      46.921  33.131  29.911  1.00  0.00     0.131 A 
ATOM     84  C   UNL A   1      46.753  35.065  27.937  1.00  0.00     0.055 A 
ATOM     85  C   UNL A   1      47.377  34.423  30.172  1.00  0.00     0.041 A 
ATOM     86  F   UNL A   1      47.032  32.217  30.888  1.00  0.00    -0.206 F 
ATOM     87  C   UNL A   1      47.300  35.396  29.179  1.00  0.00     0.022 A 
BRANCH  84  88
ATOM     88  S   UNL A   1      46.722  36.289  26.600  1.00  0.00     0.124 S 
ATOM     89  O   UNL A   1      45.620  37.154  27.008  1.00  0.00    -0.237 OA
ATOM     90  O   UNL A   1      48.055  36.876  26.678  1.00  0.00    -0.237 OA
ATOM     91  O   UNL A   1      46.469  35.485  25.405  1.00  0.00    -0.744 OA
ENDBRANCH  84  88
ENDBRANCH  58  81
ENDBRANCH  32  33
ENDBRANCH  24  27
ENDBRANCH  22  23
ENDBRANCH   1  22
TORSDOF 16
ENDMDL
