MODEL 1
REMARK VINA RESULT:     -13.1      0.000      0.000
REMARK SMILES C[C@H]1OCC[C@@H]1C(=O)Nc1sc2c(c1C(=O)NCCCCNC(=O)c1ccc(-c3c4nc(c(-c5cc(S(=O)(=O)[O-])ccc5F)c5ccc([nH]5)c(-c5cc(S(=O)(=O)[O-])ccc5F)c5nc(c(-c6cc(S(=O)(=O)[O-])ccc6F)c6ccc3[nH]6)C=C5)C=C4)cc1)CCC2
REMARK SMILES IDX 20 1 19 2 18 3 17 4 15 5 16 6 14 8 10 9 11 10 12 11 13 12
REMARK SMILES IDX 90 13 88 14 89 15 9 16 7 17 8 18 6 20 1 21 2 22 3 23 4 24
REMARK SMILES IDX 5 25 21 26 22 27 23 28 24 30 25 31 26 32 87 33 27 34 86 35
REMARK SMILES IDX 28 36 29 37 30 38 80 39 31 40 85 41 79 42 81 43 32 44 84 45
REMARK SMILES IDX 78 46 77 47 33 49 65 50 45 51 64 52 46 53 49 54 63 55 82 56
REMARK SMILES IDX 47 57 48 58 62 60 83 61 50 62 34 63 35 64 43 65 36 66 42 67
REMARK SMILES IDX 44 68 41 69 37 70 38 71 39 72 40 73 66 74 67 75 75 76 68 77
REMARK SMILES IDX 74 78 76 79 73 80 69 81 70 82 71 83 72 84 51 85 52 86 60 87
REMARK SMILES IDX 53 88 59 89 61 90 58 91 54 92 55 93 56 94 57 95
REMARK H PARENT 17 7 9 19 22 29 81 48 49 59
REMARK Flexibility Score: inf
ROOT
ATOM      1  C   UNL A   1      33.879  29.187  26.746  1.00  0.00     0.023 C 
ENDROOT
BRANCH   1   2
ATOM      2  C   UNL A   1      33.044  28.055  27.366  1.00  0.00     0.023 C 
BRANCH   2   3
ATOM      3  C   UNL A   1      31.667  27.809  26.746  1.00  0.00     0.116 C 
BRANCH   3   4
ATOM      4  N   UNL A   1      31.122  26.488  26.925  1.00  0.00    -0.352 N 
ATOM      5  C   UNL A   1      31.444  25.258  26.415  1.00  0.00     0.254 C 
ATOM      6  O   UNL A   1      31.065  24.311  27.114  1.00  0.00    -0.269 OA
ATOM      7  H   UNL A   1      30.356  26.463  27.544  1.00  0.00     0.163 HD
BRANCH   5   8
ATOM      8  C   UNL A   1      32.134  25.006  25.142  1.00  0.00     0.078 A 
ATOM      9  C   UNL A   1      33.274  24.186  25.121  1.00  0.00     0.108 A 
ATOM     10  S   UNL A   1      34.273  24.417  23.744  1.00  0.00    -0.122 S 
ATOM     11  C   UNL A   1      33.080  25.324  23.030  1.00  0.00     0.011 A 
ATOM     12  C   UNL A   1      31.977  25.552  23.819  1.00  0.00    -0.019 A 
ATOM     13  C   UNL A   1      33.065  25.996  21.710  1.00  0.00     0.047 C 
ATOM     14  C   UNL A   1      31.040  26.435  23.063  1.00  0.00     0.038 C 
ATOM     15  C   UNL A   1      31.570  26.372  21.602  1.00  0.00     0.010 C 
BRANCH   9  16
ATOM     16  N   UNL A   1      33.892  23.356  26.025  1.00  0.00    -0.317 N 
ATOM     17  C   UNL A   1      34.175  22.029  25.968  1.00  0.00     0.230 C 
ATOM     18  O   UNL A   1      34.809  21.565  26.931  1.00  0.00    -0.274 OA
ATOM     19  H   UNL A   1      34.179  23.799  26.856  1.00  0.00     0.170 HD
BRANCH  17  20
ATOM     20  C   UNL A   1      33.915  21.097  24.790  1.00  0.00     0.110 C 
ATOM     21  C   UNL A   1      32.113  21.195  23.020  1.00  0.00     0.039 C 
ATOM     22  C   UNL A   1      32.443  20.870  24.477  1.00  0.00     0.127 C 
ATOM     23  O   UNL A   1      32.185  19.475  24.697  1.00  0.00    -0.378 OA
ATOM     24  C   UNL A   1      33.418  18.771  24.541  1.00  0.00     0.161 C 
ATOM     25  C   UNL A   1      34.543  19.729  24.847  1.00  0.00     0.044 C 
ENDBRANCH  17  20
ENDBRANCH   9  16
ENDBRANCH   5   8
ENDBRANCH   3   4
ENDBRANCH   2   3
ENDBRANCH   1   2
BRANCH   1  26
ATOM     26  C   UNL A   1      35.305  29.314  27.283  1.00  0.00     0.116 C 
BRANCH  26  27
ATOM     27  N   UNL A   1      35.372  29.826  28.660  1.00  0.00    -0.352 N 
ATOM     28  C   UNL A   1      36.312  29.547  29.646  1.00  0.00     0.251 C 
ATOM     29  H   UNL A   1      34.656  30.450  28.917  1.00  0.00     0.163 HD
ATOM     30  O   UNL A   1      36.065  29.727  30.826  1.00  0.00    -0.269 OA
BRANCH  28  31
ATOM     31  C   UNL A   1      37.635  29.067  29.208  1.00  0.00     0.039 A 
ATOM     32  C   UNL A   1      38.346  29.592  28.125  1.00  0.00     0.014 A 
ATOM     33  C   UNL A   1      38.188  28.085  30.012  1.00  0.00     0.014 A 
ATOM     34  C   UNL A   1      39.659  29.162  27.923  1.00  0.00     0.010 A 
ATOM     35  C   UNL A   1      39.531  27.881  29.981  1.00  0.00     0.010 A 
ATOM     36  C   UNL A   1      40.242  28.312  28.871  1.00  0.00    -0.014 A 
BRANCH  36  37
ATOM     37  C   UNL A   1      41.615  27.837  28.810  1.00  0.00     0.031 A 
ATOM     38  C   UNL A   1      41.831  26.637  27.959  1.00  0.00     0.074 A 
ATOM     39  C   UNL A   1      42.622  28.649  29.213  1.00  0.00     0.049 A 
ATOM     40  N   UNL A   1      42.216  25.466  28.335  1.00  0.00    -0.248 NA
ATOM     41  C   UNL A   1      41.424  26.691  26.543  1.00  0.00     0.031 C 
ATOM     42  C   UNL A   1      42.542  30.018  29.749  1.00  0.00     0.029 A 
ATOM     43  N   UNL A   1      43.958  28.482  29.074  1.00  0.00    -0.354 N 
ATOM     44  C   UNL A   1      42.328  24.698  27.177  1.00  0.00     0.074 A 
ATOM     45  C   UNL A   1      41.620  25.427  26.160  1.00  0.00     0.031 C 
ATOM     46  C   UNL A   1      43.744  30.627  29.631  1.00  0.00     0.029 A 
ATOM     47  C   UNL A   1      44.714  29.647  29.181  1.00  0.00     0.049 A 
ATOM     48  H   UNL A   1      44.366  27.601  28.910  1.00  0.00     0.167 HD
ATOM     49  C   UNL A   1      43.184  23.638  27.111  1.00  0.00     0.034 A 
ATOM     50  C   UNL A   1      46.032  29.793  28.871  1.00  0.00     0.034 A 
ATOM     51  C   UNL A   1      43.694  23.318  28.427  1.00  0.00     0.049 A 
ATOM     52  C   UNL A   1      46.607  28.418  28.903  1.00  0.00     0.074 A 
ATOM     53  C   UNL A   1      43.107  22.927  29.615  1.00  0.00     0.029 A 
ATOM     54  N   UNL A   1      44.933  23.817  28.772  1.00  0.00    -0.354 N 
ATOM     55  N   UNL A   1      46.638  27.689  29.990  1.00  0.00    -0.248 NA
ATOM     56  C   UNL A   1      46.623  27.658  27.657  1.00  0.00     0.031 C 
ATOM     57  C   UNL A   1      43.774  23.696  30.613  1.00  0.00     0.029 A 
ATOM     58  C   UNL A   1      44.803  24.420  30.002  1.00  0.00     0.049 A 
ATOM     59  H   UNL A   1      45.758  23.752  28.239  1.00  0.00     0.167 HD
ATOM     60  C   UNL A   1      46.242  26.417  29.592  1.00  0.00     0.074 A 
ATOM     61  C   UNL A   1      46.328  26.440  28.130  1.00  0.00     0.031 C 
ATOM     62  C   UNL A   1      45.578  25.571  30.440  1.00  0.00     0.034 A 
BRANCH  49  63
ATOM     63  C   UNL A   1      43.831  23.078  25.863  1.00  0.00     0.023 A 
ATOM     64  C   UNL A   1      43.667  21.700  25.616  1.00  0.00     0.031 A 
ATOM     65  C   UNL A   1      44.792  23.731  25.061  1.00  0.00     0.131 A 
ATOM     66  C   UNL A   1      44.490  21.020  24.701  1.00  0.00     0.055 A 
ATOM     67  C   UNL A   1      45.563  23.064  24.102  1.00  0.00     0.041 A 
ATOM     68  F   UNL A   1      45.110  25.021  25.215  1.00  0.00    -0.206 F 
ATOM     69  C   UNL A   1      45.438  21.695  23.940  1.00  0.00     0.022 A 
BRANCH  66  70
ATOM     70  S   UNL A   1      44.418  19.211  24.657  1.00  0.00     0.124 S 
ATOM     71  O   UNL A   1      43.014  18.960  24.964  1.00  0.00    -0.237 OA
ATOM     72  O   UNL A   1      44.840  18.927  23.290  1.00  0.00    -0.237 OA
ATOM     73  O   UNL A   1      45.362  18.810  25.696  1.00  0.00    -0.744 OA
ENDBRANCH  66  70
ENDBRANCH  49  63
BRANCH  50  74
ATOM     74  C   UNL A   1      46.655  30.969  28.182  1.00  0.00     0.023 A 
ATOM     75  C   UNL A   1      45.978  31.781  27.243  1.00  0.00     0.031 A 
ATOM     76  C   UNL A   1      47.914  31.444  28.621  1.00  0.00     0.131 A 
ATOM     77  C   UNL A   1      46.564  32.991  26.784  1.00  0.00     0.055 A 
ATOM     78  C   UNL A   1      48.487  32.635  28.164  1.00  0.00     0.041 A 
ATOM     79  F   UNL A   1      48.605  30.803  29.577  1.00  0.00    -0.206 F 
ATOM     80  C   UNL A   1      47.810  33.419  27.248  1.00  0.00     0.022 A 
BRANCH  77  81
ATOM     81  S   UNL A   1      45.676  34.084  25.620  1.00  0.00     0.124 S 
ATOM     82  O   UNL A   1      44.831  33.143  24.894  1.00  0.00    -0.237 OA
ATOM     83  O   UNL A   1      44.993  35.010  26.517  1.00  0.00    -0.237 OA
ATOM     84  O   UNL A   1      46.748  34.684  24.825  1.00  0.00    -0.744 OA
ENDBRANCH  77  81
ENDBRANCH  50  74
BRANCH  62  85
ATOM     85  C   UNL A   1      45.448  25.946  31.909  1.00  0.00     0.023 A 
ATOM     86  C   UNL A   1      44.281  26.464  32.521  1.00  0.00     0.031 A 
ATOM     87  C   UNL A   1      46.512  25.585  32.755  1.00  0.00     0.131 A 
ATOM     88  C   UNL A   1      44.216  26.600  33.926  1.00  0.00     0.055 A 
ATOM     89  C   UNL A   1      46.434  25.696  34.142  1.00  0.00     0.041 A 
ATOM     90  F   UNL A   1      47.638  25.061  32.242  1.00  0.00    -0.206 F 
ATOM     91  C   UNL A   1      45.286  26.206  34.735  1.00  0.00     0.022 A 
BRANCH  88  92
ATOM     92  S   UNL A   1      42.738  27.301  34.735  1.00  0.00     0.124 S 
ATOM     93  O   UNL A   1      41.814  26.174  34.795  1.00  0.00    -0.237 OA
ATOM     94  O   UNL A   1      43.264  27.766  36.016  1.00  0.00    -0.237 OA
ATOM     95  O   UNL A   1      42.328  28.373  33.825  1.00  0.00    -0.744 OA
ENDBRANCH  88  92
ENDBRANCH  62  85
ENDBRANCH  36  37
ENDBRANCH  28  31
ENDBRANCH  26  27
ENDBRANCH   1  26
TORSDOF 16
ENDMDL
MODEL 2
REMARK VINA RESULT:     -12.5      1.537      3.146
REMARK SMILES C[C@H]1OCC[C@@H]1C(=O)Nc1sc2c(c1C(=O)NCCCCNC(=O)c1ccc(-c3c4nc(c(-c5cc(S(=O)(=O)[O-])ccc5F)c5ccc([nH]5)c(-c5cc(S(=O)(=O)[O-])ccc5F)c5nc(c(-c6cc(S(=O)(=O)[O-])ccc6F)c6ccc3[nH]6)C=C5)C=C4)cc1)CCC2
REMARK SMILES IDX 20 1 19 2 18 3 17 4 15 5 16 6 14 8 10 9 11 10 12 11 13 12
REMARK SMILES IDX 90 13 88 14 89 15 9 16 7 17 8 18 6 20 1 21 2 22 3 23 4 24
REMARK SMILES IDX 5 25 21 26 22 27 23 28 24 30 25 31 26 32 87 33 27 34 86 35
REMARK SMILES IDX 28 36 29 37 30 38 80 39 31 40 85 41 79 42 81 43 32 44 84 45
REMARK SMILES IDX 78 46 77 47 33 49 65 50 45 51 64 52 46 53 49 54 63 55 82 56
REMARK SMILES IDX 47 57 48 58 62 60 83 61 50 62 34 63 35 64 43 65 36 66 42 67
REMARK SMILES IDX 44 68 41 69 37 70 38 71 39 72 40 73 66 74 67 75 75 76 68 77
REMARK SMILES IDX 74 78 76 79 73 80 69 81 70 82 71 83 72 84 51 85 52 86 60 87
REMARK SMILES IDX 53 88 59 89 61 90 58 91 54 92 55 93 56 94 57 95
REMARK H PARENT 17 7 9 19 22 29 81 48 49 59
REMARK Flexibility Score: inf
ROOT
ATOM      1  C   UNL A   1      34.199  29.824  27.297  1.00  0.00     0.023 C 
ENDROOT
BRANCH   1   2
ATOM      2  C   UNL A   1      34.016  29.053  25.980  1.00  0.00     0.023 C 
BRANCH   2   3
ATOM      3  C   UNL A   1      33.906  27.531  26.094  1.00  0.00     0.116 C 
BRANCH   3   4
ATOM      4  N   UNL A   1      32.638  27.023  26.554  1.00  0.00    -0.352 N 
ATOM      5  C   UNL A   1      31.887  25.926  26.223  1.00  0.00     0.254 C 
ATOM      6  O   UNL A   1      31.101  25.573  27.110  1.00  0.00    -0.269 OA
ATOM      7  H   UNL A   1      32.226  27.582  27.252  1.00  0.00     0.163 HD
BRANCH   5   8
ATOM      8  C   UNL A   1      31.922  25.211  24.940  1.00  0.00     0.078 A 
ATOM      9  C   UNL A   1      30.733  25.016  24.220  1.00  0.00     0.108 A 
ATOM     10  S   UNL A   1      30.811  23.738  23.077  1.00  0.00    -0.122 S 
ATOM     11  C   UNL A   1      32.457  23.657  23.280  1.00  0.00     0.011 A 
ATOM     12  C   UNL A   1      32.962  24.491  24.250  1.00  0.00    -0.019 A 
ATOM     13  C   UNL A   1      33.446  22.760  22.638  1.00  0.00     0.047 C 
ATOM     14  C   UNL A   1      34.430  24.245  24.355  1.00  0.00     0.038 C 
ATOM     15  C   UNL A   1      34.764  23.442  23.065  1.00  0.00     0.010 C 
BRANCH   9  16
ATOM     16  N   UNL A   1      29.445  25.485  24.324  1.00  0.00    -0.317 N 
ATOM     17  C   UNL A   1      28.879  26.641  23.891  1.00  0.00     0.230 C 
ATOM     18  O   UNL A   1      27.657  26.755  24.081  1.00  0.00    -0.274 OA
ATOM     19  H   UNL A   1      28.826  24.879  24.792  1.00  0.00     0.170 HD
BRANCH  17  20
ATOM     20  C   UNL A   1      29.564  27.737  23.082  1.00  0.00     0.110 C 
ATOM     21  C   UNL A   1      32.003  28.394  22.991  1.00  0.00     0.039 C 
ATOM     22  C   UNL A   1      30.709  28.434  23.803  1.00  0.00     0.127 C 
ATOM     23  O   UNL A   1      30.319  29.806  23.964  1.00  0.00    -0.378 OA
ATOM     24  C   UNL A   1      29.372  30.116  22.941  1.00  0.00     0.161 C 
ATOM     25  C   UNL A   1      28.688  28.834  22.535  1.00  0.00     0.044 C 
ENDBRANCH  17  20
ENDBRANCH   9  16
ENDBRANCH   5   8
ENDBRANCH   3   4
ENDBRANCH   2   3
ENDBRANCH   1   2
BRANCH   1  26
ATOM     26  C   UNL A   1      35.621  29.826  27.858  1.00  0.00     0.116 C 
BRANCH  26  27
ATOM     27  N   UNL A   1      35.681  30.046  29.310  1.00  0.00    -0.352 N 
ATOM     28  C   UNL A   1      36.592  29.537  30.230  1.00  0.00     0.251 C 
ATOM     29  H   UNL A   1      34.982  30.632  29.681  1.00  0.00     0.163 HD
ATOM     30  O   UNL A   1      36.330  29.484  31.419  1.00  0.00    -0.269 OA
BRANCH  28  31
ATOM     31  C   UNL A   1      37.905  29.105  29.718  1.00  0.00     0.039 A 
ATOM     32  C   UNL A   1      38.607  29.755  28.699  1.00  0.00     0.014 A 
ATOM     33  C   UNL A   1      38.458  28.027  30.387  1.00  0.00     0.014 A 
ATOM     34  C   UNL A   1      39.914  29.344  28.427  1.00  0.00     0.010 A 
ATOM     35  C   UNL A   1      39.800  27.819  30.313  1.00  0.00     0.010 A 
ATOM     36  C   UNL A   1      40.501  28.378  29.256  1.00  0.00    -0.014 A 
BRANCH  36  37
ATOM     37  C   UNL A   1      41.869  27.905  29.118  1.00  0.00     0.031 A 
ATOM     38  C   UNL A   1      42.037  26.705  28.255  1.00  0.00     0.074 A 
ATOM     39  C   UNL A   1      42.895  28.718  29.464  1.00  0.00     0.049 A 
ATOM     40  N   UNL A   1      42.444  25.534  28.609  1.00  0.00    -0.248 NA
ATOM     41  C   UNL A   1      41.552  26.759  26.865  1.00  0.00     0.031 C 
ATOM     42  C   UNL A   1      42.844  30.087  30.004  1.00  0.00     0.029 A 
ATOM     43  N   UNL A   1      44.222  28.551  29.251  1.00  0.00    -0.354 N 
ATOM     44  C   UNL A   1      42.491  24.767  27.447  1.00  0.00     0.074 A 
ATOM     45  C   UNL A   1      41.727  25.495  26.472  1.00  0.00     0.031 C 
ATOM     46  C   UNL A   1      44.038  30.696  29.820  1.00  0.00     0.029 A 
ATOM     47  C   UNL A   1      44.982  29.717  29.316  1.00  0.00     0.049 A 
ATOM     48  H   UNL A   1      44.620  27.671  29.064  1.00  0.00     0.167 HD
ATOM     49  C   UNL A   1      43.343  23.707  27.333  1.00  0.00     0.034 A 
ATOM     50  C   UNL A   1      46.281  29.864  28.933  1.00  0.00     0.034 A 
ATOM     51  C   UNL A   1      43.926  23.388  28.619  1.00  0.00     0.049 A 
ATOM     52  C   UNL A   1      46.857  28.489  28.933  1.00  0.00     0.074 A 
ATOM     53  C   UNL A   1      43.407  22.995  29.837  1.00  0.00     0.029 A 
ATOM     54  N   UNL A   1      45.182  23.887  28.894  1.00  0.00    -0.354 N 
ATOM     55  N   UNL A   1      46.949  27.760  30.016  1.00  0.00    -0.248 NA
ATOM     56  C   UNL A   1      46.805  27.730  27.688  1.00  0.00     0.031 C 
ATOM     57  C   UNL A   1      44.128  23.765  30.797  1.00  0.00     0.029 A 
ATOM     58  C   UNL A   1      45.120  24.490  30.130  1.00  0.00     0.049 A 
ATOM     59  H   UNL A   1      45.976  23.823  28.316  1.00  0.00     0.167 HD
ATOM     60  C   UNL A   1      46.533  26.488  29.641  1.00  0.00     0.074 A 
ATOM     61  C   UNL A   1      46.537  26.512  28.176  1.00  0.00     0.031 C 
ATOM     62  C   UNL A   1      45.917  25.641  30.524  1.00  0.00     0.034 A 
BRANCH  49  63
ATOM     63  C   UNL A   1      43.920  23.148  26.051  1.00  0.00     0.023 A 
ATOM     64  C   UNL A   1      43.807  21.757  25.847  1.00  0.00     0.031 A 
ATOM     65  C   UNL A   1      44.782  23.827  25.163  1.00  0.00     0.131 A 
ATOM     66  C   UNL A   1      44.591  21.096  24.886  1.00  0.00     0.055 A 
ATOM     67  C   UNL A   1      45.510  23.174  24.161  1.00  0.00     0.041 A 
ATOM     68  F   UNL A   1      45.046  25.133  25.264  1.00  0.00    -0.206 F 
ATOM     69  C   UNL A   1      45.443  21.797  24.039  1.00  0.00     0.022 A 
BRANCH  66  70
ATOM     70  S   UNL A   1      44.608  19.284  24.887  1.00  0.00     0.124 S 
ATOM     71  O   UNL A   1      45.937  18.998  25.416  1.00  0.00    -0.237 OA
ATOM     72  O   UNL A   1      43.484  18.975  25.764  1.00  0.00    -0.237 OA
ATOM     73  O   UNL A   1      44.412  18.944  23.480  1.00  0.00    -0.744 OA
ENDBRANCH  66  70
ENDBRANCH  49  63
BRANCH  50  74
ATOM     74  C   UNL A   1      46.863  31.040  28.210  1.00  0.00     0.023 A 
ATOM     75  C   UNL A   1      46.111  31.911  27.388  1.00  0.00     0.031 A 
ATOM     76  C   UNL A   1      48.185  31.453  28.507  1.00  0.00     0.131 A 
ATOM     77  C   UNL A   1      46.687  33.114  26.899  1.00  0.00     0.055 A 
ATOM     78  C   UNL A   1      48.746  32.638  28.022  1.00  0.00     0.041 A 
ATOM     79  F   UNL A   1      48.959  30.753  29.352  1.00  0.00    -0.206 F 
ATOM     80  C   UNL A   1      47.996  33.479  27.221  1.00  0.00     0.022 A 
BRANCH  77  81
ATOM     81  S   UNL A   1      45.710  34.280  25.887  1.00  0.00     0.124 S 
ATOM     82  O   UNL A   1      46.737  35.175  25.367  1.00  0.00    -0.237 OA
ATOM     83  O   UNL A   1      45.068  33.398  24.920  1.00  0.00    -0.237 OA
ATOM     84  O   UNL A   1      44.797  34.893  26.853  1.00  0.00    -0.744 OA
ENDBRANCH  77  81
ENDBRANCH  50  74
BRANCH  62  85
ATOM     85  C   UNL A   1      45.870  26.015  31.998  1.00  0.00     0.023 A 
ATOM     86  C   UNL A   1      44.744  26.552  32.670  1.00  0.00     0.031 A 
ATOM     87  C   UNL A   1      46.970  25.637  32.788  1.00  0.00     0.131 A 
ATOM     88  C   UNL A   1      44.753  26.686  34.076  1.00  0.00     0.055 A 
ATOM     89  C   UNL A   1      46.965  25.746  34.178  1.00  0.00     0.041 A 
ATOM     90  F   UNL A   1      48.059  25.095  32.217  1.00  0.00    -0.206 F 
ATOM     91  C   UNL A   1      45.857  26.274  34.828  1.00  0.00     0.022 A 
BRANCH  88  92
ATOM     92  S   UNL A   1      43.330  27.410  34.961  1.00  0.00     0.124 S 
ATOM     93  O   UNL A   1      43.890  27.792  36.252  1.00  0.00    -0.237 OA
ATOM     94  O   UNL A   1      42.934  28.510  34.085  1.00  0.00    -0.237 OA
ATOM     95  O   UNL A   1      42.369  26.306  35.020  1.00  0.00    -0.744 OA
ENDBRANCH  88  92
ENDBRANCH  62  85
ENDBRANCH  36  37
ENDBRANCH  28  31
ENDBRANCH  26  27
ENDBRANCH   1  26
TORSDOF 16
ENDMDL
MODEL 3
REMARK VINA RESULT:     -12.5      2.415      7.133
REMARK SMILES C[C@H]1OCC[C@@H]1C(=O)Nc1sc2c(c1C(=O)NCCCCNC(=O)c1ccc(-c3c4nc(c(-c5cc(S(=O)(=O)[O-])ccc5F)c5ccc([nH]5)c(-c5cc(S(=O)(=O)[O-])ccc5F)c5nc(c(-c6cc(S(=O)(=O)[O-])ccc6F)c6ccc3[nH]6)C=C5)C=C4)cc1)CCC2
REMARK SMILES IDX 20 1 19 2 18 3 17 4 15 5 16 6 14 8 10 9 11 10 12 11 13 12
REMARK SMILES IDX 90 13 88 14 89 15 9 16 7 17 8 18 6 20 1 21 2 22 3 23 4 24
REMARK SMILES IDX 5 25 21 26 22 27 23 28 24 30 25 31 26 32 87 33 27 34 86 35
REMARK SMILES IDX 28 36 29 37 30 38 80 39 31 40 85 41 79 42 81 43 32 44 84 45
REMARK SMILES IDX 78 46 77 47 33 49 65 50 45 51 64 52 46 53 49 54 63 55 82 56
REMARK SMILES IDX 47 57 48 58 62 60 83 61 50 62 34 63 35 64 43 65 36 66 42 67
REMARK SMILES IDX 44 68 41 69 37 70 38 71 39 72 40 73 66 74 67 75 75 76 68 77
REMARK SMILES IDX 74 78 76 79 73 80 69 81 70 82 71 83 72 84 51 85 52 86 60 87
REMARK SMILES IDX 53 88 59 89 61 90 58 91 54 92 55 93 56 94 57 95
REMARK H PARENT 17 7 9 19 22 29 81 48 49 59
REMARK Flexibility Score: inf
ROOT
ATOM      1  C   UNL A   1      32.796  29.726  25.764  1.00  0.00     0.023 C 
ENDROOT
BRANCH   1   2
ATOM      2  C   UNL A   1      32.057  28.378  25.776  1.00  0.00     0.023 C 
BRANCH   2   3
ATOM      3  C   UNL A   1      32.192  27.541  27.049  1.00  0.00     0.116 C 
BRANCH   3   4
ATOM      4  N   UNL A   1      31.436  26.314  27.080  1.00  0.00    -0.352 N 
ATOM      5  C   UNL A   1      31.559  25.114  26.432  1.00  0.00     0.254 C 
ATOM      6  O   UNL A   1      31.022  24.170  27.021  1.00  0.00    -0.269 OA
ATOM      7  H   UNL A   1      30.669  26.346  27.697  1.00  0.00     0.163 HD
BRANCH   5   8
ATOM      8  C   UNL A   1      32.215  24.899  25.134  1.00  0.00     0.078 A 
ATOM      9  C   UNL A   1      33.379  24.116  25.066  1.00  0.00     0.108 A 
ATOM     10  S   UNL A   1      34.324  24.393  23.660  1.00  0.00    -0.122 S 
ATOM     11  C   UNL A   1      33.080  25.269  22.997  1.00  0.00     0.011 A 
ATOM     12  C   UNL A   1      31.996  25.454  23.823  1.00  0.00    -0.019 A 
ATOM     13  C   UNL A   1      33.000  25.955  21.685  1.00  0.00     0.047 C 
ATOM     14  C   UNL A   1      31.008  26.313  23.109  1.00  0.00     0.038 C 
ATOM     15  C   UNL A   1      31.492  26.283  21.630  1.00  0.00     0.010 C 
BRANCH   9  16
ATOM     16  N   UNL A   1      34.052  23.296  25.939  1.00  0.00    -0.317 N 
ATOM     17  C   UNL A   1      34.316  21.965  25.890  1.00  0.00     0.230 C 
ATOM     18  O   UNL A   1      35.014  21.513  26.813  1.00  0.00    -0.274 OA
ATOM     19  H   UNL A   1      34.404  23.752  26.738  1.00  0.00     0.170 HD
BRANCH  17  20
ATOM     20  C   UNL A   1      33.960  21.013  24.753  1.00  0.00     0.110 C 
ATOM     21  C   UNL A   1      32.082  21.141  23.067  1.00  0.00     0.039 C 
ATOM     22  C   UNL A   1      32.467  20.843  24.516  1.00  0.00     0.127 C 
ATOM     23  O   UNL A   1      32.160  19.467  24.790  1.00  0.00    -0.378 OA
ATOM     24  C   UNL A   1      33.353  18.705  24.598  1.00  0.00     0.161 C 
ATOM     25  C   UNL A   1      34.531  19.621  24.822  1.00  0.00     0.044 C 
ENDBRANCH  17  20
ENDBRANCH   9  16
ENDBRANCH   5   8
ENDBRANCH   3   4
ENDBRANCH   2   3
ENDBRANCH   1   2
BRANCH   1  26
ATOM     26  C   UNL A   1      33.775  29.942  26.918  1.00  0.00     0.116 C 
BRANCH  26  27
ATOM     27  N   UNL A   1      34.093  31.356  27.164  1.00  0.00    -0.352 N 
ATOM     28  C   UNL A   1      35.056  31.897  28.009  1.00  0.00     0.251 C 
ATOM     29  H   UNL A   1      33.551  32.008  26.662  1.00  0.00     0.163 HD
ATOM     30  O   UNL A   1      34.980  33.047  28.403  1.00  0.00    -0.269 OA
BRANCH  28  31
ATOM     31  C   UNL A   1      36.198  31.039  28.375  1.00  0.00     0.039 A 
ATOM     32  C   UNL A   1      36.436  29.771  27.836  1.00  0.00     0.014 A 
ATOM     33  C   UNL A   1      37.096  31.619  29.254  1.00  0.00     0.014 A 
ATOM     34  C   UNL A   1      37.643  29.138  28.141  1.00  0.00     0.010 A 
ATOM     35  C   UNL A   1      38.364  31.133  29.322  1.00  0.00     0.010 A 
ATOM     36  C   UNL A   1      38.604  29.841  28.879  1.00  0.00    -0.014 A 
BRANCH  36  37
ATOM     37  C   UNL A   1      39.920  29.321  29.215  1.00  0.00     0.031 A 
ATOM     38  C   UNL A   1      40.157  29.095  30.665  1.00  0.00     0.074 A 
ATOM     39  C   UNL A   1      40.689  28.772  28.245  1.00  0.00     0.049 A 
ATOM     40  N   UNL A   1      41.008  29.695  31.426  1.00  0.00    -0.248 NA
ATOM     41  C   UNL A   1      39.240  28.209  31.404  1.00  0.00     0.031 C 
ATOM     42  C   UNL A   1      40.393  28.621  26.811  1.00  0.00     0.029 A 
ATOM     43  N   UNL A   1      41.846  28.078  28.366  1.00  0.00    -0.354 N 
ATOM     44  C   UNL A   1      40.900  29.103  32.682  1.00  0.00     0.074 A 
ATOM     45  C   UNL A   1      39.662  28.372  32.660  1.00  0.00     0.031 C 
ATOM     46  C   UNL A   1      41.196  27.672  26.275  1.00  0.00     0.029 A 
ATOM     47  C   UNL A   1      42.172  27.278  27.273  1.00  0.00     0.049 A 
ATOM     48  H   UNL A   1      42.414  28.135  29.168  1.00  0.00     0.167 HD
ATOM     49  C   UNL A   1      41.951  29.089  33.551  1.00  0.00     0.034 A 
ATOM     50  C   UNL A   1      43.147  26.328  27.223  1.00  0.00     0.034 A 
ATOM     51  C   UNL A   1      43.004  29.965  33.083  1.00  0.00     0.049 A 
ATOM     52  C   UNL A   1      44.093  26.665  28.325  1.00  0.00     0.074 A 
ATOM     53  C   UNL A   1      43.080  31.319  32.821  1.00  0.00     0.029 A 
ATOM     54  N   UNL A   1      44.053  29.394  32.391  1.00  0.00    -0.354 N 
ATOM     55  N   UNL A   1      44.772  27.783  28.357  1.00  0.00    -0.248 NA
ATOM     56  C   UNL A   1      43.865  26.050  29.628  1.00  0.00     0.031 C 
ATOM     57  C   UNL A   1      43.801  31.405  31.593  1.00  0.00     0.029 A 
ATOM     58  C   UNL A   1      44.224  30.121  31.236  1.00  0.00     0.049 A 
ATOM     59  H   UNL A   1      44.580  28.612  32.672  1.00  0.00     0.167 HD
ATOM     60  C   UNL A   1      44.679  28.233  29.669  1.00  0.00     0.074 A 
ATOM     61  C   UNL A   1      44.179  27.080  30.424  1.00  0.00     0.031 C 
ATOM     62  C   UNL A   1      44.700  29.567  29.978  1.00  0.00     0.034 A 
BRANCH  49  63
ATOM     63  C   UNL A   1      42.206  28.073  34.643  1.00  0.00     0.023 A 
ATOM     64  C   UNL A   1      43.011  26.963  34.313  1.00  0.00     0.031 A 
ATOM     65  C   UNL A   1      41.517  27.983  35.872  1.00  0.00     0.131 A 
ATOM     66  C   UNL A   1      43.029  25.811  35.119  1.00  0.00     0.055 A 
ATOM     67  C   UNL A   1      41.591  26.861  36.705  1.00  0.00     0.041 A 
ATOM     68  F   UNL A   1      40.666  28.922  36.296  1.00  0.00    -0.206 F 
ATOM     69  C   UNL A   1      42.323  25.753  36.316  1.00  0.00     0.022 A 
BRANCH  66  70
ATOM     70  S   UNL A   1      43.848  24.327  34.482  1.00  0.00     0.124 S 
ATOM     71  O   UNL A   1      42.889  23.284  34.827  1.00  0.00    -0.237 OA
ATOM     72  O   UNL A   1      43.976  24.641  33.062  1.00  0.00    -0.237 OA
ATOM     73  O   UNL A   1      45.104  24.288  35.226  1.00  0.00    -0.744 OA
ENDBRANCH  66  70
ENDBRANCH  49  63
BRANCH  50  74
ATOM     74  C   UNL A   1      43.046  24.991  26.555  1.00  0.00     0.023 A 
ATOM     75  C   UNL A   1      44.090  24.405  25.803  1.00  0.00     0.031 A 
ATOM     76  C   UNL A   1      41.940  24.153  26.841  1.00  0.00     0.131 A 
ATOM     77  C   UNL A   1      43.994  23.055  25.370  1.00  0.00     0.055 A 
ATOM     78  C   UNL A   1      41.851  22.826  26.411  1.00  0.00     0.041 A 
ATOM     79  F   UNL A   1      40.934  24.573  27.624  1.00  0.00    -0.206 F 
ATOM     80  C   UNL A   1      42.883  22.268  25.678  1.00  0.00     0.022 A 
BRANCH  77  81
ATOM     81  S   UNL A   1      45.361  22.263  24.452  1.00  0.00     0.124 S 
ATOM     82  O   UNL A   1      46.230  21.800  25.528  1.00  0.00    -0.237 OA
ATOM     83  O   UNL A   1      44.671  21.232  23.687  1.00  0.00    -0.237 OA
ATOM     84  O   UNL A   1      45.913  23.354  23.646  1.00  0.00    -0.744 OA
ENDBRANCH  77  81
ENDBRANCH  50  74
BRANCH  62  85
ATOM     85  C   UNL A   1      45.038  30.574  28.888  1.00  0.00     0.023 A 
ATOM     86  C   UNL A   1      46.346  30.982  28.529  1.00  0.00     0.031 A 
ATOM     87  C   UNL A   1      43.983  30.996  28.060  1.00  0.00     0.131 A 
ATOM     88  C   UNL A   1      46.552  31.778  27.381  1.00  0.00     0.055 A 
ATOM     89  C   UNL A   1      44.192  31.759  26.913  1.00  0.00     0.041 A 
ATOM     90  F   UNL A   1      42.720  30.621  28.327  1.00  0.00    -0.206 F 
ATOM     91  C   UNL A   1      45.478  32.156  26.569  1.00  0.00     0.022 A 
BRANCH  88  92
ATOM     92  S   UNL A   1      48.223  32.349  26.919  1.00  0.00     0.124 S 
ATOM     93  O   UNL A   1      48.708  32.998  28.132  1.00  0.00    -0.237 OA
ATOM     94  O   UNL A   1      48.895  31.107  26.546  1.00  0.00    -0.237 OA
ATOM     95  O   UNL A   1      47.974  33.262  25.801  1.00  0.00    -0.744 OA
ENDBRANCH  88  92
ENDBRANCH  62  85
ENDBRANCH  36  37
ENDBRANCH  28  31
ENDBRANCH  26  27
ENDBRANCH   1  26
TORSDOF 16
ENDMDL
