MODEL 1
REMARK VINA RESULT:     -12.7      0.000      0.000
REMARK SMILES CCc1ccc(S(=O)(=O)c2nnn(-c3ccc(C(=O)NCCCCNC(=O)c4ccc(-c5c6nc(c(-c7cc(S(=O)(=O)[O-])ccc7F)c7ccc([nH]7)c(-c7cc(S(=O)(=O)[O-])ccc7F)c7nc(c(-c8cc(S(=O)(=O)[O-])ccc8F)c8ccc5[nH]8)C=C7)C=C6)cc4)cc3)c2C)cc1
REMARK SMILES IDX 22 1 21 2 20 3 18 4 19 5 17 7 14 8 15 9 92 10 16 11 91 12
REMARK SMILES IDX 13 13 10 14 11 15 93 16 12 17 94 18 7 19 8 20 9 21 6 22 3 23
REMARK SMILES IDX 4 24 96 25 5 26 95 27 2 28 1 29 23 30 24 31 25 32 26 33
REMARK SMILES IDX 27 35 28 36 29 37 90 38 30 39 89 40 31 41 32 42 33 43 83 44
REMARK SMILES IDX 34 45 88 46 82 47 84 48 35 49 87 50 81 51 80 52 36 54 68 55
REMARK SMILES IDX 48 56 67 57 49 58 52 59 66 60 85 61 50 62 51 63 65 65 86 66
REMARK SMILES IDX 53 67 37 68 38 69 46 70 39 71 45 72 47 73 44 74 40 75 41 76
REMARK SMILES IDX 42 77 43 78 69 79 70 80 78 81 71 82 77 83 79 84 76 85 72 86
REMARK SMILES IDX 73 87 74 88 75 89 54 90 55 91 63 92 56 93 62 94 64 95 61 96
REMARK SMILES IDX 57 97 58 98 59 99 60 100
REMARK H PARENT 20 6 25 34 84 53 52 64
REMARK Flexibility Score: inf
ROOT
ATOM      1  C   UNL A   1      37.049  22.583  24.763  1.00  0.00     0.023 C 
ENDROOT
BRANCH   1   2
ATOM      2  C   UNL A   1      37.061  21.413  25.757  1.00  0.00     0.116 C 
BRANCH   2   3
ATOM      3  N   UNL A   1      36.190  20.335  25.318  1.00  0.00    -0.352 N 
ATOM      4  C   UNL A   1      34.855  20.273  25.000  1.00  0.00     0.251 C 
ATOM      5  O   UNL A   1      34.406  19.185  24.638  1.00  0.00    -0.269 OA
ATOM      6  H   UNL A   1      36.653  19.471  25.229  1.00  0.00     0.163 HD
BRANCH   4   7
ATOM      7  C   UNL A   1      33.941  21.453  25.016  1.00  0.00     0.039 A 
ATOM      8  C   UNL A   1      32.406  23.786  24.824  1.00  0.00     0.067 A 
ATOM      9  C   UNL A   1      32.499  22.944  23.715  1.00  0.00     0.029 A 
ATOM     10  C   UNL A   1      32.968  23.418  26.046  1.00  0.00     0.029 A 
ATOM     11  C   UNL A   1      33.296  21.798  23.811  1.00  0.00     0.016 A 
ATOM     12  C   UNL A   1      33.688  22.232  26.146  1.00  0.00     0.016 A 
BRANCH   8  13
ATOM     13  N   UNL A   1      31.805  25.050  24.711  1.00  0.00    -0.216 N 
ATOM     14  C   UNL A   1      31.411  27.172  24.482  1.00  0.00     0.205 A 
ATOM     15  N   UNL A   1      30.247  26.546  24.850  1.00  0.00    -0.117 NA
ATOM     16  C   UNL A   1      32.410  26.227  24.312  1.00  0.00     0.081 A 
ATOM     17  N   UNL A   1      30.483  25.241  24.904  1.00  0.00    -0.061 NA
ATOM     18  C   UNL A   1      33.746  26.296  23.665  1.00  0.00     0.070 C 
BRANCH  14  19
ATOM     19  S   UNL A   1      31.451  28.843  24.041  1.00  0.00     0.227 S 
ATOM     20  O   UNL A   1      30.050  29.236  24.003  1.00  0.00    -0.217 OA
ATOM     21  O   UNL A   1      32.309  28.935  22.884  1.00  0.00    -0.217 OA
BRANCH  19  22
ATOM     22  C   UNL A   1      32.226  29.707  25.382  1.00  0.00     0.073 A 
ATOM     23  C   UNL A   1      33.549  31.090  27.432  1.00  0.00    -0.048 A 
ATOM     24  C   UNL A   1      34.134  29.959  26.837  1.00  0.00     0.005 A 
ATOM     25  C   UNL A   1      32.303  31.525  26.967  1.00  0.00     0.005 A 
ATOM     26  C   UNL A   1      33.480  29.270  25.812  1.00  0.00     0.021 A 
ATOM     27  C   UNL A   1      31.631  30.826  25.966  1.00  0.00     0.021 A 
BRANCH  23  28
ATOM     28  C   UNL A   1      34.301  31.845  28.505  1.00  0.00     0.032 C 
ATOM     29  C   UNL A   1      34.259  33.364  28.367  1.00  0.00     0.009 C 
ENDBRANCH  23  28
ENDBRANCH  19  22
ENDBRANCH  14  19
ENDBRANCH   8  13
ENDBRANCH   4   7
ENDBRANCH   2   3
ENDBRANCH   1   2
BRANCH   1  30
ATOM     30  C   UNL A   1      36.956  23.979  25.396  1.00  0.00     0.023 C 
BRANCH  30  31
ATOM     31  C   UNL A   1      37.957  24.244  26.514  1.00  0.00     0.116 C 
BRANCH  31  32
ATOM     32  N   UNL A   1      39.336  24.337  26.036  1.00  0.00    -0.352 N 
ATOM     33  C   UNL A   1      40.193  25.421  26.126  1.00  0.00     0.251 C 
ATOM     34  H   UNL A   1      39.700  23.534  25.599  1.00  0.00     0.163 HD
ATOM     35  O   UNL A   1      41.124  25.544  25.340  1.00  0.00    -0.269 OA
BRANCH  33  36
ATOM     36  C   UNL A   1      39.965  26.410  27.196  1.00  0.00     0.039 A 
ATOM     37  C   UNL A   1      39.612  26.032  28.493  1.00  0.00     0.014 A 
ATOM     38  C   UNL A   1      40.160  27.752  26.875  1.00  0.00     0.014 A 
ATOM     39  C   UNL A   1      39.549  27.014  29.481  1.00  0.00     0.010 A 
ATOM     40  C   UNL A   1      40.248  28.689  27.872  1.00  0.00     0.010 A 
ATOM     41  C   UNL A   1      39.895  28.341  29.170  1.00  0.00    -0.014 A 
BRANCH  41  42
ATOM     42  C   UNL A   1      40.029  29.359  30.209  1.00  0.00     0.031 A 
ATOM     43  C   UNL A   1      38.777  30.107  30.492  1.00  0.00     0.074 A 
ATOM     44  C   UNL A   1      41.118  29.484  31.003  1.00  0.00     0.049 A 
ATOM     45  N   UNL A   1      38.513  31.327  30.162  1.00  0.00    -0.248 NA
ATOM     46  C   UNL A   1      37.621  29.388  31.049  1.00  0.00     0.031 C 
ATOM     47  C   UNL A   1      42.319  28.645  31.044  1.00  0.00     0.029 A 
ATOM     48  N   UNL A   1      41.334  30.355  32.026  1.00  0.00    -0.354 N 
ATOM     49  C   UNL A   1      37.262  31.612  30.693  1.00  0.00     0.074 A 
ATOM     50  C   UNL A   1      36.682  30.338  31.029  1.00  0.00     0.031 C 
ATOM     51  C   UNL A   1      43.017  28.900  32.175  1.00  0.00     0.029 A 
ATOM     52  C   UNL A   1      42.412  30.035  32.852  1.00  0.00     0.049 A 
ATOM     53  H   UNL A   1      40.773  31.151  32.173  1.00  0.00     0.167 HD
ATOM     54  C   UNL A   1      36.919  32.889  31.025  1.00  0.00     0.034 A 
ATOM     55  C   UNL A   1      42.779  30.652  34.009  1.00  0.00     0.034 A 
ATOM     56  C   UNL A   1      37.868  33.832  30.474  1.00  0.00     0.049 A 
ATOM     57  C   UNL A   1      42.218  32.025  33.942  1.00  0.00     0.074 A 
ATOM     58  C   UNL A   1      38.298  34.139  29.197  1.00  0.00     0.029 A 
ATOM     59  N   UNL A   1      38.837  34.331  31.319  1.00  0.00    -0.354 N 
ATOM     60  N   UNL A   1      42.599  32.904  33.057  1.00  0.00    -0.248 NA
ATOM     61  C   UNL A   1      40.894  32.249  34.504  1.00  0.00     0.031 C 
ATOM     62  C   UNL A   1      39.708  34.320  29.322  1.00  0.00     0.029 A 
ATOM     63  C   UNL A   1      40.045  34.220  30.674  1.00  0.00     0.049 A 
ATOM     64  H   UNL A   1      38.689  34.701  32.219  1.00  0.00     0.167 HD
ATOM     65  C   UNL A   1      41.427  33.500  32.617  1.00  0.00     0.074 A 
ATOM     66  C   UNL A   1      40.420  33.125  33.612  1.00  0.00     0.031 C 
ATOM     67  C   UNL A   1      41.313  33.996  31.348  1.00  0.00     0.034 A 
BRANCH  54  68
ATOM     68  C   UNL A   1      35.961  33.288  32.124  1.00  0.00     0.023 A 
ATOM     69  C   UNL A   1      34.864  34.095  31.759  1.00  0.00     0.031 A 
ATOM     70  C   UNL A   1      36.206  33.176  33.509  1.00  0.00     0.131 A 
ATOM     71  C   UNL A   1      34.144  34.817  32.725  1.00  0.00     0.055 A 
ATOM     72  C   UNL A   1      35.441  33.841  34.472  1.00  0.00     0.041 A 
ATOM     73  F   UNL A   1      37.249  32.502  34.007  1.00  0.00    -0.206 F 
ATOM     74  C   UNL A   1      34.423  34.694  34.082  1.00  0.00     0.022 A 
BRANCH  71  75
ATOM     75  S   UNL A   1      32.951  36.057  32.157  1.00  0.00     0.124 S 
ATOM     76  O   UNL A   1      33.230  37.168  33.059  1.00  0.00    -0.237 OA
ATOM     77  O   UNL A   1      33.348  36.241  30.765  1.00  0.00    -0.237 OA
ATOM     78  O   UNL A   1      31.661  35.400  32.355  1.00  0.00    -0.744 OA
ENDBRANCH  71  75
ENDBRANCH  54  68
BRANCH  55  79
ATOM     79  C   UNL A   1      43.261  30.016  35.274  1.00  0.00     0.023 A 
ATOM     80  C   UNL A   1      42.843  28.733  35.703  1.00  0.00     0.031 A 
ATOM     81  C   UNL A   1      44.366  30.576  35.954  1.00  0.00     0.131 A 
ATOM     82  C   UNL A   1      43.526  28.072  36.755  1.00  0.00     0.055 A 
ATOM     83  C   UNL A   1      45.038  29.915  36.985  1.00  0.00     0.041 A 
ATOM     84  F   UNL A   1      44.889  31.754  35.579  1.00  0.00    -0.206 F 
ATOM     85  C   UNL A   1      44.629  28.654  37.383  1.00  0.00     0.022 A 
BRANCH  82  86
ATOM     86  S   UNL A   1      43.048  26.387  37.273  1.00  0.00     0.124 S 
ATOM     87  O   UNL A   1      43.857  25.551  36.393  1.00  0.00    -0.237 OA
ATOM     88  O   UNL A   1      43.404  26.377  38.688  1.00  0.00    -0.237 OA
ATOM     89  O   UNL A   1      41.609  26.342  37.007  1.00  0.00    -0.744 OA
ENDBRANCH  82  86
ENDBRANCH  55  79
BRANCH  67  90
ATOM     90  C   UNL A   1      42.572  34.152  30.512  1.00  0.00     0.023 A 
ATOM     91  C   UNL A   1      43.021  33.243  29.523  1.00  0.00     0.031 A 
ATOM     92  C   UNL A   1      43.287  35.354  30.658  1.00  0.00     0.131 A 
ATOM     93  C   UNL A   1      44.152  33.555  28.738  1.00  0.00     0.055 A 
ATOM     94  C   UNL A   1      44.387  35.670  29.863  1.00  0.00     0.041 A 
ATOM     95  F   UNL A   1      42.902  36.269  31.565  1.00  0.00    -0.206 F 
ATOM     96  C   UNL A   1      44.828  34.768  28.904  1.00  0.00     0.022 A 
BRANCH  93  97
ATOM     97  S   UNL A   1      44.790  32.376  27.501  1.00  0.00     0.124 S 
ATOM     98  O   UNL A   1      44.208  32.843  26.249  1.00  0.00    -0.237 OA
ATOM     99  O   UNL A   1      46.236  32.532  27.629  1.00  0.00    -0.237 OA
ATOM    100  O   UNL A   1      44.277  31.085  27.966  1.00  0.00    -0.744 OA
ENDBRANCH  93  97
ENDBRANCH  67  90
ENDBRANCH  41  42
ENDBRANCH  33  36
ENDBRANCH  31  32
ENDBRANCH  30  31
ENDBRANCH   1  30
TORSDOF 18
ENDMDL
MODEL 2
REMARK VINA RESULT:     -12.0      2.581      7.047
REMARK SMILES CCc1ccc(S(=O)(=O)c2nnn(-c3ccc(C(=O)NCCCCNC(=O)c4ccc(-c5c6nc(c(-c7cc(S(=O)(=O)[O-])ccc7F)c7ccc([nH]7)c(-c7cc(S(=O)(=O)[O-])ccc7F)c7nc(c(-c8cc(S(=O)(=O)[O-])ccc8F)c8ccc5[nH]8)C=C7)C=C6)cc4)cc3)c2C)cc1
REMARK SMILES IDX 22 1 21 2 20 3 18 4 19 5 17 7 14 8 15 9 92 10 16 11 91 12
REMARK SMILES IDX 13 13 10 14 11 15 93 16 12 17 94 18 7 19 8 20 9 21 6 22 3 23
REMARK SMILES IDX 4 24 96 25 5 26 95 27 2 28 1 29 23 30 24 31 25 32 26 33
REMARK SMILES IDX 27 35 28 36 29 37 90 38 30 39 89 40 31 41 32 42 33 43 83 44
REMARK SMILES IDX 34 45 88 46 82 47 84 48 35 49 87 50 81 51 80 52 36 54 68 55
REMARK SMILES IDX 48 56 67 57 49 58 52 59 66 60 85 61 50 62 51 63 65 65 86 66
REMARK SMILES IDX 53 67 37 68 38 69 46 70 39 71 45 72 47 73 44 74 40 75 41 76
REMARK SMILES IDX 42 77 43 78 69 79 70 80 78 81 71 82 77 83 79 84 76 85 72 86
REMARK SMILES IDX 73 87 74 88 75 89 54 90 55 91 63 92 56 93 62 94 64 95 61 96
REMARK SMILES IDX 57 97 58 98 59 99 60 100
REMARK H PARENT 20 6 25 34 84 53 52 64
REMARK Flexibility Score: inf
ROOT
ATOM      1  C   UNL A   1      38.405  20.852  25.722  1.00  0.00     0.023 C 
ENDROOT
BRANCH   1   2
ATOM      2  C   UNL A   1      37.366  21.120  24.624  1.00  0.00     0.116 C 
BRANCH   2   3
ATOM      3  N   UNL A   1      36.333  20.096  24.611  1.00  0.00    -0.352 N 
ATOM      4  C   UNL A   1      34.994  20.106  24.914  1.00  0.00     0.251 C 
ATOM      5  O   UNL A   1      34.373  19.050  24.783  1.00  0.00    -0.269 OA
ATOM      6  H   UNL A   1      36.663  19.213  24.324  1.00  0.00     0.163 HD
BRANCH   4   7
ATOM      7  C   UNL A   1      34.245  21.327  25.335  1.00  0.00     0.039 A 
ATOM      8  C   UNL A   1      32.942  23.747  25.861  1.00  0.00     0.067 A 
ATOM      9  C   UNL A   1      32.574  23.013  24.734  1.00  0.00     0.029 A 
ATOM     10  C   UNL A   1      33.858  23.232  26.779  1.00  0.00     0.029 A 
ATOM     11  C   UNL A   1      33.255  21.821  24.461  1.00  0.00     0.016 A 
ATOM     12  C   UNL A   1      34.465  22.004  26.534  1.00  0.00     0.016 A 
BRANCH   8  13
ATOM     13  N   UNL A   1      32.448  25.047  26.059  1.00  0.00    -0.216 N 
ATOM     14  C   UNL A   1      32.175  27.199  26.122  1.00  0.00     0.205 A 
ATOM     15  N   UNL A   1      31.182  26.608  26.860  1.00  0.00    -0.117 NA
ATOM     16  C   UNL A   1      32.958  26.220  25.533  1.00  0.00     0.081 A 
ATOM     17  N   UNL A   1      31.312  25.292  26.743  1.00  0.00    -0.061 NA
ATOM     18  C   UNL A   1      33.962  26.271  24.438  1.00  0.00     0.070 C 
BRANCH  14  19
ATOM     19  S   UNL A   1      32.187  28.897  25.799  1.00  0.00     0.227 S 
ATOM     20  O   UNL A   1      33.473  29.129  25.157  1.00  0.00    -0.217 OA
ATOM     21  O   UNL A   1      31.814  29.545  27.034  1.00  0.00    -0.217 OA
BRANCH  19  22
ATOM     22  C   UNL A   1      30.915  29.200  24.602  1.00  0.00     0.073 A 
ATOM     23  C   UNL A   1      28.969  29.769  22.664  1.00  0.00    -0.048 A 
ATOM     24  C   UNL A   1      29.405  30.764  23.556  1.00  0.00     0.005 A 
ATOM     25  C   UNL A   1      29.541  28.495  22.748  1.00  0.00     0.005 A 
ATOM     26  C   UNL A   1      30.377  30.486  24.520  1.00  0.00     0.021 A 
ATOM     27  C   UNL A   1      30.489  28.201  23.726  1.00  0.00     0.021 A 
BRANCH  23  28
ATOM     28  C   UNL A   1      27.951  30.112  21.599  1.00  0.00     0.032 C 
ATOM     29  C   UNL A   1      28.141  31.479  20.949  1.00  0.00     0.009 C 
ENDBRANCH  23  28
ENDBRANCH  19  22
ENDBRANCH  14  19
ENDBRANCH   8  13
ENDBRANCH   4   7
ENDBRANCH   2   3
ENDBRANCH   1   2
BRANCH   1  30
ATOM     30  C   UNL A   1      39.144  22.095  26.240  1.00  0.00     0.023 C 
BRANCH  30  31
ATOM     31  C   UNL A   1      40.214  21.812  27.290  1.00  0.00     0.116 C 
BRANCH  31  32
ATOM     32  N   UNL A   1      41.573  21.893  26.756  1.00  0.00    -0.352 N 
ATOM     33  C   UNL A   1      42.330  23.031  26.534  1.00  0.00     0.251 C 
ATOM     34  H   UNL A   1      42.002  21.037  26.528  1.00  0.00     0.163 HD
ATOM     35  O   UNL A   1      43.237  23.023  25.710  1.00  0.00    -0.269 OA
BRANCH  33  36
ATOM     36  C   UNL A   1      42.027  24.242  27.319  1.00  0.00     0.039 A 
ATOM     37  C   UNL A   1      42.732  24.570  28.479  1.00  0.00     0.014 A 
ATOM     38  C   UNL A   1      41.027  25.081  26.835  1.00  0.00     0.014 A 
ATOM     39  C   UNL A   1      42.482  25.799  29.089  1.00  0.00     0.010 A 
ATOM     40  C   UNL A   1      40.890  26.348  27.343  1.00  0.00     0.010 A 
ATOM     41  C   UNL A   1      41.576  26.698  28.499  1.00  0.00    -0.014 A 
BRANCH  41  42
ATOM     42  C   UNL A   1      41.426  28.064  28.994  1.00  0.00     0.031 A 
ATOM     43  C   UNL A   1      42.377  29.036  28.396  1.00  0.00     0.074 A 
ATOM     44  C   UNL A   1      40.393  28.475  29.764  1.00  0.00     0.049 A 
ATOM     45  N   UNL A   1      43.401  29.571  28.970  1.00  0.00    -0.248 NA
ATOM     46  C   UNL A   1      42.296  29.324  26.955  1.00  0.00     0.031 C 
ATOM     47  C   UNL A   1      39.221  27.711  30.206  1.00  0.00     0.029 A 
ATOM     48  N   UNL A   1      40.125  29.721  30.242  1.00  0.00    -0.354 N 
ATOM     49  C   UNL A   1      43.945  30.458  28.050  1.00  0.00     0.074 A 
ATOM     50  C   UNL A   1      43.366  30.105  26.781  1.00  0.00     0.031 C 
ATOM     51  C   UNL A   1      38.275  28.556  30.678  1.00  0.00     0.029 A 
ATOM     52  C   UNL A   1      38.832  29.897  30.735  1.00  0.00     0.049 A 
ATOM     53  H   UNL A   1      40.792  30.445  30.240  1.00  0.00     0.167 HD
ATOM     54  C   UNL A   1      44.642  31.555  28.465  1.00  0.00     0.034 A 
ATOM     55  C   UNL A   1      38.256  31.057  31.155  1.00  0.00     0.034 A 
ATOM     56  C   UNL A   1      44.959  31.455  29.873  1.00  0.00     0.049 A 
ATOM     57  C   UNL A   1      39.373  31.959  31.534  1.00  0.00     0.074 A 
ATOM     58  C   UNL A   1      45.665  30.551  30.645  1.00  0.00     0.029 A 
ATOM     59  N   UNL A   1      44.168  32.156  30.758  1.00  0.00    -0.354 N 
ATOM     60  N   UNL A   1      40.183  31.706  32.526  1.00  0.00    -0.248 NA
ATOM     61  C   UNL A   1      39.906  32.852  30.515  1.00  0.00     0.031 C 
ATOM     62  C   UNL A   1      44.887  30.403  31.832  1.00  0.00     0.029 A 
ATOM     63  C   UNL A   1      43.815  31.296  31.769  1.00  0.00     0.049 A 
ATOM     64  H   UNL A   1      43.906  33.102  30.680  1.00  0.00     0.167 HD
ATOM     65  C   UNL A   1      41.445  32.014  32.043  1.00  0.00     0.074 A 
ATOM     66  C   UNL A   1      41.203  32.805  30.836  1.00  0.00     0.031 C 
ATOM     67  C   UNL A   1      42.559  31.364  32.498  1.00  0.00     0.034 A 
BRANCH  54  68
ATOM     68  C   UNL A   1      44.734  32.871  27.729  1.00  0.00     0.023 A 
ATOM     69  C   UNL A   1      43.977  33.946  28.238  1.00  0.00     0.031 A 
ATOM     70  C   UNL A   1      45.269  33.055  26.436  1.00  0.00     0.131 A 
ATOM     71  C   UNL A   1      43.697  35.073  27.447  1.00  0.00     0.055 A 
ATOM     72  C   UNL A   1      45.046  34.209  25.679  1.00  0.00     0.041 A 
ATOM     73  F   UNL A   1      45.951  32.101  25.793  1.00  0.00    -0.206 F 
ATOM     74  C   UNL A   1      44.229  35.214  26.169  1.00  0.00     0.022 A 
BRANCH  71  75
ATOM     75  S   UNL A   1      42.478  36.267  28.054  1.00  0.00     0.124 S 
ATOM     76  O   UNL A   1      41.366  35.394  28.414  1.00  0.00    -0.237 OA
ATOM     77  O   UNL A   1      43.193  36.890  29.162  1.00  0.00    -0.237 OA
ATOM     78  O   UNL A   1      42.245  37.130  26.899  1.00  0.00    -0.744 OA
ENDBRANCH  71  75
ENDBRANCH  54  68
BRANCH  55  79
ATOM     79  C   UNL A   1      36.860  31.530  30.907  1.00  0.00     0.023 A 
ATOM     80  C   UNL A   1      36.116  32.276  31.853  1.00  0.00     0.031 A 
ATOM     81  C   UNL A   1      36.329  31.469  29.599  1.00  0.00     0.131 A 
ATOM     82  C   UNL A   1      34.914  32.923  31.470  1.00  0.00     0.055 A 
ATOM     83  C   UNL A   1      35.148  32.115  29.226  1.00  0.00     0.041 A 
ATOM     84  F   UNL A   1      36.991  30.850  28.608  1.00  0.00    -0.206 F 
ATOM     85  C   UNL A   1      34.440  32.856  30.158  1.00  0.00     0.022 A 
BRANCH  82  86
ATOM     86  S   UNL A   1      33.980  33.951  32.656  1.00  0.00     0.124 S 
ATOM     87  O   UNL A   1      33.131  32.967  33.318  1.00  0.00    -0.237 OA
ATOM     88  O   UNL A   1      35.039  34.545  33.464  1.00  0.00    -0.237 OA
ATOM     89  O   UNL A   1      33.264  34.898  31.799  1.00  0.00    -0.744 OA
ENDBRANCH  82  86
ENDBRANCH  55  79
BRANCH  67  90
ATOM     90  C   UNL A   1      42.441  30.502  33.744  1.00  0.00     0.023 A 
ATOM     91  C   UNL A   1      42.386  29.088  33.764  1.00  0.00     0.031 A 
ATOM     92  C   UNL A   1      42.504  31.165  34.983  1.00  0.00     0.131 A 
ATOM     93  C   UNL A   1      42.385  28.398  34.995  1.00  0.00     0.055 A 
ATOM     94  C   UNL A   1      42.529  30.479  36.196  1.00  0.00     0.041 A 
ATOM     95  F   UNL A   1      42.577  32.506  35.035  1.00  0.00    -0.206 F 
ATOM     96  C   UNL A   1      42.463  29.092  36.207  1.00  0.00     0.022 A 
BRANCH  93  97
ATOM     97  S   UNL A   1      42.252  26.580  35.052  1.00  0.00     0.124 S 
ATOM     98  O   UNL A   1      43.110  26.137  33.960  1.00  0.00    -0.237 OA
ATOM     99  O   UNL A   1      42.722  26.268  36.399  1.00  0.00    -0.237 OA
ATOM    100  O   UNL A   1      40.823  26.336  34.838  1.00  0.00    -0.744 OA
ENDBRANCH  93  97
ENDBRANCH  67  90
ENDBRANCH  41  42
ENDBRANCH  33  36
ENDBRANCH  31  32
ENDBRANCH  30  31
ENDBRANCH   1  30
TORSDOF 18
ENDMDL
MODEL 3
REMARK VINA RESULT:     -11.9      4.209     10.606
REMARK SMILES CCc1ccc(S(=O)(=O)c2nnn(-c3ccc(C(=O)NCCCCNC(=O)c4ccc(-c5c6nc(c(-c7cc(S(=O)(=O)[O-])ccc7F)c7ccc([nH]7)c(-c7cc(S(=O)(=O)[O-])ccc7F)c7nc(c(-c8cc(S(=O)(=O)[O-])ccc8F)c8ccc5[nH]8)C=C7)C=C6)cc4)cc3)c2C)cc1
REMARK SMILES IDX 22 1 21 2 20 3 18 4 19 5 17 7 14 8 15 9 92 10 16 11 91 12
REMARK SMILES IDX 13 13 10 14 11 15 93 16 12 17 94 18 7 19 8 20 9 21 6 22 3 23
REMARK SMILES IDX 4 24 96 25 5 26 95 27 2 28 1 29 23 30 24 31 25 32 26 33
REMARK SMILES IDX 27 35 28 36 29 37 90 38 30 39 89 40 31 41 32 42 33 43 83 44
REMARK SMILES IDX 34 45 88 46 82 47 84 48 35 49 87 50 81 51 80 52 36 54 68 55
REMARK SMILES IDX 48 56 67 57 49 58 52 59 66 60 85 61 50 62 51 63 65 65 86 66
REMARK SMILES IDX 53 67 37 68 38 69 46 70 39 71 45 72 47 73 44 74 40 75 41 76
REMARK SMILES IDX 42 77 43 78 69 79 70 80 78 81 71 82 77 83 79 84 76 85 72 86
REMARK SMILES IDX 73 87 74 88 75 89 54 90 55 91 63 92 56 93 62 94 64 95 61 96
REMARK SMILES IDX 57 97 58 98 59 99 60 100
REMARK H PARENT 20 6 25 34 84 53 52 64
REMARK Flexibility Score: inf
ROOT
ATOM      1  C   UNL A   1      35.851  33.019  31.070  1.00  0.00     0.023 C 
ENDROOT
BRANCH   1   2
ATOM      2  C   UNL A   1      34.575  33.861  30.932  1.00  0.00     0.116 C 
BRANCH   2   3
ATOM      3  N   UNL A   1      34.633  34.724  29.764  1.00  0.00    -0.352 N 
ATOM      4  C   UNL A   1      34.203  34.585  28.467  1.00  0.00     0.251 C 
ATOM      5  O   UNL A   1      34.393  35.529  27.700  1.00  0.00    -0.269 OA
ATOM      6  H   UNL A   1      35.071  35.589  29.940  1.00  0.00     0.163 HD
BRANCH   4   7
ATOM      7  C   UNL A   1      33.476  33.385  27.957  1.00  0.00     0.039 A 
ATOM      8  C   UNL A   1      32.337  31.112  26.788  1.00  0.00     0.067 A 
ATOM      9  C   UNL A   1      33.602  31.012  27.366  1.00  0.00     0.029 A 
ATOM     10  C   UNL A   1      31.597  32.289  26.892  1.00  0.00     0.029 A 
ATOM     11  C   UNL A   1      34.178  32.163  27.918  1.00  0.00     0.016 A 
ATOM     12  C   UNL A   1      32.152  33.400  27.519  1.00  0.00     0.016 A 
BRANCH   8  13
ATOM     13  N   UNL A   1      31.813  30.051  26.032  1.00  0.00    -0.216 N 
ATOM     14  C   UNL A   1      31.270  28.100  25.251  1.00  0.00     0.205 A 
ATOM     15  N   UNL A   1      30.905  29.056  24.338  1.00  0.00    -0.117 NA
ATOM     16  C   UNL A   1      31.786  28.713  26.381  1.00  0.00     0.081 A 
ATOM     17  N   UNL A   1      31.166  30.246  24.864  1.00  0.00    -0.061 NA
ATOM     18  C   UNL A   1      32.065  28.207  27.751  1.00  0.00     0.070 C 
BRANCH  14  19
ATOM     19  S   UNL A   1      30.843  26.436  25.054  1.00  0.00     0.227 S 
ATOM     20  O   UNL A   1      30.188  26.387  23.755  1.00  0.00    -0.217 OA
ATOM     21  O   UNL A   1      30.173  26.045  26.271  1.00  0.00    -0.217 OA
BRANCH  19  22
ATOM     22  C   UNL A   1      32.362  25.530  24.936  1.00  0.00     0.073 A 
ATOM     23  C   UNL A   1      34.706  23.996  24.784  1.00  0.00    -0.048 A 
ATOM     24  C   UNL A   1      33.966  24.058  25.977  1.00  0.00     0.005 A 
ATOM     25  C   UNL A   1      34.239  24.697  23.667  1.00  0.00     0.005 A 
ATOM     26  C   UNL A   1      32.795  24.817  26.055  1.00  0.00     0.021 A 
ATOM     27  C   UNL A   1      33.089  25.481  23.745  1.00  0.00     0.021 A 
BRANCH  23  28
ATOM     28  C   UNL A   1      35.942  23.127  24.713  1.00  0.00     0.032 C 
ATOM     29  C   UNL A   1      36.563  23.011  23.325  1.00  0.00     0.009 C 
ENDBRANCH  23  28
ENDBRANCH  19  22
ENDBRANCH  14  19
ENDBRANCH   8  13
ENDBRANCH   4   7
ENDBRANCH   2   3
ENDBRANCH   1   2
BRANCH   1  30
ATOM     30  C   UNL A   1      35.816  31.951  32.173  1.00  0.00     0.023 C 
BRANCH  30  31
ATOM     31  C   UNL A   1      36.533  30.650  31.829  1.00  0.00     0.116 C 
BRANCH  31  32
ATOM     32  N   UNL A   1      35.946  29.960  30.681  1.00  0.00    -0.352 N 
ATOM     33  C   UNL A   1      36.596  29.486  29.554  1.00  0.00     0.251 C 
ATOM     34  H   UNL A   1      34.973  29.815  30.712  1.00  0.00     0.163 HD
ATOM     35  O   UNL A   1      35.986  29.331  28.503  1.00  0.00    -0.269 OA
BRANCH  33  36
ATOM     36  C   UNL A   1      38.031  29.160  29.655  1.00  0.00     0.039 A 
ATOM     37  C   UNL A   1      38.483  27.973  30.233  1.00  0.00     0.014 A 
ATOM     38  C   UNL A   1      38.930  30.071  29.106  1.00  0.00     0.014 A 
ATOM     39  C   UNL A   1      39.844  27.673  30.167  1.00  0.00     0.010 A 
ATOM     40  C   UNL A   1      40.238  29.708  28.906  1.00  0.00     0.010 A 
ATOM     41  C   UNL A   1      40.715  28.535  29.477  1.00  0.00    -0.014 A 
BRANCH  41  42
ATOM     42  C   UNL A   1      42.105  28.167  29.219  1.00  0.00     0.031 A 
ATOM     43  C   UNL A   1      42.268  26.996  28.320  1.00  0.00     0.074 A 
ATOM     44  C   UNL A   1      43.163  28.929  29.580  1.00  0.00     0.049 A 
ATOM     45  N   UNL A   1      42.636  25.806  28.657  1.00  0.00    -0.248 NA
ATOM     46  C   UNL A   1      41.814  27.095  26.924  1.00  0.00     0.031 C 
ATOM     47  C   UNL A   1      43.163  30.248  30.219  1.00  0.00     0.029 A 
ATOM     48  N   UNL A   1      44.488  28.714  29.354  1.00  0.00    -0.354 N 
ATOM     49  C   UNL A   1      42.710  25.072  27.479  1.00  0.00     0.074 A 
ATOM     50  C   UNL A   1      41.994  25.842  26.497  1.00  0.00     0.031 C 
ATOM     51  C   UNL A   1      44.392  30.806  30.118  1.00  0.00     0.029 A 
ATOM     52  C   UNL A   1      45.308  29.823  29.564  1.00  0.00     0.049 A 
ATOM     53  H   UNL A   1      44.843  27.842  29.063  1.00  0.00     0.167 HD
ATOM     54  C   UNL A   1      43.559  24.011  27.370  1.00  0.00     0.034 A 
ATOM     55  C   UNL A   1      46.639  29.931  29.300  1.00  0.00     0.034 A 
ATOM     56  C   UNL A   1      44.068  23.628  28.669  1.00  0.00     0.049 A 
ATOM     57  C   UNL A   1      47.174  28.545  29.297  1.00  0.00     0.074 A 
ATOM     58  C   UNL A   1      43.487  23.210  29.852  1.00  0.00     0.029 A 
ATOM     59  N   UNL A   1      45.334  24.054  29.011  1.00  0.00    -0.354 N 
ATOM     60  N   UNL A   1      47.189  27.789  30.361  1.00  0.00    -0.248 NA
ATOM     61  C   UNL A   1      47.207  27.829  28.031  1.00  0.00     0.031 C 
ATOM     62  C   UNL A   1      44.217  23.888  30.874  1.00  0.00     0.029 A 
ATOM     63  C   UNL A   1      45.263  24.593  30.273  1.00  0.00     0.049 A 
ATOM     64  H   UNL A   1      46.142  23.984  28.453  1.00  0.00     0.167 HD
ATOM     65  C   UNL A   1      46.772  26.543  29.919  1.00  0.00     0.074 A 
ATOM     66  C   UNL A   1      46.890  26.603  28.461  1.00  0.00     0.031 C 
ATOM     67  C   UNL A   1      46.100  25.684  30.744  1.00  0.00     0.034 A 
BRANCH  54  68
ATOM     68  C   UNL A   1      44.220  23.538  26.096  1.00  0.00     0.023 A 
ATOM     69  C   UNL A   1      44.071  22.176  25.762  1.00  0.00     0.031 A 
ATOM     70  C   UNL A   1      45.197  24.245  25.364  1.00  0.00     0.131 A 
ATOM     71  C   UNL A   1      44.927  21.560  24.834  1.00  0.00     0.055 A 
ATOM     72  C   UNL A   1      46.000  23.645  24.390  1.00  0.00     0.041 A 
ATOM     73  F   UNL A   1      45.500  25.525  25.612  1.00  0.00    -0.206 F 
ATOM     74  C   UNL A   1      45.892  22.287  24.142  1.00  0.00     0.022 A 
BRANCH  71  75
ATOM     75  S   UNL A   1      44.874  19.756  24.682  1.00  0.00     0.124 S 
ATOM     76  O   UNL A   1      46.215  19.384  25.117  1.00  0.00    -0.237 OA
ATOM     77  O   UNL A   1      43.782  19.410  25.586  1.00  0.00    -0.237 OA
ATOM     78  O   UNL A   1      44.597  19.545  23.262  1.00  0.00    -0.744 OA
ENDBRANCH  71  75
ENDBRANCH  54  68
BRANCH  55  79
ATOM     79  C   UNL A   1      47.366  31.098  28.713  1.00  0.00     0.023 A 
ATOM     80  C   UNL A   1      46.827  31.908  27.685  1.00  0.00     0.031 A 
ATOM     81  C   UNL A   1      48.520  31.593  29.362  1.00  0.00     0.131 A 
ATOM     82  C   UNL A   1      47.433  33.147  27.357  1.00  0.00     0.055 A 
ATOM     83  C   UNL A   1      49.108  32.819  29.038  1.00  0.00     0.041 A 
ATOM     84  F   UNL A   1      49.069  30.941  30.399  1.00  0.00    -0.206 F 
ATOM     85  C   UNL A   1      48.560  33.608  28.041  1.00  0.00     0.022 A 
BRANCH  82  86
ATOM     86  S   UNL A   1      46.710  34.240  26.084  1.00  0.00     0.124 S 
ATOM     87  O   UNL A   1      46.272  35.386  26.872  1.00  0.00    -0.237 OA
ATOM     88  O   UNL A   1      47.834  34.462  25.181  1.00  0.00    -0.237 OA
ATOM     89  O   UNL A   1      45.625  33.435  25.518  1.00  0.00    -0.744 OA
ENDBRANCH  82  86
ENDBRANCH  55  79
BRANCH  67  90
ATOM     90  C   UNL A   1      46.065  25.982  32.233  1.00  0.00     0.023 A 
ATOM     91  C   UNL A   1      44.948  26.480  32.946  1.00  0.00     0.031 A 
ATOM     92  C   UNL A   1      47.203  25.628  32.979  1.00  0.00     0.131 A 
ATOM     93  C   UNL A   1      45.008  26.616  34.350  1.00  0.00     0.055 A 
ATOM     94  C   UNL A   1      47.249  25.738  34.368  1.00  0.00     0.041 A 
ATOM     95  F   UNL A   1      48.291  25.130  32.367  1.00  0.00    -0.206 F 
ATOM     96  C   UNL A   1      46.154  26.238  35.058  1.00  0.00     0.022 A 
BRANCH  93  97
ATOM     97  S   UNL A   1      43.608  27.313  35.287  1.00  0.00     0.124 S 
ATOM     98  O   UNL A   1      44.088  27.328  36.663  1.00  0.00    -0.237 OA
ATOM     99  O   UNL A   1      43.425  28.620  34.661  1.00  0.00    -0.237 OA
ATOM    100  O   UNL A   1      42.522  26.363  35.033  1.00  0.00    -0.744 OA
ENDBRANCH  93  97
ENDBRANCH  67  90
ENDBRANCH  41  42
ENDBRANCH  33  36
ENDBRANCH  31  32
ENDBRANCH  30  31
ENDBRANCH   1  30
TORSDOF 18
ENDMDL
