MODEL 1
REMARK VINA RESULT:     -11.4      0.000      0.000
REMARK SMILES CC[C@@H](NC(=O)NC1(CC(=O)NCCCCNC(=O)c2ccc(-c3c4nc(c(-c5cc(S(=O)(=O)[O-])ccc5F)c5ccc([nH]5)c(-c5cc(S(=O)(=O)[O-])ccc5F)c5nc(c(-c6cc(S(=O)(=O)[O-])ccc6F)c6ccc3[nH]6)C=C5)C=C4)cc2)CCC1)C(C)C
REMARK SMILES IDX 14 1 13 2 12 3 10 4 11 5 9 7 8 8 83 9 85 10 84 11 7 12 4 13
REMARK SMILES IDX 5 14 6 16 3 18 2 19 1 20 86 21 87 22 88 23 15 24 16 25 17 26
REMARK SMILES IDX 18 27 19 29 20 30 21 31 82 32 22 33 81 34 23 35 24 36 25 37
REMARK SMILES IDX 75 38 26 39 80 40 74 41 76 42 27 43 79 44 73 45 72 46 28 48
REMARK SMILES IDX 60 49 40 50 59 51 41 52 44 53 58 54 77 55 42 56 43 57 57 59
REMARK SMILES IDX 78 60 45 61 29 62 30 63 38 64 31 65 37 66 39 67 36 68 32 69
REMARK SMILES IDX 33 70 34 71 35 72 61 73 62 74 70 75 63 76 69 77 71 78 68 79
REMARK SMILES IDX 64 80 65 81 66 82 67 83 46 84 47 85 55 86 48 87 54 88 56 89
REMARK SMILES IDX 53 90 49 91 50 92 51 93 52 94
REMARK H PARENT 12 6 4 15 7 17 17 28 76 47 44 58
REMARK Flexibility Score: inf
ROOT
ATOM      1  C   UNL A   1      32.435  28.081  23.908  1.00  0.00     0.023 C 
ENDROOT
BRANCH   1   2
ATOM      2  C   UNL A   1      31.716  26.736  23.741  1.00  0.00     0.116 C 
BRANCH   2   3
ATOM      3  N   UNL A   1      31.435  26.048  24.991  1.00  0.00    -0.356 N 
ATOM      4  C   UNL A   1      32.216  25.439  25.920  1.00  0.00     0.222 C 
ATOM      5  O   UNL A   1      31.647  24.953  26.903  1.00  0.00    -0.275 OA
ATOM      6  H   UNL A   1      30.476  26.017  25.210  1.00  0.00     0.163 HD
BRANCH   4   7
ATOM      7  C   UNL A   1      33.724  25.320  25.810  1.00  0.00     0.128 C 
BRANCH   7   8
ATOM      8  C   UNL A   1      34.259  23.983  25.245  1.00  0.00     0.051 C 
ATOM      9  C   UNL A   1      35.819  23.798  25.191  1.00  0.00     0.029 C 
ATOM     10  C   UNL A   1      34.361  24.140  23.698  1.00  0.00     0.029 C 
ATOM     11  C   UNL A   1      35.650  23.317  23.730  1.00  0.00     0.005 C 
BRANCH   8  12
ATOM     12  N   UNL A   1      33.549  22.830  25.961  1.00  0.00    -0.332 N 
ATOM     13  N   UNL A   1      34.147  20.528  25.765  1.00  0.00    -0.335 N 
ATOM     14  C   UNL A   1      33.987  21.659  26.477  1.00  0.00     0.315 C 
ATOM     15  H   UNL A   1      34.793  19.920  26.190  1.00  0.00     0.165 HD
ATOM     16  O   UNL A   1      34.090  21.557  27.704  1.00  0.00    -0.249 OA
ATOM     17  H   UNL A   1      32.580  22.968  26.064  1.00  0.00     0.165 HD
BRANCH  13  18
ATOM     18  C   UNL A   1      33.602  19.958  24.503  1.00  0.00     0.086 C 
BRANCH  18  19
ATOM     19  C   UNL A   1      32.251  20.638  24.214  1.00  0.00     0.022 C 
ATOM     20  C   UNL A   1      32.228  21.305  22.843  1.00  0.00     0.006 C 
ENDBRANCH  18  19
BRANCH  18  21
ATOM     21  C   UNL A   1      33.587  18.433  24.510  1.00  0.00     0.005 C 
ATOM     22  C   UNL A   1      34.894  17.651  24.358  1.00  0.00     0.009 C 
ATOM     23  C   UNL A   1      32.745  17.950  25.695  1.00  0.00     0.009 C 
ENDBRANCH  18  21
ENDBRANCH  13  18
ENDBRANCH   8  12
ENDBRANCH   7   8
ENDBRANCH   4   7
ENDBRANCH   2   3
ENDBRANCH   1   2
BRANCH   1  24
ATOM     24  C   UNL A   1      31.818  29.088  24.892  1.00  0.00     0.023 C 
BRANCH  24  25
ATOM     25  C   UNL A   1      32.788  29.584  25.949  1.00  0.00     0.116 C 
BRANCH  25  26
ATOM     26  N   UNL A   1      32.522  30.950  26.385  1.00  0.00    -0.352 N 
ATOM     27  C   UNL A   1      33.300  31.761  27.183  1.00  0.00     0.251 C 
ATOM     28  H   UNL A   1      31.677  31.344  26.071  1.00  0.00     0.163 HD
ATOM     29  O   UNL A   1      32.894  32.874  27.511  1.00  0.00    -0.269 OA
BRANCH  27  30
ATOM     30  C   UNL A   1      34.589  31.246  27.699  1.00  0.00     0.039 A 
ATOM     31  C   UNL A   1      35.628  32.145  27.955  1.00  0.00     0.014 A 
ATOM     32  C   UNL A   1      34.738  29.896  28.015  1.00  0.00     0.014 A 
ATOM     33  C   UNL A   1      36.776  31.699  28.613  1.00  0.00     0.010 A 
ATOM     34  C   UNL A   1      35.818  29.484  28.782  1.00  0.00     0.010 A 
ATOM     35  C   UNL A   1      36.855  30.377  29.079  1.00  0.00    -0.014 A 
BRANCH  35  36
ATOM     36  C   UNL A   1      38.025  29.889  29.851  1.00  0.00     0.031 A 
ATOM     37  C   UNL A   1      38.195  30.322  31.283  1.00  0.00     0.074 A 
ATOM     38  C   UNL A   1      38.960  29.131  29.241  1.00  0.00     0.049 A 
ATOM     39  N   UNL A   1      39.188  30.100  32.103  1.00  0.00    -0.248 NA
ATOM     40  C   UNL A   1      37.125  31.158  31.858  1.00  0.00     0.031 C 
ATOM     41  C   UNL A   1      38.925  28.709  27.837  1.00  0.00     0.029 A 
ATOM     42  N   UNL A   1      40.127  28.588  29.715  1.00  0.00    -0.354 N 
ATOM     43  C   UNL A   1      38.876  30.789  33.270  1.00  0.00     0.074 A 
ATOM     44  C   UNL A   1      37.638  31.494  33.030  1.00  0.00     0.031 C 
ATOM     45  C   UNL A   1      39.999  27.946  27.577  1.00  0.00     0.029 A 
ATOM     46  C   UNL A   1      40.827  27.865  28.774  1.00  0.00     0.049 A 
ATOM     47  H   UNL A   1      40.435  28.703  30.643  1.00  0.00     0.167 HD
ATOM     48  C   UNL A   1      39.549  30.807  34.445  1.00  0.00     0.034 A 
ATOM     49  C   UNL A   1      42.009  27.224  28.869  1.00  0.00     0.034 A 
ATOM     50  C   UNL A   1      40.756  30.056  34.674  1.00  0.00     0.049 A 
ATOM     51  C   UNL A   1      42.726  27.242  30.198  1.00  0.00     0.074 A 
ATOM     52  C   UNL A   1      41.479  29.926  35.845  1.00  0.00     0.029 A 
ATOM     53  N   UNL A   1      41.418  29.307  33.710  1.00  0.00    -0.354 N 
ATOM     54  N   UNL A   1      42.376  27.839  31.316  1.00  0.00    -0.248 NA
ATOM     55  C   UNL A   1      43.984  26.492  30.285  1.00  0.00     0.031 C 
ATOM     56  C   UNL A   1      42.615  29.160  35.571  1.00  0.00     0.029 A 
ATOM     57  C   UNL A   1      42.558  28.739  34.251  1.00  0.00     0.049 A 
ATOM     58  H   UNL A   1      41.120  29.196  32.777  1.00  0.00     0.167 HD
ATOM     59  C   UNL A   1      43.355  27.502  32.247  1.00  0.00     0.074 A 
ATOM     60  C   UNL A   1      44.294  26.636  31.565  1.00  0.00     0.031 C 
ATOM     61  C   UNL A   1      43.474  27.875  33.548  1.00  0.00     0.034 A 
BRANCH  48  62
ATOM     62  C   UNL A   1      39.005  31.667  35.559  1.00  0.00     0.023 A 
ATOM     63  C   UNL A   1      38.358  31.114  36.678  1.00  0.00     0.031 A 
ATOM     64  C   UNL A   1      39.136  33.066  35.500  1.00  0.00     0.131 A 
ATOM     65  C   UNL A   1      37.817  31.956  37.662  1.00  0.00     0.055 A 
ATOM     66  C   UNL A   1      38.666  33.894  36.521  1.00  0.00     0.041 A 
ATOM     67  F   UNL A   1      39.720  33.652  34.443  1.00  0.00    -0.206 F 
ATOM     68  C   UNL A   1      37.992  33.341  37.606  1.00  0.00     0.022 A 
BRANCH  65  69
ATOM     69  S   UNL A   1      36.782  31.225  38.958  1.00  0.00     0.124 S 
ATOM     70  O   UNL A   1      36.391  29.959  38.343  1.00  0.00    -0.237 OA
ATOM     71  O   UNL A   1      37.704  31.128  40.084  1.00  0.00    -0.237 OA
ATOM     72  O   UNL A   1      35.698  32.192  39.120  1.00  0.00    -0.744 OA
ENDBRANCH  65  69
ENDBRANCH  48  62
BRANCH  49  73
ATOM     73  C   UNL A   1      42.603  26.522  27.691  1.00  0.00     0.023 A 
ATOM     74  C   UNL A   1      42.453  25.135  27.521  1.00  0.00     0.031 A 
ATOM     75  C   UNL A   1      43.391  27.214  26.753  1.00  0.00     0.131 A 
ATOM     76  C   UNL A   1      43.138  24.476  26.488  1.00  0.00     0.055 A 
ATOM     77  C   UNL A   1      44.016  26.562  25.688  1.00  0.00     0.041 A 
ATOM     78  F   UNL A   1      43.568  28.540  26.861  1.00  0.00    -0.206 F 
ATOM     79  C   UNL A   1      43.907  25.181  25.562  1.00  0.00     0.022 A 
BRANCH  76  80
ATOM     80  S   UNL A   1      43.115  22.662  26.453  1.00  0.00     0.124 S 
ATOM     81  O   UNL A   1      42.644  22.345  27.797  1.00  0.00    -0.237 OA
ATOM     82  O   UNL A   1      42.179  22.393  25.366  1.00  0.00    -0.237 OA
ATOM     83  O   UNL A   1      44.506  22.309  26.178  1.00  0.00    -0.744 OA
ENDBRANCH  76  80
ENDBRANCH  49  73
BRANCH  61  84
ATOM     84  C   UNL A   1      44.630  27.296  34.322  1.00  0.00     0.023 A 
ATOM     85  C   UNL A   1      44.506  26.103  35.054  1.00  0.00     0.031 A 
ATOM     86  C   UNL A   1      45.875  27.950  34.323  1.00  0.00     0.131 A 
ATOM     87  C   UNL A   1      45.590  25.634  35.809  1.00  0.00     0.055 A 
ATOM     88  C   UNL A   1      46.971  27.441  35.019  1.00  0.00     0.041 A 
ATOM     89  F   UNL A   1      46.047  29.094  33.641  1.00  0.00    -0.206 F 
ATOM     90  C   UNL A   1      46.828  26.284  35.779  1.00  0.00     0.022 A 
BRANCH  87  91
ATOM     91  S   UNL A   1      45.333  24.217  36.909  1.00  0.00     0.124 S 
ATOM     92  O   UNL A   1      44.607  23.291  36.046  1.00  0.00    -0.237 OA
ATOM     93  O   UNL A   1      46.699  23.833  37.248  1.00  0.00    -0.237 OA
ATOM     94  O   UNL A   1      44.555  24.777  38.013  1.00  0.00    -0.744 OA
ENDBRANCH  87  91
ENDBRANCH  61  84
ENDBRANCH  35  36
ENDBRANCH  27  30
ENDBRANCH  25  26
ENDBRANCH  24  25
ENDBRANCH   1  24
TORSDOF 19
ENDMDL
MODEL 2
REMARK VINA RESULT:     -11.3      0.713      7.550
REMARK SMILES CC[C@@H](NC(=O)NC1(CC(=O)NCCCCNC(=O)c2ccc(-c3c4nc(c(-c5cc(S(=O)(=O)[O-])ccc5F)c5ccc([nH]5)c(-c5cc(S(=O)(=O)[O-])ccc5F)c5nc(c(-c6cc(S(=O)(=O)[O-])ccc6F)c6ccc3[nH]6)C=C5)C=C4)cc2)CCC1)C(C)C
REMARK SMILES IDX 14 1 13 2 12 3 10 4 11 5 9 7 8 8 83 9 85 10 84 11 7 12 4 13
REMARK SMILES IDX 5 14 6 16 3 18 2 19 1 20 86 21 87 22 88 23 15 24 16 25 17 26
REMARK SMILES IDX 18 27 19 29 20 30 21 31 82 32 22 33 81 34 23 35 24 36 25 37
REMARK SMILES IDX 75 38 26 39 80 40 74 41 76 42 27 43 79 44 73 45 72 46 28 48
REMARK SMILES IDX 60 49 40 50 59 51 41 52 44 53 58 54 77 55 42 56 43 57 57 59
REMARK SMILES IDX 78 60 45 61 29 62 30 63 38 64 31 65 37 66 39 67 36 68 32 69
REMARK SMILES IDX 33 70 34 71 35 72 61 73 62 74 70 75 63 76 69 77 71 78 68 79
REMARK SMILES IDX 64 80 65 81 66 82 67 83 46 84 47 85 55 86 48 87 54 88 56 89
REMARK SMILES IDX 53 90 49 91 50 92 51 93 52 94
REMARK H PARENT 12 6 4 15 7 17 17 28 76 47 44 58
REMARK Flexibility Score: inf
ROOT
ATOM      1  C   UNL A   1      32.539  27.975  23.770  1.00  0.00     0.023 C 
ENDROOT
BRANCH   1   2
ATOM      2  C   UNL A   1      31.814  26.627  23.644  1.00  0.00     0.116 C 
BRANCH   2   3
ATOM      3  N   UNL A   1      31.565  25.961  24.912  1.00  0.00    -0.356 N 
ATOM      4  C   UNL A   1      32.370  25.384  25.839  1.00  0.00     0.222 C 
ATOM      5  O   UNL A   1      31.824  24.909  26.841  1.00  0.00    -0.275 OA
ATOM      6  H   UNL A   1      30.609  25.919  25.147  1.00  0.00     0.163 HD
BRANCH   4   7
ATOM      7  C   UNL A   1      33.878  25.287  25.708  1.00  0.00     0.128 C 
BRANCH   7   8
ATOM      8  C   UNL A   1      34.431  23.919  25.242  1.00  0.00     0.051 C 
ATOM      9  C   UNL A   1      35.982  23.695  25.353  1.00  0.00     0.029 C 
ATOM     10  C   UNL A   1      34.693  24.022  23.709  1.00  0.00     0.029 C 
ATOM     11  C   UNL A   1      35.950  23.169  23.899  1.00  0.00     0.005 C 
BRANCH   8  12
ATOM     12  N   UNL A   1      33.620  22.808  25.916  1.00  0.00    -0.332 N 
ATOM     13  N   UNL A   1      34.031  20.472  25.658  1.00  0.00    -0.335 N 
ATOM     14  C   UNL A   1      33.956  21.590  26.402  1.00  0.00     0.315 C 
ATOM     15  H   UNL A   1      34.620  19.800  26.070  1.00  0.00     0.165 HD
ATOM     16  O   UNL A   1      34.035  21.445  27.626  1.00  0.00    -0.249 OA
ATOM     17  H   UNL A   1      32.665  23.022  26.015  1.00  0.00     0.165 HD
BRANCH  13  18
ATOM     18  C   UNL A   1      33.456  19.985  24.375  1.00  0.00     0.086 C 
BRANCH  18  19
ATOM     19  C   UNL A   1      32.155  20.763  24.106  1.00  0.00     0.022 C 
ATOM     20  C   UNL A   1      32.233  21.583  22.823  1.00  0.00     0.006 C 
ENDBRANCH  18  19
BRANCH  18  21
ATOM     21  C   UNL A   1      33.339  18.465  24.326  1.00  0.00     0.005 C 
ATOM     22  C   UNL A   1      32.899  17.688  25.568  1.00  0.00     0.009 C 
ATOM     23  C   UNL A   1      32.554  18.067  23.072  1.00  0.00     0.009 C 
ENDBRANCH  18  21
ENDBRANCH  13  18
ENDBRANCH   8  12
ENDBRANCH   7   8
ENDBRANCH   4   7
ENDBRANCH   2   3
ENDBRANCH   1   2
BRANCH   1  24
ATOM     24  C   UNL A   1      31.915  29.021  24.707  1.00  0.00     0.023 C 
BRANCH  24  25
ATOM     25  C   UNL A   1      32.906  29.648  25.670  1.00  0.00     0.116 C 
BRANCH  25  26
ATOM     26  N   UNL A   1      32.449  30.916  26.229  1.00  0.00    -0.352 N 
ATOM     27  C   UNL A   1      33.085  31.728  27.143  1.00  0.00     0.251 C 
ATOM     28  H   UNL A   1      31.572  31.232  25.915  1.00  0.00     0.163 HD
ATOM     29  O   UNL A   1      32.526  32.739  27.562  1.00  0.00    -0.269 OA
BRANCH  27  30
ATOM     30  C   UNL A   1      34.410  31.326  27.667  1.00  0.00     0.039 A 
ATOM     31  C   UNL A   1      35.389  32.304  27.865  1.00  0.00     0.014 A 
ATOM     32  C   UNL A   1      34.653  30.007  28.048  1.00  0.00     0.014 A 
ATOM     33  C   UNL A   1      36.570  31.969  28.531  1.00  0.00     0.010 A 
ATOM     34  C   UNL A   1      35.764  29.707  28.821  1.00  0.00     0.010 A 
ATOM     35  C   UNL A   1      36.742  30.681  29.061  1.00  0.00    -0.014 A 
BRANCH  35  36
ATOM     36  C   UNL A   1      37.950  30.311  29.841  1.00  0.00     0.031 A 
ATOM     37  C   UNL A   1      38.934  29.334  29.255  1.00  0.00     0.074 A 
ATOM     38  C   UNL A   1      38.110  30.790  31.092  1.00  0.00     0.049 A 
ATOM     39  N   UNL A   1      39.993  28.797  29.801  1.00  0.00    -0.248 NA
ATOM     40  C   UNL A   1      38.666  28.860  27.885  1.00  0.00     0.031 C 
ATOM     41  C   UNL A   1      37.181  31.693  31.780  1.00  0.00     0.029 A 
ATOM     42  N   UNL A   1      39.104  30.581  32.014  1.00  0.00    -0.354 N 
ATOM     43  C   UNL A   1      40.495  27.907  28.858  1.00  0.00     0.074 A 
ATOM     44  C   UNL A   1      39.588  27.922  27.734  1.00  0.00     0.031 C 
ATOM     45  C   UNL A   1      37.667  31.985  32.998  1.00  0.00     0.029 A 
ATOM     46  C   UNL A   1      38.912  31.253  33.202  1.00  0.00     0.049 A 
ATOM     47  H   UNL A   1      39.883  30.004  31.843  1.00  0.00     0.167 HD
ATOM     48  C   UNL A   1      41.628  27.167  28.915  1.00  0.00     0.034 A 
ATOM     49  C   UNL A   1      39.653  31.265  34.327  1.00  0.00     0.034 A 
ATOM     50  C   UNL A   1      42.541  27.207  30.028  1.00  0.00     0.049 A 
ATOM     51  C   UNL A   1      40.922  30.447  34.354  1.00  0.00     0.074 A 
ATOM     52  C   UNL A   1      43.760  26.571  30.162  1.00  0.00     0.029 A 
ATOM     53  N   UNL A   1      42.333  27.926  31.197  1.00  0.00    -0.354 N 
ATOM     54  N   UNL A   1      41.422  29.667  33.420  1.00  0.00    -0.248 NA
ATOM     55  C   UNL A   1      41.736  30.520  35.574  1.00  0.00     0.031 C 
ATOM     56  C   UNL A   1      44.254  26.845  31.440  1.00  0.00     0.029 A 
ATOM     57  C   UNL A   1      43.386  27.723  32.072  1.00  0.00     0.049 A 
ATOM     58  H   UNL A   1      41.551  28.498  31.378  1.00  0.00     0.167 HD
ATOM     59  C   UNL A   1      42.626  29.189  33.930  1.00  0.00     0.074 A 
ATOM     60  C   UNL A   1      42.785  29.783  35.241  1.00  0.00     0.031 C 
ATOM     61  C   UNL A   1      43.520  28.333  33.372  1.00  0.00     0.034 A 
BRANCH  48  62
ATOM     62  C   UNL A   1      41.932  26.250  27.755  1.00  0.00     0.023 A 
ATOM     63  C   UNL A   1      41.516  24.907  27.740  1.00  0.00     0.031 A 
ATOM     64  C   UNL A   1      42.651  26.729  26.646  1.00  0.00     0.131 A 
ATOM     65  C   UNL A   1      41.871  24.076  26.666  1.00  0.00     0.055 A 
ATOM     66  C   UNL A   1      42.933  25.918  25.545  1.00  0.00     0.041 A 
ATOM     67  F   UNL A   1      43.098  27.994  26.617  1.00  0.00    -0.206 F 
ATOM     68  C   UNL A   1      42.552  24.580  25.555  1.00  0.00     0.022 A 
BRANCH  65  69
ATOM     69  S   UNL A   1      41.531  22.300  26.793  1.00  0.00     0.124 S 
ATOM     70  O   UNL A   1      41.905  21.833  25.460  1.00  0.00    -0.237 OA
ATOM     71  O   UNL A   1      42.408  21.886  27.882  1.00  0.00    -0.237 OA
ATOM     72  O   UNL A   1      40.100  22.244  27.087  1.00  0.00    -0.744 OA
ENDBRANCH  65  69
ENDBRANCH  48  62
BRANCH  49  73
ATOM     73  C   UNL A   1      39.229  32.055  35.523  1.00  0.00     0.023 A 
ATOM     74  C   UNL A   1      38.581  31.440  36.607  1.00  0.00     0.031 A 
ATOM     75  C   UNL A   1      39.400  33.451  35.569  1.00  0.00     0.131 A 
ATOM     76  C   UNL A   1      38.065  32.222  37.652  1.00  0.00     0.055 A 
ATOM     77  C   UNL A   1      38.943  34.216  36.645  1.00  0.00     0.041 A 
ATOM     78  F   UNL A   1      40.014  34.094  34.565  1.00  0.00    -0.206 F 
ATOM     79  C   UNL A   1      38.253  33.604  37.686  1.00  0.00     0.022 A 
BRANCH  76  80
ATOM     80  S   UNL A   1      37.025  31.418  38.904  1.00  0.00     0.124 S 
ATOM     81  O   UNL A   1      35.833  32.259  38.884  1.00  0.00    -0.237 OA
ATOM     82  O   UNL A   1      36.871  30.076  38.352  1.00  0.00    -0.237 OA
ATOM     83  O   UNL A   1      37.830  31.503  40.120  1.00  0.00    -0.744 OA
ENDBRANCH  76  80
ENDBRANCH  49  73
BRANCH  61  84
ATOM     84  C   UNL A   1      44.773  28.043  34.159  1.00  0.00     0.023 A 
ATOM     85  C   UNL A   1      44.853  26.955  35.045  1.00  0.00     0.031 A 
ATOM     86  C   UNL A   1      45.901  28.869  34.018  1.00  0.00     0.131 A 
ATOM     87  C   UNL A   1      46.016  26.759  35.802  1.00  0.00     0.055 A 
ATOM     88  C   UNL A   1      47.080  28.628  34.721  1.00  0.00     0.041 A 
ATOM     89  F   UNL A   1      45.877  29.923  33.185  1.00  0.00    -0.206 F 
ATOM     90  C   UNL A   1      47.138  27.576  35.631  1.00  0.00     0.022 A 
BRANCH  87  91
ATOM     91  S   UNL A   1      46.009  25.481  37.087  1.00  0.00     0.124 S 
ATOM     92  O   UNL A   1      46.364  24.286  36.329  1.00  0.00    -0.237 OA
ATOM     93  O   UNL A   1      47.021  25.969  38.018  1.00  0.00    -0.237 OA
ATOM     94  O   UNL A   1      44.637  25.510  37.592  1.00  0.00    -0.744 OA
ENDBRANCH  87  91
ENDBRANCH  61  84
ENDBRANCH  35  36
ENDBRANCH  27  30
ENDBRANCH  25  26
ENDBRANCH  24  25
ENDBRANCH   1  24
TORSDOF 19
ENDMDL
MODEL 3
REMARK VINA RESULT:     -11.3      4.882     10.510
REMARK SMILES CC[C@@H](NC(=O)NC1(CC(=O)NCCCCNC(=O)c2ccc(-c3c4nc(c(-c5cc(S(=O)(=O)[O-])ccc5F)c5ccc([nH]5)c(-c5cc(S(=O)(=O)[O-])ccc5F)c5nc(c(-c6cc(S(=O)(=O)[O-])ccc6F)c6ccc3[nH]6)C=C5)C=C4)cc2)CCC1)C(C)C
REMARK SMILES IDX 14 1 13 2 12 3 10 4 11 5 9 7 8 8 83 9 85 10 84 11 7 12 4 13
REMARK SMILES IDX 5 14 6 16 3 18 2 19 1 20 86 21 87 22 88 23 15 24 16 25 17 26
REMARK SMILES IDX 18 27 19 29 20 30 21 31 82 32 22 33 81 34 23 35 24 36 25 37
REMARK SMILES IDX 75 38 26 39 80 40 74 41 76 42 27 43 79 44 73 45 72 46 28 48
REMARK SMILES IDX 60 49 40 50 59 51 41 52 44 53 58 54 77 55 42 56 43 57 57 59
REMARK SMILES IDX 78 60 45 61 29 62 30 63 38 64 31 65 37 66 39 67 36 68 32 69
REMARK SMILES IDX 33 70 34 71 35 72 61 73 62 74 70 75 63 76 69 77 71 78 68 79
REMARK SMILES IDX 64 80 65 81 66 82 67 83 46 84 47 85 55 86 48 87 54 88 56 89
REMARK SMILES IDX 53 90 49 91 50 92 51 93 52 94
REMARK H PARENT 12 6 4 15 7 17 17 28 76 47 44 58
REMARK Flexibility Score: inf
ROOT
ATOM      1  C   UNL A   1      34.874  21.277  25.826  1.00  0.00     0.023 C 
ENDROOT
BRANCH   1   2
ATOM      2  C   UNL A   1      33.572  20.523  25.521  1.00  0.00     0.116 C 
BRANCH   2   3
ATOM      3  N   UNL A   1      32.374  21.164  26.038  1.00  0.00    -0.356 N 
ATOM      4  C   UNL A   1      31.500  22.067  25.527  1.00  0.00     0.222 C 
ATOM      5  O   UNL A   1      30.551  22.401  26.243  1.00  0.00    -0.275 OA
ATOM      6  H   UNL A   1      32.149  20.883  26.955  1.00  0.00     0.163 HD
BRANCH   4   7
ATOM      7  C   UNL A   1      31.632  22.683  24.146  1.00  0.00     0.128 C 
BRANCH   7   8
ATOM      8  C   UNL A   1      32.227  24.110  24.095  1.00  0.00     0.051 C 
ATOM      9  C   UNL A   1      31.812  25.019  22.883  1.00  0.00     0.029 C 
ATOM     10  C   UNL A   1      33.605  24.011  23.372  1.00  0.00     0.029 C 
ATOM     11  C   UNL A   1      33.310  25.353  22.696  1.00  0.00     0.005 C 
BRANCH   8  12
ATOM     12  N   UNL A   1      31.999  24.785  25.450  1.00  0.00    -0.332 N 
ATOM     13  N   UNL A   1      31.612  27.119  25.763  1.00  0.00    -0.335 N 
ATOM     14  C   UNL A   1      31.232  25.830  25.839  1.00  0.00     0.315 C 
ATOM     15  H   UNL A   1      30.837  27.724  25.734  1.00  0.00     0.165 HD
ATOM     16  O   UNL A   1      30.190  25.597  26.460  1.00  0.00    -0.249 OA
ATOM     17  H   UNL A   1      32.513  24.378  26.184  1.00  0.00     0.165 HD
BRANCH  13  18
ATOM     18  C   UNL A   1      32.896  27.867  25.712  1.00  0.00     0.086 C 
BRANCH  18  19
ATOM     19  C   UNL A   1      33.321  28.192  27.156  1.00  0.00     0.022 C 
ATOM     20  C   UNL A   1      34.394  29.273  27.208  1.00  0.00     0.006 C 
ENDBRANCH  18  19
BRANCH  18  21
ATOM     21  C   UNL A   1      32.844  29.053  24.755  1.00  0.00     0.005 C 
ATOM     22  C   UNL A   1      33.440  28.935  23.351  1.00  0.00     0.009 C 
ATOM     23  C   UNL A   1      31.420  29.621  24.745  1.00  0.00     0.009 C 
ENDBRANCH  18  21
ENDBRANCH  13  18
ENDBRANCH   8  12
ENDBRANCH   7   8
ENDBRANCH   4   7
ENDBRANCH   2   3
ENDBRANCH   1   2
BRANCH   1  24
ATOM     24  C   UNL A   1      35.883  21.427  24.677  1.00  0.00     0.023 C 
BRANCH  24  25
ATOM     25  C   UNL A   1      37.231  21.973  25.113  1.00  0.00     0.116 C 
BRANCH  25  26
ATOM     26  N   UNL A   1      38.209  20.934  25.412  1.00  0.00    -0.352 N 
ATOM     27  C   UNL A   1      39.392  21.047  26.110  1.00  0.00     0.251 C 
ATOM     28  H   UNL A   1      37.999  20.036  25.070  1.00  0.00     0.163 HD
ATOM     29  O   UNL A   1      40.138  20.076  26.217  1.00  0.00    -0.269 OA
BRANCH  27  30
ATOM     30  C   UNL A   1      39.784  22.364  26.660  1.00  0.00     0.039 A 
ATOM     31  C   UNL A   1      40.813  22.429  27.603  1.00  0.00     0.014 A 
ATOM     32  C   UNL A   1      39.202  23.537  26.178  1.00  0.00     0.014 A 
ATOM     33  C   UNL A   1      41.316  23.674  27.987  1.00  0.00     0.010 A 
ATOM     34  C   UNL A   1      39.788  24.761  26.460  1.00  0.00     0.010 A 
ATOM     35  C   UNL A   1      40.843  24.846  27.377  1.00  0.00    -0.014 A 
BRANCH  35  36
ATOM     36  C   UNL A   1      41.407  26.180  27.702  1.00  0.00     0.031 A 
ATOM     37  C   UNL A   1      42.789  26.533  27.218  1.00  0.00     0.074 A 
ATOM     38  C   UNL A   1      40.713  27.026  28.491  1.00  0.00     0.049 A 
ATOM     39  N   UNL A   1      43.510  27.593  27.472  1.00  0.00    -0.248 NA
ATOM     40  C   UNL A   1      43.471  25.539  26.369  1.00  0.00     0.031 C 
ATOM     41  C   UNL A   1      39.392  26.755  29.069  1.00  0.00     0.029 A 
ATOM     42  N   UNL A   1      41.020  28.280  28.954  1.00  0.00    -0.354 N 
ATOM     43  C   UNL A   1      44.732  27.379  26.843  1.00  0.00     0.074 A 
ATOM     44  C   UNL A   1      44.682  26.060  26.255  1.00  0.00     0.031 C 
ATOM     45  C   UNL A   1      38.991  27.823  29.777  1.00  0.00     0.029 A 
ATOM     46  C   UNL A   1      40.042  28.834  29.751  1.00  0.00     0.049 A 
ATOM     47  H   UNL A   1      41.861  28.742  28.736  1.00  0.00     0.167 HD
ATOM     48  C   UNL A   1      45.787  28.220  26.742  1.00  0.00     0.034 A 
ATOM     49  C   UNL A   1      40.007  30.018  30.395  1.00  0.00     0.034 A 
ATOM     50  C   UNL A   1      45.793  29.549  27.296  1.00  0.00     0.049 A 
ATOM     51  C   UNL A   1      41.190  30.945  30.245  1.00  0.00     0.074 A 
ATOM     52  C   UNL A   1      46.767  30.523  27.185  1.00  0.00     0.029 A 
ATOM     53  N   UNL A   1      44.771  30.090  28.066  1.00  0.00    -0.354 N 
ATOM     54  N   UNL A   1      42.310  30.755  29.582  1.00  0.00    -0.248 NA
ATOM     55  C   UNL A   1      41.103  32.249  30.915  1.00  0.00     0.031 C 
ATOM     56  C   UNL A   1      46.369  31.625  27.947  1.00  0.00     0.029 A 
ATOM     57  C   UNL A   1      45.107  31.373  28.464  1.00  0.00     0.049 A 
ATOM     58  H   UNL A   1      43.932  29.629  28.295  1.00  0.00     0.167 HD
ATOM     59  C   UNL A   1      43.040  31.932  29.727  1.00  0.00     0.074 A 
ATOM     60  C   UNL A   1      42.226  32.829  30.520  1.00  0.00     0.031 C 
ATOM     61  C   UNL A   1      44.272  32.246  29.252  1.00  0.00     0.034 A 
BRANCH  48  62
ATOM     62  C   UNL A   1      47.018  27.727  26.021  1.00  0.00     0.023 A 
ATOM     63  C   UNL A   1      47.228  27.975  24.653  1.00  0.00     0.031 A 
ATOM     64  C   UNL A   1      47.999  26.997  26.715  1.00  0.00     0.131 A 
ATOM     65  C   UNL A   1      48.360  27.448  24.011  1.00  0.00     0.055 A 
ATOM     66  C   UNL A   1      49.161  26.543  26.089  1.00  0.00     0.041 A 
ATOM     67  F   UNL A   1      47.840  26.706  28.016  1.00  0.00    -0.206 F 
ATOM     68  C   UNL A   1      49.342  26.759  24.726  1.00  0.00     0.022 A 
BRANCH  65  69
ATOM     69  S   UNL A   1      48.474  27.578  22.206  1.00  0.00     0.124 S 
ATOM     70  O   UNL A   1      48.649  26.179  21.822  1.00  0.00    -0.237 OA
ATOM     71  O   UNL A   1      47.196  28.182  21.850  1.00  0.00    -0.237 OA
ATOM     72  O   UNL A   1      49.646  28.426  21.996  1.00  0.00    -0.744 OA
ENDBRANCH  65  69
ENDBRANCH  48  62
BRANCH  49  73
ATOM     73  C   UNL A   1      38.838  30.403  31.242  1.00  0.00     0.023 A 
ATOM     74  C   UNL A   1      37.761  31.129  30.707  1.00  0.00     0.031 A 
ATOM     75  C   UNL A   1      38.812  30.114  32.619  1.00  0.00     0.131 A 
ATOM     76  C   UNL A   1      36.744  31.602  31.551  1.00  0.00     0.055 A 
ATOM     77  C   UNL A   1      37.764  30.530  33.442  1.00  0.00     0.041 A 
ATOM     78  F   UNL A   1      39.811  29.421  33.187  1.00  0.00    -0.206 F 
ATOM     79  C   UNL A   1      36.731  31.296  32.913  1.00  0.00     0.022 A 
BRANCH  76  80
ATOM     80  S   UNL A   1      35.507  32.738  30.865  1.00  0.00     0.124 S 
ATOM     81  O   UNL A   1      35.568  32.419  29.443  1.00  0.00    -0.237 OA
ATOM     82  O   UNL A   1      34.295  32.323  31.563  1.00  0.00    -0.237 OA
ATOM     83  O   UNL A   1      36.017  34.058  31.232  1.00  0.00    -0.744 OA
ENDBRANCH  76  80
ENDBRANCH  49  73
BRANCH  61  84
ATOM     84  C   UNL A   1      44.780  33.638  29.534  1.00  0.00     0.023 A 
ATOM     85  C   UNL A   1      44.536  34.706  28.655  1.00  0.00     0.031 A 
ATOM     86  C   UNL A   1      45.517  33.894  30.703  1.00  0.00     0.131 A 
ATOM     87  C   UNL A   1      45.079  35.969  28.927  1.00  0.00     0.055 A 
ATOM     88  C   UNL A   1      45.995  35.169  31.004  1.00  0.00     0.041 A 
ATOM     89  F   UNL A   1      45.780  32.908  31.577  1.00  0.00    -0.206 F 
ATOM     90  C   UNL A   1      45.789  36.213  30.107  1.00  0.00     0.022 A 
BRANCH  87  91
ATOM     91  S   UNL A   1      44.929  37.267  27.671  1.00  0.00     0.124 S 
ATOM     92  O   UNL A   1      46.205  37.962  27.798  1.00  0.00    -0.237 OA
ATOM     93  O   UNL A   1      44.742  36.496  26.447  1.00  0.00    -0.237 OA
ATOM     94  O   UNL A   1      43.760  38.031  28.106  1.00  0.00    -0.744 OA
ENDBRANCH  87  91
ENDBRANCH  61  84
ENDBRANCH  35  36
ENDBRANCH  27  30
ENDBRANCH  25  26
ENDBRANCH  24  25
ENDBRANCH   1  24
TORSDOF 19
ENDMDL
