MODEL 1
REMARK VINA RESULT:     -12.4      0.000      0.000
REMARK SMILES CC1(C)[C@H](C(=O)Nc2ccc(C(F)(F)F)nc2)[C@@H]1C(=O)NCCCCNC(=O)c1ccc(-c2c3nc(c(-c4cc(S(=O)(=O)[O-])ccc4F)c4ccc([nH]4)c(-c4cc(S(=O)(=O)[O-])ccc4F)c4nc(c(-c5cc(S(=O)(=O)[O-])ccc5F)c5ccc2[nH]5)C=C4)C=C3)cc1
REMARK SMILES IDX 23 1 22 2 21 3 19 4 20 5 18 7 1 8 2 9 3 10 4 11 5 12 6 13
REMARK SMILES IDX 7 14 8 16 9 17 17 18 10 19 16 20 11 21 12 22 13 23 14 24
REMARK SMILES IDX 15 25 24 26 25 27 26 28 27 29 28 31 29 32 30 33 91 34 31 35
REMARK SMILES IDX 90 36 32 37 33 38 34 39 84 40 35 41 89 42 83 43 85 44 36 45
REMARK SMILES IDX 88 46 82 47 81 48 37 50 69 51 49 52 68 53 50 54 53 55 67 56
REMARK SMILES IDX 86 57 51 58 52 59 66 61 87 62 54 63 38 64 39 65 47 66 40 67
REMARK SMILES IDX 46 68 48 69 45 70 41 71 42 72 43 73 44 74 70 75 71 76 79 77
REMARK SMILES IDX 72 78 78 79 80 80 77 81 73 82 74 83 75 84 76 85 55 86 56 87
REMARK SMILES IDX 64 88 57 89 63 90 65 91 62 92 58 93 59 94 60 95 61 96
REMARK H PARENT 21 6 7 15 26 30 85 49 53 60
REMARK Flexibility Score: inf
ROOT
ATOM      1  C   UNL A   1      35.730  20.441  24.882  1.00  0.00     0.023 C 
ENDROOT
BRANCH   1   2
ATOM      2  C   UNL A   1      34.357  20.201  25.497  1.00  0.00     0.116 C 
BRANCH   2   3
ATOM      3  N   UNL A   1      34.030  21.111  26.578  1.00  0.00    -0.356 N 
ATOM      4  C   UNL A   1      32.968  21.977  26.646  1.00  0.00     0.224 C 
ATOM      5  O   UNL A   1      32.790  22.680  27.635  1.00  0.00    -0.275 OA
ATOM      6  H   UNL A   1      34.641  21.109  27.350  1.00  0.00     0.163 HD
BRANCH   4   7
ATOM      7  C   UNL A   1      32.136  22.133  25.437  1.00  0.00     0.098 C 
ATOM      8  C   UNL A   1      32.004  22.834  22.928  1.00  0.00     0.013 C 
ATOM      9  C   UNL A   1      32.265  23.230  24.372  1.00  0.00    -0.011 C 
ATOM     10  C   UNL A   1      33.328  24.282  24.458  1.00  0.00     0.013 C 
ATOM     11  C   UNL A   1      31.047  23.161  25.280  1.00  0.00     0.098 C 
BRANCH  11  12
ATOM     12  C   UNL A   1      30.471  24.130  26.272  1.00  0.00     0.228 C 
ATOM     13  O   UNL A   1      29.977  23.627  27.283  1.00  0.00    -0.274 OA
ATOM     14  N   UNL A   1      30.736  25.477  26.319  1.00  0.00    -0.324 N 
ATOM     15  H   UNL A   1      31.077  25.804  27.183  1.00  0.00     0.169 HD
BRANCH  14  16
ATOM     16  C   UNL A   1      30.601  26.456  25.334  1.00  0.00     0.059 A 
ATOM     17  C   UNL A   1      31.384  27.595  25.314  1.00  0.00     0.030 A 
ATOM     18  C   UNL A   1      29.699  26.286  24.295  1.00  0.00     0.137 A 
ATOM     19  C   UNL A   1      31.066  28.627  24.434  1.00  0.00     0.035 A 
ATOM     20  N   UNL A   1      29.354  27.267  23.431  1.00  0.00    -0.250 NA
ATOM     21  C   UNL A   1      29.981  28.471  23.571  1.00  0.00     0.144 A 
BRANCH  21  22
ATOM     22  C   UNL A   1      29.469  29.682  22.802  1.00  0.00     0.433 C 
ATOM     23  F   UNL A   1      29.336  30.793  23.580  1.00  0.00    -0.165 F 
ATOM     24  F   UNL A   1      30.258  30.044  21.750  1.00  0.00    -0.165 F 
ATOM     25  F   UNL A   1      28.227  29.471  22.262  1.00  0.00    -0.165 F 
ENDBRANCH  21  22
ENDBRANCH  14  16
ENDBRANCH  11  12
ENDBRANCH   4   7
ENDBRANCH   2   3
ENDBRANCH   1   2
BRANCH   1  26
ATOM     26  C   UNL A   1      36.140  21.905  24.730  1.00  0.00     0.023 C 
BRANCH  26  27
ATOM     27  C   UNL A   1      37.239  22.396  25.668  1.00  0.00     0.116 C 
BRANCH  27  28
ATOM     28  N   UNL A   1      38.210  21.371  26.010  1.00  0.00    -0.352 N 
ATOM     29  C   UNL A   1      39.487  21.506  26.502  1.00  0.00     0.251 C 
ATOM     30  H   UNL A   1      37.910  20.444  25.867  1.00  0.00     0.163 HD
ATOM     31  O   UNL A   1      40.197  20.508  26.601  1.00  0.00    -0.269 OA
BRANCH  29  32
ATOM     32  C   UNL A   1      40.015  22.838  26.879  1.00  0.00     0.039 A 
ATOM     33  C   UNL A   1      39.564  23.961  26.180  1.00  0.00     0.014 A 
ATOM     34  C   UNL A   1      40.955  22.989  27.901  1.00  0.00     0.014 A 
ATOM     35  C   UNL A   1      40.019  25.234  26.537  1.00  0.00     0.010 A 
ATOM     36  C   UNL A   1      41.339  24.265  28.314  1.00  0.00     0.010 A 
ATOM     37  C   UNL A   1      40.892  25.402  27.624  1.00  0.00    -0.014 A 
BRANCH  37  38
ATOM     38  C   UNL A   1      41.387  26.752  28.010  1.00  0.00     0.031 A 
ATOM     39  C   UNL A   1      42.799  27.160  27.671  1.00  0.00     0.074 A 
ATOM     40  C   UNL A   1      40.585  27.602  28.682  1.00  0.00     0.049 A 
ATOM     41  N   UNL A   1      43.430  28.274  27.942  1.00  0.00    -0.248 NA
ATOM     42  C   UNL A   1      43.618  26.167  26.959  1.00  0.00     0.031 C 
ATOM     43  C   UNL A   1      39.212  27.315  29.102  1.00  0.00     0.029 A 
ATOM     44  N   UNL A   1      40.805  28.881  29.131  1.00  0.00    -0.354 N 
ATOM     45  C   UNL A   1      44.719  28.113  27.444  1.00  0.00     0.074 A 
ATOM     46  C   UNL A   1      44.800  26.764  26.925  1.00  0.00     0.031 C 
ATOM     47  C   UNL A   1      38.703  28.397  29.713  1.00  0.00     0.029 A 
ATOM     48  C   UNL A   1      39.723  29.440  29.772  1.00  0.00     0.049 A 
ATOM     49  H   UNL A   1      41.659  29.356  29.006  1.00  0.00     0.167 HD
ATOM     50  C   UNL A   1      45.733  29.012  27.395  1.00  0.00     0.034 A 
ATOM     51  C   UNL A   1      39.570  30.651  30.345  1.00  0.00     0.034 A 
ATOM     52  C   UNL A   1      45.636  30.357  27.908  1.00  0.00     0.049 A 
ATOM     53  C   UNL A   1      40.720  31.628  30.300  1.00  0.00     0.074 A 
ATOM     54  C   UNL A   1      46.586  31.362  27.877  1.00  0.00     0.029 A 
ATOM     55  N   UNL A   1      44.522  30.885  28.549  1.00  0.00    -0.354 N 
ATOM     56  N   UNL A   1      41.918  31.475  29.785  1.00  0.00    -0.248 NA
ATOM     57  C   UNL A   1      40.487  32.951  30.896  1.00  0.00     0.031 C 
ATOM     58  C   UNL A   1      46.077  32.469  28.566  1.00  0.00     0.029 A 
ATOM     59  C   UNL A   1      44.773  32.192  28.942  1.00  0.00     0.049 A 
ATOM     60  H   UNL A   1      43.678  30.402  28.704  1.00  0.00     0.167 HD
ATOM     61  C   UNL A   1      42.564  32.698  29.953  1.00  0.00     0.074 A 
ATOM     62  C   UNL A   1      41.618  33.577  30.607  1.00  0.00     0.031 C 
ATOM     63  C   UNL A   1      43.821  33.062  29.593  1.00  0.00     0.034 A 
BRANCH  50  64
ATOM     64  C   UNL A   1      47.040  28.553  26.786  1.00  0.00     0.023 A 
ATOM     65  C   UNL A   1      47.204  28.424  25.394  1.00  0.00     0.031 A 
ATOM     66  C   UNL A   1      48.128  28.207  27.608  1.00  0.00     0.131 A 
ATOM     67  C   UNL A   1      48.390  27.884  24.874  1.00  0.00     0.055 A 
ATOM     68  C   UNL A   1      49.339  27.758  27.077  1.00  0.00     0.041 A 
ATOM     69  F   UNL A   1      48.029  28.286  28.944  1.00  0.00    -0.206 F 
ATOM     70  C   UNL A   1      49.470  27.578  25.703  1.00  0.00     0.022 A 
BRANCH  67  71
ATOM     71  S   UNL A   1      48.438  27.437  23.116  1.00  0.00     0.124 S 
ATOM     72  O   UNL A   1      48.326  25.981  23.180  1.00  0.00    -0.237 OA
ATOM     73  O   UNL A   1      47.282  28.143  22.578  1.00  0.00    -0.237 OA
ATOM     74  O   UNL A   1      49.738  27.934  22.671  1.00  0.00    -0.744 OA
ENDBRANCH  67  71
ENDBRANCH  50  64
BRANCH  51  75
ATOM     75  C   UNL A   1      38.286  31.021  31.011  1.00  0.00     0.023 A 
ATOM     76  C   UNL A   1      37.257  31.663  30.301  1.00  0.00     0.031 A 
ATOM     77  C   UNL A   1      38.089  30.787  32.384  1.00  0.00     0.131 A 
ATOM     78  C   UNL A   1      36.107  32.100  30.977  1.00  0.00     0.055 A 
ATOM     79  C   UNL A   1      36.916  31.168  33.038  1.00  0.00     0.041 A 
ATOM     80  F   UNL A   1      39.036  30.175  33.112  1.00  0.00    -0.206 F 
ATOM     81  C   UNL A   1      35.922  31.844  32.336  1.00  0.00     0.022 A 
BRANCH  78  82
ATOM     82  S   UNL A   1      34.895  33.102  30.071  1.00  0.00     0.124 S 
ATOM     83  O   UNL A   1      33.990  33.510  31.138  1.00  0.00    -0.237 OA
ATOM     84  O   UNL A   1      35.734  34.153  29.504  1.00  0.00    -0.237 OA
ATOM     85  O   UNL A   1      34.335  32.163  29.100  1.00  0.00    -0.744 OA
ENDBRANCH  78  82
ENDBRANCH  51  75
BRANCH  63  86
ATOM     86  C   UNL A   1      44.218  34.502  29.831  1.00  0.00     0.023 A 
ATOM     87  C   UNL A   1      43.916  35.524  28.914  1.00  0.00     0.031 A 
ATOM     88  C   UNL A   1      44.936  34.849  30.990  1.00  0.00     0.131 A 
ATOM     89  C   UNL A   1      44.391  36.826  29.137  1.00  0.00     0.055 A 
ATOM     90  C   UNL A   1      45.341  36.160  31.243  1.00  0.00     0.041 A 
ATOM     91  F   UNL A   1      45.258  33.916  31.901  1.00  0.00    -0.206 F 
ATOM     92  C   UNL A   1      45.085  37.155  30.304  1.00  0.00     0.022 A 
BRANCH  89  93
ATOM     93  S   UNL A   1      44.203  38.059  27.819  1.00  0.00     0.124 S 
ATOM     94  O   UNL A   1      45.560  38.150  27.291  1.00  0.00    -0.237 OA
ATOM     95  O   UNL A   1      43.219  37.431  26.944  1.00  0.00    -0.237 OA
ATOM     96  O   UNL A   1      43.731  39.249  28.527  1.00  0.00    -0.744 OA
ENDBRANCH  89  93
ENDBRANCH  63  86
ENDBRANCH  37  38
ENDBRANCH  29  32
ENDBRANCH  27  28
ENDBRANCH  26  27
ENDBRANCH   1  26
TORSDOF 17
ENDMDL
MODEL 2
REMARK VINA RESULT:     -12.4      5.575     10.685
REMARK SMILES CC1(C)[C@H](C(=O)Nc2ccc(C(F)(F)F)nc2)[C@@H]1C(=O)NCCCCNC(=O)c1ccc(-c2c3nc(c(-c4cc(S(=O)(=O)[O-])ccc4F)c4ccc([nH]4)c(-c4cc(S(=O)(=O)[O-])ccc4F)c4nc(c(-c5cc(S(=O)(=O)[O-])ccc5F)c5ccc2[nH]5)C=C4)C=C3)cc1
REMARK SMILES IDX 23 1 22 2 21 3 19 4 20 5 18 7 1 8 2 9 3 10 4 11 5 12 6 13
REMARK SMILES IDX 7 14 8 16 9 17 17 18 10 19 16 20 11 21 12 22 13 23 14 24
REMARK SMILES IDX 15 25 24 26 25 27 26 28 27 29 28 31 29 32 30 33 91 34 31 35
REMARK SMILES IDX 90 36 32 37 33 38 34 39 84 40 35 41 89 42 83 43 85 44 36 45
REMARK SMILES IDX 88 46 82 47 81 48 37 50 69 51 49 52 68 53 50 54 53 55 67 56
REMARK SMILES IDX 86 57 51 58 52 59 66 61 87 62 54 63 38 64 39 65 47 66 40 67
REMARK SMILES IDX 46 68 48 69 45 70 41 71 42 72 43 73 44 74 70 75 71 76 79 77
REMARK SMILES IDX 72 78 78 79 80 80 77 81 73 82 74 83 75 84 76 85 55 86 56 87
REMARK SMILES IDX 64 88 57 89 63 90 65 91 62 92 58 93 59 94 60 95 61 96
REMARK H PARENT 21 6 7 15 26 30 85 49 53 60
REMARK Flexibility Score: inf
ROOT
ATOM      1  C   UNL A   1      31.420  30.630  25.662  1.00  0.00     0.023 C 
ENDROOT
BRANCH   1   2
ATOM      2  C   UNL A   1      32.547  29.692  26.074  1.00  0.00     0.116 C 
BRANCH   2   3
ATOM      3  N   UNL A   1      33.514  29.439  25.022  1.00  0.00    -0.356 N 
ATOM      4  C   UNL A   1      33.404  28.545  23.987  1.00  0.00     0.224 C 
ATOM      5  O   UNL A   1      34.289  28.445  23.144  1.00  0.00    -0.275 OA
ATOM      6  H   UNL A   1      34.344  29.967  25.056  1.00  0.00     0.163 HD
BRANCH   4   7
ATOM      7  C   UNL A   1      32.256  27.617  24.005  1.00  0.00     0.098 C 
ATOM      8  C   UNL A   1      30.704  26.059  25.408  1.00  0.00     0.013 C 
ATOM      9  C   UNL A   1      32.098  26.374  24.892  1.00  0.00    -0.011 C 
ATOM     10  C   UNL A   1      33.143  25.990  25.893  1.00  0.00     0.013 C 
ATOM     11  C   UNL A   1      32.261  26.245  23.385  1.00  0.00     0.098 C 
BRANCH  11  12
ATOM     12  C   UNL A   1      33.295  25.563  22.537  1.00  0.00     0.228 C 
ATOM     13  O   UNL A   1      33.633  26.168  21.517  1.00  0.00    -0.274 OA
ATOM     14  N   UNL A   1      34.115  24.538  22.946  1.00  0.00    -0.324 N 
ATOM     15  H   UNL A   1      35.078  24.707  22.833  1.00  0.00     0.169 HD
BRANCH  14  16
ATOM     16  C   UNL A   1      33.798  23.297  23.498  1.00  0.00     0.059 A 
ATOM     17  C   UNL A   1      34.591  22.691  24.454  1.00  0.00     0.030 A 
ATOM     18  C   UNL A   1      32.626  22.649  23.140  1.00  0.00     0.137 A 
ATOM     19  C   UNL A   1      34.336  21.370  24.814  1.00  0.00     0.035 A 
ATOM     20  N   UNL A   1      32.350  21.364  23.457  1.00  0.00    -0.250 NA
ATOM     21  C   UNL A   1      33.265  20.700  24.223  1.00  0.00     0.144 A 
BRANCH  21  22
ATOM     22  C   UNL A   1      33.141  19.194  24.408  1.00  0.00     0.433 C 
ATOM     23  F   UNL A   1      32.797  18.838  25.678  1.00  0.00    -0.165 F 
ATOM     24  F   UNL A   1      32.225  18.608  23.585  1.00  0.00    -0.165 F 
ATOM     25  F   UNL A   1      34.318  18.538  24.159  1.00  0.00    -0.165 F 
ENDBRANCH  21  22
ENDBRANCH  14  16
ENDBRANCH  11  12
ENDBRANCH   4   7
ENDBRANCH   2   3
ENDBRANCH   1   2
BRANCH   1  26
ATOM     26  C   UNL A   1      31.316  31.930  26.458  1.00  0.00     0.023 C 
BRANCH  26  27
ATOM     27  C   UNL A   1      32.608  32.432  27.095  1.00  0.00     0.116 C 
BRANCH  27  28
ATOM     28  N   UNL A   1      32.514  33.790  27.603  1.00  0.00    -0.352 N 
ATOM     29  C   UNL A   1      33.281  34.424  28.552  1.00  0.00     0.251 C 
ATOM     30  H   UNL A   1      31.795  34.337  27.210  1.00  0.00     0.163 HD
ATOM     31  O   UNL A   1      32.951  35.543  28.937  1.00  0.00    -0.269 OA
BRANCH  29  32
ATOM     32  C   UNL A   1      34.472  33.757  29.130  1.00  0.00     0.039 A 
ATOM     33  C   UNL A   1      34.282  32.681  30.001  1.00  0.00     0.014 A 
ATOM     34  C   UNL A   1      35.767  34.188  28.832  1.00  0.00     0.014 A 
ATOM     35  C   UNL A   1      35.388  32.012  30.534  1.00  0.00     0.010 A 
ATOM     36  C   UNL A   1      36.867  33.465  29.292  1.00  0.00     0.010 A 
ATOM     37  C   UNL A   1      36.692  32.381  30.165  1.00  0.00    -0.014 A 
BRANCH  37  38
ATOM     38  C   UNL A   1      37.877  31.678  30.731  1.00  0.00     0.031 A 
ATOM     39  C   UNL A   1      38.346  32.000  32.127  1.00  0.00     0.074 A 
ATOM     40  C   UNL A   1      38.547  30.773  29.989  1.00  0.00     0.049 A 
ATOM     41  N   UNL A   1      39.368  31.525  32.791  1.00  0.00    -0.248 NA
ATOM     42  C   UNL A   1      37.578  33.017  32.862  1.00  0.00     0.031 C 
ATOM     43  C   UNL A   1      38.216  30.399  28.612  1.00  0.00     0.029 A 
ATOM     44  N   UNL A   1      39.643  30.000  30.286  1.00  0.00    -0.354 N 
ATOM     45  C   UNL A   1      39.372  32.189  34.013  1.00  0.00     0.074 A 
ATOM     46  C   UNL A   1      38.296  33.156  33.965  1.00  0.00     0.031 C 
ATOM     47  C   UNL A   1      39.067  29.445  28.199  1.00  0.00     0.029 A 
ATOM     48  C   UNL A   1      40.032  29.170  29.260  1.00  0.00     0.049 A 
ATOM     49  H   UNL A   1      40.107  30.036  31.154  1.00  0.00     0.167 HD
ATOM     50  C   UNL A   1      40.176  31.994  35.088  1.00  0.00     0.034 A 
ATOM     51  C   UNL A   1      41.052  28.291  29.181  1.00  0.00     0.034 A 
ATOM     52  C   UNL A   1      41.240  31.020  35.125  1.00  0.00     0.049 A 
ATOM     53  C   UNL A   1      41.950  28.106  30.380  1.00  0.00     0.074 A 
ATOM     54  C   UNL A   1      42.091  30.712  36.172  1.00  0.00     0.029 A 
ATOM     55  N   UNL A   1      41.603  30.197  34.066  1.00  0.00    -0.354 N 
ATOM     56  N   UNL A   1      41.910  28.711  31.545  1.00  0.00    -0.248 NA
ATOM     57  C   UNL A   1      43.015  27.102  30.260  1.00  0.00     0.031 C 
ATOM     58  C   UNL A   1      43.014  29.761  35.723  1.00  0.00     0.029 A 
ATOM     59  C   UNL A   1      42.681  29.402  34.427  1.00  0.00     0.049 A 
ATOM     60  H   UNL A   1      41.160  30.182  33.186  1.00  0.00     0.167 HD
ATOM     61  C   UNL A   1      42.917  28.126  32.311  1.00  0.00     0.074 A 
ATOM     62  C   UNL A   1      43.534  27.116  31.478  1.00  0.00     0.031 C 
ATOM     63  C   UNL A   1      43.290  28.395  33.589  1.00  0.00     0.034 A 
BRANCH  50  64
ATOM     64  C   UNL A   1      39.945  32.873  36.298  1.00  0.00     0.023 A 
ATOM     65  C   UNL A   1      39.142  32.454  37.374  1.00  0.00     0.031 A 
ATOM     66  C   UNL A   1      40.509  34.160  36.363  1.00  0.00     0.131 A 
ATOM     67  C   UNL A   1      38.856  33.342  38.423  1.00  0.00     0.055 A 
ATOM     68  C   UNL A   1      40.295  35.004  37.455  1.00  0.00     0.041 A 
ATOM     69  F   UNL A   1      41.267  34.627  35.359  1.00  0.00    -0.206 F 
ATOM     70  C   UNL A   1      39.450  34.603  38.486  1.00  0.00     0.022 A 
BRANCH  67  71
ATOM     71  S   UNL A   1      37.568  32.883  39.616  1.00  0.00     0.124 S 
ATOM     72  O   UNL A   1      38.104  31.638  40.163  1.00  0.00    -0.237 OA
ATOM     73  O   UNL A   1      37.555  34.024  40.522  1.00  0.00    -0.237 OA
ATOM     74  O   UNL A   1      36.374  32.726  38.788  1.00  0.00    -0.744 OA
ENDBRANCH  67  71
ENDBRANCH  50  64
BRANCH  51  75
ATOM     75  C   UNL A   1      41.288  27.511  27.929  1.00  0.00     0.023 A 
ATOM     76  C   UNL A   1      40.998  26.138  27.861  1.00  0.00     0.031 A 
ATOM     77  C   UNL A   1      41.861  28.118  26.796  1.00  0.00     0.131 A 
ATOM     78  C   UNL A   1      41.335  25.407  26.712  1.00  0.00     0.055 A 
ATOM     79  C   UNL A   1      42.136  27.398  25.632  1.00  0.00     0.041 A 
ATOM     80  F   UNL A   1      42.156  29.427  26.802  1.00  0.00    -0.206 F 
ATOM     81  C   UNL A   1      41.888  26.030  25.591  1.00  0.00     0.022 A 
BRANCH  78  82
ATOM     82  S   UNL A   1      41.133  23.603  26.738  1.00  0.00     0.124 S 
ATOM     83  O   UNL A   1      39.709  23.460  26.459  1.00  0.00    -0.237 OA
ATOM     84  O   UNL A   1      42.040  23.182  25.676  1.00  0.00    -0.237 OA
ATOM     85  O   UNL A   1      41.546  23.235  28.091  1.00  0.00    -0.744 OA
ENDBRANCH  78  82
ENDBRANCH  51  75
BRANCH  63  86
ATOM     86  C   UNL A   1      44.372  27.527  34.189  1.00  0.00     0.023 A 
ATOM     87  C   UNL A   1      44.084  26.326  34.861  1.00  0.00     0.031 A 
ATOM     88  C   UNL A   1      45.719  27.926  34.106  1.00  0.00     0.131 A 
ATOM     89  C   UNL A   1      45.115  25.607  35.484  1.00  0.00     0.055 A 
ATOM     90  C   UNL A   1      46.750  27.168  34.663  1.00  0.00     0.041 A 
ATOM     91  F   UNL A   1      46.058  29.065  33.481  1.00  0.00    -0.206 F 
ATOM     92  C   UNL A   1      46.449  26.010  35.372  1.00  0.00     0.022 A 
BRANCH  89  93
ATOM     93  S   UNL A   1      44.680  24.206  36.551  1.00  0.00     0.124 S 
ATOM     94  O   UNL A   1      43.834  23.405  35.673  1.00  0.00    -0.237 OA
ATOM     95  O   UNL A   1      45.987  23.640  36.869  1.00  0.00    -0.237 OA
ATOM     96  O   UNL A   1      43.988  24.834  37.676  1.00  0.00    -0.744 OA
ENDBRANCH  89  93
ENDBRANCH  63  86
ENDBRANCH  37  38
ENDBRANCH  29  32
ENDBRANCH  27  28
ENDBRANCH  26  27
ENDBRANCH   1  26
TORSDOF 17
ENDMDL
MODEL 3
REMARK VINA RESULT:     -12.4      5.382      7.686
REMARK SMILES CC1(C)[C@H](C(=O)Nc2ccc(C(F)(F)F)nc2)[C@@H]1C(=O)NCCCCNC(=O)c1ccc(-c2c3nc(c(-c4cc(S(=O)(=O)[O-])ccc4F)c4ccc([nH]4)c(-c4cc(S(=O)(=O)[O-])ccc4F)c4nc(c(-c5cc(S(=O)(=O)[O-])ccc5F)c5ccc2[nH]5)C=C4)C=C3)cc1
REMARK SMILES IDX 23 1 22 2 21 3 19 4 20 5 18 7 1 8 2 9 3 10 4 11 5 12 6 13
REMARK SMILES IDX 7 14 8 16 9 17 17 18 10 19 16 20 11 21 12 22 13 23 14 24
REMARK SMILES IDX 15 25 24 26 25 27 26 28 27 29 28 31 29 32 30 33 91 34 31 35
REMARK SMILES IDX 90 36 32 37 33 38 34 39 84 40 35 41 89 42 83 43 85 44 36 45
REMARK SMILES IDX 88 46 82 47 81 48 37 50 69 51 49 52 68 53 50 54 53 55 67 56
REMARK SMILES IDX 86 57 51 58 52 59 66 61 87 62 54 63 38 64 39 65 47 66 40 67
REMARK SMILES IDX 46 68 48 69 45 70 41 71 42 72 43 73 44 74 70 75 71 76 79 77
REMARK SMILES IDX 72 78 78 79 80 80 77 81 73 82 74 83 75 84 76 85 55 86 56 87
REMARK SMILES IDX 64 88 57 89 63 90 65 91 62 92 58 93 59 94 60 95 61 96
REMARK H PARENT 21 6 7 15 26 30 85 49 53 60
REMARK Flexibility Score: inf
ROOT
ATOM      1  C   UNL A   1      33.546  28.037  22.683  1.00  0.00     0.023 C 
ENDROOT
BRANCH   1   2
ATOM      2  C   UNL A   1      33.665  26.518  22.723  1.00  0.00     0.116 C 
BRANCH   2   3
ATOM      3  N   UNL A   1      34.013  25.991  24.030  1.00  0.00    -0.356 N 
ATOM      4  C   UNL A   1      33.211  25.268  24.876  1.00  0.00     0.224 C 
ATOM      5  O   UNL A   1      33.638  24.857  25.950  1.00  0.00    -0.275 OA
ATOM      6  H   UNL A   1      34.927  26.175  24.345  1.00  0.00     0.163 HD
BRANCH   4   7
ATOM      7  C   UNL A   1      31.787  25.126  24.514  1.00  0.00     0.098 C 
ATOM      8  C   UNL A   1      29.435  26.241  24.344  1.00  0.00     0.013 C 
ATOM      9  C   UNL A   1      30.594  25.787  25.216  1.00  0.00    -0.011 C 
ATOM     10  C   UNL A   1      30.785  26.708  26.382  1.00  0.00     0.013 C 
ATOM     11  C   UNL A   1      30.797  24.280  25.269  1.00  0.00     0.098 C 
BRANCH  11  12
ATOM     12  C   UNL A   1      31.000  23.328  26.412  1.00  0.00     0.228 C 
ATOM     13  O   UNL A   1      30.267  23.501  27.387  1.00  0.00    -0.274 OA
ATOM     14  N   UNL A   1      31.658  22.123  26.340  1.00  0.00    -0.324 N 
ATOM     15  H   UNL A   1      31.134  21.345  26.640  1.00  0.00     0.169 HD
BRANCH  14  16
ATOM     16  C   UNL A   1      32.951  21.828  25.907  1.00  0.00     0.059 A 
ATOM     17  C   UNL A   1      33.998  21.635  26.789  1.00  0.00     0.030 A 
ATOM     18  C   UNL A   1      33.217  21.659  24.557  1.00  0.00     0.137 A 
ATOM     19  C   UNL A   1      35.298  21.549  26.296  1.00  0.00     0.035 A 
ATOM     20  N   UNL A   1      34.464  21.586  24.040  1.00  0.00    -0.250 NA
ATOM     21  C   UNL A   1      35.508  21.627  24.919  1.00  0.00     0.144 A 
BRANCH  21  22
ATOM     22  C   UNL A   1      36.928  21.798  24.396  1.00  0.00     0.433 C 
ATOM     23  F   UNL A   1      37.654  22.706  25.107  1.00  0.00    -0.165 F 
ATOM     24  F   UNL A   1      37.657  20.646  24.389  1.00  0.00    -0.165 F 
ATOM     25  F   UNL A   1      36.958  22.249  23.102  1.00  0.00    -0.165 F 
ENDBRANCH  21  22
ENDBRANCH  14  16
ENDBRANCH  11  12
ENDBRANCH   4   7
ENDBRANCH   2   3
ENDBRANCH   1   2
BRANCH   1  26
ATOM     26  C   UNL A   1      32.611  28.655  23.721  1.00  0.00     0.023 C 
BRANCH  26  27
ATOM     27  C   UNL A   1      33.279  29.264  24.949  1.00  0.00     0.116 C 
BRANCH  27  28
ATOM     28  N   UNL A   1      32.552  30.391  25.506  1.00  0.00    -0.352 N 
ATOM     29  C   UNL A   1      32.791  31.104  26.658  1.00  0.00     0.251 C 
ATOM     30  H   UNL A   1      31.772  30.689  24.982  1.00  0.00     0.163 HD
ATOM     31  O   UNL A   1      31.972  31.945  27.020  1.00  0.00    -0.269 OA
BRANCH  29  32
ATOM     32  C   UNL A   1      34.002  30.842  27.470  1.00  0.00     0.039 A 
ATOM     33  C   UNL A   1      34.208  29.554  27.972  1.00  0.00     0.014 A 
ATOM     34  C   UNL A   1      34.925  31.852  27.753  1.00  0.00     0.014 A 
ATOM     35  C   UNL A   1      35.359  29.270  28.713  1.00  0.00     0.010 A 
ATOM     36  C   UNL A   1      36.114  31.546  28.414  1.00  0.00     0.010 A 
ATOM     37  C   UNL A   1      36.336  30.257  28.921  1.00  0.00    -0.014 A 
BRANCH  37  38
ATOM     38  C   UNL A   1      37.564  29.967  29.713  1.00  0.00     0.031 A 
ATOM     39  C   UNL A   1      38.635  29.074  29.139  1.00  0.00     0.074 A 
ATOM     40  C   UNL A   1      37.709  30.479  30.952  1.00  0.00     0.049 A 
ATOM     41  N   UNL A   1      39.760  28.676  29.674  1.00  0.00    -0.248 NA
ATOM     42  C   UNL A   1      38.391  28.535  27.792  1.00  0.00     0.031 C 
ATOM     43  C   UNL A   1      36.729  31.327  31.635  1.00  0.00     0.029 A 
ATOM     44  N   UNL A   1      38.734  30.366  31.857  1.00  0.00    -0.354 N 
ATOM     45  C   UNL A   1      40.352  27.834  28.738  1.00  0.00     0.074 A 
ATOM     46  C   UNL A   1      39.422  27.719  27.635  1.00  0.00     0.031 C 
ATOM     47  C   UNL A   1      37.217  31.684  32.834  1.00  0.00     0.029 A 
ATOM     48  C   UNL A   1      38.522  31.058  33.028  1.00  0.00     0.049 A 
ATOM     49  H   UNL A   1      39.549  29.839  31.685  1.00  0.00     0.167 HD
ATOM     50  C   UNL A   1      41.568  27.235  28.777  1.00  0.00     0.034 A 
ATOM     51  C   UNL A   1      39.287  31.172  34.132  1.00  0.00     0.034 A 
ATOM     52  C   UNL A   1      42.489  27.366  29.880  1.00  0.00     0.049 A 
ATOM     53  C   UNL A   1      40.627  30.477  34.165  1.00  0.00     0.074 A 
ATOM     54  C   UNL A   1      43.760  26.834  30.009  1.00  0.00     0.029 A 
ATOM     55  N   UNL A   1      42.237  28.075  31.048  1.00  0.00    -0.354 N 
ATOM     56  N   UNL A   1      41.191  29.721  33.251  1.00  0.00    -0.248 NA
ATOM     57  C   UNL A   1      41.444  30.671  35.370  1.00  0.00     0.031 C 
ATOM     58  C   UNL A   1      44.244  27.158  31.282  1.00  0.00     0.029 A 
ATOM     59  C   UNL A   1      43.318  27.973  31.911  1.00  0.00     0.049 A 
ATOM     60  H   UNL A   1      41.411  28.577  31.236  1.00  0.00     0.167 HD
ATOM     61  C   UNL A   1      42.447  29.389  33.754  1.00  0.00     0.074 A 
ATOM     62  C   UNL A   1      42.559  30.037  35.044  1.00  0.00     0.031 C 
ATOM     63  C   UNL A   1      43.421  28.625  33.196  1.00  0.00     0.034 A 
BRANCH  50  64
ATOM     64  C   UNL A   1      41.953  26.365  27.601  1.00  0.00     0.023 A 
ATOM     65  C   UNL A   1      41.676  24.985  27.579  1.00  0.00     0.031 A 
ATOM     66  C   UNL A   1      42.634  26.913  26.500  1.00  0.00     0.131 A 
ATOM     67  C   UNL A   1      42.153  24.191  26.525  1.00  0.00     0.055 A 
ATOM     68  C   UNL A   1      43.024  26.131  25.410  1.00  0.00     0.041 A 
ATOM     69  F   UNL A   1      42.947  28.218  26.470  1.00  0.00    -0.206 F 
ATOM     70  C   UNL A   1      42.799  24.759  25.426  1.00  0.00     0.022 A 
BRANCH  67  71
ATOM     71  S   UNL A   1      42.058  22.386  26.692  1.00  0.00     0.124 S 
ATOM     72  O   UNL A   1      40.725  22.111  26.162  1.00  0.00    -0.237 OA
ATOM     73  O   UNL A   1      43.176  21.934  25.874  1.00  0.00    -0.237 OA
ATOM     74  O   UNL A   1      42.205  22.167  28.130  1.00  0.00    -0.744 OA
ENDBRANCH  67  71
ENDBRANCH  50  64
BRANCH  51  75
ATOM     75  C   UNL A   1      38.819  31.973  35.303  1.00  0.00     0.023 A 
ATOM     76  C   UNL A   1      38.314  31.349  36.456  1.00  0.00     0.031 A 
ATOM     77  C   UNL A   1      38.818  33.379  35.263  1.00  0.00     0.131 A 
ATOM     78  C   UNL A   1      37.777  32.125  37.495  1.00  0.00     0.055 A 
ATOM     79  C   UNL A   1      38.340  34.148  36.326  1.00  0.00     0.041 A 
ATOM     80  F   UNL A   1      39.291  34.029  34.188  1.00  0.00    -0.206 F 
ATOM     81  C   UNL A   1      37.800  33.520  37.444  1.00  0.00     0.022 A 
BRANCH  78  82
ATOM     82  S   UNL A   1      36.952  31.282  38.873  1.00  0.00     0.124 S 
ATOM     83  O   UNL A   1      37.928  31.441  39.945  1.00  0.00    -0.237 OA
ATOM     84  O   UNL A   1      35.720  32.055  39.007  1.00  0.00    -0.237 OA
ATOM     85  O   UNL A   1      36.778  29.917  38.382  1.00  0.00    -0.744 OA
ENDBRANCH  78  82
ENDBRANCH  51  75
BRANCH  63  86
ATOM     86  C   UNL A   1      44.727  28.512  33.950  1.00  0.00     0.023 A 
ATOM     87  C   UNL A   1      44.946  27.527  34.928  1.00  0.00     0.031 A 
ATOM     88  C   UNL A   1      45.764  29.430  33.698  1.00  0.00     0.131 A 
ATOM     89  C   UNL A   1      46.139  27.527  35.667  1.00  0.00     0.055 A 
ATOM     90  C   UNL A   1      46.978  29.379  34.383  1.00  0.00     0.041 A 
ATOM     91  F   UNL A   1      45.613  30.397  32.778  1.00  0.00    -0.206 F 
ATOM     92  C   UNL A   1      47.165  28.434  35.387  1.00  0.00     0.022 A 
BRANCH  89  93
ATOM     93  S   UNL A   1      46.286  26.407  37.087  1.00  0.00     0.124 S 
ATOM     94  O   UNL A   1      46.318  25.099  36.440  1.00  0.00    -0.237 OA
ATOM     95  O   UNL A   1      47.535  26.845  37.701  1.00  0.00    -0.237 OA
ATOM     96  O   UNL A   1      45.081  26.684  37.868  1.00  0.00    -0.744 OA
ENDBRANCH  89  93
ENDBRANCH  63  86
ENDBRANCH  37  38
ENDBRANCH  29  32
ENDBRANCH  27  28
ENDBRANCH  26  27
ENDBRANCH   1  26
TORSDOF 17
ENDMDL
