MODEL 1
REMARK VINA RESULT:     -12.1      0.000      0.000
REMARK SMILES O=C(NCCCCNC(=O)c1cccnc1C[N@@H+]1CCC[C@H]1c1ccccn1)c1ccc(-c2c3nc(c(-c4cc(S(=O)(=O)[O-])ccc4F)c4ccc([nH]4)c(-c4cc(S(=O)(=O)[O-])ccc4F)c4nc(c(-c5cc(S(=O)(=O)[O-])ccc5F)c5ccc2[nH]5)C=C4)C=C3)cc1
REMARK SMILES IDX 5 1 4 2 3 3 1 4 2 5 29 7 30 8 91 9 31 10 90 11 32 12 33 13
REMARK SMILES IDX 34 14 84 15 35 16 89 17 83 18 85 19 36 20 88 21 82 22 81 23
REMARK SMILES IDX 37 25 69 26 49 27 68 28 50 29 53 30 67 31 86 32 51 33 52 34
REMARK SMILES IDX 66 36 87 37 54 38 38 39 39 40 47 41 40 42 46 43 48 44 45 45
REMARK SMILES IDX 41 46 42 47 43 48 44 49 70 50 71 51 79 52 72 53 78 54 80 55
REMARK SMILES IDX 77 56 73 57 74 58 75 59 76 60 55 61 56 62 64 63 57 64 63 65
REMARK SMILES IDX 65 66 62 67 58 68 59 69 60 70 61 71 6 72 7 73 8 74 9 75
REMARK SMILES IDX 10 77 11 78 12 79 16 80 13 81 15 82 14 83 17 84 18 85 19 86
REMARK SMILES IDX 22 87 20 89 21 90 23 91 24 92 28 93 25 94 27 95 26 96
REMARK H PARENT 3 6 85 24 53 35 8 76 18 88
REMARK Flexibility Score: inf
ROOT
ATOM      1  C   UNL A   1      31.537  31.741  26.926  1.00  0.00     0.023 C 
ENDROOT
BRANCH   1   2
ATOM      2  C   UNL A   1      32.821  32.487  27.260  1.00  0.00     0.116 C 
BRANCH   2   3
ATOM      3  N   UNL A   1      32.599  33.881  27.617  1.00  0.00    -0.352 N 
ATOM      4  O   UNL A   1      32.820  35.764  28.844  1.00  0.00    -0.269 OA
ATOM      5  C   UNL A   1      33.216  34.629  28.595  1.00  0.00     0.251 C 
ATOM      6  H   UNL A   1      31.915  34.352  27.089  1.00  0.00     0.163 HD
BRANCH   5   7
ATOM      7  C   UNL A   1      34.339  34.042  29.357  1.00  0.00     0.039 A 
ATOM      8  C   UNL A   1      35.656  34.401  29.059  1.00  0.00     0.014 A 
ATOM      9  C   UNL A   1      34.074  33.103  30.356  1.00  0.00     0.014 A 
ATOM     10  C   UNL A   1      36.707  33.708  29.648  1.00  0.00     0.010 A 
ATOM     11  C   UNL A   1      35.134  32.474  31.014  1.00  0.00     0.010 A 
ATOM     12  C   UNL A   1      36.460  32.748  30.642  1.00  0.00    -0.014 A 
BRANCH  12  13
ATOM     13  C   UNL A   1      37.611  32.093  31.316  1.00  0.00     0.031 A 
ATOM     14  C   UNL A   1      38.387  30.993  30.645  1.00  0.00     0.074 A 
ATOM     15  C   UNL A   1      37.968  32.528  32.541  1.00  0.00     0.049 A 
ATOM     16  N   UNL A   1      39.416  30.320  31.093  1.00  0.00    -0.248 NA
ATOM     17  C   UNL A   1      37.945  30.589  29.302  1.00  0.00     0.031 C 
ATOM     18  C   UNL A   1      37.280  33.586  33.289  1.00  0.00     0.029 A 
ATOM     19  N   UNL A   1      38.997  32.156  33.366  1.00  0.00    -0.354 N 
ATOM     20  C   UNL A   1      39.735  29.400  30.101  1.00  0.00     0.074 A 
ATOM     21  C   UNL A   1      38.769  29.584  29.038  1.00  0.00     0.031 C 
ATOM     22  C   UNL A   1      37.932  33.806  34.439  1.00  0.00     0.029 A 
ATOM     23  C   UNL A   1      39.034  32.860  34.548  1.00  0.00     0.049 A 
ATOM     24  H   UNL A   1      39.646  31.453  33.136  1.00  0.00     0.167 HD
ATOM     25  C   UNL A   1      40.744  28.491  30.082  1.00  0.00     0.034 A 
ATOM     26  C   UNL A   1      39.846  32.741  35.615  1.00  0.00     0.034 A 
ATOM     27  C   UNL A   1      41.700  28.329  31.152  1.00  0.00     0.049 A 
ATOM     28  C   UNL A   1      40.937  31.707  35.578  1.00  0.00     0.074 A 
ATOM     29  C   UNL A   1      42.785  27.469  31.218  1.00  0.00     0.029 A 
ATOM     30  N   UNL A   1      41.686  29.034  32.351  1.00  0.00    -0.354 N 
ATOM     31  N   UNL A   1      41.235  30.856  34.624  1.00  0.00    -0.248 NA
ATOM     32  C   UNL A   1      41.801  31.620  36.760  1.00  0.00     0.031 C 
ATOM     33  C   UNL A   1      43.379  27.603  32.478  1.00  0.00     0.029 A 
ATOM     34  C   UNL A   1      42.718  28.604  33.173  1.00  0.00     0.049 A 
ATOM     35  H   UNL A   1      41.037  29.737  32.582  1.00  0.00     0.167 HD
ATOM     36  C   UNL A   1      42.334  30.140  35.086  1.00  0.00     0.074 A 
ATOM     37  C   UNL A   1      42.658  30.677  36.393  1.00  0.00     0.031 C 
ATOM     38  C   UNL A   1      43.014  29.131  34.485  1.00  0.00     0.034 A 
BRANCH  25  39
ATOM     39  C   UNL A   1      40.833  27.566  28.889  1.00  0.00     0.023 A 
ATOM     40  C   UNL A   1      41.802  27.736  27.884  1.00  0.00     0.031 A 
ATOM     41  C   UNL A   1      39.926  26.499  28.753  1.00  0.00     0.131 A 
ATOM     42  C   UNL A   1      41.804  26.891  26.762  1.00  0.00     0.055 A 
ATOM     43  C   UNL A   1      39.980  25.618  27.670  1.00  0.00     0.041 A 
ATOM     44  F   UNL A   1      38.966  26.298  29.669  1.00  0.00    -0.206 F 
ATOM     45  C   UNL A   1      40.914  25.819  26.661  1.00  0.00     0.022 A 
BRANCH  42  46
ATOM     46  S   UNL A   1      42.902  27.291  25.375  1.00  0.00     0.124 S 
ATOM     47  O   UNL A   1      42.945  26.019  24.655  1.00  0.00    -0.237 OA
ATOM     48  O   UNL A   1      42.191  28.376  24.712  1.00  0.00    -0.237 OA
ATOM     49  O   UNL A   1      44.155  27.671  26.026  1.00  0.00    -0.744 OA
ENDBRANCH  42  46
ENDBRANCH  25  39
BRANCH  26  50
ATOM     50  C   UNL A   1      39.628  33.595  36.815  1.00  0.00     0.023 A 
ATOM     51  C   UNL A   1      39.061  33.075  37.986  1.00  0.00     0.031 A 
ATOM     52  C   UNL A   1      39.981  34.957  36.799  1.00  0.00     0.131 A 
ATOM     53  C   UNL A   1      38.831  33.918  39.084  1.00  0.00     0.055 A 
ATOM     54  C   UNL A   1      39.800  35.780  37.911  1.00  0.00     0.041 A 
ATOM     55  F   UNL A   1      40.534  35.503  35.703  1.00  0.00    -0.206 F 
ATOM     56  C   UNL A   1      39.211  35.263  39.060  1.00  0.00     0.022 A 
BRANCH  53  57
ATOM     57  S   UNL A   1      37.962  33.248  40.527  1.00  0.00     0.124 S 
ATOM     58  O   UNL A   1      38.082  34.343  41.483  1.00  0.00    -0.237 OA
ATOM     59  O   UNL A   1      36.626  33.008  39.991  1.00  0.00    -0.237 OA
ATOM     60  O   UNL A   1      38.725  32.046  40.856  1.00  0.00    -0.744 OA
ENDBRANCH  53  57
ENDBRANCH  26  50
BRANCH  38  61
ATOM     61  C   UNL A   1      44.195  28.570  35.237  1.00  0.00     0.023 A 
ATOM     62  C   UNL A   1      44.040  27.577  36.221  1.00  0.00     0.031 A 
ATOM     63  C   UNL A   1      45.490  29.056  34.984  1.00  0.00     0.131 A 
ATOM     64  C   UNL A   1      45.153  27.147  36.959  1.00  0.00     0.055 A 
ATOM     65  C   UNL A   1      46.602  28.580  35.680  1.00  0.00     0.041 A 
ATOM     66  F   UNL A   1      45.694  30.007  34.059  1.00  0.00    -0.206 F 
ATOM     67  C   UNL A   1      46.435  27.630  36.684  1.00  0.00     0.022 A 
BRANCH  64  68
ATOM     68  S   UNL A   1      44.888  26.018  38.354  1.00  0.00     0.124 S 
ATOM     69  O   UNL A   1      43.673  26.558  38.955  1.00  0.00    -0.237 OA
ATOM     70  O   UNL A   1      44.750  24.727  37.688  1.00  0.00    -0.237 OA
ATOM     71  O   UNL A   1      46.099  26.175  39.156  1.00  0.00    -0.744 OA
ENDBRANCH  64  68
ENDBRANCH  38  61
ENDBRANCH  12  13
ENDBRANCH   5   7
ENDBRANCH   2   3
ENDBRANCH   1   2
BRANCH   1  72
ATOM     72  C   UNL A   1      31.662  30.677  25.840  1.00  0.00     0.023 C 
BRANCH  72  73
ATOM     73  C   UNL A   1      32.752  29.638  26.074  1.00  0.00     0.116 C 
BRANCH  73  74
ATOM     74  N   UNL A   1      33.533  29.359  24.878  1.00  0.00    -0.352 N 
ATOM     75  C   UNL A   1      33.249  28.480  23.861  1.00  0.00     0.253 C 
ATOM     76  H   UNL A   1      34.373  29.865  24.785  1.00  0.00     0.163 HD
ATOM     77  O   UNL A   1      34.017  28.314  22.921  1.00  0.00    -0.269 OA
BRANCH  75  78
ATOM     78  C   UNL A   1      31.979  27.743  23.905  1.00  0.00     0.067 A 
ATOM     79  C   UNL A   1      30.869  28.314  23.261  1.00  0.00     0.017 A 
ATOM     80  C   UNL A   1      31.856  26.509  24.549  1.00  0.00     0.107 A 
ATOM     81  C   UNL A   1      29.639  27.678  23.320  1.00  0.00     0.021 A 
ATOM     82  N   UNL A   1      30.640  25.891  24.587  1.00  0.00    -0.254 NA
ATOM     83  C   UNL A   1      29.574  26.482  24.001  1.00  0.00     0.111 A 
BRANCH  80  84
ATOM     84  C   UNL A   1      33.092  25.740  25.042  1.00  0.00     0.321 C 
BRANCH  84  85
ATOM     85  N   UNL A   1      33.851  24.832  24.156  1.00  0.00    -0.322 N 
ATOM     86  C   UNL A   1      33.574  24.823  22.731  1.00  0.00     0.263 C 
ATOM     87  C   UNL A   1      33.947  23.433  24.620  1.00  0.00     0.234 C 
ATOM     88  H   UNL A   1      34.747  25.309  24.254  1.00  0.00     0.349 HD
ATOM     89  C   UNL A   1      32.741  23.574  22.517  1.00  0.00     0.068 C 
ATOM     90  C   UNL A   1      33.318  22.577  23.511  1.00  0.00     0.078 C 
BRANCH  87  91
ATOM     91  C   UNL A   1      35.400  23.045  24.914  1.00  0.00     0.098 A 
ATOM     92  C   UNL A   1      36.297  23.957  25.481  1.00  0.00     0.030 A 
ATOM     93  N   UNL A   1      35.767  21.766  24.650  1.00  0.00    -0.255 NA
ATOM     94  C   UNL A   1      37.585  23.544  25.814  1.00  0.00     0.004 A 
ATOM     95  C   UNL A   1      37.024  21.390  24.986  1.00  0.00     0.111 A 
ATOM     96  C   UNL A   1      37.956  22.231  25.570  1.00  0.00     0.020 A 
ENDBRANCH  87  91
ENDBRANCH  84  85
ENDBRANCH  80  84
ENDBRANCH  75  78
ENDBRANCH  73  74
ENDBRANCH  72  73
ENDBRANCH   1  72
TORSDOF 17
ENDMDL
MODEL 2
REMARK VINA RESULT:     -11.8      4.852      8.370
REMARK SMILES O=C(NCCCCNC(=O)c1cccnc1C[N@@H+]1CCC[C@H]1c1ccccn1)c1ccc(-c2c3nc(c(-c4cc(S(=O)(=O)[O-])ccc4F)c4ccc([nH]4)c(-c4cc(S(=O)(=O)[O-])ccc4F)c4nc(c(-c5cc(S(=O)(=O)[O-])ccc5F)c5ccc2[nH]5)C=C4)C=C3)cc1
REMARK SMILES IDX 5 1 4 2 3 3 1 4 2 5 29 7 30 8 91 9 31 10 90 11 32 12 33 13
REMARK SMILES IDX 34 14 84 15 35 16 89 17 83 18 85 19 36 20 88 21 82 22 81 23
REMARK SMILES IDX 37 25 69 26 49 27 68 28 50 29 53 30 67 31 86 32 51 33 52 34
REMARK SMILES IDX 66 36 87 37 54 38 38 39 39 40 47 41 40 42 46 43 48 44 45 45
REMARK SMILES IDX 41 46 42 47 43 48 44 49 70 50 71 51 79 52 72 53 78 54 80 55
REMARK SMILES IDX 77 56 73 57 74 58 75 59 76 60 55 61 56 62 64 63 57 64 63 65
REMARK SMILES IDX 65 66 62 67 58 68 59 69 60 70 61 71 6 72 7 73 8 74 9 75
REMARK SMILES IDX 10 77 11 78 12 79 16 80 13 81 15 82 14 83 17 84 18 85 19 86
REMARK SMILES IDX 22 87 20 89 21 90 23 91 24 92 28 93 25 94 27 95 26 96
REMARK H PARENT 3 6 85 24 53 35 8 76 18 88
REMARK Flexibility Score: inf
ROOT
ATOM      1  C   UNL A   1      36.645  23.780  24.837  1.00  0.00     0.023 C 
ENDROOT
BRANCH   1   2
ATOM      2  C   UNL A   1      36.943  23.196  26.210  1.00  0.00     0.116 C 
BRANCH   2   3
ATOM      3  N   UNL A   1      37.968  22.161  26.184  1.00  0.00    -0.352 N 
ATOM      4  O   UNL A   1      40.063  21.321  26.226  1.00  0.00    -0.269 OA
ATOM      5  C   UNL A   1      39.320  22.282  26.408  1.00  0.00     0.251 C 
ATOM      6  H   UNL A   1      37.650  21.253  25.977  1.00  0.00     0.163 HD
BRANCH   5   7
ATOM      7  C   UNL A   1      39.871  23.583  26.844  1.00  0.00     0.039 A 
ATOM      8  C   UNL A   1      40.259  23.775  28.171  1.00  0.00     0.014 A 
ATOM      9  C   UNL A   1      39.971  24.628  25.922  1.00  0.00     0.014 A 
ATOM     10  C   UNL A   1      40.595  25.049  28.612  1.00  0.00     0.010 A 
ATOM     11  C   UNL A   1      40.400  25.888  26.349  1.00  0.00     0.010 A 
ATOM     12  C   UNL A   1      40.685  26.117  27.704  1.00  0.00    -0.014 A 
BRANCH  12  13
ATOM     13  C   UNL A   1      41.137  27.446  28.194  1.00  0.00     0.031 A 
ATOM     14  C   UNL A   1      42.593  27.824  28.194  1.00  0.00     0.074 A 
ATOM     15  C   UNL A   1      40.206  28.324  28.614  1.00  0.00     0.049 A 
ATOM     16  N   UNL A   1      43.153  28.941  28.584  1.00  0.00    -0.248 NA
ATOM     17  C   UNL A   1      43.544  26.816  27.703  1.00  0.00     0.031 C 
ATOM     18  C   UNL A   1      38.764  28.058  28.664  1.00  0.00     0.029 A 
ATOM     19  N   UNL A   1      40.319  29.614  29.063  1.00  0.00    -0.354 N 
ATOM     20  C   UNL A   1      44.521  28.767  28.406  1.00  0.00     0.074 A 
ATOM     21  C   UNL A   1      44.706  27.424  27.898  1.00  0.00     0.031 C 
ATOM     22  C   UNL A   1      38.127  29.164  29.073  1.00  0.00     0.029 A 
ATOM     23  C   UNL A   1      39.113  30.190  29.388  1.00  0.00     0.049 A 
ATOM     24  H   UNL A   1      41.181  30.083  29.145  1.00  0.00     0.167 HD
ATOM     25  C   UNL A   1      45.524  29.651  28.642  1.00  0.00     0.034 A 
ATOM     26  C   UNL A   1      38.829  31.398  29.909  1.00  0.00     0.034 A 
ATOM     27  C   UNL A   1      45.314  30.990  29.143  1.00  0.00     0.049 A 
ATOM     28  C   UNL A   1      39.962  32.347  30.186  1.00  0.00     0.074 A 
ATOM     29  C   UNL A   1      46.255  31.980  29.378  1.00  0.00     0.029 A 
ATOM     30  N   UNL A   1      44.082  31.527  29.497  1.00  0.00    -0.354 N 
ATOM     31  N   UNL A   1      41.249  32.172  29.996  1.00  0.00    -0.248 NA
ATOM     32  C   UNL A   1      39.603  33.654  30.746  1.00  0.00     0.031 C 
ATOM     33  C   UNL A   1      45.602  33.084  29.938  1.00  0.00     0.029 A 
ATOM     34  C   UNL A   1      44.243  32.818  29.980  1.00  0.00     0.049 A 
ATOM     35  H   UNL A   1      43.220  31.059  29.416  1.00  0.00     0.167 HD
ATOM     36  C   UNL A   1      41.855  33.357  30.400  1.00  0.00     0.074 A 
ATOM     37  C   UNL A   1      40.788  34.244  30.820  1.00  0.00     0.031 C 
ATOM     38  C   UNL A   1      43.172  33.683  30.421  1.00  0.00     0.034 A 
BRANCH  25  39
ATOM     39  C   UNL A   1      46.943  29.182  28.410  1.00  0.00     0.023 A 
ATOM     40  C   UNL A   1      47.459  28.975  27.119  1.00  0.00     0.031 A 
ATOM     41  C   UNL A   1      47.791  28.930  29.504  1.00  0.00     0.131 A 
ATOM     42  C   UNL A   1      48.762  28.476  26.955  1.00  0.00     0.055 A 
ATOM     43  C   UNL A   1      49.110  28.503  29.333  1.00  0.00     0.041 A 
ATOM     44  F   UNL A   1      47.350  29.089  30.761  1.00  0.00    -0.206 F 
ATOM     45  C   UNL A   1      49.598  28.261  28.053  1.00  0.00     0.022 A 
BRANCH  42  46
ATOM     46  S   UNL A   1      49.304  27.989  25.294  1.00  0.00     0.124 S 
ATOM     47  O   UNL A   1      50.391  28.935  25.049  1.00  0.00    -0.237 OA
ATOM     48  O   UNL A   1      49.698  26.599  25.486  1.00  0.00    -0.237 OA
ATOM     49  O   UNL A   1      48.114  28.192  24.470  1.00  0.00    -0.744 OA
ENDBRANCH  42  46
ENDBRANCH  25  39
BRANCH  26  50
ATOM     50  C   UNL A   1      37.421  31.756  30.235  1.00  0.00     0.023 A 
ATOM     51  C   UNL A   1      36.539  32.217  29.249  1.00  0.00     0.031 A 
ATOM     52  C   UNL A   1      36.941  31.647  31.554  1.00  0.00     0.131 A 
ATOM     53  C   UNL A   1      35.230  32.585  29.600  1.00  0.00     0.055 A 
ATOM     54  C   UNL A   1      35.625  31.962  31.889  1.00  0.00     0.041 A 
ATOM     55  F   UNL A   1      37.745  31.204  32.535  1.00  0.00    -0.206 F 
ATOM     56  C   UNL A   1      34.763  32.446  30.910  1.00  0.00     0.022 A 
BRANCH  53  57
ATOM     57  S   UNL A   1      34.163  33.316  28.330  1.00  0.00     0.124 S 
ATOM     58  O   UNL A   1      33.622  32.130  27.676  1.00  0.00    -0.237 OA
ATOM     59  O   UNL A   1      33.224  34.091  29.134  1.00  0.00    -0.237 OA
ATOM     60  O   UNL A   1      35.089  34.107  27.522  1.00  0.00    -0.744 OA
ENDBRANCH  53  57
ENDBRANCH  26  50
BRANCH  38  61
ATOM     61  C   UNL A   1      43.517  35.074  30.891  1.00  0.00     0.023 A 
ATOM     62  C   UNL A   1      43.555  35.403  32.258  1.00  0.00     0.031 A 
ATOM     63  C   UNL A   1      43.783  36.090  29.957  1.00  0.00     0.131 A 
ATOM     64  C   UNL A   1      43.793  36.729  32.649  1.00  0.00     0.055 A 
ATOM     65  C   UNL A   1      44.079  37.394  30.355  1.00  0.00     0.041 A 
ATOM     66  F   UNL A   1      43.756  35.832  28.639  1.00  0.00    -0.206 F 
ATOM     67  C   UNL A   1      44.070  37.723  31.708  1.00  0.00     0.022 A 
BRANCH  64  68
ATOM     68  S   UNL A   1      43.635  37.159  34.405  1.00  0.00     0.124 S 
ATOM     69  O   UNL A   1      44.983  37.618  34.726  1.00  0.00    -0.237 OA
ATOM     70  O   UNL A   1      42.601  38.188  34.382  1.00  0.00    -0.237 OA
ATOM     71  O   UNL A   1      43.243  35.899  35.032  1.00  0.00    -0.744 OA
ENDBRANCH  64  68
ENDBRANCH  38  61
ENDBRANCH  12  13
ENDBRANCH   5   7
ENDBRANCH   2   3
ENDBRANCH   1   2
BRANCH   1  72
ATOM     72  C   UNL A   1      36.156  22.779  23.794  1.00  0.00     0.023 C 
BRANCH  72  73
ATOM     73  C   UNL A   1      34.649  22.563  23.758  1.00  0.00     0.116 C 
BRANCH  73  74
ATOM     74  N   UNL A   1      33.938  23.642  23.089  1.00  0.00    -0.352 N 
ATOM     75  C   UNL A   1      32.772  24.259  23.471  1.00  0.00     0.253 C 
ATOM     76  H   UNL A   1      34.345  23.972  22.255  1.00  0.00     0.163 HD
ATOM     77  O   UNL A   1      32.257  25.139  22.790  1.00  0.00    -0.269 OA
BRANCH  75  78
ATOM     78  C   UNL A   1      32.149  23.859  24.739  1.00  0.00     0.067 A 
ATOM     79  C   UNL A   1      31.333  22.717  24.735  1.00  0.00     0.017 A 
ATOM     80  C   UNL A   1      32.353  24.569  25.926  1.00  0.00     0.107 A 
ATOM     81  C   UNL A   1      30.684  22.332  25.898  1.00  0.00     0.021 A 
ATOM     82  N   UNL A   1      31.716  24.169  27.064  1.00  0.00    -0.254 NA
ATOM     83  C   UNL A   1      30.897  23.093  27.027  1.00  0.00     0.111 A 
BRANCH  80  84
ATOM     84  C   UNL A   1      33.427  25.664  26.025  1.00  0.00     0.321 C 
BRANCH  84  85
ATOM     85  N   UNL A   1      33.127  27.080  25.731  1.00  0.00    -0.322 N 
ATOM     86  C   UNL A   1      34.113  28.102  26.034  1.00  0.00     0.263 C 
ATOM     87  C   UNL A   1      31.807  27.556  26.196  1.00  0.00     0.234 C 
ATOM     88  H   UNL A   1      33.140  26.986  24.715  1.00  0.00     0.349 HD
ATOM     89  C   UNL A   1      33.607  28.747  27.309  1.00  0.00     0.068 C 
ATOM     90  C   UNL A   1      32.093  28.721  27.156  1.00  0.00     0.078 C 
BRANCH  87  91
ATOM     91  C   UNL A   1      30.918  27.965  25.017  1.00  0.00     0.098 A 
ATOM     92  C   UNL A   1      30.949  29.262  24.497  1.00  0.00     0.030 A 
ATOM     93  N   UNL A   1      30.137  27.002  24.466  1.00  0.00    -0.255 NA
ATOM     94  C   UNL A   1      30.191  29.575  23.371  1.00  0.00     0.004 A 
ATOM     95  C   UNL A   1      29.412  27.331  23.370  1.00  0.00     0.111 A 
ATOM     96  C   UNL A   1      29.412  28.588  22.788  1.00  0.00     0.020 A 
ENDBRANCH  87  91
ENDBRANCH  84  85
ENDBRANCH  80  84
ENDBRANCH  75  78
ENDBRANCH  73  74
ENDBRANCH  72  73
ENDBRANCH   1  72
TORSDOF 17
ENDMDL
MODEL 3
REMARK VINA RESULT:     -11.7      2.438      8.342
REMARK SMILES O=C(NCCCCNC(=O)c1cccnc1C[N@@H+]1CCC[C@H]1c1ccccn1)c1ccc(-c2c3nc(c(-c4cc(S(=O)(=O)[O-])ccc4F)c4ccc([nH]4)c(-c4cc(S(=O)(=O)[O-])ccc4F)c4nc(c(-c5cc(S(=O)(=O)[O-])ccc5F)c5ccc2[nH]5)C=C4)C=C3)cc1
REMARK SMILES IDX 5 1 4 2 3 3 1 4 2 5 29 7 30 8 91 9 31 10 90 11 32 12 33 13
REMARK SMILES IDX 34 14 84 15 35 16 89 17 83 18 85 19 36 20 88 21 82 22 81 23
REMARK SMILES IDX 37 25 69 26 49 27 68 28 50 29 53 30 67 31 86 32 51 33 52 34
REMARK SMILES IDX 66 36 87 37 54 38 38 39 39 40 47 41 40 42 46 43 48 44 45 45
REMARK SMILES IDX 41 46 42 47 43 48 44 49 70 50 71 51 79 52 72 53 78 54 80 55
REMARK SMILES IDX 77 56 73 57 74 58 75 59 76 60 55 61 56 62 64 63 57 64 63 65
REMARK SMILES IDX 65 66 62 67 58 68 59 69 60 70 61 71 6 72 7 73 8 74 9 75
REMARK SMILES IDX 10 77 11 78 12 79 16 80 13 81 15 82 14 83 17 84 18 85 19 86
REMARK SMILES IDX 22 87 20 89 21 90 23 91 24 92 28 93 25 94 27 95 26 96
REMARK H PARENT 3 6 85 24 53 35 8 76 18 88
REMARK Flexibility Score: inf
ROOT
ATOM      1  C   UNL A   1      31.832  28.636  27.251  1.00  0.00     0.023 C 
ENDROOT
BRANCH   1   2
ATOM      2  C   UNL A   1      32.681  29.460  26.293  1.00  0.00     0.116 C 
BRANCH   2   3
ATOM      3  N   UNL A   1      32.472  30.895  26.430  1.00  0.00    -0.352 N 
ATOM      4  O   UNL A   1      32.821  32.968  27.253  1.00  0.00    -0.269 OA
ATOM      5  C   UNL A   1      33.211  31.809  27.147  1.00  0.00     0.251 C 
ATOM      6  H   UNL A   1      31.697  31.261  25.944  1.00  0.00     0.163 HD
BRANCH   5   7
ATOM      7  C   UNL A   1      34.459  31.374  27.809  1.00  0.00     0.039 A 
ATOM      8  C   UNL A   1      34.588  30.065  28.279  1.00  0.00     0.014 A 
ATOM      9  C   UNL A   1      35.497  32.292  27.987  1.00  0.00     0.014 A 
ATOM     10  C   UNL A   1      35.682  29.721  29.062  1.00  0.00     0.010 A 
ATOM     11  C   UNL A   1      36.640  31.914  28.696  1.00  0.00     0.010 A 
ATOM     12  C   UNL A   1      36.728  30.634  29.268  1.00  0.00    -0.014 A 
BRANCH  12  13
ATOM     13  C   UNL A   1      37.926  30.202  30.034  1.00  0.00     0.031 A 
ATOM     14  C   UNL A   1      38.168  30.675  31.441  1.00  0.00     0.074 A 
ATOM     15  C   UNL A   1      38.786  29.346  29.447  1.00  0.00     0.049 A 
ATOM     16  N   UNL A   1      39.159  30.391  32.246  1.00  0.00    -0.248 NA
ATOM     17  C   UNL A   1      37.173  31.594  32.015  1.00  0.00     0.031 C 
ATOM     18  C   UNL A   1      38.653  28.828  28.081  1.00  0.00     0.029 A 
ATOM     19  N   UNL A   1      39.926  28.748  29.917  1.00  0.00    -0.354 N 
ATOM     20  C   UNL A   1      38.923  31.108  33.414  1.00  0.00     0.074 A 
ATOM     21  C   UNL A   1      37.706  31.863  33.199  1.00  0.00     0.031 C 
ATOM     22  C   UNL A   1      39.644  27.958  27.842  1.00  0.00     0.029 A 
ATOM     23  C   UNL A   1      40.524  27.912  29.003  1.00  0.00     0.049 A 
ATOM     24  H   UNL A   1      40.282  28.902  30.822  1.00  0.00     0.167 HD
ATOM     25  C   UNL A   1      39.655  31.127  34.558  1.00  0.00     0.034 A 
ATOM     26  C   UNL A   1      41.669  27.207  29.076  1.00  0.00     0.034 A 
ATOM     27  C   UNL A   1      40.863  30.360  34.752  1.00  0.00     0.049 A 
ATOM     28  C   UNL A   1      42.474  27.269  30.344  1.00  0.00     0.074 A 
ATOM     29  C   UNL A   1      41.658  30.274  35.884  1.00  0.00     0.029 A 
ATOM     30  N   UNL A   1      41.461  29.552  33.791  1.00  0.00    -0.354 N 
ATOM     31  N   UNL A   1      42.227  27.940  31.445  1.00  0.00    -0.248 NA
ATOM     32  C   UNL A   1      43.709  26.479  30.379  1.00  0.00     0.031 C 
ATOM     33  C   UNL A   1      42.768  29.476  35.584  1.00  0.00     0.029 A 
ATOM     34  C   UNL A   1      42.629  28.996  34.291  1.00  0.00     0.049 A 
ATOM     35  H   UNL A   1      41.106  29.398  32.886  1.00  0.00     0.167 HD
ATOM     36  C   UNL A   1      43.271  27.639  32.313  1.00  0.00     0.074 A 
ATOM     37  C   UNL A   1      44.135  26.708  31.613  1.00  0.00     0.031 C 
ATOM     38  C   UNL A   1      43.495  28.089  33.573  1.00  0.00     0.034 A 
BRANCH  25  39
ATOM     39  C   UNL A   1      39.197  32.046  35.669  1.00  0.00     0.023 A 
ATOM     40  C   UNL A   1      39.617  33.385  35.750  1.00  0.00     0.031 A 
ATOM     41  C   UNL A   1      38.329  31.568  36.668  1.00  0.00     0.131 A 
ATOM     42  C   UNL A   1      39.217  34.181  36.836  1.00  0.00     0.055 A 
ATOM     43  C   UNL A   1      37.877  32.385  37.706  1.00  0.00     0.041 A 
ATOM     44  F   UNL A   1      37.910  30.293  36.655  1.00  0.00    -0.206 F 
ATOM     45  C   UNL A   1      38.331  33.696  37.802  1.00  0.00     0.022 A 
BRANCH  42  46
ATOM     46  S   UNL A   1      39.973  35.817  37.041  1.00  0.00     0.124 S 
ATOM     47  O   UNL A   1      39.652  36.453  35.764  1.00  0.00    -0.237 OA
ATOM     48  O   UNL A   1      39.278  36.342  38.209  1.00  0.00    -0.237 OA
ATOM     49  O   UNL A   1      41.390  35.519  37.239  1.00  0.00    -0.744 OA
ENDBRANCH  42  46
ENDBRANCH  25  39
BRANCH  26  50
ATOM     50  C   UNL A   1      42.134  26.421  27.900  1.00  0.00     0.023 A 
ATOM     51  C   UNL A   1      41.777  25.076  27.735  1.00  0.00     0.031 A 
ATOM     52  C   UNL A   1      42.957  27.011  26.923  1.00  0.00     0.131 A 
ATOM     53  C   UNL A   1      42.268  24.353  26.636  1.00  0.00     0.055 A 
ATOM     54  C   UNL A   1      43.400  26.305  25.805  1.00  0.00     0.041 A 
ATOM     55  F   UNL A   1      43.323  28.300  27.031  1.00  0.00    -0.206 F 
ATOM     56  C   UNL A   1      43.064  24.963  25.663  1.00  0.00     0.022 A 
BRANCH  53  57
ATOM     57  S   UNL A   1      41.909  22.579  26.533  1.00  0.00     0.124 S 
ATOM     58  O   UNL A   1      40.451  22.571  26.509  1.00  0.00    -0.237 OA
ATOM     59  O   UNL A   1      42.574  22.208  25.289  1.00  0.00    -0.237 OA
ATOM     60  O   UNL A   1      42.516  22.038  27.747  1.00  0.00    -0.744 OA
ENDBRANCH  53  57
ENDBRANCH  26  50
BRANCH  38  61
ATOM     61  C   UNL A   1      44.716  27.549  34.277  1.00  0.00     0.023 A 
ATOM     62  C   UNL A   1      44.668  26.362  35.030  1.00  0.00     0.031 A 
ATOM     63  C   UNL A   1      45.933  28.248  34.217  1.00  0.00     0.131 A 
ATOM     64  C   UNL A   1      45.801  25.943  35.742  1.00  0.00     0.055 A 
ATOM     65  C   UNL A   1      47.075  27.793  34.879  1.00  0.00     0.041 A 
ATOM     66  F   UNL A   1      46.033  29.389  33.517  1.00  0.00    -0.206 F 
ATOM     67  C   UNL A   1      47.008  26.641  35.659  1.00  0.00     0.022 A 
BRANCH  64  68
ATOM     68  S   UNL A   1      45.650  24.522  36.861  1.00  0.00     0.124 S 
ATOM     69  O   UNL A   1      44.941  25.106  37.996  1.00  0.00    -0.237 OA
ATOM     70  O   UNL A   1      44.891  23.571  36.056  1.00  0.00    -0.237 OA
ATOM     71  O   UNL A   1      47.036  24.144  37.124  1.00  0.00    -0.744 OA
ENDBRANCH  64  68
ENDBRANCH  38  61
ENDBRANCH  12  13
ENDBRANCH   5   7
ENDBRANCH   2   3
ENDBRANCH   1   2
BRANCH   1  72
ATOM     72  C   UNL A   1      31.090  27.461  26.620  1.00  0.00     0.023 C 
BRANCH  72  73
ATOM     73  C   UNL A   1      31.880  26.161  26.545  1.00  0.00     0.116 C 
BRANCH  73  74
ATOM     74  N   UNL A   1      31.031  24.979  26.599  1.00  0.00    -0.352 N 
ATOM     75  C   UNL A   1      31.262  23.740  26.053  1.00  0.00     0.253 C 
ATOM     76  H   UNL A   1      30.184  25.081  27.089  1.00  0.00     0.163 HD
ATOM     77  O   UNL A   1      30.441  22.835  26.143  1.00  0.00    -0.269 OA
BRANCH  75  78
ATOM     78  C   UNL A   1      32.537  23.502  25.366  1.00  0.00     0.067 A 
ATOM     79  C   UNL A   1      33.592  22.954  26.114  1.00  0.00     0.017 A 
ATOM     80  C   UNL A   1      32.720  23.793  24.011  1.00  0.00     0.107 A 
ATOM     81  C   UNL A   1      34.828  22.759  25.519  1.00  0.00     0.021 A 
ATOM     82  N   UNL A   1      33.940  23.585  23.439  1.00  0.00    -0.254 NA
ATOM     83  C   UNL A   1      34.955  23.099  24.190  1.00  0.00     0.111 A 
BRANCH  80  84
ATOM     84  C   UNL A   1      31.531  24.154  23.106  1.00  0.00     0.321 C 
BRANCH  84  85
ATOM     85  N   UNL A   1      31.485  25.421  22.346  1.00  0.00    -0.322 N 
ATOM     86  C   UNL A   1      32.381  25.615  21.221  1.00  0.00     0.263 C 
ATOM     87  C   UNL A   1      31.496  26.650  23.166  1.00  0.00     0.234 C 
ATOM     88  H   UNL A   1      30.564  25.268  21.934  1.00  0.00     0.349 HD
ATOM     89  C   UNL A   1      33.471  26.523  21.758  1.00  0.00     0.068 C 
ATOM     90  C   UNL A   1      32.736  27.441  22.723  1.00  0.00     0.078 C 
BRANCH  87  91
ATOM     91  C   UNL A   1      30.196  27.443  22.994  1.00  0.00     0.098 A 
ATOM     92  C   UNL A   1      29.007  27.037  23.609  1.00  0.00     0.030 A 
ATOM     93  N   UNL A   1      30.257  28.583  22.261  1.00  0.00    -0.255 NA
ATOM     94  C   UNL A   1      27.866  27.828  23.501  1.00  0.00     0.004 A 
ATOM     95  C   UNL A   1      29.134  29.336  22.174  1.00  0.00     0.111 A 
ATOM     96  C   UNL A   1      27.930  29.007  22.776  1.00  0.00     0.020 A 
ENDBRANCH  87  91
ENDBRANCH  84  85
ENDBRANCH  80  84
ENDBRANCH  75  78
ENDBRANCH  73  74
ENDBRANCH  72  73
ENDBRANCH   1  72
TORSDOF 17
ENDMDL
