MODEL 1
REMARK VINA RESULT:     -12.0      0.000      0.000
REMARK SMILES C[C@@H](C(=O)NCCCCNC(=O)c1ccc(-c2c3nc(c(-c4cc(S(=O)(=O)[O-])ccc4F)c4ccc([nH]4)c(-c4cc(S(=O)(=O)[O-])ccc4F)c4nc(c(-c5cc(S(=O)(=O)[O-])ccc5F)c5ccc2[nH]5)C=C4)C=C3)cc1)c1ccc(C[C@H]2CCC[C@H]2O)cc1
REMARK SMILES IDX 7 1 6 2 5 3 3 4 4 5 2 7 1 8 76 9 77 10 88 11 78 12 87 13
REMARK SMILES IDX 79 14 80 15 81 16 82 17 85 18 83 19 84 20 86 21 8 23 9 24
REMARK SMILES IDX 10 25 11 26 12 28 13 29 14 30 75 31 15 32 74 33 16 34 17 35
REMARK SMILES IDX 18 36 68 37 19 38 73 39 67 40 69 41 20 42 72 43 66 44 65 45
REMARK SMILES IDX 21 47 53 48 33 49 52 50 34 51 37 52 51 53 70 54 35 55 36 56
REMARK SMILES IDX 50 58 71 59 38 60 22 61 23 62 31 63 24 64 30 65 32 66 29 67
REMARK SMILES IDX 25 68 26 69 27 70 28 71 54 72 55 73 63 74 56 75 62 76 64 77
REMARK SMILES IDX 61 78 57 79 58 80 59 81 60 82 39 83 40 84 48 85 41 86 47 87
REMARK SMILES IDX 49 88 46 89 42 90 43 91 44 92 45 93
REMARK H PARENT 5 6 86 22 10 27 69 46 37 57
REMARK Flexibility Score: inf
ROOT
ATOM      1  C   UNL A   1      32.082  27.297  26.618  1.00  0.00     0.023 C 
ENDROOT
BRANCH   1   2
ATOM      2  C   UNL A   1      33.199  26.455  26.000  1.00  0.00     0.116 C 
BRANCH   2   3
ATOM      3  N   UNL A   1      32.820  25.061  25.937  1.00  0.00    -0.356 N 
ATOM      4  C   UNL A   1      32.380  24.321  24.880  1.00  0.00     0.227 C 
ATOM      5  O   UNL A   1      32.064  23.154  25.122  1.00  0.00    -0.274 OA
ATOM      6  H   UNL A   1      32.890  24.571  26.789  1.00  0.00     0.163 HD
BRANCH   4   7
ATOM      7  C   UNL A   1      32.352  24.933  23.461  1.00  0.00     0.105 C 
ATOM      8  C   UNL A   1      33.651  25.650  23.079  1.00  0.00     0.023 C 
BRANCH   7   9
ATOM      9  C   UNL A   1      31.194  25.909  23.296  1.00  0.00    -0.036 A 
ATOM     10  C   UNL A   1      31.344  27.058  22.506  1.00  0.00     0.005 A 
ATOM     11  C   UNL A   1      29.971  25.690  23.941  1.00  0.00     0.005 A 
ATOM     12  C   UNL A   1      30.316  27.985  22.397  1.00  0.00     0.004 A 
ATOM     13  C   UNL A   1      28.950  26.641  23.856  1.00  0.00     0.004 A 
ATOM     14  C   UNL A   1      29.137  27.822  23.126  1.00  0.00    -0.048 A 
BRANCH  14  15
ATOM     15  C   UNL A   1      28.128  28.941  23.177  1.00  0.00     0.041 C 
BRANCH  15  16
ATOM     16  C   UNL A   1      28.591  30.316  22.657  1.00  0.00     0.022 C 
ATOM     17  C   UNL A   1      28.172  30.666  21.219  1.00  0.00     0.007 C 
ATOM     18  C   UNL A   1      28.254  31.573  23.477  1.00  0.00     0.117 C 
ATOM     19  C   UNL A   1      28.060  32.191  21.165  1.00  0.00     0.003 C 
ATOM     20  C   UNL A   1      28.581  32.701  22.505  1.00  0.00     0.032 C 
BRANCH  18  21
ATOM     21  O   UNL A   1      26.903  31.705  23.874  1.00  0.00    -0.393 OA
ATOM     22  H   UNL A   1      26.865  31.955  24.810  1.00  0.00     0.210 HD
ENDBRANCH  18  21
ENDBRANCH  15  16
ENDBRANCH  14  15
ENDBRANCH   7   9
ENDBRANCH   4   7
ENDBRANCH   2   3
ENDBRANCH   1   2
BRANCH   1  23
ATOM     23  C   UNL A   1      31.726  28.559  25.830  1.00  0.00     0.023 C 
BRANCH  23  24
ATOM     24  C   UNL A   1      32.867  29.554  25.664  1.00  0.00     0.116 C 
BRANCH  24  25
ATOM     25  N   UNL A   1      32.487  30.905  26.041  1.00  0.00    -0.352 N 
ATOM     26  C   UNL A   1      33.032  31.721  27.002  1.00  0.00     0.251 C 
ATOM     27  H   UNL A   1      31.734  31.288  25.536  1.00  0.00     0.163 HD
ATOM     28  O   UNL A   1      32.464  32.767  27.293  1.00  0.00    -0.269 OA
BRANCH  26  29
ATOM     29  C   UNL A   1      34.277  31.318  27.694  1.00  0.00     0.039 A 
ATOM     30  C   UNL A   1      34.416  29.992  28.106  1.00  0.00     0.014 A 
ATOM     31  C   UNL A   1      35.293  32.242  27.952  1.00  0.00     0.014 A 
ATOM     32  C   UNL A   1      35.586  29.588  28.752  1.00  0.00     0.010 A 
ATOM     33  C   UNL A   1      36.495  31.817  28.511  1.00  0.00     0.010 A 
ATOM     34  C   UNL A   1      36.643  30.492  28.945  1.00  0.00    -0.014 A 
BRANCH  34  35
ATOM     35  C   UNL A   1      37.880  30.076  29.656  1.00  0.00     0.031 A 
ATOM     36  C   UNL A   1      38.141  30.569  31.057  1.00  0.00     0.074 A 
ATOM     37  C   UNL A   1      38.772  29.278  29.040  1.00  0.00     0.049 A 
ATOM     38  N   UNL A   1      39.156  30.324  31.846  1.00  0.00    -0.248 NA
ATOM     39  C   UNL A   1      37.143  31.483  31.634  1.00  0.00     0.031 C 
ATOM     40  C   UNL A   1      38.650  28.771  27.670  1.00  0.00     0.029 A 
ATOM     41  N   UNL A   1      39.956  28.742  29.485  1.00  0.00    -0.354 N 
ATOM     42  C   UNL A   1      38.924  31.062  33.003  1.00  0.00     0.074 A 
ATOM     43  C   UNL A   1      37.713  31.821  32.779  1.00  0.00     0.031 C 
ATOM     44  C   UNL A   1      39.689  27.964  27.405  1.00  0.00     0.029 A 
ATOM     45  C   UNL A   1      40.577  27.929  28.564  1.00  0.00     0.049 A 
ATOM     46  H   UNL A   1      40.326  28.923  30.379  1.00  0.00     0.167 HD
ATOM     47  C   UNL A   1      39.638  31.083  34.156  1.00  0.00     0.034 A 
ATOM     48  C   UNL A   1      41.728  27.233  28.647  1.00  0.00     0.034 A 
ATOM     49  C   UNL A   1      40.837  30.307  34.364  1.00  0.00     0.049 A 
ATOM     50  C   UNL A   1      42.513  27.284  29.935  1.00  0.00     0.074 A 
ATOM     51  C   UNL A   1      41.612  30.210  35.506  1.00  0.00     0.029 A 
ATOM     52  N   UNL A   1      41.440  29.500  33.407  1.00  0.00    -0.354 N 
ATOM     53  N   UNL A   1      42.251  27.941  31.041  1.00  0.00    -0.248 NA
ATOM     54  C   UNL A   1      43.741  26.481  29.989  1.00  0.00     0.031 C 
ATOM     55  C   UNL A   1      42.723  29.411  35.216  1.00  0.00     0.029 A 
ATOM     56  C   UNL A   1      42.593  28.928  33.923  1.00  0.00     0.049 A 
ATOM     57  H   UNL A   1      41.098  29.355  32.495  1.00  0.00     0.167 HD
ATOM     58  C   UNL A   1      43.258  27.592  31.938  1.00  0.00     0.074 A 
ATOM     59  C   UNL A   1      44.120  26.656  31.246  1.00  0.00     0.031 C 
ATOM     60  C   UNL A   1      43.448  27.998  33.220  1.00  0.00     0.034 A 
BRANCH  47  61
ATOM     61  C   UNL A   1      39.154  31.996  35.260  1.00  0.00     0.023 A 
ATOM     62  C   UNL A   1      39.573  33.336  35.354  1.00  0.00     0.031 A 
ATOM     63  C   UNL A   1      38.288  31.511  36.256  1.00  0.00     0.131 A 
ATOM     64  C   UNL A   1      39.195  34.114  36.458  1.00  0.00     0.055 A 
ATOM     65  C   UNL A   1      37.840  32.320  37.303  1.00  0.00     0.041 A 
ATOM     66  F   UNL A   1      37.871  30.235  36.238  1.00  0.00    -0.206 F 
ATOM     67  C   UNL A   1      38.308  33.625  37.419  1.00  0.00     0.022 A 
BRANCH  64  68
ATOM     68  S   UNL A   1      40.008  35.717  36.707  1.00  0.00     0.124 S 
ATOM     69  O   UNL A   1      39.360  36.189  37.930  1.00  0.00    -0.237 OA
ATOM     70  O   UNL A   1      41.412  35.344  36.830  1.00  0.00    -0.237 OA
ATOM     71  O   UNL A   1      39.663  36.468  35.502  1.00  0.00    -0.744 OA
ENDBRANCH  64  68
ENDBRANCH  47  61
BRANCH  48  72
ATOM     72  C   UNL A   1      42.209  26.418  27.494  1.00  0.00     0.023 A 
ATOM     73  C   UNL A   1      41.840  25.070  27.355  1.00  0.00     0.031 A 
ATOM     74  C   UNL A   1      43.089  26.960  26.541  1.00  0.00     0.131 A 
ATOM     75  C   UNL A   1      42.394  24.295  26.325  1.00  0.00     0.055 A 
ATOM     76  C   UNL A   1      43.589  26.200  25.480  1.00  0.00     0.041 A 
ATOM     77  F   UNL A   1      43.472  28.244  26.621  1.00  0.00    -0.206 F 
ATOM     78  C   UNL A   1      43.254  24.853  25.378  1.00  0.00     0.022 A 
BRANCH  75  79
ATOM     79  S   UNL A   1      42.052  22.513  26.300  1.00  0.00     0.124 S 
ATOM     80  O   UNL A   1      42.638  22.081  27.563  1.00  0.00    -0.237 OA
ATOM     81  O   UNL A   1      40.595  22.485  26.225  1.00  0.00    -0.237 OA
ATOM     82  O   UNL A   1      42.745  22.051  25.100  1.00  0.00    -0.744 OA
ENDBRANCH  75  79
ENDBRANCH  48  72
BRANCH  60  83
ATOM     83  C   UNL A   1      44.600  27.376  33.975  1.00  0.00     0.023 A 
ATOM     84  C   UNL A   1      44.444  26.219  34.760  1.00  0.00     0.031 A 
ATOM     85  C   UNL A   1      45.874  27.974  33.931  1.00  0.00     0.131 A 
ATOM     86  C   UNL A   1      45.516  25.746  35.530  1.00  0.00     0.055 A 
ATOM     87  C   UNL A   1      46.958  27.452  34.638  1.00  0.00     0.041 A 
ATOM     88  F   UNL A   1      46.085  29.082  33.203  1.00  0.00    -0.206 F 
ATOM     89  C   UNL A   1      46.777  26.342  35.458  1.00  0.00     0.022 A 
BRANCH  86  90
ATOM     90  S   UNL A   1      45.207  24.421  36.729  1.00  0.00     0.124 S 
ATOM     91  O   UNL A   1      43.932  24.828  37.309  1.00  0.00    -0.237 OA
ATOM     92  O   UNL A   1      45.170  23.234  35.880  1.00  0.00    -0.237 OA
ATOM     93  O   UNL A   1      46.354  24.501  37.632  1.00  0.00    -0.744 OA
ENDBRANCH  86  90
ENDBRANCH  60  83
ENDBRANCH  34  35
ENDBRANCH  26  29
ENDBRANCH  24  25
ENDBRANCH  23  24
ENDBRANCH   1  23
TORSDOF 18
ENDMDL
MODEL 2
REMARK VINA RESULT:     -11.6      3.770      7.121
REMARK SMILES C[C@@H](C(=O)NCCCCNC(=O)c1ccc(-c2c3nc(c(-c4cc(S(=O)(=O)[O-])ccc4F)c4ccc([nH]4)c(-c4cc(S(=O)(=O)[O-])ccc4F)c4nc(c(-c5cc(S(=O)(=O)[O-])ccc5F)c5ccc2[nH]5)C=C4)C=C3)cc1)c1ccc(C[C@H]2CCC[C@H]2O)cc1
REMARK SMILES IDX 7 1 6 2 5 3 3 4 4 5 2 7 1 8 76 9 77 10 88 11 78 12 87 13
REMARK SMILES IDX 79 14 80 15 81 16 82 17 85 18 83 19 84 20 86 21 8 23 9 24
REMARK SMILES IDX 10 25 11 26 12 28 13 29 14 30 75 31 15 32 74 33 16 34 17 35
REMARK SMILES IDX 18 36 68 37 19 38 73 39 67 40 69 41 20 42 72 43 66 44 65 45
REMARK SMILES IDX 21 47 53 48 33 49 52 50 34 51 37 52 51 53 70 54 35 55 36 56
REMARK SMILES IDX 50 58 71 59 38 60 22 61 23 62 31 63 24 64 30 65 32 66 29 67
REMARK SMILES IDX 25 68 26 69 27 70 28 71 54 72 55 73 63 74 56 75 62 76 64 77
REMARK SMILES IDX 61 78 57 79 58 80 59 81 60 82 39 83 40 84 48 85 41 86 47 87
REMARK SMILES IDX 49 88 46 89 42 90 43 91 44 92 45 93
REMARK H PARENT 5 6 86 22 10 27 69 46 37 57
REMARK Flexibility Score: inf
ROOT
ATOM      1  C   UNL A   1      33.683  35.630  29.170  1.00  0.00     0.023 C 
ENDROOT
BRANCH   1   2
ATOM      2  C   UNL A   1      32.983  35.346  30.499  1.00  0.00     0.116 C 
BRANCH   2   3
ATOM      3  N   UNL A   1      33.712  35.929  31.603  1.00  0.00    -0.356 N 
ATOM      4  C   UNL A   1      34.664  35.380  32.410  1.00  0.00     0.227 C 
ATOM      5  O   UNL A   1      35.082  36.092  33.327  1.00  0.00    -0.274 OA
ATOM      6  H   UNL A   1      33.486  36.867  31.803  1.00  0.00     0.163 HD
BRANCH   4   7
ATOM      7  C   UNL A   1      35.205  33.963  32.119  1.00  0.00     0.105 C 
ATOM      8  C   UNL A   1      35.287  33.072  33.362  1.00  0.00     0.023 C 
BRANCH   7   9
ATOM      9  C   UNL A   1      36.582  34.011  31.468  1.00  0.00    -0.036 A 
ATOM     10  C   UNL A   1      37.699  34.431  32.205  1.00  0.00     0.005 A 
ATOM     11  C   UNL A   1      36.755  33.660  30.124  1.00  0.00     0.005 A 
ATOM     12  C   UNL A   1      38.947  34.539  31.605  1.00  0.00     0.004 A 
ATOM     13  C   UNL A   1      38.005  33.800  29.515  1.00  0.00     0.004 A 
ATOM     14  C   UNL A   1      39.099  34.293  30.240  1.00  0.00    -0.048 A 
BRANCH  14  15
ATOM     15  C   UNL A   1      40.400  34.630  29.559  1.00  0.00     0.041 C 
BRANCH  15  16
ATOM     16  C   UNL A   1      41.690  34.147  30.250  1.00  0.00     0.022 C 
ATOM     17  C   UNL A   1      41.854  32.622  30.377  1.00  0.00     0.007 C 
ATOM     18  C   UNL A   1      43.047  34.641  29.722  1.00  0.00     0.117 C 
ATOM     19  C   UNL A   1      43.359  32.353  30.376  1.00  0.00     0.003 C 
ATOM     20  C   UNL A   1      44.035  33.720  30.429  1.00  0.00     0.032 C 
BRANCH  18  21
ATOM     21  O   UNL A   1      43.245  34.519  28.327  1.00  0.00    -0.393 OA
ATOM     22  H   UNL A   1      44.165  34.739  28.111  1.00  0.00     0.210 HD
ENDBRANCH  18  21
ENDBRANCH  15  16
ENDBRANCH  14  15
ENDBRANCH   7   9
ENDBRANCH   4   7
ENDBRANCH   2   3
ENDBRANCH   1   2
BRANCH   1  23
ATOM     23  C   UNL A   1      33.503  34.541  28.110  1.00  0.00     0.023 C 
BRANCH  23  24
ATOM     24  C   UNL A   1      33.976  33.156  28.528  1.00  0.00     0.116 C 
BRANCH  24  25
ATOM     25  N   UNL A   1      33.428  32.104  27.690  1.00  0.00    -0.352 N 
ATOM     26  C   UNL A   1      33.996  30.911  27.315  1.00  0.00     0.251 C 
ATOM     27  H   UNL A   1      32.522  32.270  27.342  1.00  0.00     0.163 HD
ATOM     28  O   UNL A   1      33.447  30.227  26.460  1.00  0.00    -0.269 OA
BRANCH  26  29
ATOM     29  C   UNL A   1      35.275  30.479  27.922  1.00  0.00     0.039 A 
ATOM     30  C   UNL A   1      35.237  29.704  29.083  1.00  0.00     0.014 A 
ATOM     31  C   UNL A   1      36.503  30.847  27.366  1.00  0.00     0.014 A 
ATOM     32  C   UNL A   1      36.431  29.276  29.668  1.00  0.00     0.010 A 
ATOM     33  C   UNL A   1      37.687  30.343  27.897  1.00  0.00     0.010 A 
ATOM     34  C   UNL A   1      37.666  29.578  29.071  1.00  0.00    -0.014 A 
BRANCH  34  35
ATOM     35  C   UNL A   1      38.941  29.150  29.703  1.00  0.00     0.031 A 
ATOM     36  C   UNL A   1      39.354  29.735  31.029  1.00  0.00     0.074 A 
ATOM     37  C   UNL A   1      39.733  28.257  29.078  1.00  0.00     0.049 A 
ATOM     38  N   UNL A   1      40.424  29.495  31.744  1.00  0.00    -0.248 NA
ATOM     39  C   UNL A   1      38.459  30.745  31.614  1.00  0.00     0.031 C 
ATOM     40  C   UNL A   1      39.461  27.653  27.772  1.00  0.00     0.029 A 
ATOM     41  N   UNL A   1      40.925  27.692  29.461  1.00  0.00    -0.354 N 
ATOM     42  C   UNL A   1      40.335  30.333  32.852  1.00  0.00     0.074 A 
ATOM     43  C   UNL A   1      39.147  31.139  32.673  1.00  0.00     0.031 C 
ATOM     44  C   UNL A   1      40.431  26.770  27.484  1.00  0.00     0.029 A 
ATOM     45  C   UNL A   1      41.418  26.776  28.560  1.00  0.00     0.049 A 
ATOM     46  H   UNL A   1      41.384  27.921  30.301  1.00  0.00     0.167 HD
ATOM     47  C   UNL A   1      41.152  30.404  33.932  1.00  0.00     0.034 A 
ATOM     48  C   UNL A   1      42.536  26.025  28.599  1.00  0.00     0.034 A 
ATOM     49  C   UNL A   1      42.326  29.581  34.098  1.00  0.00     0.049 A 
ATOM     50  C   UNL A   1      43.438  26.132  29.804  1.00  0.00     0.074 A 
ATOM     51  C   UNL A   1      43.197  29.530  35.171  1.00  0.00     0.029 A 
ATOM     52  N   UNL A   1      42.798  28.668  33.162  1.00  0.00    -0.354 N 
ATOM     53  N   UNL A   1      43.311  26.888  30.871  1.00  0.00    -0.248 NA
ATOM     54  C   UNL A   1      44.625  25.268  29.817  1.00  0.00     0.031 C 
ATOM     55  C   UNL A   1      44.236  28.649  34.852  1.00  0.00     0.029 A 
ATOM     56  C   UNL A   1      43.964  28.074  33.620  1.00  0.00     0.049 A 
ATOM     57  H   UNL A   1      42.367  28.473  32.299  1.00  0.00     0.167 HD
ATOM     58  C   UNL A   1      44.378  26.553  31.702  1.00  0.00     0.074 A 
ATOM     59  C   UNL A   1      45.126  25.519  31.017  1.00  0.00     0.031 C 
ATOM     60  C   UNL A   1      44.705  27.047  32.925  1.00  0.00     0.034 A 
BRANCH  47  61
ATOM     61  C   UNL A   1      40.817  31.426  34.995  1.00  0.00     0.023 A 
ATOM     62  C   UNL A   1      39.795  31.211  35.938  1.00  0.00     0.031 A 
ATOM     63  C   UNL A   1      41.506  32.651  35.047  1.00  0.00     0.131 A 
ATOM     64  C   UNL A   1      39.437  32.232  36.831  1.00  0.00     0.055 A 
ATOM     65  C   UNL A   1      41.206  33.627  36.000  1.00  0.00     0.041 A 
ATOM     66  F   UNL A   1      42.475  32.928  34.161  1.00  0.00    -0.206 F 
ATOM     67  C   UNL A   1      40.154  33.427  36.888  1.00  0.00     0.022 A 
BRANCH  64  68
ATOM     68  S   UNL A   1      37.917  32.038  37.804  1.00  0.00     0.124 S 
ATOM     69  O   UNL A   1      37.066  33.080  37.231  1.00  0.00    -0.237 OA
ATOM     70  O   UNL A   1      37.528  30.664  37.514  1.00  0.00    -0.237 OA
ATOM     71  O   UNL A   1      38.354  32.289  39.176  1.00  0.00    -0.744 OA
ENDBRANCH  64  68
ENDBRANCH  47  61
BRANCH  48  72
ATOM     72  C   UNL A   1      42.869  25.097  27.479  1.00  0.00     0.023 A 
ATOM     73  C   UNL A   1      42.255  23.838  27.375  1.00  0.00     0.031 A 
ATOM     74  C   UNL A   1      43.846  25.432  26.525  1.00  0.00     0.131 A 
ATOM     75  C   UNL A   1      42.665  22.939  26.378  1.00  0.00     0.055 A 
ATOM     76  C   UNL A   1      44.207  24.558  25.497  1.00  0.00     0.041 A 
ATOM     77  F   UNL A   1      44.463  26.624  26.574  1.00  0.00    -0.206 F 
ATOM     78  C   UNL A   1      43.626  23.295  25.430  1.00  0.00     0.022 A 
BRANCH  75  79
ATOM     79  S   UNL A   1      41.995  21.253  26.401  1.00  0.00     0.124 S 
ATOM     80  O   UNL A   1      42.213  20.866  27.790  1.00  0.00    -0.237 OA
ATOM     81  O   UNL A   1      40.608  21.473  26.006  1.00  0.00    -0.237 OA
ATOM     82  O   UNL A   1      42.816  20.548  25.420  1.00  0.00    -0.744 OA
ENDBRANCH  75  79
ENDBRANCH  48  72
BRANCH  60  83
ATOM     83  C   UNL A   1      45.890  26.422  33.625  1.00  0.00     0.023 A 
ATOM     84  C   UNL A   1      45.774  25.245  34.385  1.00  0.00     0.031 A 
ATOM     85  C   UNL A   1      47.154  27.037  33.552  1.00  0.00     0.131 A 
ATOM     86  C   UNL A   1      46.879  24.767  35.107  1.00  0.00     0.055 A 
ATOM     87  C   UNL A   1      48.267  26.512  34.208  1.00  0.00     0.041 A 
ATOM     88  F   UNL A   1      47.326  28.165  32.844  1.00  0.00    -0.206 F 
ATOM     89  C   UNL A   1      48.129  25.380  35.006  1.00  0.00     0.022 A 
BRANCH  86  90
ATOM     90  S   UNL A   1      46.627  23.409  36.283  1.00  0.00     0.124 S 
ATOM     91  O   UNL A   1      45.191  23.176  36.174  1.00  0.00    -0.237 OA
ATOM     92  O   UNL A   1      47.486  22.362  35.739  1.00  0.00    -0.237 OA
ATOM     93  O   UNL A   1      47.069  23.974  37.557  1.00  0.00    -0.744 OA
ENDBRANCH  86  90
ENDBRANCH  60  83
ENDBRANCH  34  35
ENDBRANCH  26  29
ENDBRANCH  24  25
ENDBRANCH  23  24
ENDBRANCH   1  23
TORSDOF 18
ENDMDL
MODEL 3
REMARK VINA RESULT:     -11.5      3.032      5.214
REMARK SMILES C[C@@H](C(=O)NCCCCNC(=O)c1ccc(-c2c3nc(c(-c4cc(S(=O)(=O)[O-])ccc4F)c4ccc([nH]4)c(-c4cc(S(=O)(=O)[O-])ccc4F)c4nc(c(-c5cc(S(=O)(=O)[O-])ccc5F)c5ccc2[nH]5)C=C4)C=C3)cc1)c1ccc(C[C@H]2CCC[C@H]2O)cc1
REMARK SMILES IDX 7 1 6 2 5 3 3 4 4 5 2 7 1 8 76 9 77 10 88 11 78 12 87 13
REMARK SMILES IDX 79 14 80 15 81 16 82 17 85 18 83 19 84 20 86 21 8 23 9 24
REMARK SMILES IDX 10 25 11 26 12 28 13 29 14 30 75 31 15 32 74 33 16 34 17 35
REMARK SMILES IDX 18 36 68 37 19 38 73 39 67 40 69 41 20 42 72 43 66 44 65 45
REMARK SMILES IDX 21 47 53 48 33 49 52 50 34 51 37 52 51 53 70 54 35 55 36 56
REMARK SMILES IDX 50 58 71 59 38 60 22 61 23 62 31 63 24 64 30 65 32 66 29 67
REMARK SMILES IDX 25 68 26 69 27 70 28 71 54 72 55 73 63 74 56 75 62 76 64 77
REMARK SMILES IDX 61 78 57 79 58 80 59 81 60 82 39 83 40 84 48 85 41 86 47 87
REMARK SMILES IDX 49 88 46 89 42 90 43 91 44 92 45 93
REMARK H PARENT 5 6 86 22 10 27 69 46 37 57
REMARK Flexibility Score: inf
ROOT
ATOM      1  C   UNL A   1      31.731  27.687  26.595  1.00  0.00     0.023 C 
ENDROOT
BRANCH   1   2
ATOM      2  C   UNL A   1      31.361  27.957  25.137  1.00  0.00     0.116 C 
BRANCH   2   3
ATOM      3  N   UNL A   1      30.789  26.779  24.523  1.00  0.00    -0.356 N 
ATOM      4  C   UNL A   1      31.382  25.810  23.768  1.00  0.00     0.227 C 
ATOM      5  O   UNL A   1      30.639  24.939  23.312  1.00  0.00    -0.274 OA
ATOM      6  H   UNL A   1      29.823  26.658  24.672  1.00  0.00     0.163 HD
BRANCH   4   7
ATOM      7  C   UNL A   1      32.915  25.809  23.571  1.00  0.00     0.105 C 
ATOM      8  C   UNL A   1      33.345  26.023  22.117  1.00  0.00     0.023 C 
BRANCH   7   9
ATOM      9  C   UNL A   1      33.543  24.517  24.076  1.00  0.00    -0.036 A 
ATOM     10  C   UNL A   1      34.463  23.819  23.281  1.00  0.00     0.005 A 
ATOM     11  C   UNL A   1      33.201  23.992  25.329  1.00  0.00     0.005 A 
ATOM     12  C   UNL A   1      34.996  22.608  23.705  1.00  0.00     0.004 A 
ATOM     13  C   UNL A   1      33.714  22.758  25.738  1.00  0.00     0.004 A 
ATOM     14  C   UNL A   1      34.574  22.031  24.904  1.00  0.00    -0.048 A 
BRANCH  14  15
ATOM     15  C   UNL A   1      34.984  20.621  25.240  1.00  0.00     0.041 C 
BRANCH  15  16
ATOM     16  C   UNL A   1      34.128  19.488  24.643  1.00  0.00     0.022 C 
ATOM     17  C   UNL A   1      34.853  18.152  24.404  1.00  0.00     0.007 C 
ATOM     18  C   UNL A   1      32.815  19.098  25.343  1.00  0.00     0.117 C 
ATOM     19  C   UNL A   1      33.789  17.060  24.531  1.00  0.00     0.003 C 
ATOM     20  C   UNL A   1      32.452  17.783  24.662  1.00  0.00     0.032 C 
BRANCH  18  21
ATOM     21  O   UNL A   1      32.907  18.868  26.736  1.00  0.00    -0.393 OA
ATOM     22  H   UNL A   1      32.015  18.801  27.111  1.00  0.00     0.210 HD
ENDBRANCH  18  21
ENDBRANCH  15  16
ENDBRANCH  14  15
ENDBRANCH   7   9
ENDBRANCH   4   7
ENDBRANCH   2   3
ENDBRANCH   1   2
BRANCH   1  23
ATOM     23  C   UNL A   1      33.223  27.822  26.908  1.00  0.00     0.023 C 
BRANCH  23  24
ATOM     24  C   UNL A   1      33.945  28.913  26.130  1.00  0.00     0.116 C 
BRANCH  24  25
ATOM     25  N   UNL A   1      33.703  30.238  26.673  1.00  0.00    -0.352 N 
ATOM     26  C   UNL A   1      34.409  30.923  27.632  1.00  0.00     0.251 C 
ATOM     27  H   UNL A   1      32.925  30.712  26.301  1.00  0.00     0.163 HD
ATOM     28  O   UNL A   1      33.950  31.964  28.086  1.00  0.00    -0.269 OA
BRANCH  26  29
ATOM     29  C   UNL A   1      35.695  30.384  28.128  1.00  0.00     0.039 A 
ATOM     30  C   UNL A   1      35.716  29.725  29.359  1.00  0.00     0.014 A 
ATOM     31  C   UNL A   1      36.876  30.542  27.398  1.00  0.00     0.014 A 
ATOM     32  C   UNL A   1      36.917  29.201  29.842  1.00  0.00     0.010 A 
ATOM     33  C   UNL A   1      38.051  29.938  27.836  1.00  0.00     0.010 A 
ATOM     34  C   UNL A   1      38.092  29.288  29.077  1.00  0.00    -0.014 A 
BRANCH  34  35
ATOM     35  C   UNL A   1      39.379  28.756  29.597  1.00  0.00     0.031 A 
ATOM     36  C   UNL A   1      40.022  29.396  30.801  1.00  0.00     0.074 A 
ATOM     37  C   UNL A   1      39.975  27.719  28.980  1.00  0.00     0.049 A 
ATOM     38  N   UNL A   1      41.139  29.084  31.408  1.00  0.00    -0.248 NA
ATOM     39  C   UNL A   1      39.333  30.559  31.380  1.00  0.00     0.031 C 
ATOM     40  C   UNL A   1      39.470  27.044  27.781  1.00  0.00     0.029 A 
ATOM     41  N   UNL A   1      41.132  27.041  29.277  1.00  0.00    -0.354 N 
ATOM     42  C   UNL A   1      41.291  30.019  32.428  1.00  0.00     0.074 A 
ATOM     43  C   UNL A   1      40.191  30.952  32.307  1.00  0.00     0.031 C 
ATOM     44  C   UNL A   1      40.286  26.023  27.474  1.00  0.00     0.029 A 
ATOM     45  C   UNL A   1      41.397  25.996  28.422  1.00  0.00     0.049 A 
ATOM     46  H   UNL A   1      41.718  27.281  30.031  1.00  0.00     0.167 HD
ATOM     47  C   UNL A   1      42.241  30.078  33.393  1.00  0.00     0.034 A 
ATOM     48  C   UNL A   1      42.416  25.114  28.407  1.00  0.00     0.034 A 
ATOM     49  C   UNL A   1      43.323  29.129  33.505  1.00  0.00     0.049 A 
ATOM     50  C   UNL A   1      43.470  25.208  29.482  1.00  0.00     0.074 A 
ATOM     51  C   UNL A   1      44.311  29.060  34.470  1.00  0.00     0.029 A 
ATOM     52  N   UNL A   1      43.562  28.086  32.617  1.00  0.00    -0.354 N 
ATOM     53  N   UNL A   1      43.569  26.063  30.475  1.00  0.00    -0.248 NA
ATOM     54  C   UNL A   1      44.540  24.204  29.445  1.00  0.00     0.031 C 
ATOM     55  C   UNL A   1      45.192  28.029  34.123  1.00  0.00     0.029 A 
ATOM     56  C   UNL A   1      44.700  27.390  32.995  1.00  0.00     0.049 A 
ATOM     57  H   UNL A   1      43.005  27.874  31.834  1.00  0.00     0.167 HD
ATOM     58  C   UNL A   1      44.687  25.668  31.207  1.00  0.00     0.074 A 
ATOM     59  C   UNL A   1      45.215  24.492  30.547  1.00  0.00     0.031 C 
ATOM     60  C   UNL A   1      45.222  26.220  32.327  1.00  0.00     0.034 A 
BRANCH  47  61
ATOM     61  C   UNL A   1      42.165  31.222  34.379  1.00  0.00     0.023 A 
ATOM     62  C   UNL A   1      42.833  32.441  34.157  1.00  0.00     0.031 A 
ATOM     63  C   UNL A   1      41.443  31.082  35.578  1.00  0.00     0.131 A 
ATOM     64  C   UNL A   1      42.834  33.432  35.148  1.00  0.00     0.055 A 
ATOM     65  C   UNL A   1      41.372  32.110  36.521  1.00  0.00     0.041 A 
ATOM     66  F   UNL A   1      40.805  29.937  35.862  1.00  0.00    -0.206 F 
ATOM     67  C   UNL A   1      42.085  33.287  36.317  1.00  0.00     0.022 A 
BRANCH  64  68
ATOM     68  S   UNL A   1      43.961  34.843  34.963  1.00  0.00     0.124 S 
ATOM     69  O   UNL A   1      43.775  35.537  36.236  1.00  0.00    -0.237 OA
ATOM     70  O   UNL A   1      45.251  34.194  34.770  1.00  0.00    -0.237 OA
ATOM     71  O   UNL A   1      43.436  35.550  33.796  1.00  0.00    -0.744 OA
ENDBRANCH  64  68
ENDBRANCH  47  61
BRANCH  48  72
ATOM     72  C   UNL A   1      42.493  24.058  27.356  1.00  0.00     0.023 A 
ATOM     73  C   UNL A   1      41.806  22.842  27.499  1.00  0.00     0.031 A 
ATOM     74  C   UNL A   1      43.299  24.226  26.217  1.00  0.00     0.131 A 
ATOM     75  C   UNL A   1      41.982  21.821  26.553  1.00  0.00     0.055 A 
ATOM     76  C   UNL A   1      43.423  23.231  25.245  1.00  0.00     0.041 A 
ATOM     77  F   UNL A   1      43.976  25.370  26.025  1.00  0.00    -0.206 F 
ATOM     78  C   UNL A   1      42.774  22.012  25.419  1.00  0.00     0.022 A 
BRANCH  75  79
ATOM     79  S   UNL A   1      41.240  20.197  26.877  1.00  0.00     0.124 S 
ATOM     80  O   UNL A   1      42.337  19.298  26.538  1.00  0.00    -0.237 OA
ATOM     81  O   UNL A   1      40.904  20.295  28.294  1.00  0.00    -0.237 OA
ATOM     82  O   UNL A   1      40.097  20.158  25.968  1.00  0.00    -0.744 OA
ENDBRANCH  75  79
ENDBRANCH  48  72
BRANCH  60  83
ATOM     83  C   UNL A   1      46.405  25.511  32.944  1.00  0.00     0.023 A 
ATOM     84  C   UNL A   1      47.721  25.718  32.493  1.00  0.00     0.031 A 
ATOM     85  C   UNL A   1      46.206  24.587  33.987  1.00  0.00     0.131 A 
ATOM     86  C   UNL A   1      48.771  24.954  33.023  1.00  0.00     0.055 A 
ATOM     87  C   UNL A   1      47.266  23.887  34.565  1.00  0.00     0.041 A 
ATOM     88  F   UNL A   1      44.972  24.344  34.459  1.00  0.00    -0.206 F 
ATOM     89  C   UNL A   1      48.555  24.056  34.070  1.00  0.00     0.022 A 
BRANCH  86  90
ATOM     90  S   UNL A   1      50.402  25.053  32.235  1.00  0.00     0.124 S 
ATOM     91  O   UNL A   1      50.093  25.738  30.984  1.00  0.00    -0.237 OA
ATOM     92  O   UNL A   1      51.172  25.821  33.209  1.00  0.00    -0.237 OA
ATOM     93  O   UNL A   1      50.800  23.654  32.094  1.00  0.00    -0.744 OA
ENDBRANCH  86  90
ENDBRANCH  60  83
ENDBRANCH  34  35
ENDBRANCH  26  29
ENDBRANCH  24  25
ENDBRANCH  23  24
ENDBRANCH   1  23
TORSDOF 18
ENDMDL
