MODEL 1
REMARK VINA RESULT:     -10.8      0.000      0.000
REMARK SMILES CC(C)[C@H](NC(=O)[C@H](C)NC(=O)CNC(=O)OCc1ccccc1)C(=O)NCCCCNC(=O)c1ccc(-c2c3nc(c(-c4cc(S(=O)(=O)[O-])ccc4F)c4ccc([nH]4)c(-c4cc(S(=O)(=O)[O-])ccc4F)c4nc(c(-c5cc(S(=O)(=O)[O-])ccc5F)c5ccc2[nH]5)C=C4)C=C3)cc1
REMARK SMILES IDX 25 1 26 2 27 3 4 5 2 6 1 7 3 8 5 9 6 10 7 12 8 13 9 14 10 15
REMARK SMILES IDX 11 16 12 18 13 19 14 20 15 21 16 23 17 24 18 25 19 26 20 27
REMARK SMILES IDX 24 28 21 29 23 30 22 31 28 32 29 33 30 34 31 35 32 36 33 37
REMARK SMILES IDX 34 39 35 40 36 41 97 42 37 43 96 44 38 45 39 46 40 47 90 48
REMARK SMILES IDX 41 49 95 50 89 51 91 52 42 53 94 54 88 55 87 56 43 58 75 59
REMARK SMILES IDX 55 60 74 61 56 62 59 63 73 64 92 65 57 66 58 67 72 69 93 70
REMARK SMILES IDX 60 71 44 72 45 73 53 74 46 75 52 76 54 77 51 78 47 79 48 80
REMARK SMILES IDX 49 81 50 82 76 83 77 84 85 85 78 86 84 87 86 88 83 89 79 90
REMARK SMILES IDX 80 91 81 92 82 93 61 94 62 95 70 96 63 97 69 98 71 99 68 100
REMARK SMILES IDX 64 101 65 102 66 103 67 104
REMARK H PARENT 27 4 5 11 10 17 14 22 32 38 91 57 59 68
REMARK Flexibility Score: inf
ROOT
ATOM      1  C   UNL A   1      32.010  27.982  26.961  1.00  0.00     0.242 C 
ATOM      2  O   UNL A   1      31.155  27.466  27.695  1.00  0.00    -0.273 OA
ATOM      3  N   UNL A   1      33.032  28.588  27.621  1.00  0.00    -0.354 N 
ATOM      4  H   UNL A   1      32.887  28.643  28.594  1.00  0.00     0.163 HD
ENDROOT
BRANCH   1   5
ATOM      5  C   UNL A   1      31.853  27.855  25.409  1.00  0.00     0.173 C 
BRANCH   5   6
ATOM      6  C   UNL A   1      31.921  29.188  24.614  1.00  0.00     0.015 C 
ATOM      7  C   UNL A   1      33.094  29.326  23.640  1.00  0.00     0.010 C 
ATOM      8  C   UNL A   1      30.625  29.440  23.820  1.00  0.00     0.010 C 
ENDBRANCH   5   6
BRANCH   5   9
ATOM      9  N   UNL A   1      30.856  26.915  24.867  1.00  0.00    -0.342 N 
ATOM     10  C   UNL A   1      30.862  25.963  23.893  1.00  0.00     0.242 C 
ATOM     11  H   UNL A   1      29.981  26.993  25.313  1.00  0.00     0.164 HD
ATOM     12  O   UNL A   1      29.898  25.189  23.886  1.00  0.00    -0.273 OA
BRANCH  10  13
ATOM     13  C   UNL A   1      32.034  25.795  22.892  1.00  0.00     0.168 C 
ATOM     14  C   UNL A   1      31.794  26.757  21.724  1.00  0.00     0.041 C 
BRANCH  13  15
ATOM     15  N   UNL A   1      32.059  24.422  22.386  1.00  0.00    -0.343 N 
ATOM     16  C   UNL A   1      32.839  23.361  22.753  1.00  0.00     0.240 C 
ATOM     17  H   UNL A   1      31.412  24.232  21.670  1.00  0.00     0.164 HD
ATOM     18  O   UNL A   1      32.571  22.259  22.267  1.00  0.00    -0.273 OA
BRANCH  16  19
ATOM     19  C   UNL A   1      33.926  23.500  23.834  1.00  0.00     0.219 C 
BRANCH  19  20
ATOM     20  N   UNL A   1      33.357  23.495  25.163  1.00  0.00    -0.312 N 
ATOM     21  C   UNL A   1      32.917  22.416  25.863  1.00  0.00     0.407 C 
ATOM     22  H   UNL A   1      33.279  24.369  25.609  1.00  0.00     0.167 HD
ATOM     23  O   UNL A   1      32.222  22.568  26.856  1.00  0.00    -0.225 OA
BRANCH  21  24
ATOM     24  O   UNL A   1      33.257  21.230  25.307  1.00  0.00    -0.445 OA
BRANCH  24  25
ATOM     25  C   UNL A   1      32.167  20.329  25.084  1.00  0.00     0.270 C 
BRANCH  25  26
ATOM     26  C   UNL A   1      32.563  18.919  24.734  1.00  0.00    -0.011 A 
ATOM     27  C   UNL A   1      32.895  18.580  23.415  1.00  0.00     0.007 A 
ATOM     28  C   UNL A   1      32.736  17.955  25.741  1.00  0.00     0.007 A 
ATOM     29  C   UNL A   1      33.391  17.311  23.110  1.00  0.00     0.000 A 
ATOM     30  C   UNL A   1      33.240  16.689  25.435  1.00  0.00     0.000 A 
ATOM     31  C   UNL A   1      33.567  16.369  24.119  1.00  0.00     0.000 A 
ENDBRANCH  25  26
ENDBRANCH  24  25
ENDBRANCH  21  24
ENDBRANCH  19  20
ENDBRANCH  16  19
ENDBRANCH  13  15
ENDBRANCH  10  13
ENDBRANCH   5   9
ENDBRANCH   1   5
BRANCH   3  32
ATOM     32  C   UNL A   1      34.285  29.171  27.196  1.00  0.00     0.116 C 
BRANCH  32  33
ATOM     33  C   UNL A   1      34.496  30.619  27.633  1.00  0.00     0.023 C 
BRANCH  33  34
ATOM     34  C   UNL A   1      33.278  31.544  27.656  1.00  0.00     0.023 C 
BRANCH  34  35
ATOM     35  C   UNL A   1      33.469  32.987  27.188  1.00  0.00     0.116 C 
BRANCH  35  36
ATOM     36  N   UNL A   1      32.907  33.993  28.070  1.00  0.00    -0.352 N 
ATOM     37  C   UNL A   1      33.321  34.407  29.319  1.00  0.00     0.251 C 
ATOM     38  H   UNL A   1      32.106  34.450  27.724  1.00  0.00     0.163 HD
ATOM     39  O   UNL A   1      32.632  35.227  29.923  1.00  0.00    -0.269 OA
BRANCH  37  40
ATOM     40  C   UNL A   1      34.542  33.852  29.962  1.00  0.00     0.039 A 
ATOM     41  C   UNL A   1      34.393  32.944  31.018  1.00  0.00     0.014 A 
ATOM     42  C   UNL A   1      35.826  34.221  29.559  1.00  0.00     0.014 A 
ATOM     43  C   UNL A   1      35.519  32.356  31.606  1.00  0.00     0.010 A 
ATOM     44  C   UNL A   1      36.947  33.597  30.107  1.00  0.00     0.010 A 
ATOM     45  C   UNL A   1      36.806  32.650  31.128  1.00  0.00    -0.014 A 
BRANCH  45  46
ATOM     46  C   UNL A   1      38.008  31.947  31.649  1.00  0.00     0.031 A 
ATOM     47  C   UNL A   1      38.695  32.420  32.900  1.00  0.00     0.074 A 
ATOM     48  C   UNL A   1      38.532  30.934  30.931  1.00  0.00     0.049 A 
ATOM     49  N   UNL A   1      39.767  31.948  33.484  1.00  0.00    -0.248 NA
ATOM     50  C   UNL A   1      38.120  33.600  33.562  1.00  0.00     0.031 C 
ATOM     51  C   UNL A   1      38.002  30.441  29.658  1.00  0.00     0.029 A 
ATOM     52  N   UNL A   1      39.636  30.151  31.156  1.00  0.00    -0.354 N 
ATOM     53  C   UNL A   1      39.998  32.771  34.582  1.00  0.00     0.074 A 
ATOM     54  C   UNL A   1      38.989  33.810  34.539  1.00  0.00     0.031 C 
ATOM     55  C   UNL A   1      38.772  29.433  29.221  1.00  0.00     0.029 A 
ATOM     56  C   UNL A   1      39.861  29.219  30.169  1.00  0.00     0.049 A 
ATOM     57  H   UNL A   1      40.213  30.246  31.947  1.00  0.00     0.167 HD
ATOM     58  C   UNL A   1      40.946  32.654  35.546  1.00  0.00     0.034 A 
ATOM     59  C   UNL A   1      40.832  28.293  30.044  1.00  0.00     0.034 A 
ATOM     60  C   UNL A   1      41.943  31.608  35.569  1.00  0.00     0.049 A 
ATOM     61  C   UNL A   1      41.859  28.161  31.139  1.00  0.00     0.074 A 
ATOM     62  C   UNL A   1      42.907  31.352  36.530  1.00  0.00     0.029 A 
ATOM     63  N   UNL A   1      42.112  30.646  34.579  1.00  0.00    -0.354 N 
ATOM     64  N   UNL A   1      42.008  28.889  32.222  1.00  0.00    -0.248 NA
ATOM     65  C   UNL A   1      42.825  27.065  31.011  1.00  0.00     0.031 C 
ATOM     66  C   UNL A   1      43.693  30.279  36.094  1.00  0.00     0.029 A 
ATOM     67  C   UNL A   1      43.176  29.814  34.895  1.00  0.00     0.049 A 
ATOM     68  H   UNL A   1      41.556  30.568  33.770  1.00  0.00     0.167 HD
ATOM     69  C   UNL A   1      43.063  28.311  32.923  1.00  0.00     0.074 A 
ATOM     70  C   UNL A   1      43.502  27.171  32.145  1.00  0.00     0.031 C 
ATOM     71  C   UNL A   1      43.610  28.683  34.109  1.00  0.00     0.034 A 
BRANCH  58  72
ATOM     72  C   UNL A   1      40.953  33.691  36.647  1.00  0.00     0.023 A 
ATOM     73  C   UNL A   1      40.256  33.491  37.850  1.00  0.00     0.031 A 
ATOM     74  C   UNL A   1      41.650  34.902  36.487  1.00  0.00     0.131 A 
ATOM     75  C   UNL A   1      40.202  34.512  38.811  1.00  0.00     0.055 A 
ATOM     76  C   UNL A   1      41.664  35.882  37.485  1.00  0.00     0.041 A 
ATOM     77  F   UNL A   1      42.320  35.163  35.354  1.00  0.00    -0.206 F 
ATOM     78  C   UNL A   1      40.924  35.696  38.648  1.00  0.00     0.022 A 
BRANCH  75  79
ATOM     79  S   UNL A   1      39.059  34.327  40.206  1.00  0.00     0.124 S 
ATOM     80  O   UNL A   1      38.102  33.359  39.675  1.00  0.00    -0.237 OA
ATOM     81  O   UNL A   1      39.933  33.844  41.269  1.00  0.00    -0.237 OA
ATOM     82  O   UNL A   1      38.529  35.676  40.397  1.00  0.00    -0.744 OA
ENDBRANCH  75  79
ENDBRANCH  58  72
BRANCH  59  83
ATOM     83  C   UNL A   1      40.861  27.393  28.858  1.00  0.00     0.023 A 
ATOM     84  C   UNL A   1      41.811  27.575  27.839  1.00  0.00     0.031 A 
ATOM     85  C   UNL A   1      39.927  26.353  28.712  1.00  0.00     0.131 A 
ATOM     86  C   UNL A   1      41.779  26.759  26.699  1.00  0.00     0.055 A 
ATOM     87  C   UNL A   1      39.929  25.513  27.597  1.00  0.00     0.041 A 
ATOM     88  F   UNL A   1      39.008  26.128  29.664  1.00  0.00    -0.206 F 
ATOM     89  C   UNL A   1      40.851  25.723  26.576  1.00  0.00     0.022 A 
BRANCH  86  90
ATOM     90  S   UNL A   1      42.925  27.122  25.341  1.00  0.00     0.124 S 
ATOM     91  O   UNL A   1      44.138  27.488  26.064  1.00  0.00    -0.237 OA
ATOM     92  O   UNL A   1      42.962  25.848  24.630  1.00  0.00    -0.237 OA
ATOM     93  O   UNL A   1      42.270  28.214  24.626  1.00  0.00    -0.744 OA
ENDBRANCH  86  90
ENDBRANCH  59  83
BRANCH  71  94
ATOM     94  C   UNL A   1      44.710  27.807  34.658  1.00  0.00     0.023 A 
ATOM     95  C   UNL A   1      44.435  26.660  35.423  1.00  0.00     0.031 A 
ATOM     96  C   UNL A   1      46.056  28.145  34.432  1.00  0.00     0.131 A 
ATOM     97  C   UNL A   1      45.490  25.929  35.991  1.00  0.00     0.055 A 
ATOM     98  C   UNL A   1      47.102  27.378  34.947  1.00  0.00     0.041 A 
ATOM     99  F   UNL A   1      46.377  29.230  33.710  1.00  0.00    -0.206 F 
ATOM    100  C   UNL A   1      46.822  26.273  35.745  1.00  0.00     0.022 A 
BRANCH  97 101
ATOM    101  S   UNL A   1      45.097  24.584  37.142  1.00  0.00     0.124 S 
ATOM    102  O   UNL A   1      44.540  23.572  36.248  1.00  0.00    -0.237 OA
ATOM    103  O   UNL A   1      46.401  24.275  37.718  1.00  0.00    -0.237 OA
ATOM    104  O   UNL A   1      44.139  25.189  38.065  1.00  0.00    -0.744 OA
ENDBRANCH  97 101
ENDBRANCH  71  94
ENDBRANCH  45  46
ENDBRANCH  37  40
ENDBRANCH  35  36
ENDBRANCH  34  35
ENDBRANCH  33  34
ENDBRANCH  32  33
ENDBRANCH   3  32
TORSDOF 23
ENDMDL
MODEL 2
REMARK VINA RESULT:     -10.8      5.377     10.458
REMARK SMILES CC(C)[C@H](NC(=O)[C@H](C)NC(=O)CNC(=O)OCc1ccccc1)C(=O)NCCCCNC(=O)c1ccc(-c2c3nc(c(-c4cc(S(=O)(=O)[O-])ccc4F)c4ccc([nH]4)c(-c4cc(S(=O)(=O)[O-])ccc4F)c4nc(c(-c5cc(S(=O)(=O)[O-])ccc5F)c5ccc2[nH]5)C=C4)C=C3)cc1
REMARK SMILES IDX 25 1 26 2 27 3 4 5 2 6 1 7 3 8 5 9 6 10 7 12 8 13 9 14 10 15
REMARK SMILES IDX 11 16 12 18 13 19 14 20 15 21 16 23 17 24 18 25 19 26 20 27
REMARK SMILES IDX 24 28 21 29 23 30 22 31 28 32 29 33 30 34 31 35 32 36 33 37
REMARK SMILES IDX 34 39 35 40 36 41 97 42 37 43 96 44 38 45 39 46 40 47 90 48
REMARK SMILES IDX 41 49 95 50 89 51 91 52 42 53 94 54 88 55 87 56 43 58 75 59
REMARK SMILES IDX 55 60 74 61 56 62 59 63 73 64 92 65 57 66 58 67 72 69 93 70
REMARK SMILES IDX 60 71 44 72 45 73 53 74 46 75 52 76 54 77 51 78 47 79 48 80
REMARK SMILES IDX 49 81 50 82 76 83 77 84 85 85 78 86 84 87 86 88 83 89 79 90
REMARK SMILES IDX 80 91 81 92 82 93 61 94 62 95 70 96 63 97 69 98 71 99 68 100
REMARK SMILES IDX 64 101 65 102 66 103 67 104
REMARK H PARENT 27 4 5 11 10 17 14 22 32 38 91 57 59 68
REMARK Flexibility Score: inf
ROOT
ATOM      1  C   UNL A   1      35.489  22.891  25.322  1.00  0.00     0.242 C 
ATOM      2  O   UNL A   1      35.889  24.060  25.413  1.00  0.00    -0.273 OA
ATOM      3  N   UNL A   1      36.475  21.961  25.223  1.00  0.00    -0.354 N 
ATOM      4  H   UNL A   1      37.370  22.355  25.110  1.00  0.00     0.163 HD
ENDROOT
BRANCH   1   5
ATOM      5  C   UNL A   1      33.949  22.611  25.368  1.00  0.00     0.173 C 
BRANCH   5   6
ATOM      6  C   UNL A   1      33.403  22.079  26.722  1.00  0.00     0.015 C 
ATOM      7  C   UNL A   1      34.106  22.603  27.977  1.00  0.00     0.010 C 
ATOM      8  C   UNL A   1      31.898  22.369  26.877  1.00  0.00     0.010 C 
ENDBRANCH   5   6
BRANCH   5   9
ATOM      9  N   UNL A   1      33.303  21.983  24.202  1.00  0.00    -0.342 N 
ATOM     10  C   UNL A   1      32.669  22.446  23.089  1.00  0.00     0.242 C 
ATOM     11  H   UNL A   1      33.337  20.999  24.236  1.00  0.00     0.164 HD
ATOM     12  O   UNL A   1      32.470  21.616  22.195  1.00  0.00    -0.273 OA
BRANCH  10  13
ATOM     13  C   UNL A   1      32.280  23.936  22.903  1.00  0.00     0.168 C 
ATOM     14  C   UNL A   1      30.776  24.063  23.169  1.00  0.00     0.041 C 
BRANCH  13  15
ATOM     15  N   UNL A   1      32.563  24.353  21.530  1.00  0.00    -0.343 N 
ATOM     16  C   UNL A   1      32.665  25.605  20.991  1.00  0.00     0.240 C 
ATOM     17  H   UNL A   1      32.704  23.615  20.893  1.00  0.00     0.164 HD
ATOM     18  O   UNL A   1      33.052  25.695  19.823  1.00  0.00    -0.273 OA
BRANCH  16  19
ATOM     19  C   UNL A   1      32.437  26.866  21.844  1.00  0.00     0.219 C 
BRANCH  19  20
ATOM     20  N   UNL A   1      31.076  27.339  21.738  1.00  0.00    -0.312 N 
ATOM     21  C   UNL A   1      30.527  28.410  22.371  1.00  0.00     0.407 C 
ATOM     22  H   UNL A   1      30.480  26.830  21.141  1.00  0.00     0.167 HD
ATOM     23  O   UNL A   1      29.314  28.549  22.405  1.00  0.00    -0.225 OA
BRANCH  21  24
ATOM     24  O   UNL A   1      31.435  29.202  22.987  1.00  0.00    -0.445 OA
BRANCH  24  25
ATOM     25  C   UNL A   1      31.294  29.294  24.409  1.00  0.00     0.270 C 
BRANCH  25  26
ATOM     26  C   UNL A   1      31.862  28.135  25.185  1.00  0.00    -0.011 A 
ATOM     27  C   UNL A   1      31.017  27.141  25.698  1.00  0.00     0.007 A 
ATOM     28  C   UNL A   1      33.251  27.960  25.293  1.00  0.00     0.007 A 
ATOM     29  C   UNL A   1      31.546  25.999  26.300  1.00  0.00     0.000 A 
ATOM     30  C   UNL A   1      33.779  26.812  25.888  1.00  0.00     0.000 A 
ATOM     31  C   UNL A   1      32.925  25.832  26.391  1.00  0.00     0.000 A 
ENDBRANCH  25  26
ENDBRANCH  24  25
ENDBRANCH  21  24
ENDBRANCH  19  20
ENDBRANCH  16  19
ENDBRANCH  13  15
ENDBRANCH  10  13
ENDBRANCH   5   9
ENDBRANCH   1   5
BRANCH   3  32
ATOM     32  C   UNL A   1      36.486  20.515  25.245  1.00  0.00     0.116 C 
BRANCH  32  33
ATOM     33  C   UNL A   1      37.700  19.876  24.578  1.00  0.00     0.023 C 
BRANCH  33  34
ATOM     34  C   UNL A   1      38.714  19.159  25.472  1.00  0.00     0.023 C 
BRANCH  34  35
ATOM     35  C   UNL A   1      39.792  20.005  26.149  1.00  0.00     0.116 C 
BRANCH  35  36
ATOM     36  N   UNL A   1      41.144  19.496  26.006  1.00  0.00    -0.352 N 
ATOM     37  C   UNL A   1      42.354  20.147  26.139  1.00  0.00     0.251 C 
ATOM     38  H   UNL A   1      41.208  18.541  25.778  1.00  0.00     0.163 HD
ATOM     39  O   UNL A   1      43.385  19.526  25.886  1.00  0.00    -0.269 OA
BRANCH  37  40
ATOM     40  C   UNL A   1      42.432  21.581  26.528  1.00  0.00     0.039 A 
ATOM     41  C   UNL A   1      42.538  21.905  27.887  1.00  0.00     0.014 A 
ATOM     42  C   UNL A   1      42.384  22.609  25.586  1.00  0.00     0.014 A 
ATOM     43  C   UNL A   1      42.675  23.240  28.284  1.00  0.00     0.010 A 
ATOM     44  C   UNL A   1      42.572  23.935  25.975  1.00  0.00     0.010 A 
ATOM     45  C   UNL A   1      42.731  24.264  27.327  1.00  0.00    -0.014 A 
BRANCH  45  46
ATOM     46  C   UNL A   1      43.001  25.674  27.713  1.00  0.00     0.031 A 
ATOM     47  C   UNL A   1      44.393  26.239  27.642  1.00  0.00     0.074 A 
ATOM     48  C   UNL A   1      41.996  26.415  28.220  1.00  0.00     0.049 A 
ATOM     49  N   UNL A   1      44.818  27.434  27.964  1.00  0.00    -0.248 NA
ATOM     50  C   UNL A   1      45.450  25.328  27.180  1.00  0.00     0.031 C 
ATOM     51  C   UNL A   1      40.622  25.948  28.416  1.00  0.00     0.029 A 
ATOM     52  N   UNL A   1      41.976  27.707  28.681  1.00  0.00    -0.354 N 
ATOM     53  C   UNL A   1      46.192  27.422  27.745  1.00  0.00     0.074 A 
ATOM     54  C   UNL A   1      46.533  26.078  27.327  1.00  0.00     0.031 C 
ATOM     55  C   UNL A   1      39.890  26.942  28.945  1.00  0.00     0.029 A 
ATOM     56  C   UNL A   1      40.744  28.108  29.145  1.00  0.00     0.049 A 
ATOM     57  H   UNL A   1      42.767  28.292  28.682  1.00  0.00     0.167 HD
ATOM     58  C   UNL A   1      47.078  28.444  27.860  1.00  0.00     0.034 A 
ATOM     59  C   UNL A   1      40.346  29.285  29.667  1.00  0.00     0.034 A 
ATOM     60  C   UNL A   1      46.716  29.779  28.278  1.00  0.00     0.049 A 
ATOM     61  C   UNL A   1      41.339  30.414  29.760  1.00  0.00     0.074 A 
ATOM     62  C   UNL A   1      47.515  30.906  28.364  1.00  0.00     0.029 A 
ATOM     63  N   UNL A   1      45.446  30.166  28.693  1.00  0.00    -0.354 N 
ATOM     64  N   UNL A   1      42.617  30.416  29.460  1.00  0.00    -0.248 NA
ATOM     65  C   UNL A   1      40.828  31.707  30.229  1.00  0.00     0.031 C 
ATOM     66  C   UNL A   1      46.748  31.955  28.886  1.00  0.00     0.029 A 
ATOM     67  C   UNL A   1      45.449  31.506  29.056  1.00  0.00     0.049 A 
ATOM     68  H   UNL A   1      44.660  29.576  28.724  1.00  0.00     0.167 HD
ATOM     69  C   UNL A   1      43.053  31.722  29.668  1.00  0.00     0.074 A 
ATOM     70  C   UNL A   1      41.898  32.478  30.107  1.00  0.00     0.031 C 
ATOM     71  C   UNL A   1      44.292  32.249  29.499  1.00  0.00     0.034 A 
BRANCH  58  72
ATOM     72  C   UNL A   1      48.526  28.151  27.536  1.00  0.00     0.023 A 
ATOM     73  C   UNL A   1      49.043  28.334  26.242  1.00  0.00     0.031 A 
ATOM     74  C   UNL A   1      49.399  27.666  28.526  1.00  0.00     0.131 A 
ATOM     75  C   UNL A   1      50.364  27.961  25.951  1.00  0.00     0.055 A 
ATOM     76  C   UNL A   1      50.739  27.376  28.251  1.00  0.00     0.041 A 
ATOM     77  F   UNL A   1      48.964  27.451  29.778  1.00  0.00    -0.206 F 
ATOM     78  C   UNL A   1      51.224  27.508  26.954  1.00  0.00     0.022 A 
BRANCH  75  79
ATOM     79  S   UNL A   1      50.894  27.938  24.218  1.00  0.00     0.124 S 
ATOM     80  O   UNL A   1      51.762  26.763  24.192  1.00  0.00    -0.237 OA
ATOM     81  O   UNL A   1      49.629  27.813  23.502  1.00  0.00    -0.237 OA
ATOM     82  O   UNL A   1      51.581  29.217  24.052  1.00  0.00    -0.744 OA
ENDBRANCH  75  79
ENDBRANCH  58  72
BRANCH  59  83
ATOM     83  C   UNL A   1      38.936  29.469  30.110  1.00  0.00     0.023 A 
ATOM     84  C   UNL A   1      37.982  30.045  29.256  1.00  0.00     0.031 A 
ATOM     85  C   UNL A   1      38.526  29.095  31.402  1.00  0.00     0.131 A 
ATOM     86  C   UNL A   1      36.676  30.270  29.716  1.00  0.00     0.055 A 
ATOM     87  C   UNL A   1      37.214  29.279  31.839  1.00  0.00     0.041 A 
ATOM     88  F   UNL A   1      39.396  28.528  32.252  1.00  0.00    -0.206 F 
ATOM     89  C   UNL A   1      36.283  29.882  30.999  1.00  0.00     0.022 A 
BRANCH  86  90
ATOM     90  S   UNL A   1      35.516  31.151  28.636  1.00  0.00     0.124 S 
ATOM     91  O   UNL A   1      34.819  30.048  27.985  1.00  0.00    -0.237 OA
ATOM     92  O   UNL A   1      34.738  31.925  29.597  1.00  0.00    -0.237 OA
ATOM     93  O   UNL A   1      36.389  31.937  27.768  1.00  0.00    -0.744 OA
ENDBRANCH  86  90
ENDBRANCH  59  83
BRANCH  71  94
ATOM     94  C   UNL A   1      44.442  33.732  29.740  1.00  0.00     0.023 A 
ATOM     95  C   UNL A   1      44.776  34.250  31.004  1.00  0.00     0.031 A 
ATOM     96  C   UNL A   1      44.217  34.641  28.691  1.00  0.00     0.131 A 
ATOM     97  C   UNL A   1      44.812  35.639  31.203  1.00  0.00     0.055 A 
ATOM     98  C   UNL A   1      44.315  36.020  28.880  1.00  0.00     0.041 A 
ATOM     99  F   UNL A   1      43.893  34.202  27.464  1.00  0.00    -0.206 F 
ATOM    100  C   UNL A   1      44.599  36.526  30.144  1.00  0.00     0.022 A 
BRANCH  97 101
ATOM    101  S   UNL A   1      45.040  36.272  32.887  1.00  0.00     0.124 S 
ATOM    102  O   UNL A   1      46.377  35.786  33.216  1.00  0.00    -0.237 OA
ATOM    103  O   UNL A   1      44.915  37.713  32.698  1.00  0.00    -0.237 OA
ATOM    104  O   UNL A   1      43.952  35.649  33.638  1.00  0.00    -0.744 OA
ENDBRANCH  97 101
ENDBRANCH  71  94
ENDBRANCH  45  46
ENDBRANCH  37  40
ENDBRANCH  35  36
ENDBRANCH  34  35
ENDBRANCH  33  34
ENDBRANCH  32  33
ENDBRANCH   3  32
TORSDOF 23
ENDMDL
MODEL 3
REMARK VINA RESULT:     -10.6      5.388     10.777
REMARK SMILES CC(C)[C@H](NC(=O)[C@H](C)NC(=O)CNC(=O)OCc1ccccc1)C(=O)NCCCCNC(=O)c1ccc(-c2c3nc(c(-c4cc(S(=O)(=O)[O-])ccc4F)c4ccc([nH]4)c(-c4cc(S(=O)(=O)[O-])ccc4F)c4nc(c(-c5cc(S(=O)(=O)[O-])ccc5F)c5ccc2[nH]5)C=C4)C=C3)cc1
REMARK SMILES IDX 25 1 26 2 27 3 4 5 2 6 1 7 3 8 5 9 6 10 7 12 8 13 9 14 10 15
REMARK SMILES IDX 11 16 12 18 13 19 14 20 15 21 16 23 17 24 18 25 19 26 20 27
REMARK SMILES IDX 24 28 21 29 23 30 22 31 28 32 29 33 30 34 31 35 32 36 33 37
REMARK SMILES IDX 34 39 35 40 36 41 97 42 37 43 96 44 38 45 39 46 40 47 90 48
REMARK SMILES IDX 41 49 95 50 89 51 91 52 42 53 94 54 88 55 87 56 43 58 75 59
REMARK SMILES IDX 55 60 74 61 56 62 59 63 73 64 92 65 57 66 58 67 72 69 93 70
REMARK SMILES IDX 60 71 44 72 45 73 53 74 46 75 52 76 54 77 51 78 47 79 48 80
REMARK SMILES IDX 49 81 50 82 76 83 77 84 85 85 78 86 84 87 86 88 83 89 79 90
REMARK SMILES IDX 80 91 81 92 82 93 61 94 62 95 70 96 63 97 69 98 71 99 68 100
REMARK SMILES IDX 64 101 65 102 66 103 67 104
REMARK H PARENT 27 4 5 11 10 17 14 22 32 38 91 57 59 68
REMARK Flexibility Score: inf
ROOT
ATOM      1  C   UNL A   1      35.985  23.196  25.459  1.00  0.00     0.242 C 
ATOM      2  O   UNL A   1      36.582  24.248  25.727  1.00  0.00    -0.273 OA
ATOM      3  N   UNL A   1      36.793  22.131  25.220  1.00  0.00    -0.354 N 
ATOM      4  H   UNL A   1      37.747  22.371  25.168  1.00  0.00     0.163 HD
ENDROOT
BRANCH   1   5
ATOM      5  C   UNL A   1      34.420  23.192  25.463  1.00  0.00     0.173 C 
BRANCH   5   6
ATOM      6  C   UNL A   1      33.750  23.245  26.864  1.00  0.00     0.015 C 
ATOM      7  C   UNL A   1      32.288  23.696  26.888  1.00  0.00     0.010 C 
ATOM      8  C   UNL A   1      33.829  21.883  27.579  1.00  0.00     0.010 C 
ENDBRANCH   5   6
BRANCH   5   9
ATOM      9  N   UNL A   1      33.706  22.313  24.519  1.00  0.00    -0.342 N 
ATOM     10  C   UNL A   1      32.832  22.513  23.493  1.00  0.00     0.242 C 
ATOM     11  H   UNL A   1      33.907  21.360  24.664  1.00  0.00     0.164 HD
ATOM     12  O   UNL A   1      32.631  21.540  22.757  1.00  0.00    -0.273 OA
BRANCH  10  13
ATOM     13  C   UNL A   1      32.178  23.889  23.204  1.00  0.00     0.168 C 
ATOM     14  C   UNL A   1      30.657  23.705  23.266  1.00  0.00     0.041 C 
BRANCH  13  15
ATOM     15  N   UNL A   1      32.553  24.343  21.865  1.00  0.00    -0.343 N 
ATOM     16  C   UNL A   1      32.633  25.607  21.352  1.00  0.00     0.240 C 
ATOM     17  H   UNL A   1      32.787  23.624  21.234  1.00  0.00     0.164 HD
ATOM     18  O   UNL A   1      33.113  25.736  20.222  1.00  0.00    -0.273 OA
BRANCH  16  19
ATOM     19  C   UNL A   1      32.267  26.840  22.197  1.00  0.00     0.219 C 
BRANCH  19  20
ATOM     20  N   UNL A   1      30.906  27.264  21.954  1.00  0.00    -0.312 N 
ATOM     21  C   UNL A   1      30.318  28.415  22.375  1.00  0.00     0.407 C 
ATOM     22  H   UNL A   1      30.345  26.652  21.426  1.00  0.00     0.167 HD
ATOM     23  O   UNL A   1      29.103  28.536  22.333  1.00  0.00    -0.225 OA
BRANCH  21  24
ATOM     24  O   UNL A   1      31.188  29.315  22.889  1.00  0.00    -0.445 OA
BRANCH  24  25
ATOM     25  C   UNL A   1      30.952  29.676  24.255  1.00  0.00     0.270 C 
BRANCH  25  26
ATOM     26  C   UNL A   1      31.914  29.081  25.249  1.00  0.00    -0.011 A 
ATOM     27  C   UNL A   1      33.276  29.408  25.203  1.00  0.00     0.007 A 
ATOM     28  C   UNL A   1      31.445  28.298  26.316  1.00  0.00     0.007 A 
ATOM     29  C   UNL A   1      34.148  28.967  26.200  1.00  0.00     0.000 A 
ATOM     30  C   UNL A   1      32.317  27.864  27.317  1.00  0.00     0.000 A 
ATOM     31  C   UNL A   1      33.668  28.200  27.258  1.00  0.00     0.000 A 
ENDBRANCH  25  26
ENDBRANCH  24  25
ENDBRANCH  21  24
ENDBRANCH  19  20
ENDBRANCH  16  19
ENDBRANCH  13  15
ENDBRANCH  10  13
ENDBRANCH   5   9
ENDBRANCH   1   5
BRANCH   3  32
ATOM     32  C   UNL A   1      36.548  20.719  25.022  1.00  0.00     0.116 C 
BRANCH  32  33
ATOM     33  C   UNL A   1      37.723  19.944  24.433  1.00  0.00     0.023 C 
BRANCH  33  34
ATOM     34  C   UNL A   1      38.546  19.064  25.376  1.00  0.00     0.023 C 
BRANCH  34  35
ATOM     35  C   UNL A   1      39.693  19.720  26.144  1.00  0.00     0.116 C 
BRANCH  35  36
ATOM     36  N   UNL A   1      40.986  19.084  25.969  1.00  0.00    -0.352 N 
ATOM     37  C   UNL A   1      42.255  19.621  26.046  1.00  0.00     0.251 C 
ATOM     38  H   UNL A   1      40.953  18.122  25.764  1.00  0.00     0.163 HD
ATOM     39  O   UNL A   1      43.214  18.901  25.775  1.00  0.00    -0.269 OA
BRANCH  37  40
ATOM     40  C   UNL A   1      42.480  21.049  26.397  1.00  0.00     0.039 A 
ATOM     41  C   UNL A   1      42.564  21.405  27.750  1.00  0.00     0.014 A 
ATOM     42  C   UNL A   1      42.589  22.044  25.425  1.00  0.00     0.014 A 
ATOM     43  C   UNL A   1      42.836  22.729  28.115  1.00  0.00     0.010 A 
ATOM     44  C   UNL A   1      42.911  23.353  25.784  1.00  0.00     0.010 A 
ATOM     45  C   UNL A   1      43.049  23.707  27.131  1.00  0.00    -0.014 A 
BRANCH  45  46
ATOM     46  C   UNL A   1      43.462  25.090  27.489  1.00  0.00     0.031 A 
ATOM     47  C   UNL A   1      44.916  25.467  27.555  1.00  0.00     0.074 A 
ATOM     48  C   UNL A   1      42.516  25.980  27.848  1.00  0.00     0.049 A 
ATOM     49  N   UNL A   1      45.460  26.613  27.875  1.00  0.00    -0.248 NA
ATOM     50  C   UNL A   1      45.886  24.404  27.253  1.00  0.00     0.031 C 
ATOM     51  C   UNL A   1      41.079  25.705  27.904  1.00  0.00     0.029 A 
ATOM     52  N   UNL A   1      42.619  27.287  28.252  1.00  0.00    -0.354 N 
ATOM     53  C   UNL A   1      46.835  26.414  27.814  1.00  0.00     0.074 A 
ATOM     54  C   UNL A   1      47.037  25.015  27.492  1.00  0.00     0.031 C 
ATOM     55  C   UNL A   1      40.434  26.812  28.307  1.00  0.00     0.029 A 
ATOM     56  C   UNL A   1      41.409  27.868  28.556  1.00  0.00     0.049 A 
ATOM     57  H   UNL A   1      43.477  27.765  28.319  1.00  0.00     0.167 HD
ATOM     58  C   UNL A   1      47.833  27.318  27.988  1.00  0.00     0.034 A 
ATOM     59  C   UNL A   1      41.118  29.113  28.981  1.00  0.00     0.034 A 
ATOM     60  C   UNL A   1      47.609  28.709  28.308  1.00  0.00     0.049 A 
ATOM     61  C   UNL A   1      42.237  30.109  29.141  1.00  0.00     0.074 A 
ATOM     62  C   UNL A   1      48.538  29.728  28.439  1.00  0.00     0.029 A 
ATOM     63  N   UNL A   1      46.365  29.278  28.559  1.00  0.00    -0.354 N 
ATOM     64  N   UNL A   1      43.529  29.930  28.989  1.00  0.00    -0.248 NA
ATOM     65  C   UNL A   1      41.856  31.480  29.497  1.00  0.00     0.031 C 
ATOM     66  C   UNL A   1      47.866  30.893  28.828  1.00  0.00     0.029 A 
ATOM     67  C   UNL A   1      46.507  30.624  28.867  1.00  0.00     0.049 A 
ATOM     68  H   UNL A   1      45.508  28.796  28.525  1.00  0.00     0.167 HD
ATOM     69  C   UNL A   1      44.110  31.179  29.193  1.00  0.00     0.074 A 
ATOM     70  C   UNL A   1      43.026  32.100  29.466  1.00  0.00     0.031 C 
ATOM     71  C   UNL A   1      45.420  31.532  29.145  1.00  0.00     0.034 A 
BRANCH  58  72
ATOM     72  C   UNL A   1      49.255  26.824  27.843  1.00  0.00     0.023 A 
ATOM     73  C   UNL A   1      50.092  26.655  28.960  1.00  0.00     0.031 A 
ATOM     74  C   UNL A   1      49.789  26.534  26.575  1.00  0.00     0.131 A 
ATOM     75  C   UNL A   1      51.435  26.288  28.784  1.00  0.00     0.055 A 
ATOM     76  C   UNL A   1      51.104  26.086  26.414  1.00  0.00     0.041 A 
ATOM     77  F   UNL A   1      49.049  26.693  25.467  1.00  0.00    -0.206 F 
ATOM     78  C   UNL A   1      51.940  25.977  27.521  1.00  0.00     0.022 A 
BRANCH  75  79
ATOM     79  S   UNL A   1      52.546  26.368  30.214  1.00  0.00     0.124 S 
ATOM     80  O   UNL A   1      53.856  26.255  29.575  1.00  0.00    -0.237 OA
ATOM     81  O   UNL A   1      52.227  27.670  30.791  1.00  0.00    -0.237 OA
ATOM     82  O   UNL A   1      52.152  25.215  31.020  1.00  0.00    -0.744 OA
ENDBRANCH  75  79
ENDBRANCH  58  72
BRANCH  59  83
ATOM     83  C   UNL A   1      39.706  29.500  29.253  1.00  0.00     0.023 A 
ATOM     84  C   UNL A   1      39.235  29.628  30.570  1.00  0.00     0.031 A 
ATOM     85  C   UNL A   1      38.800  29.727  28.202  1.00  0.00     0.131 A 
ATOM     86  C   UNL A   1      37.885  29.929  30.803  1.00  0.00     0.055 A 
ATOM     87  C   UNL A   1      37.469  30.072  28.440  1.00  0.00     0.041 A 
ATOM     88  F   UNL A   1      39.204  29.631  26.926  1.00  0.00    -0.206 F 
ATOM     89  C   UNL A   1      37.001  30.161  29.748  1.00  0.00     0.022 A 
BRANCH  86  90
ATOM     90  S   UNL A   1      37.282  29.937  32.514  1.00  0.00     0.124 S 
ATOM     91  O   UNL A   1      37.400  28.530  32.879  1.00  0.00    -0.237 OA
ATOM     92  O   UNL A   1      38.222  30.847  33.160  1.00  0.00    -0.237 OA
ATOM     93  O   UNL A   1      35.916  30.439  32.391  1.00  0.00    -0.744 OA
ENDBRANCH  86  90
ENDBRANCH  59  83
BRANCH  71  94
ATOM     94  C   UNL A   1      45.739  32.995  29.342  1.00  0.00     0.023 A 
ATOM     95  C   UNL A   1      45.738  33.907  28.271  1.00  0.00     0.031 A 
ATOM     96  C   UNL A   1      46.078  33.475  30.619  1.00  0.00     0.131 A 
ATOM     97  C   UNL A   1      46.132  35.237  28.485  1.00  0.00     0.055 A 
ATOM     98  C   UNL A   1      46.409  34.813  30.837  1.00  0.00     0.041 A 
ATOM     99  F   UNL A   1      46.098  32.649  31.677  1.00  0.00    -0.206 F 
ATOM    100  C   UNL A   1      46.453  35.699  29.765  1.00  0.00     0.022 A 
BRANCH  97 101
ATOM    101  S   UNL A   1      46.320  36.331  27.051  1.00  0.00     0.124 S 
ATOM    102  O   UNL A   1      44.949  36.783  26.832  1.00  0.00    -0.237 OA
ATOM    103  O   UNL A   1      47.251  37.339  27.547  1.00  0.00    -0.237 OA
ATOM    104  O   UNL A   1      46.855  35.450  26.015  1.00  0.00    -0.744 OA
ENDBRANCH  97 101
ENDBRANCH  71  94
ENDBRANCH  45  46
ENDBRANCH  37  40
ENDBRANCH  35  36
ENDBRANCH  34  35
ENDBRANCH  33  34
ENDBRANCH  32  33
ENDBRANCH   3  32
TORSDOF 23
ENDMDL
