MODEL 1
REMARK VINA RESULT:     -10.9      0.000      0.000
REMARK SMILES COCC[C@@H](C)NC(=O)N[C@@H]1C=C[C@@H](C(=O)NCCCCNC(=O)c2ccc(-c3c4nc(c(-c5cc(S(=O)(=O)[O-])ccc5F)c5ccc([nH]5)c(-c5cc(S(=O)(=O)[O-])ccc5F)c5nc(c(-c6cc(S(=O)(=O)[O-])ccc6F)c6ccc3[nH]6)C=C5)C=C4)cc2)C1
REMARK SMILES IDX 18 1 17 2 15 3 16 4 14 6 11 7 12 8 88 9 13 10 10 11 7 12
REMARK SMILES IDX 8 13 9 15 5 17 6 18 4 19 3 20 2 21 1 22 19 23 20 24 21 25
REMARK SMILES IDX 22 26 23 27 24 29 25 30 26 31 87 32 27 33 86 34 28 35 29 36
REMARK SMILES IDX 30 37 80 38 31 39 85 40 79 41 81 42 32 43 84 44 78 45 77 46
REMARK SMILES IDX 33 48 65 49 45 50 64 51 46 52 49 53 63 54 82 55 47 56 48 57
REMARK SMILES IDX 62 59 83 60 50 61 34 62 35 63 43 64 36 65 42 66 44 67 41 68
REMARK SMILES IDX 37 69 38 70 39 71 40 72 66 73 67 74 75 75 68 76 74 77 76 78
REMARK SMILES IDX 73 79 69 80 70 81 71 82 72 83 51 84 52 85 60 86 53 87 59 88
REMARK SMILES IDX 61 89 58 90 54 91 55 92 56 93 57 94
REMARK H PARENT 17 5 7 14 10 16 22 28 81 47 49 58
REMARK Flexibility Score: inf
ROOT
ATOM      1  C   UNL A   1      33.939  28.040  22.834  1.00  0.00     0.116 C 
ENDROOT
BRANCH   1   2
ATOM      2  N   UNL A   1      33.007  27.368  21.943  1.00  0.00    -0.356 N 
ATOM      3  C   UNL A   1      32.685  26.037  21.870  1.00  0.00     0.227 C 
ATOM      4  O   UNL A   1      31.869  25.688  21.011  1.00  0.00    -0.274 OA
ATOM      5  H   UNL A   1      32.541  27.951  21.301  1.00  0.00     0.163 HD
BRANCH   3   6
ATOM      6  C   UNL A   1      33.316  24.991  22.804  1.00  0.00     0.103 C 
ATOM      7  C   UNL A   1      32.685  23.060  24.160  1.00  0.00     0.107 C 
ATOM      8  C   UNL A   1      33.008  22.653  22.790  1.00  0.00    -0.006 C 
ATOM      9  C   UNL A   1      32.461  24.579  24.005  1.00  0.00     0.047 C 
ATOM     10  C   UNL A   1      33.479  23.691  22.091  1.00  0.00    -0.016 C 
BRANCH   7  11
ATOM     11  N   UNL A   1      33.741  22.719  25.108  1.00  0.00    -0.332 N 
ATOM     12  N   UNL A   1      34.504  20.436  25.235  1.00  0.00    -0.336 N 
ATOM     13  C   UNL A   1      34.494  21.725  25.558  1.00  0.00     0.315 C 
ATOM     14  H   UNL A   1      35.177  19.971  25.781  1.00  0.00     0.165 HD
ATOM     15  O   UNL A   1      35.306  22.046  26.439  1.00  0.00    -0.249 OA
ATOM     16  H   UNL A   1      33.988  23.536  25.598  1.00  0.00     0.165 HD
BRANCH  12  17
ATOM     17  C   UNL A   1      33.853  19.465  24.339  1.00  0.00     0.083 C 
ATOM     18  C   UNL A   1      32.361  19.388  24.665  1.00  0.00     0.031 C 
BRANCH  17  19
ATOM     19  C   UNL A   1      34.556  18.099  24.429  1.00  0.00     0.053 C 
BRANCH  19  20
ATOM     20  C   UNL A   1      34.056  17.031  23.445  1.00  0.00     0.162 C 
BRANCH  20  21
ATOM     21  O   UNL A   1      33.869  15.771  24.081  1.00  0.00    -0.385 OA
ATOM     22  C   UNL A   1      33.302  15.857  25.382  1.00  0.00     0.194 C 
ENDBRANCH  20  21
ENDBRANCH  19  20
ENDBRANCH  17  19
ENDBRANCH  12  17
ENDBRANCH   7  11
ENDBRANCH   3   6
ENDBRANCH   1   2
BRANCH   1  23
ATOM     23  C   UNL A   1      33.273  28.882  23.905  1.00  0.00     0.023 C 
BRANCH  23  24
ATOM     24  C   UNL A   1      33.211  28.237  25.282  1.00  0.00     0.023 C 
BRANCH  24  25
ATOM     25  C   UNL A   1      34.148  28.834  26.329  1.00  0.00     0.116 C 
BRANCH  25  26
ATOM     26  N   UNL A   1      33.823  30.211  26.681  1.00  0.00    -0.352 N 
ATOM     27  C   UNL A   1      34.443  31.061  27.568  1.00  0.00     0.251 C 
ATOM     28  H   UNL A   1      33.044  30.589  26.215  1.00  0.00     0.163 HD
ATOM     29  O   UNL A   1      33.929  32.146  27.832  1.00  0.00    -0.269 OA
BRANCH  27  30
ATOM     30  C   UNL A   1      35.701  30.649  28.224  1.00  0.00     0.039 A 
ATOM     31  C   UNL A   1      35.644  29.848  29.366  1.00  0.00     0.014 A 
ATOM     32  C   UNL A   1      36.936  31.022  27.688  1.00  0.00     0.014 A 
ATOM     33  C   UNL A   1      36.827  29.349  29.918  1.00  0.00     0.010 A 
ATOM     34  C   UNL A   1      38.104  30.449  28.181  1.00  0.00     0.010 A 
ATOM     35  C   UNL A   1      38.064  29.607  29.304  1.00  0.00    -0.014 A 
BRANCH  35  36
ATOM     36  C   UNL A   1      39.323  29.013  29.829  1.00  0.00     0.031 A 
ATOM     37  C   UNL A   1      39.976  29.593  31.055  1.00  0.00     0.074 A 
ATOM     38  C   UNL A   1      39.906  27.991  29.171  1.00  0.00     0.049 A 
ATOM     39  N   UNL A   1      41.094  29.246  31.641  1.00  0.00    -0.248 NA
ATOM     40  C   UNL A   1      39.299  30.736  31.685  1.00  0.00     0.031 C 
ATOM     41  C   UNL A   1      39.401  27.380  27.938  1.00  0.00     0.029 A 
ATOM     42  N   UNL A   1      41.051  27.284  29.442  1.00  0.00    -0.354 N 
ATOM     43  C   UNL A   1      41.258  30.134  32.699  1.00  0.00     0.074 A 
ATOM     44  C   UNL A   1      40.166  31.079  32.625  1.00  0.00     0.031 C 
ATOM     45  C   UNL A   1      40.210  26.369  27.583  1.00  0.00     0.029 A 
ATOM     46  C   UNL A   1      41.316  26.285  28.532  1.00  0.00     0.049 A 
ATOM     47  H   UNL A   1      41.630  27.473  30.216  1.00  0.00     0.167 HD
ATOM     48  C   UNL A   1      42.214  30.142  33.662  1.00  0.00     0.034 A 
ATOM     49  C   UNL A   1      42.334  25.405  28.467  1.00  0.00     0.034 A 
ATOM     50  C   UNL A   1      43.291  29.184  33.728  1.00  0.00     0.049 A 
ATOM     51  C   UNL A   1      43.392  25.438  29.543  1.00  0.00     0.074 A 
ATOM     52  C   UNL A   1      44.282  29.065  34.686  1.00  0.00     0.029 A 
ATOM     53  N   UNL A   1      43.522  28.181  32.794  1.00  0.00    -0.354 N 
ATOM     54  N   UNL A   1      43.498  26.246  30.573  1.00  0.00    -0.248 NA
ATOM     55  C   UNL A   1      44.454  24.430  29.457  1.00  0.00     0.031 C 
ATOM     56  C   UNL A   1      45.151  28.041  34.294  1.00  0.00     0.029 A 
ATOM     57  C   UNL A   1      44.656  27.460  33.138  1.00  0.00     0.049 A 
ATOM     58  H   UNL A   1      42.962  28.008  32.002  1.00  0.00     0.167 HD
ATOM     59  C   UNL A   1      44.622  25.818  31.277  1.00  0.00     0.074 A 
ATOM     60  C   UNL A   1      45.144  24.671  30.562  1.00  0.00     0.031 C 
ATOM     61  C   UNL A   1      45.172  26.324  32.410  1.00  0.00     0.034 A 
BRANCH  48  62
ATOM     62  C   UNL A   1      42.142  31.237  34.702  1.00  0.00     0.023 A 
ATOM     63  C   UNL A   1      41.049  31.350  35.581  1.00  0.00     0.031 A 
ATOM     64  C   UNL A   1      43.161  32.201  34.797  1.00  0.00     0.131 A 
ATOM     65  C   UNL A   1      40.960  32.446  36.453  1.00  0.00     0.055 A 
ATOM     66  C   UNL A   1      43.110  33.239  35.731  1.00  0.00     0.041 A 
ATOM     67  F   UNL A   1      44.220  32.161  33.972  1.00  0.00    -0.206 F 
ATOM     68  C   UNL A   1      41.996  33.376  36.553  1.00  0.00     0.022 A 
BRANCH  65  69
ATOM     69  S   UNL A   1      39.401  32.722  37.337  1.00  0.00     0.124 S 
ATOM     70  O   UNL A   1      39.787  32.424  38.714  1.00  0.00    -0.237 OA
ATOM     71  O   UNL A   1      39.114  34.122  37.043  1.00  0.00    -0.237 OA
ATOM     72  O   UNL A   1      38.486  31.756  36.731  1.00  0.00    -0.744 OA
ENDBRANCH  65  69
ENDBRANCH  48  62
BRANCH  49  73
ATOM     73  C   UNL A   1      42.414  24.414  27.353  1.00  0.00     0.023 A 
ATOM     74  C   UNL A   1      41.648  23.238  27.373  1.00  0.00     0.031 A 
ATOM     75  C   UNL A   1      43.297  24.607  26.275  1.00  0.00     0.131 A 
ATOM     76  C   UNL A   1      41.816  22.276  26.364  1.00  0.00     0.055 A 
ATOM     77  C   UNL A   1      43.417  23.673  25.244  1.00  0.00     0.041 A 
ATOM     78  F   UNL A   1      44.048  25.717  26.202  1.00  0.00    -0.206 F 
ATOM     79  C   UNL A   1      42.685  22.491  25.293  1.00  0.00     0.022 A 
BRANCH  76  80
ATOM     80  S   UNL A   1      40.946  20.690  26.523  1.00  0.00     0.124 S 
ATOM     81  O   UNL A   1      41.804  19.802  25.747  1.00  0.00    -0.237 OA
ATOM     82  O   UNL A   1      40.950  20.487  27.967  1.00  0.00    -0.237 OA
ATOM     83  O   UNL A   1      39.635  20.962  25.937  1.00  0.00    -0.744 OA
ENDBRANCH  76  80
ENDBRANCH  49  73
BRANCH  61  84
ATOM     84  C   UNL A   1      46.373  25.599  32.972  1.00  0.00     0.023 A 
ATOM     85  C   UNL A   1      46.240  24.557  33.907  1.00  0.00     0.031 A 
ATOM     86  C   UNL A   1      47.671  25.977  32.585  1.00  0.00     0.131 A 
ATOM     87  C   UNL A   1      47.386  23.977  34.474  1.00  0.00     0.055 A 
ATOM     88  C   UNL A   1      48.805  25.348  33.100  1.00  0.00     0.041 A 
ATOM     89  F   UNL A   1      47.859  26.968  31.699  1.00  0.00    -0.206 F 
ATOM     90  C   UNL A   1      48.667  24.353  34.063  1.00  0.00     0.022 A 
BRANCH  87  91
ATOM     91  S   UNL A   1      47.180  22.807  35.845  1.00  0.00     0.124 S 
ATOM     92  O   UNL A   1      47.430  23.653  37.007  1.00  0.00    -0.237 OA
ATOM     93  O   UNL A   1      45.802  22.359  35.667  1.00  0.00    -0.237 OA
ATOM     94  O   UNL A   1      48.199  21.792  35.586  1.00  0.00    -0.744 OA
ENDBRANCH  87  91
ENDBRANCH  61  84
ENDBRANCH  35  36
ENDBRANCH  27  30
ENDBRANCH  25  26
ENDBRANCH  24  25
ENDBRANCH  23  24
ENDBRANCH   1  23
TORSDOF 19
ENDMDL
MODEL 2
REMARK VINA RESULT:     -10.8      3.110      8.508
REMARK SMILES COCC[C@@H](C)NC(=O)N[C@@H]1C=C[C@@H](C(=O)NCCCCNC(=O)c2ccc(-c3c4nc(c(-c5cc(S(=O)(=O)[O-])ccc5F)c5ccc([nH]5)c(-c5cc(S(=O)(=O)[O-])ccc5F)c5nc(c(-c6cc(S(=O)(=O)[O-])ccc6F)c6ccc3[nH]6)C=C5)C=C4)cc2)C1
REMARK SMILES IDX 18 1 17 2 15 3 16 4 14 6 11 7 12 8 88 9 13 10 10 11 7 12
REMARK SMILES IDX 8 13 9 15 5 17 6 18 4 19 3 20 2 21 1 22 19 23 20 24 21 25
REMARK SMILES IDX 22 26 23 27 24 29 25 30 26 31 87 32 27 33 86 34 28 35 29 36
REMARK SMILES IDX 30 37 80 38 31 39 85 40 79 41 81 42 32 43 84 44 78 45 77 46
REMARK SMILES IDX 33 48 65 49 45 50 64 51 46 52 49 53 63 54 82 55 47 56 48 57
REMARK SMILES IDX 62 59 83 60 50 61 34 62 35 63 43 64 36 65 42 66 44 67 41 68
REMARK SMILES IDX 37 69 38 70 39 71 40 72 66 73 67 74 75 75 68 76 74 77 76 78
REMARK SMILES IDX 73 79 69 80 70 81 71 82 72 83 51 84 52 85 60 86 53 87 59 88
REMARK SMILES IDX 61 89 58 90 54 91 55 92 56 93 57 94
REMARK H PARENT 17 5 7 14 10 16 22 28 81 47 49 58
REMARK Flexibility Score: inf
ROOT
ATOM      1  C   UNL A   1      32.651  29.998  26.023  1.00  0.00     0.116 C 
ENDROOT
BRANCH   1   2
ATOM      2  N   UNL A   1      33.184  29.708  24.702  1.00  0.00    -0.356 N 
ATOM      3  C   UNL A   1      33.312  28.499  24.066  1.00  0.00     0.227 C 
ATOM      4  O   UNL A   1      33.817  28.493  22.938  1.00  0.00    -0.274 OA
ATOM      5  H   UNL A   1      33.497  30.489  24.192  1.00  0.00     0.163 HD
BRANCH   3   6
ATOM      6  C   UNL A   1      32.866  27.180  24.719  1.00  0.00     0.103 C 
ATOM      7  C   UNL A   1      33.109  24.766  24.434  1.00  0.00     0.107 C 
ATOM      8  C   UNL A   1      34.190  25.306  25.265  1.00  0.00    -0.006 C 
ATOM      9  C   UNL A   1      32.559  26.036  23.750  1.00  0.00     0.047 C 
ATOM     10  C   UNL A   1      33.978  26.600  25.527  1.00  0.00    -0.016 C 
BRANCH   7  11
ATOM     11  N   UNL A   1      32.111  24.044  25.215  1.00  0.00    -0.332 N 
ATOM     12  N   UNL A   1      32.041  21.639  25.083  1.00  0.00    -0.336 N 
ATOM     13  C   UNL A   1      31.660  22.834  25.517  1.00  0.00     0.315 C 
ATOM     14  H   UNL A   1      31.474  20.948  25.496  1.00  0.00     0.165 HD
ATOM     15  O   UNL A   1      30.713  22.818  26.319  1.00  0.00    -0.249 OA
ATOM     16  H   UNL A   1      31.568  24.704  25.704  1.00  0.00     0.165 HD
BRANCH  12  17
ATOM     17  C   UNL A   1      33.022  20.991  24.196  1.00  0.00     0.083 C 
ATOM     18  C   UNL A   1      32.378  19.780  23.519  1.00  0.00     0.031 C 
BRANCH  17  19
ATOM     19  C   UNL A   1      34.297  20.630  24.978  1.00  0.00     0.053 C 
BRANCH  19  20
ATOM     20  C   UNL A   1      35.302  21.775  25.172  1.00  0.00     0.162 C 
BRANCH  20  21
ATOM     21  O   UNL A   1      36.502  21.556  24.438  1.00  0.00    -0.385 OA
ATOM     22  C   UNL A   1      37.676  21.536  25.239  1.00  0.00     0.194 C 
ENDBRANCH  20  21
ENDBRANCH  19  20
ENDBRANCH  17  19
ENDBRANCH  12  17
ENDBRANCH   7  11
ENDBRANCH   3   6
ENDBRANCH   1   2
BRANCH   1  23
ATOM     23  C   UNL A   1      31.324  30.732  26.007  1.00  0.00     0.023 C 
BRANCH  23  24
ATOM     24  C   UNL A   1      31.383  32.174  26.490  1.00  0.00     0.023 C 
BRANCH  24  25
ATOM     25  C   UNL A   1      32.690  32.588  27.162  1.00  0.00     0.116 C 
BRANCH  25  26
ATOM     26  N   UNL A   1      32.670  33.950  27.681  1.00  0.00    -0.352 N 
ATOM     27  C   UNL A   1      33.459  34.535  28.644  1.00  0.00     0.251 C 
ATOM     28  H   UNL A   1      31.990  34.540  27.282  1.00  0.00     0.163 HD
ATOM     29  O   UNL A   1      33.192  35.666  29.046  1.00  0.00    -0.269 OA
BRANCH  27  30
ATOM     30  C   UNL A   1      34.599  33.788  29.214  1.00  0.00     0.039 A 
ATOM     31  C   UNL A   1      35.900  34.216  28.939  1.00  0.00     0.014 A 
ATOM     32  C   UNL A   1      34.382  32.689  30.048  1.00  0.00     0.014 A 
ATOM     33  C   UNL A   1      36.979  33.594  29.575  1.00  0.00     0.010 A 
ATOM     34  C   UNL A   1      35.447  32.135  30.751  1.00  0.00     0.010 A 
ATOM     35  C   UNL A   1      36.759  32.578  30.521  1.00  0.00    -0.014 A 
BRANCH  35  36
ATOM     36  C   UNL A   1      37.890  31.966  31.269  1.00  0.00     0.031 A 
ATOM     37  C   UNL A   1      38.704  30.867  30.639  1.00  0.00     0.074 A 
ATOM     38  C   UNL A   1      38.146  32.359  32.533  1.00  0.00     0.049 A 
ATOM     39  N   UNL A   1      39.697  30.180  31.141  1.00  0.00    -0.248 NA
ATOM     40  C   UNL A   1      38.327  30.467  29.274  1.00  0.00     0.031 C 
ATOM     41  C   UNL A   1      37.392  33.373  33.274  1.00  0.00     0.029 A 
ATOM     42  N   UNL A   1      39.112  31.954  33.422  1.00  0.00    -0.354 N 
ATOM     43  C   UNL A   1      40.056  29.261  30.161  1.00  0.00     0.074 A 
ATOM     44  C   UNL A   1      39.123  29.430  29.068  1.00  0.00     0.031 C 
ATOM     45  C   UNL A   1      37.945  33.535  34.487  1.00  0.00     0.029 A 
ATOM     46  C   UNL A   1      39.063  32.610  34.631  1.00  0.00     0.049 A 
ATOM     47  H   UNL A   1      39.777  31.259  33.213  1.00  0.00     0.167 HD
ATOM     48  C   UNL A   1      41.086  28.378  30.159  1.00  0.00     0.034 A 
ATOM     49  C   UNL A   1      39.830  32.477  35.732  1.00  0.00     0.034 A 
ATOM     50  C   UNL A   1      42.014  28.230  31.253  1.00  0.00     0.049 A 
ATOM     51  C   UNL A   1      40.965  31.483  35.711  1.00  0.00     0.074 A 
ATOM     52  C   UNL A   1      43.124  27.407  31.338  1.00  0.00     0.029 A 
ATOM     53  N   UNL A   1      41.940  28.918  32.458  1.00  0.00    -0.354 N 
ATOM     54  N   UNL A   1      41.329  30.664  34.751  1.00  0.00    -0.248 NA
ATOM     55  C   UNL A   1      41.801  31.408  36.914  1.00  0.00     0.031 C 
ATOM     56  C   UNL A   1      43.675  27.544  32.616  1.00  0.00     0.029 A 
ATOM     57  C   UNL A   1      42.965  28.515  33.302  1.00  0.00     0.049 A 
ATOM     58  H   UNL A   1      41.257  29.592  32.682  1.00  0.00     0.167 HD
ATOM     59  C   UNL A   1      42.459  30.003  35.224  1.00  0.00     0.074 A 
ATOM     60  C   UNL A   1      42.725  30.534  36.546  1.00  0.00     0.031 C 
ATOM     61  C   UNL A   1      43.212  29.046  34.623  1.00  0.00     0.034 A 
BRANCH  48  62
ATOM     62  C   UNL A   1      41.240  27.494  28.941  1.00  0.00     0.023 A 
ATOM     63  C   UNL A   1      42.245  27.724  27.984  1.00  0.00     0.031 A 
ATOM     64  C   UNL A   1      40.352  26.427  28.716  1.00  0.00     0.131 A 
ATOM     65  C   UNL A   1      42.284  26.958  26.809  1.00  0.00     0.055 A 
ATOM     66  C   UNL A   1      40.453  25.610  27.587  1.00  0.00     0.041 A 
ATOM     67  F   UNL A   1      39.358  26.170  29.581  1.00  0.00    -0.206 F 
ATOM     68  C   UNL A   1      41.413  25.884  26.618  1.00  0.00     0.022 A 
BRANCH  65  69
ATOM     69  S   UNL A   1      43.387  27.485  25.469  1.00  0.00     0.124 S 
ATOM     70  O   UNL A   1      44.138  28.560  26.112  1.00  0.00    -0.237 OA
ATOM     71  O   UNL A   1      44.136  26.267  25.179  1.00  0.00    -0.237 OA
ATOM     72  O   UNL A   1      42.467  27.919  24.419  1.00  0.00    -0.744 OA
ENDBRANCH  65  69
ENDBRANCH  48  62
BRANCH  49  73
ATOM     73  C   UNL A   1      39.563  33.300  36.948  1.00  0.00     0.023 A 
ATOM     74  C   UNL A   1      38.841  32.778  38.033  1.00  0.00     0.031 A 
ATOM     75  C   UNL A   1      39.984  34.640  37.022  1.00  0.00     0.131 A 
ATOM     76  C   UNL A   1      38.517  33.604  39.122  1.00  0.00     0.055 A 
ATOM     77  C   UNL A   1      39.709  35.441  38.133  1.00  0.00     0.041 A 
ATOM     78  F   UNL A   1      40.684  35.189  36.016  1.00  0.00    -0.206 F 
ATOM     79  C   UNL A   1      38.957  34.927  39.185  1.00  0.00     0.022 A 
BRANCH  76  80
ATOM     80  S   UNL A   1      37.427  32.947  40.416  1.00  0.00     0.124 S 
ATOM     81  O   UNL A   1      37.432  34.033  41.388  1.00  0.00    -0.237 OA
ATOM     82  O   UNL A   1      36.181  32.744  39.687  1.00  0.00    -0.237 OA
ATOM     83  O   UNL A   1      38.105  31.724  40.841  1.00  0.00    -0.744 OA
ENDBRANCH  76  80
ENDBRANCH  49  73
BRANCH  61  84
ATOM     84  C   UNL A   1      44.427  28.554  35.376  1.00  0.00     0.023 A 
ATOM     85  C   UNL A   1      44.338  27.539  36.345  1.00  0.00     0.031 A 
ATOM     86  C   UNL A   1      45.687  29.130  35.137  1.00  0.00     0.131 A 
ATOM     87  C   UNL A   1      45.474  27.180  37.087  1.00  0.00     0.055 A 
ATOM     88  C   UNL A   1      46.827  28.720  35.829  1.00  0.00     0.041 A 
ATOM     89  F   UNL A   1      45.831  30.106  34.226  1.00  0.00    -0.206 F 
ATOM     90  C   UNL A   1      46.721  27.751  36.822  1.00  0.00     0.022 A 
BRANCH  87  91
ATOM     91  S   UNL A   1      45.274  26.042  38.485  1.00  0.00     0.124 S 
ATOM     92  O   UNL A   1      44.654  24.885  37.849  1.00  0.00    -0.237 OA
ATOM     93  O   UNL A   1      46.650  25.860  38.936  1.00  0.00    -0.237 OA
ATOM     94  O   UNL A   1      44.413  26.779  39.407  1.00  0.00    -0.744 OA
ENDBRANCH  87  91
ENDBRANCH  61  84
ENDBRANCH  35  36
ENDBRANCH  27  30
ENDBRANCH  25  26
ENDBRANCH  24  25
ENDBRANCH  23  24
ENDBRANCH   1  23
TORSDOF 19
ENDMDL
MODEL 3
REMARK VINA RESULT:     -10.8      5.339     10.386
REMARK SMILES COCC[C@@H](C)NC(=O)N[C@@H]1C=C[C@@H](C(=O)NCCCCNC(=O)c2ccc(-c3c4nc(c(-c5cc(S(=O)(=O)[O-])ccc5F)c5ccc([nH]5)c(-c5cc(S(=O)(=O)[O-])ccc5F)c5nc(c(-c6cc(S(=O)(=O)[O-])ccc6F)c6ccc3[nH]6)C=C5)C=C4)cc2)C1
REMARK SMILES IDX 18 1 17 2 15 3 16 4 14 6 11 7 12 8 88 9 13 10 10 11 7 12
REMARK SMILES IDX 8 13 9 15 5 17 6 18 4 19 3 20 2 21 1 22 19 23 20 24 21 25
REMARK SMILES IDX 22 26 23 27 24 29 25 30 26 31 87 32 27 33 86 34 28 35 29 36
REMARK SMILES IDX 30 37 80 38 31 39 85 40 79 41 81 42 32 43 84 44 78 45 77 46
REMARK SMILES IDX 33 48 65 49 45 50 64 51 46 52 49 53 63 54 82 55 47 56 48 57
REMARK SMILES IDX 62 59 83 60 50 61 34 62 35 63 43 64 36 65 42 66 44 67 41 68
REMARK SMILES IDX 37 69 38 70 39 71 40 72 66 73 67 74 75 75 68 76 74 77 76 78
REMARK SMILES IDX 73 79 69 80 70 81 71 82 72 83 51 84 52 85 60 86 53 87 59 88
REMARK SMILES IDX 61 89 58 90 54 91 55 92 56 93 57 94
REMARK H PARENT 17 5 7 14 10 16 22 28 81 47 49 58
REMARK Flexibility Score: inf
ROOT
ATOM      1  C   UNL A   1      37.400  22.513  25.553  1.00  0.00     0.116 C 
ENDROOT
BRANCH   1   2
ATOM      2  N   UNL A   1      36.322  22.538  26.528  1.00  0.00    -0.356 N 
ATOM      3  C   UNL A   1      35.088  23.132  26.440  1.00  0.00     0.227 C 
ATOM      4  O   UNL A   1      34.333  23.035  27.413  1.00  0.00    -0.274 OA
ATOM      5  H   UNL A   1      36.502  22.061  27.370  1.00  0.00     0.163 HD
BRANCH   3   6
ATOM      6  C   UNL A   1      34.643  23.911  25.192  1.00  0.00     0.103 C 
ATOM      7  C   UNL A   1      32.605  24.661  24.073  1.00  0.00     0.107 C 
ATOM      8  C   UNL A   1      33.059  25.653  25.051  1.00  0.00    -0.006 C 
ATOM      9  C   UNL A   1      33.372  23.395  24.512  1.00  0.00     0.047 C 
ATOM     10  C   UNL A   1      34.243  25.299  25.563  1.00  0.00    -0.016 C 
BRANCH   7  11
ATOM     11  N   UNL A   1      32.880  25.064  22.699  1.00  0.00    -0.332 N 
ATOM     12  N   UNL A   1      31.923  27.114  21.869  1.00  0.00    -0.336 N 
ATOM     13  C   UNL A   1      32.656  26.009  21.796  1.00  0.00     0.315 C 
ATOM     14  H   UNL A   1      31.955  27.582  21.003  1.00  0.00     0.165 HD
ATOM     15  O   UNL A   1      33.202  25.819  20.698  1.00  0.00    -0.249 OA
ATOM     16  H   UNL A   1      33.449  24.375  22.285  1.00  0.00     0.165 HD
BRANCH  12  17
ATOM     17  C   UNL A   1      31.078  27.881  22.800  1.00  0.00     0.083 C 
ATOM     18  C   UNL A   1      29.932  26.998  23.296  1.00  0.00     0.031 C 
BRANCH  17  19
ATOM     19  C   UNL A   1      30.588  29.179  22.135  1.00  0.00     0.053 C 
BRANCH  19  20
ATOM     20  C   UNL A   1      29.081  29.451  22.245  1.00  0.00     0.162 C 
BRANCH  20  21
ATOM     21  O   UNL A   1      28.573  30.095  21.081  1.00  0.00    -0.385 OA
ATOM     22  C   UNL A   1      28.151  31.436  21.297  1.00  0.00     0.194 C 
ENDBRANCH  20  21
ENDBRANCH  19  20
ENDBRANCH  17  19
ENDBRANCH  12  17
ENDBRANCH   7  11
ENDBRANCH   3   6
ENDBRANCH   1   2
BRANCH   1  23
ATOM     23  C   UNL A   1      37.388  21.297  24.647  1.00  0.00     0.023 C 
BRANCH  23  24
ATOM     24  C   UNL A   1      38.199  20.112  25.153  1.00  0.00     0.023 C 
BRANCH  24  25
ATOM     25  C   UNL A   1      39.424  20.466  25.991  1.00  0.00     0.116 C 
BRANCH  25  26
ATOM     26  N   UNL A   1      40.446  19.426  25.995  1.00  0.00    -0.352 N 
ATOM     27  C   UNL A   1      41.811  19.535  26.122  1.00  0.00     0.251 C 
ATOM     28  H   UNL A   1      40.107  18.507  25.891  1.00  0.00     0.163 HD
ATOM     29  O   UNL A   1      42.519  18.543  25.958  1.00  0.00    -0.269 OA
BRANCH  27  30
ATOM     30  C   UNL A   1      42.419  20.848  26.419  1.00  0.00     0.039 A 
ATOM     31  C   UNL A   1      42.760  21.696  25.363  1.00  0.00     0.014 A 
ATOM     32  C   UNL A   1      42.617  21.256  27.740  1.00  0.00     0.014 A 
ATOM     33  C   UNL A   1      43.216  22.988  25.637  1.00  0.00     0.010 A 
ATOM     34  C   UNL A   1      42.980  22.572  28.009  1.00  0.00     0.010 A 
ATOM     35  C   UNL A   1      43.286  23.453  26.961  1.00  0.00    -0.014 A 
BRANCH  35  36
ATOM     36  C   UNL A   1      43.688  24.854  27.265  1.00  0.00     0.031 A 
ATOM     37  C   UNL A   1      45.116  25.288  27.067  1.00  0.00     0.074 A 
ATOM     38  C   UNL A   1      42.782  25.715  27.770  1.00  0.00     0.049 A 
ATOM     39  N   UNL A   1      45.671  26.447  27.314  1.00  0.00    -0.248 NA
ATOM     40  C   UNL A   1      46.050  24.274  26.556  1.00  0.00     0.031 C 
ATOM     41  C   UNL A   1      41.381  25.396  28.061  1.00  0.00     0.029 A 
ATOM     42  N   UNL A   1      42.899  27.035  28.131  1.00  0.00    -0.354 N 
ATOM     43  C   UNL A   1      47.017  26.298  26.999  1.00  0.00     0.074 A 
ATOM     44  C   UNL A   1      47.206  24.915  26.618  1.00  0.00     0.031 C 
ATOM     45  C   UNL A   1      40.764  26.498  28.518  1.00  0.00     0.029 A 
ATOM     46  C   UNL A   1      41.729  27.589  28.598  1.00  0.00     0.049 A 
ATOM     47  H   UNL A   1      43.742  27.538  28.061  1.00  0.00     0.167 HD
ATOM     48  C   UNL A   1      48.000  27.233  26.999  1.00  0.00     0.034 A 
ATOM     49  C   UNL A   1      41.465  28.833  29.044  1.00  0.00     0.034 A 
ATOM     50  C   UNL A   1      47.791  28.611  27.371  1.00  0.00     0.049 A 
ATOM     51  C   UNL A   1      42.575  29.855  29.043  1.00  0.00     0.074 A 
ATOM     52  C   UNL A   1      48.700  29.655  27.357  1.00  0.00     0.029 A 
ATOM     53  N   UNL A   1      46.591  29.139  27.830  1.00  0.00    -0.354 N 
ATOM     54  N   UNL A   1      43.830  29.713  28.683  1.00  0.00    -0.248 NA
ATOM     55  C   UNL A   1      42.228  31.208  29.492  1.00  0.00     0.031 C 
ATOM     56  C   UNL A   1      48.070  30.792  27.874  1.00  0.00     0.029 A 
ATOM     57  C   UNL A   1      46.744  30.484  28.131  1.00  0.00     0.049 A 
ATOM     58  H   UNL A   1      45.753  28.631  27.929  1.00  0.00     0.167 HD
ATOM     59  C   UNL A   1      44.412  30.970  28.830  1.00  0.00     0.074 A 
ATOM     60  C   UNL A   1      43.364  31.858  29.292  1.00  0.00     0.031 C 
ATOM     61  C   UNL A   1      45.693  31.357  28.601  1.00  0.00     0.034 A 
BRANCH  48  62
ATOM     62  C   UNL A   1      49.388  26.782  26.604  1.00  0.00     0.023 A 
ATOM     63  C   UNL A   1      50.424  26.666  27.548  1.00  0.00     0.031 A 
ATOM     64  C   UNL A   1      49.690  26.495  25.261  1.00  0.00     0.131 A 
ATOM     65  C   UNL A   1      51.726  26.358  27.127  1.00  0.00     0.055 A 
ATOM     66  C   UNL A   1      50.970  26.101  24.861  1.00  0.00     0.041 A 
ATOM     67  F   UNL A   1      48.751  26.608  24.308  1.00  0.00    -0.206 F 
ATOM     68  C   UNL A   1      52.000  26.048  25.794  1.00  0.00     0.022 A 
BRANCH  65  69
ATOM     69  S   UNL A   1      53.083  26.525  28.320  1.00  0.00     0.124 S 
ATOM     70  O   UNL A   1      54.081  25.618  27.758  1.00  0.00    -0.237 OA
ATOM     71  O   UNL A   1      53.397  27.947  28.244  1.00  0.00    -0.237 OA
ATOM     72  O   UNL A   1      52.488  26.083  29.580  1.00  0.00    -0.744 OA
ENDBRANCH  65  69
ENDBRANCH  48  62
BRANCH  49  73
ATOM     73  C   UNL A   1      40.100  29.194  29.526  1.00  0.00     0.023 A 
ATOM     74  C   UNL A   1      39.822  29.307  30.898  1.00  0.00     0.031 A 
ATOM     75  C   UNL A   1      39.038  29.383  28.623  1.00  0.00     0.131 A 
ATOM     76  C   UNL A   1      38.507  29.549  31.329  1.00  0.00     0.055 A 
ATOM     77  C   UNL A   1      37.744  29.679  29.055  1.00  0.00     0.041 A 
ATOM     78  F   UNL A   1      39.248  29.292  27.300  1.00  0.00    -0.206 F 
ATOM     79  C   UNL A   1      37.469  29.749  30.417  1.00  0.00     0.022 A 
BRANCH  76  80
ATOM     80  S   UNL A   1      38.156  29.504  33.110  1.00  0.00     0.124 S 
ATOM     81  O   UNL A   1      39.425  29.036  33.651  1.00  0.00    -0.237 OA
ATOM     82  O   UNL A   1      37.814  30.896  33.385  1.00  0.00    -0.237 OA
ATOM     83  O   UNL A   1      37.045  28.560  33.213  1.00  0.00    -0.744 OA
ENDBRANCH  76  80
ENDBRANCH  49  73
BRANCH  61  84
ATOM     84  C   UNL A   1      46.013  32.820  28.800  1.00  0.00     0.023 A 
ATOM     85  C   UNL A   1      45.937  33.747  27.744  1.00  0.00     0.031 A 
ATOM     86  C   UNL A   1      46.425  33.289  30.060  1.00  0.00     0.131 A 
ATOM     87  C   UNL A   1      46.335  35.076  27.950  1.00  0.00     0.055 A 
ATOM     88  C   UNL A   1      46.753  34.629  30.276  1.00  0.00     0.041 A 
ATOM     89  F   UNL A   1      46.520  32.451  31.103  1.00  0.00    -0.206 F 
ATOM     90  C   UNL A   1      46.724  35.527  29.214  1.00  0.00     0.022 A 
BRANCH  87  91
ATOM     91  S   UNL A   1      46.451  36.182  26.516  1.00  0.00     0.124 S 
ATOM     92  O   UNL A   1      45.368  37.126  26.773  1.00  0.00    -0.237 OA
ATOM     93  O   UNL A   1      47.803  36.714  26.643  1.00  0.00    -0.237 OA
ATOM     94  O   UNL A   1      46.240  35.290  25.378  1.00  0.00    -0.744 OA
ENDBRANCH  87  91
ENDBRANCH  61  84
ENDBRANCH  35  36
ENDBRANCH  27  30
ENDBRANCH  25  26
ENDBRANCH  24  25
ENDBRANCH  23  24
ENDBRANCH   1  23
TORSDOF 19
ENDMDL
