MODEL 1
REMARK VINA RESULT:     -13.9      0.000      0.000
REMARK SMILES CC[C@H]([NH2+]C1c2ccccc2-c2ccccc21)C(=O)NCCCCNC(=O)c1ccc(-c2c3nc(c(-c4cc(S(=O)(=O)[O-])ccc4F)c4ccc([nH]4)c(-c4cc(S(=O)(=O)[O-])ccc4F)c4nc(c(-c5cc(S(=O)(=O)[O-])ccc5F)c5ccc2[nH]5)C=C4)C=C3)cc1
REMARK SMILES IDX 23 1 22 2 21 3 20 4 18 5 19 6 3 8 2 9 1 10 4 11 5 14 6 15
REMARK SMILES IDX 17 16 7 17 11 18 12 19 16 20 8 21 10 22 13 23 15 24 9 25
REMARK SMILES IDX 14 26 24 27 25 28 26 29 27 31 28 32 29 33 90 34 30 35 89 36
REMARK SMILES IDX 31 37 32 38 33 39 83 40 34 41 88 42 82 43 84 44 35 45 87 46
REMARK SMILES IDX 81 47 80 48 36 50 68 51 48 52 67 53 49 54 52 55 66 56 85 57
REMARK SMILES IDX 50 58 51 59 65 61 86 62 53 63 37 64 38 65 46 66 39 67 45 68
REMARK SMILES IDX 47 69 44 70 40 71 41 72 42 73 43 74 69 75 70 76 78 77 71 78
REMARK SMILES IDX 77 79 79 80 76 81 72 82 73 83 74 84 75 85 54 86 55 87 63 88
REMARK SMILES IDX 56 89 62 90 64 91 61 92 57 93 58 94 59 95 60 96
REMARK H PARENT 20 7 4 12 4 13 25 30 84 49 52 60
REMARK Flexibility Score: inf
ROOT
ATOM      1  C   UNL A   1      32.241  28.786  27.257  1.00  0.00     0.023 C 
ENDROOT
BRANCH   1   2
ATOM      2  C   UNL A   1      32.297  27.156  26.680  1.00  0.00     0.023 C 
BRANCH   2   3
ATOM      3  C   UNL A   1      30.855  25.670  25.965  1.00  0.00     0.116 C 
BRANCH   3   4
ATOM      4  N   UNL A   1      30.065  24.516  26.718  1.00  0.00    -0.351 N 
ATOM      5  C   UNL A   1      30.301  23.182  26.838  1.00  0.00     0.278 C 
ATOM      6  O   UNL A   1      29.364  22.490  27.258  1.00  0.00    -0.268 OA
ATOM      7  H   UNL A   1      29.255  24.823  27.185  1.00  0.00     0.163 HD
BRANCH   5   8
ATOM      8  C   UNL A   1      31.665  22.521  26.514  1.00  0.00     0.273 C 
BRANCH   8   9
ATOM      9  C   UNL A   1      32.871  23.422  26.876  1.00  0.00     0.072 C 
ATOM     10  C   UNL A   1      34.099  22.884  27.572  1.00  0.00     0.011 C 
ENDBRANCH   8   9
BRANCH   8  11
ATOM     11  N   UNL A   1      31.651  21.444  25.486  1.00  0.00    -0.326 N 
ATOM     12  H   UNL A   1      30.670  21.288  25.251  1.00  0.00     0.347 HD
ATOM     13  H   UNL A   1      32.174  20.701  25.948  1.00  0.00     0.347 HD
BRANCH  11  14
ATOM     14  C   UNL A   1      32.360  21.573  24.217  1.00  0.00     0.246 C 
ATOM     15  C   UNL A   1      32.109  22.870  23.523  1.00  0.00     0.022 A 
ATOM     16  C   UNL A   1      33.903  21.490  24.339  1.00  0.00     0.022 A 
ATOM     17  C   UNL A   1      30.610  23.767  23.092  1.00  0.00     0.011 A 
ATOM     18  C   UNL A   1      33.721  23.647  23.420  1.00  0.00    -0.008 A 
ATOM     19  C   UNL A   1      34.632  22.642  23.896  1.00  0.00    -0.008 A 
ATOM     20  C   UNL A   1      34.590  20.399  24.861  1.00  0.00     0.011 A 
ATOM     21  C   UNL A   1      30.745  25.540  22.727  1.00  0.00     0.001 A 
ATOM     22  C   UNL A   1      33.861  25.388  23.037  1.00  0.00     0.009 A 
ATOM     23  C   UNL A   1      36.009  22.712  24.010  1.00  0.00     0.009 A 
ATOM     24  C   UNL A   1      35.981  20.475  24.984  1.00  0.00     0.001 A 
ATOM     25  C   UNL A   1      32.373  26.334  22.651  1.00  0.00     0.001 A 
ATOM     26  C   UNL A   1      36.682  21.622  24.570  1.00  0.00     0.001 A 
ENDBRANCH  11  14
ENDBRANCH   8  11
ENDBRANCH   5   8
ENDBRANCH   3   4
ENDBRANCH   2   3
ENDBRANCH   1   2
BRANCH   1  27
ATOM     27  C   UNL A   1      33.277  29.759  26.700  1.00  0.00     0.116 C 
BRANCH  27  28
ATOM     28  N   UNL A   1      33.037  31.154  27.048  1.00  0.00    -0.352 N 
ATOM     29  C   UNL A   1      33.894  31.983  27.734  1.00  0.00     0.251 C 
ATOM     30  H   UNL A   1      32.178  31.542  26.763  1.00  0.00     0.163 HD
ATOM     31  O   UNL A   1      33.567  33.110  28.080  1.00  0.00    -0.269 OA
BRANCH  29  32
ATOM     32  C   UNL A   1      35.204  31.416  28.093  1.00  0.00     0.039 A 
ATOM     33  C   UNL A   1      36.318  32.254  28.096  1.00  0.00     0.014 A 
ATOM     34  C   UNL A   1      35.264  30.123  28.614  1.00  0.00     0.014 A 
ATOM     35  C   UNL A   1      37.502  31.797  28.668  1.00  0.00     0.010 A 
ATOM     36  C   UNL A   1      36.411  29.717  29.282  1.00  0.00     0.010 A 
ATOM     37  C   UNL A   1      37.551  30.535  29.287  1.00  0.00    -0.014 A 
BRANCH  37  38
ATOM     38  C   UNL A   1      38.825  30.029  29.855  1.00  0.00     0.031 A 
ATOM     39  C   UNL A   1      39.241  30.487  31.227  1.00  0.00     0.074 A 
ATOM     40  C   UNL A   1      39.587  29.165  29.156  1.00  0.00     0.049 A 
ATOM     41  N   UNL A   1      40.277  30.130  31.942  1.00  0.00    -0.248 NA
ATOM     42  C   UNL A   1      38.401  31.513  31.864  1.00  0.00     0.031 C 
ATOM     43  C   UNL A   1      39.305  28.693  27.797  1.00  0.00     0.029 A 
ATOM     44  N   UNL A   1      40.742  28.510  29.498  1.00  0.00    -0.354 N 
ATOM     45  C   UNL A   1      40.211  30.895  33.102  1.00  0.00     0.074 A 
ATOM     46  C   UNL A   1      39.100  31.803  32.948  1.00  0.00     0.031 C 
ATOM     47  C   UNL A   1      40.225  27.779  27.450  1.00  0.00     0.029 A 
ATOM     48  C   UNL A   1      41.180  27.621  28.543  1.00  0.00     0.049 A 
ATOM     49  H   UNL A   1      41.214  28.661  30.349  1.00  0.00     0.167 HD
ATOM     50  C   UNL A   1      40.980  30.816  34.216  1.00  0.00     0.034 A 
ATOM     51  C   UNL A   1      42.221  26.765  28.563  1.00  0.00     0.034 A 
ATOM     52  C   UNL A   1      42.072  29.888  34.352  1.00  0.00     0.049 A 
ATOM     53  C   UNL A   1      43.073  26.699  29.806  1.00  0.00     0.074 A 
ATOM     54  C   UNL A   1      42.898  29.679  35.441  1.00  0.00     0.029 A 
ATOM     55  N   UNL A   1      42.496  29.013  33.357  1.00  0.00    -0.354 N 
ATOM     56  N   UNL A   1      42.962  27.380  30.925  1.00  0.00    -0.248 NA
ATOM     57  C   UNL A   1      44.178  25.733  29.798  1.00  0.00     0.031 C 
ATOM     58  C   UNL A   1      43.865  28.736  35.079  1.00  0.00     0.029 A 
ATOM     59  C   UNL A   1      43.589  28.286  33.797  1.00  0.00     0.049 A 
ATOM     60  H   UNL A   1      42.079  28.924  32.469  1.00  0.00     0.167 HD
ATOM     61  C   UNL A   1      43.955  26.889  31.770  1.00  0.00     0.074 A 
ATOM     62  C   UNL A   1      44.645  25.850  31.032  1.00  0.00     0.031 C 
ATOM     63  C   UNL A   1      44.264  27.255  33.041  1.00  0.00     0.034 A 
BRANCH  50  64
ATOM     64  C   UNL A   1      40.671  31.784  35.335  1.00  0.00     0.023 A 
ATOM     65  C   UNL A   1      39.574  31.595  36.197  1.00  0.00     0.031 A 
ATOM     66  C   UNL A   1      41.433  32.955  35.492  1.00  0.00     0.131 A 
ATOM     67  C   UNL A   1      39.207  32.607  37.098  1.00  0.00     0.055 A 
ATOM     68  C   UNL A   1      41.121  33.911  36.461  1.00  0.00     0.041 A 
ATOM     69  F   UNL A   1      42.475  33.206  34.685  1.00  0.00    -0.206 F 
ATOM     70  C   UNL A   1      39.990  33.751  37.256  1.00  0.00     0.022 A 
BRANCH  67  71
ATOM     71  S   UNL A   1      37.589  32.495  37.912  1.00  0.00     0.124 S 
ATOM     72  O   UNL A   1      37.425  31.049  38.042  1.00  0.00    -0.237 OA
ATOM     73  O   UNL A   1      37.807  33.229  39.153  1.00  0.00    -0.237 OA
ATOM     74  O   UNL A   1      36.681  33.132  36.959  1.00  0.00    -0.744 OA
ENDBRANCH  67  71
ENDBRANCH  50  64
BRANCH  51  75
ATOM     75  C   UNL A   1      42.502  25.878  27.394  1.00  0.00     0.023 A 
ATOM     76  C   UNL A   1      42.021  24.559  27.352  1.00  0.00     0.031 A 
ATOM     77  C   UNL A   1      43.292  26.321  26.319  1.00  0.00     0.131 A 
ATOM     78  C   UNL A   1      42.373  23.714  26.287  1.00  0.00     0.055 A 
ATOM     79  C   UNL A   1      43.598  25.495  25.235  1.00  0.00     0.041 A 
ATOM     80  F   UNL A   1      43.774  27.574  26.303  1.00  0.00    -0.206 F 
ATOM     81  C   UNL A   1      43.149  24.179  25.222  1.00  0.00     0.022 A 
BRANCH  78  82
ATOM     82  S   UNL A   1      41.873  21.971  26.351  1.00  0.00     0.124 S 
ATOM     83  O   UNL A   1      40.442  22.064  26.085  1.00  0.00    -0.237 OA
ATOM     84  O   UNL A   1      42.686  21.384  25.292  1.00  0.00    -0.237 OA
ATOM     85  O   UNL A   1      42.232  21.564  27.707  1.00  0.00    -0.744 OA
ENDBRANCH  78  82
ENDBRANCH  51  75
BRANCH  63  86
ATOM     86  C   UNL A   1      45.360  26.478  33.732  1.00  0.00     0.023 A 
ATOM     87  C   UNL A   1      45.111  25.261  34.387  1.00  0.00     0.031 A 
ATOM     88  C   UNL A   1      46.675  26.979  33.745  1.00  0.00     0.131 A 
ATOM     89  C   UNL A   1      46.145  24.621  35.088  1.00  0.00     0.055 A 
ATOM     90  C   UNL A   1      47.715  26.300  34.380  1.00  0.00     0.041 A 
ATOM     91  F   UNL A   1      46.971  28.139  33.136  1.00  0.00    -0.206 F 
ATOM     92  C   UNL A   1      47.448  25.122  35.071  1.00  0.00     0.022 A 
BRANCH  89  93
ATOM     93  S   UNL A   1      45.735  23.190  36.124  1.00  0.00     0.124 S 
ATOM     94  O   UNL A   1      45.935  23.721  37.468  1.00  0.00    -0.237 OA
ATOM     95  O   UNL A   1      44.351  22.919  35.746  1.00  0.00    -0.237 OA
ATOM     96  O   UNL A   1      46.701  22.176  35.706  1.00  0.00    -0.744 OA
ENDBRANCH  89  93
ENDBRANCH  63  86
ENDBRANCH  37  38
ENDBRANCH  29  32
ENDBRANCH  27  28
ENDBRANCH   1  27
TORSDOF 17
ENDMDL
MODEL 2
REMARK VINA RESULT:     -13.9      1.578      2.991
REMARK SMILES CC[C@H]([NH2+]C1c2ccccc2-c2ccccc21)C(=O)NCCCCNC(=O)c1ccc(-c2c3nc(c(-c4cc(S(=O)(=O)[O-])ccc4F)c4ccc([nH]4)c(-c4cc(S(=O)(=O)[O-])ccc4F)c4nc(c(-c5cc(S(=O)(=O)[O-])ccc5F)c5ccc2[nH]5)C=C4)C=C3)cc1
REMARK SMILES IDX 23 1 22 2 21 3 20 4 18 5 19 6 3 8 2 9 1 10 4 11 5 14 6 15
REMARK SMILES IDX 17 16 7 17 11 18 12 19 16 20 8 21 10 22 13 23 15 24 9 25
REMARK SMILES IDX 14 26 24 27 25 28 26 29 27 31 28 32 29 33 90 34 30 35 89 36
REMARK SMILES IDX 31 37 32 38 33 39 83 40 34 41 88 42 82 43 84 44 35 45 87 46
REMARK SMILES IDX 81 47 80 48 36 50 68 51 48 52 67 53 49 54 52 55 66 56 85 57
REMARK SMILES IDX 50 58 51 59 65 61 86 62 53 63 37 64 38 65 46 66 39 67 45 68
REMARK SMILES IDX 47 69 44 70 40 71 41 72 42 73 43 74 69 75 70 76 78 77 71 78
REMARK SMILES IDX 77 79 79 80 76 81 72 82 73 83 74 84 75 85 54 86 55 87 63 88
REMARK SMILES IDX 56 89 62 90 64 91 61 92 57 93 58 94 59 95 60 96
REMARK H PARENT 20 7 4 12 4 13 25 30 84 49 52 60
REMARK Flexibility Score: inf
ROOT
ATOM      1  C   UNL A   1      33.505  27.961  26.499  1.00  0.00     0.023 C 
ENDROOT
BRANCH   1   2
ATOM      2  C   UNL A   1      32.870  27.216  25.074  1.00  0.00     0.023 C 
BRANCH   2   3
ATOM      3  C   UNL A   1      32.403  27.839  23.026  1.00  0.00     0.116 C 
BRANCH   3   4
ATOM      4  N   UNL A   1      32.454  27.056  21.646  1.00  0.00    -0.351 N 
ATOM      5  C   UNL A   1      32.899  25.812  21.322  1.00  0.00     0.278 C 
ATOM      6  O   UNL A   1      33.063  25.579  20.117  1.00  0.00    -0.268 OA
ATOM      7  H   UNL A   1      32.096  27.564  20.882  1.00  0.00     0.163 HD
BRANCH   5   8
ATOM      8  C   UNL A   1      33.168  24.700  22.368  1.00  0.00     0.273 C 
BRANCH   8   9
ATOM      9  C   UNL A   1      34.523  24.872  23.095  1.00  0.00     0.072 C 
ATOM     10  C   UNL A   1      34.937  23.990  24.250  1.00  0.00     0.011 C 
ENDBRANCH   8   9
BRANCH   8  11
ATOM     11  N   UNL A   1      32.430  23.420  22.177  1.00  0.00    -0.326 N 
ATOM     12  H   UNL A   1      33.140  22.695  22.072  1.00  0.00     0.347 HD
ATOM     13  H   UNL A   1      31.825  23.639  21.386  1.00  0.00     0.347 HD
BRANCH  11  14
ATOM     14  C   UNL A   1      31.477  22.920  23.163  1.00  0.00     0.246 C 
ATOM     15  C   UNL A   1      32.106  22.096  24.236  1.00  0.00     0.022 A 
ATOM     16  C   UNL A   1      30.708  24.029  23.925  1.00  0.00     0.022 A 
ATOM     17  C   UNL A   1      33.236  20.697  24.212  1.00  0.00     0.011 A 
ATOM     18  C   UNL A   1      31.762  22.990  25.752  1.00  0.00    -0.008 A 
ATOM     19  C   UNL A   1      30.880  24.051  25.347  1.00  0.00    -0.008 A 
ATOM     20  C   UNL A   1      29.905  24.987  23.314  1.00  0.00     0.011 A 
ATOM     21  C   UNL A   1      34.169  20.320  25.723  1.00  0.00     0.001 A 
ATOM     22  C   UNL A   1      32.661  22.607  27.249  1.00  0.00     0.009 A 
ATOM     23  C   UNL A   1      30.294  25.029  26.130  1.00  0.00     0.009 A 
ATOM     24  C   UNL A   1      29.321  25.981  24.106  1.00  0.00     0.001 A 
ATOM     25  C   UNL A   1      33.843  21.242  27.249  1.00  0.00     0.001 A 
ATOM     26  C   UNL A   1      29.519  26.005  25.498  1.00  0.00     0.001 A 
ENDBRANCH  11  14
ENDBRANCH   8  11
ENDBRANCH   5   8
ENDBRANCH   3   4
ENDBRANCH   2   3
ENDBRANCH   1   2
BRANCH   1  27
ATOM     27  C   UNL A   1      34.439  29.153  26.307  1.00  0.00     0.116 C 
BRANCH  27  28
ATOM     28  N   UNL A   1      33.857  30.437  26.676  1.00  0.00    -0.352 N 
ATOM     29  C   UNL A   1      34.315  31.291  27.654  1.00  0.00     0.251 C 
ATOM     30  H   UNL A   1      33.058  30.723  26.177  1.00  0.00     0.163 HD
ATOM     31  O   UNL A   1      33.700  32.300  27.973  1.00  0.00    -0.269 OA
BRANCH  29  32
ATOM     32  C   UNL A   1      35.551  30.890  28.345  1.00  0.00     0.039 A 
ATOM     33  C   UNL A   1      35.519  29.777  29.184  1.00  0.00     0.014 A 
ATOM     34  C   UNL A   1      36.755  31.499  27.988  1.00  0.00     0.014 A 
ATOM     35  C   UNL A   1      36.721  29.244  29.639  1.00  0.00     0.010 A 
ATOM     36  C   UNL A   1      37.951  30.896  28.353  1.00  0.00     0.010 A 
ATOM     37  C   UNL A   1      37.946  29.783  29.209  1.00  0.00    -0.014 A 
BRANCH  37  38
ATOM     38  C   UNL A   1      39.226  29.244  29.732  1.00  0.00     0.031 A 
ATOM     39  C   UNL A   1      39.735  29.741  31.059  1.00  0.00     0.074 A 
ATOM     40  C   UNL A   1      39.911  28.317  29.034  1.00  0.00     0.049 A 
ATOM     41  N   UNL A   1      40.791  29.368  31.734  1.00  0.00    -0.248 NA
ATOM     42  C   UNL A   1      38.975  30.830  31.693  1.00  0.00     0.031 C 
ATOM     43  C   UNL A   1      39.536  27.802  27.715  1.00  0.00     0.029 A 
ATOM     44  N   UNL A   1      41.054  27.626  29.345  1.00  0.00    -0.354 N 
ATOM     45  C   UNL A   1      40.821  30.184  32.860  1.00  0.00     0.074 A 
ATOM     46  C   UNL A   1      39.743  31.134  32.724  1.00  0.00     0.031 C 
ATOM     47  C   UNL A   1      40.396  26.832  27.362  1.00  0.00     0.029 A 
ATOM     48  C   UNL A   1      41.401  26.678  28.409  1.00  0.00     0.049 A 
ATOM     49  H   UNL A   1      41.577  27.792  30.162  1.00  0.00     0.167 HD
ATOM     50  C   UNL A   1      41.645  30.118  33.935  1.00  0.00     0.034 A 
ATOM     51  C   UNL A   1      42.403  25.777  28.413  1.00  0.00     0.034 A 
ATOM     52  C   UNL A   1      42.702  29.147  34.056  1.00  0.00     0.049 A 
ATOM     53  C   UNL A   1      43.318  25.726  29.612  1.00  0.00     0.074 A 
ATOM     54  C   UNL A   1      43.575  28.947  35.109  1.00  0.00     0.029 A 
ATOM     55  N   UNL A   1      43.033  28.212  33.081  1.00  0.00    -0.354 N 
ATOM     56  N   UNL A   1      43.297  26.458  30.704  1.00  0.00    -0.248 NA
ATOM     57  C   UNL A   1      44.377  24.710  29.590  1.00  0.00     0.031 C 
ATOM     58  C   UNL A   1      44.480  27.947  34.741  1.00  0.00     0.029 A 
ATOM     59  C   UNL A   1      44.116  27.456  33.496  1.00  0.00     0.049 A 
ATOM     60  H   UNL A   1      42.565  28.105  32.221  1.00  0.00     0.167 HD
ATOM     61  C   UNL A   1      44.312  25.959  31.518  1.00  0.00     0.074 A 
ATOM     62  C   UNL A   1      44.915  24.859  30.792  1.00  0.00     0.031 C 
ATOM     63  C   UNL A   1      44.704  26.364  32.753  1.00  0.00     0.034 A 
BRANCH  50  64
ATOM     64  C   UNL A   1      41.438  31.146  35.024  1.00  0.00     0.023 A 
ATOM     65  C   UNL A   1      40.316  31.111  35.874  1.00  0.00     0.031 A 
ATOM     66  C   UNL A   1      42.332  32.221  35.165  1.00  0.00     0.131 A 
ATOM     67  C   UNL A   1      40.060  32.184  36.742  1.00  0.00     0.055 A 
ATOM     68  C   UNL A   1      42.124  33.234  36.104  1.00  0.00     0.041 A 
ATOM     69  F   UNL A   1      43.407  32.325  34.368  1.00  0.00    -0.206 F 
ATOM     70  C   UNL A   1      40.972  33.231  36.884  1.00  0.00     0.022 A 
BRANCH  67  71
ATOM     71  S   UNL A   1      38.429  32.286  37.532  1.00  0.00     0.124 S 
ATOM     72  O   UNL A   1      37.913  33.535  36.980  1.00  0.00    -0.237 OA
ATOM     73  O   UNL A   1      37.778  31.065  37.072  1.00  0.00    -0.237 OA
ATOM     74  O   UNL A   1      38.742  32.329  38.959  1.00  0.00    -0.744 OA
ENDBRANCH  67  71
ENDBRANCH  50  64
BRANCH  51  75
ATOM     75  C   UNL A   1      42.582  24.829  27.273  1.00  0.00     0.023 A 
ATOM     76  C   UNL A   1      42.023  23.541  27.306  1.00  0.00     0.031 A 
ATOM     77  C   UNL A   1      43.351  25.181  26.150  1.00  0.00     0.131 A 
ATOM     78  C   UNL A   1      42.281  22.635  26.263  1.00  0.00     0.055 A 
ATOM     79  C   UNL A   1      43.562  24.296  25.090  1.00  0.00     0.041 A 
ATOM     80  F   UNL A   1      43.904  26.401  26.062  1.00  0.00    -0.206 F 
ATOM     81  C   UNL A   1      43.036  23.010  25.150  1.00  0.00     0.022 A 
BRANCH  78  82
ATOM     82  S   UNL A   1      41.682  20.929  26.421  1.00  0.00     0.124 S 
ATOM     83  O   UNL A   1      40.258  21.089  26.151  1.00  0.00    -0.237 OA
ATOM     84  O   UNL A   1      42.458  20.242  25.394  1.00  0.00    -0.237 OA
ATOM     85  O   UNL A   1      42.022  20.575  27.797  1.00  0.00    -0.744 OA
ENDBRANCH  78  82
ENDBRANCH  51  75
BRANCH  63  86
ATOM     86  C   UNL A   1      45.801  25.568  33.420  1.00  0.00     0.023 A 
ATOM     87  C   UNL A   1      45.528  24.441  34.212  1.00  0.00     0.031 A 
ATOM     88  C   UNL A   1      47.144  25.960  33.270  1.00  0.00     0.131 A 
ATOM     89  C   UNL A   1      46.574  23.787  34.881  1.00  0.00     0.055 A 
ATOM     90  C   UNL A   1      48.187  25.261  33.876  1.00  0.00     0.041 A 
ATOM     91  F   UNL A   1      47.465  27.031  32.525  1.00  0.00    -0.206 F 
ATOM     92  C   UNL A   1      47.903  24.177  34.702  1.00  0.00     0.022 A 
BRANCH  89  93
ATOM     93  S   UNL A   1      46.161  22.496  36.086  1.00  0.00     0.124 S 
ATOM     94  O   UNL A   1      47.343  21.642  36.033  1.00  0.00    -0.237 OA
ATOM     95  O   UNL A   1      45.983  23.263  37.315  1.00  0.00    -0.237 OA
ATOM     96  O   UNL A   1      44.941  21.900  35.545  1.00  0.00    -0.744 OA
ENDBRANCH  89  93
ENDBRANCH  63  86
ENDBRANCH  37  38
ENDBRANCH  29  32
ENDBRANCH  27  28
ENDBRANCH   1  27
TORSDOF 17
ENDMDL
MODEL 3
REMARK VINA RESULT:     -13.8      1.837      2.649
REMARK SMILES CC[C@H]([NH2+]C1c2ccccc2-c2ccccc21)C(=O)NCCCCNC(=O)c1ccc(-c2c3nc(c(-c4cc(S(=O)(=O)[O-])ccc4F)c4ccc([nH]4)c(-c4cc(S(=O)(=O)[O-])ccc4F)c4nc(c(-c5cc(S(=O)(=O)[O-])ccc5F)c5ccc2[nH]5)C=C4)C=C3)cc1
REMARK SMILES IDX 23 1 22 2 21 3 20 4 18 5 19 6 3 8 2 9 1 10 4 11 5 14 6 15
REMARK SMILES IDX 17 16 7 17 11 18 12 19 16 20 8 21 10 22 13 23 15 24 9 25
REMARK SMILES IDX 14 26 24 27 25 28 26 29 27 31 28 32 29 33 90 34 30 35 89 36
REMARK SMILES IDX 31 37 32 38 33 39 83 40 34 41 88 42 82 43 84 44 35 45 87 46
REMARK SMILES IDX 81 47 80 48 36 50 68 51 48 52 67 53 49 54 52 55 66 56 85 57
REMARK SMILES IDX 50 58 51 59 65 61 86 62 53 63 37 64 38 65 46 66 39 67 45 68
REMARK SMILES IDX 47 69 44 70 40 71 41 72 42 73 43 74 69 75 70 76 78 77 71 78
REMARK SMILES IDX 77 79 79 80 76 81 72 82 73 83 74 84 75 85 54 86 55 87 63 88
REMARK SMILES IDX 56 89 62 90 64 91 61 92 57 93 58 94 59 95 60 96
REMARK H PARENT 20 7 4 12 4 13 25 30 84 49 52 60
REMARK Flexibility Score: inf
ROOT
ATOM      1  C   UNL A   1      33.562  28.827  24.792  1.00  0.00     0.023 C 
ENDROOT
BRANCH   1   2
ATOM      2  C   UNL A   1      31.963  28.458  24.246  1.00  0.00     0.023 C 
BRANCH   2   3
ATOM      3  C   UNL A   1      31.063  27.466  22.512  1.00  0.00     0.116 C 
BRANCH   3   4
ATOM      4  N   UNL A   1      31.705  26.657  21.307  1.00  0.00    -0.351 N 
ATOM      5  C   UNL A   1      32.653  25.681  21.269  1.00  0.00     0.278 C 
ATOM      6  O   UNL A   1      33.146  25.433  20.161  1.00  0.00    -0.268 OA
ATOM      7  H   UNL A   1      31.352  26.906  20.422  1.00  0.00     0.163 HD
BRANCH   5   8
ATOM      8  C   UNL A   1      33.098  24.871  22.513  1.00  0.00     0.273 C 
BRANCH   8   9
ATOM      9  C   UNL A   1      32.153  23.687  22.830  1.00  0.00     0.072 C 
ATOM     10  C   UNL A   1      32.456  22.274  22.391  1.00  0.00     0.011 C 
ENDBRANCH   8   9
BRANCH   8  11
ATOM     11  N   UNL A   1      33.972  25.582  23.487  1.00  0.00    -0.326 N 
ATOM     12  H   UNL A   1      33.532  26.488  23.657  1.00  0.00     0.347 HD
ATOM     13  H   UNL A   1      34.879  25.551  23.022  1.00  0.00     0.347 HD
BRANCH  11  14
ATOM     14  C   UNL A   1      34.283  25.027  24.800  1.00  0.00     0.246 C 
ATOM     15  C   UNL A   1      33.074  24.679  25.602  1.00  0.00     0.022 A 
ATOM     16  C   UNL A   1      35.110  23.717  24.757  1.00  0.00     0.022 A 
ATOM     17  C   UNL A   1      31.580  25.583  26.034  1.00  0.00     0.011 A 
ATOM     18  C   UNL A   1      33.202  22.911  25.870  1.00  0.00    -0.008 A 
ATOM     19  C   UNL A   1      34.497  22.565  25.350  1.00  0.00    -0.008 A 
ATOM     20  C   UNL A   1      36.367  23.602  24.171  1.00  0.00     0.011 A 
ATOM     21  C   UNL A   1      30.130  24.637  26.577  1.00  0.00     0.001 A 
ATOM     22  C   UNL A   1      31.783  21.977  26.428  1.00  0.00     0.009 A 
ATOM     23  C   UNL A   1      35.110  21.325  25.320  1.00  0.00     0.009 A 
ATOM     24  C   UNL A   1      36.981  22.346  24.133  1.00  0.00     0.001 A 
ATOM     25  C   UNL A   1      30.249  22.845  26.820  1.00  0.00     0.001 A 
ATOM     26  C   UNL A   1      36.356  21.219  24.696  1.00  0.00     0.001 A 
ENDBRANCH  11  14
ENDBRANCH   8  11
ENDBRANCH   5   8
ENDBRANCH   3   4
ENDBRANCH   2   3
ENDBRANCH   1   2
BRANCH   1  27
ATOM     27  C   UNL A   1      33.762  29.008  26.295  1.00  0.00     0.116 C 
BRANCH  27  28
ATOM     28  N   UNL A   1      33.640  30.386  26.755  1.00  0.00    -0.352 N 
ATOM     29  C   UNL A   1      34.515  31.051  27.581  1.00  0.00     0.251 C 
ATOM     30  H   UNL A   1      32.854  30.890  26.443  1.00  0.00     0.163 HD
ATOM     31  O   UNL A   1      34.279  32.174  28.007  1.00  0.00    -0.269 OA
BRANCH  29  32
ATOM     32  C   UNL A   1      35.724  30.313  27.983  1.00  0.00     0.039 A 
ATOM     33  C   UNL A   1      36.879  30.449  27.215  1.00  0.00     0.014 A 
ATOM     34  C   UNL A   1      35.744  29.668  29.221  1.00  0.00     0.014 A 
ATOM     35  C   UNL A   1      38.082  29.963  27.719  1.00  0.00     0.010 A 
ATOM     36  C   UNL A   1      36.963  29.289  29.765  1.00  0.00     0.010 A 
ATOM     37  C   UNL A   1      38.139  29.402  29.006  1.00  0.00    -0.014 A 
BRANCH  37  38
ATOM     38  C   UNL A   1      39.412  28.841  29.523  1.00  0.00     0.031 A 
ATOM     39  C   UNL A   1      39.989  29.401  30.795  1.00  0.00     0.074 A 
ATOM     40  C   UNL A   1      40.031  27.840  28.868  1.00  0.00     0.049 A 
ATOM     41  N   UNL A   1      41.051  29.026  31.460  1.00  0.00    -0.248 NA
ATOM     42  C   UNL A   1      39.299  30.563  31.378  1.00  0.00     0.031 C 
ATOM     43  C   UNL A   1      39.588  27.255  27.599  1.00  0.00     0.029 A 
ATOM     44  N   UNL A   1      41.153  27.119  29.188  1.00  0.00    -0.354 N 
ATOM     45  C   UNL A   1      41.156  29.912  32.527  1.00  0.00     0.074 A 
ATOM     46  C   UNL A   1      40.116  30.900  32.361  1.00  0.00     0.031 C 
ATOM     47  C   UNL A   1      40.392  26.226  27.285  1.00  0.00     0.029 A 
ATOM     48  C   UNL A   1      41.426  26.096  28.307  1.00  0.00     0.049 A 
ATOM     49  H   UNL A   1      41.711  27.315  29.974  1.00  0.00     0.167 HD
ATOM     50  C   UNL A   1      42.014  29.881  33.576  1.00  0.00     0.034 A 
ATOM     51  C   UNL A   1      42.388  25.153  28.340  1.00  0.00     0.034 A 
ATOM     52  C   UNL A   1      43.031  28.873  33.729  1.00  0.00     0.049 A 
ATOM     53  C   UNL A   1      43.341  25.140  29.510  1.00  0.00     0.074 A 
ATOM     54  C   UNL A   1      43.931  28.704  34.764  1.00  0.00     0.029 A 
ATOM     55  N   UNL A   1      43.287  27.861  32.809  1.00  0.00    -0.354 N 
ATOM     56  N   UNL A   1      43.390  25.943  30.549  1.00  0.00    -0.248 NA
ATOM     57  C   UNL A   1      44.354  24.078  29.522  1.00  0.00     0.031 C 
ATOM     58  C   UNL A   1      44.779  27.641  34.435  1.00  0.00     0.029 A 
ATOM     59  C   UNL A   1      44.350  27.086  33.239  1.00  0.00     0.049 A 
ATOM     60  H   UNL A   1      42.785  27.719  31.974  1.00  0.00     0.167 HD
ATOM     61  C   UNL A   1      44.411  25.454  31.362  1.00  0.00     0.074 A 
ATOM     62  C   UNL A   1      44.941  24.282  30.693  1.00  0.00     0.031 C 
ATOM     63  C   UNL A   1      44.864  25.922  32.553  1.00  0.00     0.034 A 
BRANCH  50  64
ATOM     64  C   UNL A   1      41.890  30.987  34.599  1.00  0.00     0.023 A 
ATOM     65  C   UNL A   1      40.832  31.025  35.528  1.00  0.00     0.031 A 
ATOM     66  C   UNL A   1      42.796  32.062  34.596  1.00  0.00     0.131 A 
ATOM     67  C   UNL A   1      40.644  32.160  36.331  1.00  0.00     0.055 A 
ATOM     68  C   UNL A   1      42.660  33.142  35.471  1.00  0.00     0.041 A 
ATOM     69  F   UNL A   1      43.810  32.098  33.718  1.00  0.00    -0.206 F 
ATOM     70  C   UNL A   1      41.567  33.206  36.330  1.00  0.00     0.022 A 
BRANCH  67  71
ATOM     71  S   UNL A   1      39.075  32.334  37.227  1.00  0.00     0.124 S 
ATOM     72  O   UNL A   1      38.403  31.082  36.889  1.00  0.00    -0.237 OA
ATOM     73  O   UNL A   1      39.515  32.470  38.611  1.00  0.00    -0.237 OA
ATOM     74  O   UNL A   1      38.476  33.531  36.640  1.00  0.00    -0.744 OA
ENDBRANCH  67  71
ENDBRANCH  50  64
BRANCH  51  75
ATOM     75  C   UNL A   1      42.485  24.124  27.262  1.00  0.00     0.023 A 
ATOM     76  C   UNL A   1      41.688  22.968  27.287  1.00  0.00     0.031 A 
ATOM     77  C   UNL A   1      43.408  24.260  26.210  1.00  0.00     0.131 A 
ATOM     78  C   UNL A   1      41.861  21.972  26.313  1.00  0.00     0.055 A 
ATOM     79  C   UNL A   1      43.542  23.292  25.212  1.00  0.00     0.041 A 
ATOM     80  F   UNL A   1      44.192  25.347  26.132  1.00  0.00    -0.206 F 
ATOM     81  C   UNL A   1      42.775  22.133  25.268  1.00  0.00     0.022 A 
BRANCH  78  82
ATOM     82  S   UNL A   1      40.933  20.421  26.474  1.00  0.00     0.124 S 
ATOM     83  O   UNL A   1      39.624  20.804  25.958  1.00  0.00    -0.237 OA
ATOM     84  O   UNL A   1      41.712  19.514  25.639  1.00  0.00    -0.237 OA
ATOM     85  O   UNL A   1      40.983  20.143  27.907  1.00  0.00    -0.744 OA
ENDBRANCH  78  82
ENDBRANCH  51  75
BRANCH  63  86
ATOM     86  C   UNL A   1      45.948  25.123  33.237  1.00  0.00     0.023 A 
ATOM     87  C   UNL A   1      45.657  24.017  34.053  1.00  0.00     0.031 A 
ATOM     88  C   UNL A   1      47.298  25.490  33.078  1.00  0.00     0.131 A 
ATOM     89  C   UNL A   1      46.693  23.361  34.735  1.00  0.00     0.055 A 
ATOM     90  C   UNL A   1      48.330  24.787  33.699  1.00  0.00     0.041 A 
ATOM     91  F   UNL A   1      47.635  26.539  32.310  1.00  0.00    -0.206 F 
ATOM     92  C   UNL A   1      48.028  23.726  34.547  1.00  0.00     0.022 A 
BRANCH  89  93
ATOM     93  S   UNL A   1      46.260  22.103  35.968  1.00  0.00     0.124 S 
ATOM     94  O   UNL A   1      45.101  21.463  35.354  1.00  0.00    -0.237 OA
ATOM     95  O   UNL A   1      47.475  21.296  36.028  1.00  0.00    -0.237 OA
ATOM     96  O   UNL A   1      45.974  22.884  37.169  1.00  0.00    -0.744 OA
ENDBRANCH  89  93
ENDBRANCH  63  86
ENDBRANCH  37  38
ENDBRANCH  29  32
ENDBRANCH  27  28
ENDBRANCH   1  27
TORSDOF 17
ENDMDL
