MODEL 1
REMARK VINA RESULT:     -10.9      0.000      0.000
REMARK SMILES CC(C)C[C@@H](CNC(=O)[C@@H]1CCOC1)C(=O)NCCCCNC(=O)c1ccc(-c2c3nc(c(-c4cc(S(=O)(=O)[O-])ccc4F)c4ccc([nH]4)c(-c4cc(S(=O)(=O)[O-])ccc4F)c4nc(c(-c5cc(S(=O)(=O)[O-])ccc5F)c5ccc2[nH]5)C=C4)C=C3)cc1
REMARK SMILES IDX 19 1 18 2 17 3 15 4 16 5 5 7 4 8 2 9 1 10 3 11 6 12 7 13
REMARK SMILES IDX 8 14 9 16 10 17 11 18 14 19 12 20 13 21 20 22 21 23 22 24
REMARK SMILES IDX 23 25 24 27 25 28 26 29 87 30 27 31 86 32 28 33 29 34 30 35
REMARK SMILES IDX 80 36 31 37 85 38 79 39 81 40 32 41 84 42 78 43 77 44 33 46
REMARK SMILES IDX 65 47 45 48 64 49 46 50 49 51 63 52 82 53 47 54 48 55 62 57
REMARK SMILES IDX 83 58 50 59 34 60 35 61 43 62 36 63 42 64 44 65 41 66 37 67
REMARK SMILES IDX 38 68 39 69 40 70 66 71 67 72 75 73 68 74 74 75 76 76 73 77
REMARK SMILES IDX 69 78 70 79 71 80 72 81 51 82 52 83 60 84 53 85 59 86 61 87
REMARK SMILES IDX 58 88 54 89 55 90 56 91 57 92
REMARK H PARENT 17 6 7 15 22 26 81 45 49 56
REMARK Flexibility Score: inf
ROOT
ATOM      1  C   UNL A   1      32.540  29.999  26.082  1.00  0.00     0.023 C 
ENDROOT
BRANCH   1   2
ATOM      2  C   UNL A   1      32.702  28.840  27.056  1.00  0.00     0.116 C 
BRANCH   2   3
ATOM      3  N   UNL A   1      31.542  27.966  27.073  1.00  0.00    -0.356 N 
ATOM      4  C   UNL A   1      31.300  26.784  26.446  1.00  0.00     0.224 C 
ATOM      5  O   UNL A   1      30.290  26.159  26.785  1.00  0.00    -0.275 OA
ATOM      6  H   UNL A   1      30.803  28.284  27.639  1.00  0.00     0.163 HD
BRANCH   4   7
ATOM      7  C   UNL A   1      32.227  26.196  25.386  1.00  0.00     0.098 C 
BRANCH   7   8
ATOM      8  C   UNL A   1      32.613  24.735  25.684  1.00  0.00     0.018 C 
BRANCH   8   9
ATOM      9  C   UNL A   1      34.070  24.465  26.095  1.00  0.00    -0.017 C 
ATOM     10  C   UNL A   1      34.255  23.085  26.722  1.00  0.00     0.007 C 
ATOM     11  C   UNL A   1      34.970  24.593  24.860  1.00  0.00     0.007 C 
ENDBRANCH   8   9
ENDBRANCH   7   8
BRANCH   7  12
ATOM     12  C   UNL A   1      31.782  26.596  23.967  1.00  0.00     0.129 C 
BRANCH  12  13
ATOM     13  N   UNL A   1      30.353  26.587  23.722  1.00  0.00    -0.355 N 
ATOM     14  C   UNL A   1      29.489  27.622  23.498  1.00  0.00     0.225 C 
ATOM     15  H   UNL A   1      29.939  25.693  23.716  1.00  0.00     0.163 HD
ATOM     16  O   UNL A   1      28.292  27.345  23.424  1.00  0.00    -0.275 OA
BRANCH  14  17
ATOM     17  C   UNL A   1      30.020  29.044  23.366  1.00  0.00     0.106 C 
ATOM     18  C   UNL A   1      28.921  30.085  23.444  1.00  0.00     0.044 C 
ATOM     19  C   UNL A   1      30.637  29.302  21.995  1.00  0.00     0.173 C 
ATOM     20  C   UNL A   1      28.545  30.300  21.995  1.00  0.00     0.161 C 
ATOM     21  O   UNL A   1      29.763  30.173  21.261  1.00  0.00    -0.381 OA
ENDBRANCH  14  17
ENDBRANCH  12  13
ENDBRANCH   7  12
ENDBRANCH   4   7
ENDBRANCH   2   3
ENDBRANCH   1   2
BRANCH   1  22
ATOM     22  C   UNL A   1      32.032  31.289  26.723  1.00  0.00     0.023 C 
BRANCH  22  23
ATOM     23  C   UNL A   1      33.109  32.166  27.357  1.00  0.00     0.116 C 
BRANCH  23  24
ATOM     24  N   UNL A   1      32.692  33.549  27.545  1.00  0.00    -0.352 N 
ATOM     25  C   UNL A   1      33.163  34.467  28.453  1.00  0.00     0.251 C 
ATOM     26  H   UNL A   1      31.980  33.867  26.944  1.00  0.00     0.163 HD
ATOM     27  O   UNL A   1      32.612  35.556  28.577  1.00  0.00    -0.269 OA
BRANCH  25  28
ATOM     28  C   UNL A   1      34.313  34.102  29.305  1.00  0.00     0.039 A 
ATOM     29  C   UNL A   1      34.080  33.426  30.505  1.00  0.00     0.014 A 
ATOM     30  C   UNL A   1      35.618  34.366  28.878  1.00  0.00     0.014 A 
ATOM     31  C   UNL A   1      35.163  32.937  31.236  1.00  0.00     0.010 A 
ATOM     32  C   UNL A   1      36.689  33.811  29.569  1.00  0.00     0.010 A 
ATOM     33  C   UNL A   1      36.473  33.084  30.751  1.00  0.00    -0.014 A 
BRANCH  33  34
ATOM     34  C   UNL A   1      37.631  32.479  31.456  1.00  0.00     0.031 A 
ATOM     35  C   UNL A   1      38.377  31.335  30.829  1.00  0.00     0.074 A 
ATOM     36  C   UNL A   1      37.959  32.908  32.692  1.00  0.00     0.049 A 
ATOM     37  N   UNL A   1      39.351  30.611  31.319  1.00  0.00    -0.248 NA
ATOM     38  C   UNL A   1      37.945  30.926  29.484  1.00  0.00     0.031 C 
ATOM     39  C   UNL A   1      37.279  33.980  33.425  1.00  0.00     0.029 A 
ATOM     40  N   UNL A   1      38.941  32.491  33.556  1.00  0.00    -0.354 N 
ATOM     41  C   UNL A   1      39.634  29.652  30.354  1.00  0.00     0.074 A 
ATOM     42  C   UNL A   1      38.688  29.851  29.276  1.00  0.00     0.031 C 
ATOM     43  C   UNL A   1      37.879  34.149  34.614  1.00  0.00     0.029 A 
ATOM     44  C   UNL A   1      38.956  33.176  34.750  1.00  0.00     0.049 A 
ATOM     45  H   UNL A   1      39.575  31.769  33.341  1.00  0.00     0.167 HD
ATOM     46  C   UNL A   1      40.608  28.708  30.355  1.00  0.00     0.034 A 
ATOM     47  C   UNL A   1      39.743  33.027  35.834  1.00  0.00     0.034 A 
ATOM     48  C   UNL A   1      41.558  28.539  31.428  1.00  0.00     0.049 A 
ATOM     49  C   UNL A   1      40.816  31.968  35.814  1.00  0.00     0.074 A 
ATOM     50  C   UNL A   1      42.626  27.662  31.504  1.00  0.00     0.029 A 
ATOM     51  N   UNL A   1      41.552  29.260  32.616  1.00  0.00    -0.354 N 
ATOM     52  N   UNL A   1      41.106  31.103  34.870  1.00  0.00    -0.248 NA
ATOM     53  C   UNL A   1      41.672  31.871  37.003  1.00  0.00     0.031 C 
ATOM     54  C   UNL A   1      43.227  27.810  32.760  1.00  0.00     0.029 A 
ATOM     55  C   UNL A   1      42.578  28.828  33.440  1.00  0.00     0.049 A 
ATOM     56  H   UNL A   1      40.911  29.972  32.839  1.00  0.00     0.167 HD
ATOM     57  C   UNL A   1      42.200  30.383  35.339  1.00  0.00     0.074 A 
ATOM     58  C   UNL A   1      42.523  30.922  36.645  1.00  0.00     0.031 C 
ATOM     59  C   UNL A   1      42.881  29.371  34.745  1.00  0.00     0.034 A 
BRANCH  46  60
ATOM     60  C   UNL A   1      40.671  27.776  29.170  1.00  0.00     0.023 A 
ATOM     61  C   UNL A   1      41.595  27.968  28.128  1.00  0.00     0.031 A 
ATOM     62  C   UNL A   1      39.772  26.700  29.061  1.00  0.00     0.131 A 
ATOM     63  C   UNL A   1      41.549  27.149  26.989  1.00  0.00     0.055 A 
ATOM     64  C   UNL A   1      39.785  25.837  27.963  1.00  0.00     0.041 A 
ATOM     65  F   UNL A   1      38.854  26.477  30.015  1.00  0.00    -0.206 F 
ATOM     66  C   UNL A   1      40.666  26.069  26.910  1.00  0.00     0.022 A 
BRANCH  63  67
ATOM     67  S   UNL A   1      42.560  27.605  25.554  1.00  0.00     0.124 S 
ATOM     68  O   UNL A   1      43.872  27.797  26.167  1.00  0.00    -0.237 OA
ATOM     69  O   UNL A   1      42.423  26.438  24.689  1.00  0.00    -0.237 OA
ATOM     70  O   UNL A   1      41.925  28.825  25.061  1.00  0.00    -0.744 OA
ENDBRANCH  63  67
ENDBRANCH  46  60
BRANCH  47  71
ATOM     71  C   UNL A   1      39.554  33.894  37.032  1.00  0.00     0.023 A 
ATOM     72  C   UNL A   1      38.953  33.392  38.197  1.00  0.00     0.031 A 
ATOM     73  C   UNL A   1      39.929  35.249  37.014  1.00  0.00     0.131 A 
ATOM     74  C   UNL A   1      38.701  34.248  39.280  1.00  0.00     0.055 A 
ATOM     75  C   UNL A   1      39.722  36.085  38.113  1.00  0.00     0.041 A 
ATOM     76  F   UNL A   1      40.515  35.777  35.928  1.00  0.00    -0.206 F 
ATOM     77  C   UNL A   1      39.092  35.589  39.250  1.00  0.00     0.022 A 
BRANCH  74  78
ATOM     78  S   UNL A   1      37.779  33.602  40.702  1.00  0.00     0.124 S 
ATOM     79  O   UNL A   1      36.912  32.612  40.070  1.00  0.00    -0.237 OA
ATOM     80  O   UNL A   1      38.849  33.075  41.541  1.00  0.00    -0.237 OA
ATOM     81  O   UNL A   1      37.098  34.782  41.230  1.00  0.00    -0.744 OA
ENDBRANCH  74  78
ENDBRANCH  47  71
BRANCH  59  82
ATOM     82  C   UNL A   1      44.072  28.819  35.488  1.00  0.00     0.023 A 
ATOM     83  C   UNL A   1      43.954  27.734  36.373  1.00  0.00     0.031 A 
ATOM     84  C   UNL A   1      45.340  29.399  35.314  1.00  0.00     0.131 A 
ATOM     85  C   UNL A   1      45.076  27.297  37.094  1.00  0.00     0.055 A 
ATOM     86  C   UNL A   1      46.464  28.922  35.990  1.00  0.00     0.041 A 
ATOM     87  F   UNL A   1      45.509  30.439  34.481  1.00  0.00    -0.206 F 
ATOM     88  C   UNL A   1      46.333  27.874  36.896  1.00  0.00     0.022 A 
BRANCH  85  89
ATOM     89  S   UNL A   1      44.854  26.017  38.359  1.00  0.00     0.124 S 
ATOM     90  O   UNL A   1      46.215  25.517  38.527  1.00  0.00    -0.237 OA
ATOM     91  O   UNL A   1      44.311  26.777  39.480  1.00  0.00    -0.237 OA
ATOM     92  O   UNL A   1      43.920  25.078  37.739  1.00  0.00    -0.744 OA
ENDBRANCH  85  89
ENDBRANCH  59  82
ENDBRANCH  33  34
ENDBRANCH  25  28
ENDBRANCH  23  24
ENDBRANCH  22  23
ENDBRANCH   1  22
TORSDOF 19
ENDMDL
MODEL 2
REMARK VINA RESULT:     -10.8      4.146      9.176
REMARK SMILES CC(C)C[C@@H](CNC(=O)[C@@H]1CCOC1)C(=O)NCCCCNC(=O)c1ccc(-c2c3nc(c(-c4cc(S(=O)(=O)[O-])ccc4F)c4ccc([nH]4)c(-c4cc(S(=O)(=O)[O-])ccc4F)c4nc(c(-c5cc(S(=O)(=O)[O-])ccc5F)c5ccc2[nH]5)C=C4)C=C3)cc1
REMARK SMILES IDX 19 1 18 2 17 3 15 4 16 5 5 7 4 8 2 9 1 10 3 11 6 12 7 13
REMARK SMILES IDX 8 14 9 16 10 17 11 18 14 19 12 20 13 21 20 22 21 23 22 24
REMARK SMILES IDX 23 25 24 27 25 28 26 29 87 30 27 31 86 32 28 33 29 34 30 35
REMARK SMILES IDX 80 36 31 37 85 38 79 39 81 40 32 41 84 42 78 43 77 44 33 46
REMARK SMILES IDX 65 47 45 48 64 49 46 50 49 51 63 52 82 53 47 54 48 55 62 57
REMARK SMILES IDX 83 58 50 59 34 60 35 61 43 62 36 63 42 64 44 65 41 66 37 67
REMARK SMILES IDX 38 68 39 69 40 70 66 71 67 72 75 73 68 74 74 75 76 76 73 77
REMARK SMILES IDX 69 78 70 79 71 80 72 81 51 82 52 83 60 84 53 85 59 86 61 87
REMARK SMILES IDX 58 88 54 89 55 90 56 91 57 92
REMARK H PARENT 17 6 7 15 22 26 81 45 49 56
REMARK Flexibility Score: inf
ROOT
ATOM      1  C   UNL A   1      32.950  26.566  26.510  1.00  0.00     0.023 C 
ENDROOT
BRANCH   1   2
ATOM      2  C   UNL A   1      31.798  25.752  25.937  1.00  0.00     0.116 C 
BRANCH   2   3
ATOM      3  N   UNL A   1      31.481  24.592  26.751  1.00  0.00    -0.356 N 
ATOM      4  C   UNL A   1      32.072  23.370  26.843  1.00  0.00     0.224 C 
ATOM      5  O   UNL A   1      31.701  22.629  27.758  1.00  0.00    -0.275 OA
ATOM      6  H   UNL A   1      30.703  24.711  27.340  1.00  0.00     0.163 HD
BRANCH   4   7
ATOM      7  C   UNL A   1      33.176  22.904  25.898  1.00  0.00     0.098 C 
BRANCH   7   8
ATOM      8  C   UNL A   1      34.562  22.893  26.570  1.00  0.00     0.018 C 
BRANCH   8   9
ATOM      9  C   UNL A   1      35.720  23.550  25.799  1.00  0.00    -0.017 C 
ATOM     10  C   UNL A   1      36.678  22.525  25.198  1.00  0.00     0.007 C 
ATOM     11  C   UNL A   1      35.141  24.430  24.684  1.00  0.00     0.007 C 
ENDBRANCH   8   9
ENDBRANCH   7   8
BRANCH   7  12
ATOM     12  C   UNL A   1      32.723  21.696  25.058  1.00  0.00     0.129 C 
BRANCH  12  13
ATOM     13  N   UNL A   1      32.502  20.462  25.786  1.00  0.00    -0.355 N 
ATOM     14  C   UNL A   1      32.810  19.172  25.452  1.00  0.00     0.225 C 
ATOM     15  H   UNL A   1      32.059  20.569  26.659  1.00  0.00     0.163 HD
ATOM     16  O   UNL A   1      32.410  18.289  26.211  1.00  0.00    -0.275 OA
BRANCH  14  17
ATOM     17  C   UNL A   1      33.600  18.881  24.182  1.00  0.00     0.106 C 
ATOM     18  C   UNL A   1      32.844  17.985  23.221  1.00  0.00     0.044 C 
ATOM     19  C   UNL A   1      34.868  18.083  24.466  1.00  0.00     0.173 C 
ATOM     20  C   UNL A   1      33.314  16.599  23.598  1.00  0.00     0.161 C 
ATOM     21  O   UNL A   1      34.683  16.747  23.972  1.00  0.00    -0.381 OA
ENDBRANCH  14  17
ENDBRANCH  12  13
ENDBRANCH   7  12
ENDBRANCH   4   7
ENDBRANCH   2   3
ENDBRANCH   1   2
BRANCH   1  22
ATOM     22  C   UNL A   1      33.080  27.968  25.920  1.00  0.00     0.023 C 
BRANCH  22  23
ATOM     23  C   UNL A   1      34.224  28.807  26.485  1.00  0.00     0.116 C 
BRANCH  23  24
ATOM     24  N   UNL A   1      33.851  30.190  26.749  1.00  0.00    -0.352 N 
ATOM     25  C   UNL A   1      34.441  31.084  27.611  1.00  0.00     0.251 C 
ATOM     26  H   UNL A   1      33.077  30.528  26.244  1.00  0.00     0.163 HD
ATOM     27  O   UNL A   1      33.924  32.177  27.821  1.00  0.00    -0.269 OA
BRANCH  25  28
ATOM     28  C   UNL A   1      35.680  30.688  28.311  1.00  0.00     0.039 A 
ATOM     29  C   UNL A   1      35.595  29.821  29.402  1.00  0.00     0.014 A 
ATOM     30  C   UNL A   1      36.924  31.119  27.840  1.00  0.00     0.014 A 
ATOM     31  C   UNL A   1      36.765  29.316  29.969  1.00  0.00     0.010 A 
ATOM     32  C   UNL A   1      38.085  30.555  28.357  1.00  0.00     0.010 A 
ATOM     33  C   UNL A   1      38.018  29.641  29.421  1.00  0.00    -0.014 A 
BRANCH  33  34
ATOM     34  C   UNL A   1      39.270  29.032  29.938  1.00  0.00     0.031 A 
ATOM     35  C   UNL A   1      39.946  29.620  31.145  1.00  0.00     0.074 A 
ATOM     36  C   UNL A   1      39.835  28.004  29.276  1.00  0.00     0.049 A 
ATOM     37  N   UNL A   1      41.088  29.296  31.695  1.00  0.00    -0.248 NA
ATOM     38  C   UNL A   1      39.262  30.746  31.799  1.00  0.00     0.031 C 
ATOM     39  C   UNL A   1      39.298  27.378  28.064  1.00  0.00     0.029 A 
ATOM     40  N   UNL A   1      40.993  27.307  29.519  1.00  0.00    -0.354 N 
ATOM     41  C   UNL A   1      41.270  30.189  32.745  1.00  0.00     0.074 A 
ATOM     42  C   UNL A   1      40.148  31.104  32.715  1.00  0.00     0.031 C 
ATOM     43  C   UNL A   1      40.111  26.378  27.687  1.00  0.00     0.029 A 
ATOM     44  C   UNL A   1      41.247  26.316  28.599  1.00  0.00     0.049 A 
ATOM     45  H   UNL A   1      41.586  27.498  30.282  1.00  0.00     0.167 HD
ATOM     46  C   UNL A   1      42.267  30.228  33.663  1.00  0.00     0.034 A 
ATOM     47  C   UNL A   1      42.284  25.460  28.498  1.00  0.00     0.034 A 
ATOM     48  C   UNL A   1      43.366  29.293  33.692  1.00  0.00     0.049 A 
ATOM     49  C   UNL A   1      43.383  25.526  29.527  1.00  0.00     0.074 A 
ATOM     50  C   UNL A   1      44.393  29.198  34.615  1.00  0.00     0.029 A 
ATOM     51  N   UNL A   1      43.584  28.294  32.753  1.00  0.00    -0.354 N 
ATOM     52  N   UNL A   1      43.513  26.342  30.547  1.00  0.00    -0.248 NA
ATOM     53  C   UNL A   1      44.471  24.548  29.396  1.00  0.00     0.031 C 
ATOM     54  C   UNL A   1      45.263  28.183  34.200  1.00  0.00     0.029 A 
ATOM     55  C   UNL A   1      44.742  27.597  33.058  1.00  0.00     0.049 A 
ATOM     56  H   UNL A   1      43.000  28.108  31.982  1.00  0.00     0.167 HD
ATOM     57  C   UNL A   1      44.680  25.953  31.197  1.00  0.00     0.074 A 
ATOM     58  C   UNL A   1      45.210  24.824  30.461  1.00  0.00     0.031 C 
ATOM     59  C   UNL A   1      45.261  26.477  32.307  1.00  0.00     0.034 A 
BRANCH  46  60
ATOM     60  C   UNL A   1      42.221  31.333  34.690  1.00  0.00     0.023 A 
ATOM     61  C   UNL A   1      42.849  32.572  34.472  1.00  0.00     0.031 A 
ATOM     62  C   UNL A   1      41.569  31.135  35.921  1.00  0.00     0.131 A 
ATOM     63  C   UNL A   1      42.882  33.533  35.494  1.00  0.00     0.055 A 
ATOM     64  C   UNL A   1      41.534  32.127  36.903  1.00  0.00     0.041 A 
ATOM     65  F   UNL A   1      40.968  29.967  36.195  1.00  0.00    -0.206 F 
ATOM     66  C   UNL A   1      42.207  33.328  36.700  1.00  0.00     0.022 A 
BRANCH  63  67
ATOM     67  S   UNL A   1      43.938  34.991  35.278  1.00  0.00     0.124 S 
ATOM     68  O   UNL A   1      43.674  35.731  36.509  1.00  0.00    -0.237 OA
ATOM     69  O   UNL A   1      45.267  34.402  35.157  1.00  0.00    -0.237 OA
ATOM     70  O   UNL A   1      43.418  35.613  34.062  1.00  0.00    -0.744 OA
ENDBRANCH  63  67
ENDBRANCH  46  60
BRANCH  47  71
ATOM     71  C   UNL A   1      42.343  24.469  27.385  1.00  0.00     0.023 A 
ATOM     72  C   UNL A   1      41.639  23.257  27.461  1.00  0.00     0.031 A 
ATOM     73  C   UNL A   1      43.141  24.699  26.251  1.00  0.00     0.131 A 
ATOM     74  C   UNL A   1      41.782  22.300  26.445  1.00  0.00     0.055 A 
ATOM     75  C   UNL A   1      43.240  23.764  25.218  1.00  0.00     0.041 A 
ATOM     76  F   UNL A   1      43.828  25.845  26.124  1.00  0.00    -0.206 F 
ATOM     77  C   UNL A   1      42.568  22.550  25.319  1.00  0.00     0.022 A 
BRANCH  74  78
ATOM     78  S   UNL A   1      40.985  20.684  26.658  1.00  0.00     0.124 S 
ATOM     79  O   UNL A   1      39.724  20.879  25.950  1.00  0.00    -0.237 OA
ATOM     80  O   UNL A   1      41.946  19.789  26.023  1.00  0.00    -0.237 OA
ATOM     81  O   UNL A   1      40.873  20.549  28.108  1.00  0.00    -0.744 OA
ENDBRANCH  74  78
ENDBRANCH  47  71
BRANCH  59  82
ATOM     82  C   UNL A   1      46.509  25.797  32.811  1.00  0.00     0.023 A 
ATOM     83  C   UNL A   1      46.455  24.746  33.742  1.00  0.00     0.031 A 
ATOM     84  C   UNL A   1      47.772  26.220  32.360  1.00  0.00     0.131 A 
ATOM     85  C   UNL A   1      47.645  24.188  34.234  1.00  0.00     0.055 A 
ATOM     86  C   UNL A   1      48.950  25.622  32.809  1.00  0.00     0.041 A 
ATOM     87  F   UNL A   1      47.881  27.222  31.472  1.00  0.00    -0.206 F 
ATOM     88  C   UNL A   1      48.891  24.609  33.761  1.00  0.00     0.022 A 
BRANCH  85  89
ATOM     89  S   UNL A   1      47.546  22.960  35.565  1.00  0.00     0.124 S 
ATOM     90  O   UNL A   1      47.351  21.721  34.821  1.00  0.00    -0.237 OA
ATOM     91  O   UNL A   1      48.839  23.112  36.225  1.00  0.00    -0.237 OA
ATOM     92  O   UNL A   1      46.395  23.399  36.353  1.00  0.00    -0.744 OA
ENDBRANCH  85  89
ENDBRANCH  59  82
ENDBRANCH  33  34
ENDBRANCH  25  28
ENDBRANCH  23  24
ENDBRANCH  22  23
ENDBRANCH   1  22
TORSDOF 19
ENDMDL
MODEL 3
REMARK VINA RESULT:     -10.8      2.577      8.554
REMARK SMILES CC(C)C[C@@H](CNC(=O)[C@@H]1CCOC1)C(=O)NCCCCNC(=O)c1ccc(-c2c3nc(c(-c4cc(S(=O)(=O)[O-])ccc4F)c4ccc([nH]4)c(-c4cc(S(=O)(=O)[O-])ccc4F)c4nc(c(-c5cc(S(=O)(=O)[O-])ccc5F)c5ccc2[nH]5)C=C4)C=C3)cc1
REMARK SMILES IDX 19 1 18 2 17 3 15 4 16 5 5 7 4 8 2 9 1 10 3 11 6 12 7 13
REMARK SMILES IDX 8 14 9 16 10 17 11 18 14 19 12 20 13 21 20 22 21 23 22 24
REMARK SMILES IDX 23 25 24 27 25 28 26 29 87 30 27 31 86 32 28 33 29 34 30 35
REMARK SMILES IDX 80 36 31 37 85 38 79 39 81 40 32 41 84 42 78 43 77 44 33 46
REMARK SMILES IDX 65 47 45 48 64 49 46 50 49 51 63 52 82 53 47 54 48 55 62 57
REMARK SMILES IDX 83 58 50 59 34 60 35 61 43 62 36 63 42 64 44 65 41 66 37 67
REMARK SMILES IDX 38 68 39 69 40 70 66 71 67 72 75 73 68 74 74 75 76 76 73 77
REMARK SMILES IDX 69 78 70 79 71 80 72 81 51 82 52 83 60 84 53 85 59 86 61 87
REMARK SMILES IDX 58 88 54 89 55 90 56 91 57 92
REMARK H PARENT 17 6 7 15 22 26 81 45 49 56
REMARK Flexibility Score: inf
ROOT
ATOM      1  C   UNL A   1      33.651  28.808  24.501  1.00  0.00     0.023 C 
ENDROOT
BRANCH   1   2
ATOM      2  C   UNL A   1      33.827  27.296  24.472  1.00  0.00     0.116 C 
BRANCH   2   3
ATOM      3  N   UNL A   1      33.861  26.768  23.119  1.00  0.00    -0.356 N 
ATOM      4  C   UNL A   1      33.177  25.749  22.536  1.00  0.00     0.224 C 
ATOM      5  O   UNL A   1      33.269  25.632  21.310  1.00  0.00    -0.275 OA
ATOM      6  H   UNL A   1      34.488  27.232  22.519  1.00  0.00     0.163 HD
BRANCH   4   7
ATOM      7  C   UNL A   1      32.291  24.783  23.318  1.00  0.00     0.098 C 
BRANCH   7   8
ATOM      8  C   UNL A   1      30.791  25.010  23.051  1.00  0.00     0.018 C 
BRANCH   8   9
ATOM      9  C   UNL A   1      29.987  25.738  24.141  1.00  0.00    -0.017 C 
ATOM     10  C   UNL A   1      30.675  25.694  25.503  1.00  0.00     0.007 C 
ATOM     11  C   UNL A   1      29.778  27.197  23.717  1.00  0.00     0.007 C 
ENDBRANCH   8   9
ENDBRANCH   7   8
BRANCH   7  12
ATOM     12  C   UNL A   1      32.863  23.354  23.298  1.00  0.00     0.129 C 
BRANCH  12  13
ATOM     13  N   UNL A   1      34.184  23.206  22.718  1.00  0.00    -0.355 N 
ATOM     14  C   UNL A   1      35.383  22.923  23.312  1.00  0.00     0.225 C 
ATOM     15  H   UNL A   1      34.224  23.327  21.742  1.00  0.00     0.163 HD
ATOM     16  O   UNL A   1      36.383  22.960  22.595  1.00  0.00    -0.275 OA
BRANCH  14  17
ATOM     17  C   UNL A   1      35.439  22.598  24.799  1.00  0.00     0.106 C 
ATOM     18  C   UNL A   1      35.801  23.804  25.644  1.00  0.00     0.044 C 
ATOM     19  C   UNL A   1      36.550  21.607  25.128  1.00  0.00     0.173 C 
ATOM     20  C   UNL A   1      37.305  23.703  25.764  1.00  0.00     0.161 C 
ATOM     21  O   UNL A   1      37.591  22.307  25.826  1.00  0.00    -0.381 OA
ENDBRANCH  14  17
ENDBRANCH  12  13
ENDBRANCH   7  12
ENDBRANCH   4   7
ENDBRANCH   2   3
ENDBRANCH   1   2
BRANCH   1  22
ATOM     22  C   UNL A   1      32.405  29.278  25.248  1.00  0.00     0.023 C 
BRANCH  22  23
ATOM     23  C   UNL A   1      32.650  29.781  26.668  1.00  0.00     0.116 C 
BRANCH  23  24
ATOM     24  N   UNL A   1      32.595  31.232  26.786  1.00  0.00    -0.352 N 
ATOM     25  C   UNL A   1      33.481  32.073  27.416  1.00  0.00     0.251 C 
ATOM     26  H   UNL A   1      31.822  31.666  26.358  1.00  0.00     0.163 HD
ATOM     27  O   UNL A   1      33.222  33.265  27.544  1.00  0.00    -0.269 OA
BRANCH  25  28
ATOM     28  C   UNL A   1      34.727  31.508  27.975  1.00  0.00     0.039 A 
ATOM     29  C   UNL A   1      35.822  32.350  28.178  1.00  0.00     0.014 A 
ATOM     30  C   UNL A   1      34.779  30.165  28.362  1.00  0.00     0.014 A 
ATOM     31  C   UNL A   1      36.943  31.864  28.851  1.00  0.00     0.010 A 
ATOM     32  C   UNL A   1      35.866  29.707  29.098  1.00  0.00     0.010 A 
ATOM     33  C   UNL A   1      36.956  30.553  29.358  1.00  0.00    -0.014 A 
BRANCH  33  34
ATOM     34  C   UNL A   1      38.093  30.049  30.169  1.00  0.00     0.031 A 
ATOM     35  C   UNL A   1      38.286  30.540  31.577  1.00  0.00     0.074 A 
ATOM     36  C   UNL A   1      38.991  29.212  29.612  1.00  0.00     0.049 A 
ATOM     37  N   UNL A   1      39.261  30.295  32.414  1.00  0.00    -0.248 NA
ATOM     38  C   UNL A   1      37.262  31.458  32.099  1.00  0.00     0.031 C 
ATOM     39  C   UNL A   1      38.936  28.703  28.239  1.00  0.00     0.029 A 
ATOM     40  N   UNL A   1      40.131  28.647  30.126  1.00  0.00    -0.354 N 
ATOM     41  C   UNL A   1      38.981  31.043  33.552  1.00  0.00     0.074 A 
ATOM     42  C   UNL A   1      37.775  31.794  33.272  1.00  0.00     0.031 C 
ATOM     43  C   UNL A   1      39.981  27.885  28.030  1.00  0.00     0.029 A 
ATOM     44  C   UNL A   1      40.803  27.843  29.234  1.00  0.00     0.049 A 
ATOM     45  H   UNL A   1      40.441  28.804  31.048  1.00  0.00     0.167 HD
ATOM     46  C   UNL A   1      39.653  31.081  34.729  1.00  0.00     0.034 A 
ATOM     47  C   UNL A   1      41.956  27.158  29.370  1.00  0.00     0.034 A 
ATOM     48  C   UNL A   1      40.840  30.307  34.999  1.00  0.00     0.049 A 
ATOM     49  C   UNL A   1      42.688  27.219  30.686  1.00  0.00     0.074 A 
ATOM     50  C   UNL A   1      41.562  30.217  36.176  1.00  0.00     0.029 A 
ATOM     51  N   UNL A   1      41.484  29.492  34.076  1.00  0.00    -0.354 N 
ATOM     52  N   UNL A   1      42.380  27.889  31.773  1.00  0.00    -0.248 NA
ATOM     53  C   UNL A   1      43.918  26.425  30.796  1.00  0.00     0.031 C 
ATOM     54  C   UNL A   1      42.674  29.398  35.948  1.00  0.00     0.029 A 
ATOM     55  C   UNL A   1      42.608  28.919  34.649  1.00  0.00     0.049 A 
ATOM     56  H   UNL A   1      41.186  29.344  33.150  1.00  0.00     0.167 HD
ATOM     57  C   UNL A   1      43.361  27.569  32.705  1.00  0.00     0.074 A 
ATOM     58  C   UNL A   1      44.264  26.639  32.057  1.00  0.00     0.031 C 
ATOM     59  C   UNL A   1      43.503  28.000  33.985  1.00  0.00     0.034 A 
BRANCH  46  60
ATOM     60  C   UNL A   1      39.127  32.009  35.797  1.00  0.00     0.023 A 
ATOM     61  C   UNL A   1      39.554  33.346  35.889  1.00  0.00     0.031 A 
ATOM     62  C   UNL A   1      38.214  31.543  36.759  1.00  0.00     0.131 A 
ATOM     63  C   UNL A   1      39.131  34.146  36.962  1.00  0.00     0.055 A 
ATOM     64  C   UNL A   1      37.732  32.368  37.777  1.00  0.00     0.041 A 
ATOM     65  F   UNL A   1      37.785  30.271  36.735  1.00  0.00    -0.206 F 
ATOM     66  C   UNL A   1      38.203  33.673  37.893  1.00  0.00     0.022 A 
BRANCH  63  67
ATOM     67  S   UNL A   1      39.921  35.760  37.201  1.00  0.00     0.124 S 
ATOM     68  O   UNL A   1      39.203  36.269  38.367  1.00  0.00    -0.237 OA
ATOM     69  O   UNL A   1      41.317  35.399  37.417  1.00  0.00    -0.237 OA
ATOM     70  O   UNL A   1      39.645  36.465  35.952  1.00  0.00    -0.744 OA
ENDBRANCH  63  67
ENDBRANCH  46  60
BRANCH  47  71
ATOM     71  C   UNL A   1      42.498  26.355  28.236  1.00  0.00     0.023 A 
ATOM     72  C   UNL A   1      43.627  26.787  27.522  1.00  0.00     0.031 A 
ATOM     73  C   UNL A   1      41.869  25.169  27.821  1.00  0.00     0.131 A 
ATOM     74  C   UNL A   1      44.065  26.065  26.402  1.00  0.00     0.055 A 
ATOM     75  C   UNL A   1      42.339  24.426  26.736  1.00  0.00     0.041 A 
ATOM     76  F   UNL A   1      40.791  24.707  28.474  1.00  0.00    -0.206 F 
ATOM     77  C   UNL A   1      43.436  24.881  26.011  1.00  0.00     0.022 A 
BRANCH  74  78
ATOM     78  S   UNL A   1      45.426  26.742  25.411  1.00  0.00     0.124 S 
ATOM     79  O   UNL A   1      45.826  25.581  24.623  1.00  0.00    -0.237 OA
ATOM     80  O   UNL A   1      44.761  27.816  24.680  1.00  0.00    -0.237 OA
ATOM     81  O   UNL A   1      46.392  27.179  26.415  1.00  0.00    -0.744 OA
ENDBRANCH  74  78
ENDBRANCH  47  71
BRANCH  59  82
ATOM     82  C   UNL A   1      44.653  27.427  34.776  1.00  0.00     0.023 A 
ATOM     83  C   UNL A   1      44.553  26.190  35.436  1.00  0.00     0.031 A 
ATOM     84  C   UNL A   1      45.860  28.138  34.878  1.00  0.00     0.131 A 
ATOM     85  C   UNL A   1      45.624  25.728  36.215  1.00  0.00     0.055 A 
ATOM     86  C   UNL A   1      46.944  27.646  35.607  1.00  0.00     0.041 A 
ATOM     87  F   UNL A   1      46.008  29.326  34.267  1.00  0.00    -0.206 F 
ATOM     88  C   UNL A   1      46.824  26.441  36.292  1.00  0.00     0.022 A 
BRANCH  85  89
ATOM     89  S   UNL A   1      45.400  24.221  37.199  1.00  0.00     0.124 S 
ATOM     90  O   UNL A   1      46.770  23.902  37.583  1.00  0.00    -0.237 OA
ATOM     91  O   UNL A   1      44.525  24.678  38.275  1.00  0.00    -0.237 OA
ATOM     92  O   UNL A   1      44.785  23.285  36.259  1.00  0.00    -0.744 OA
ENDBRANCH  85  89
ENDBRANCH  59  82
ENDBRANCH  33  34
ENDBRANCH  25  28
ENDBRANCH  23  24
ENDBRANCH  22  23
ENDBRANCH   1  22
TORSDOF 19
ENDMDL
