MODEL 1
REMARK VINA RESULT:     -11.6      0.000      0.000
REMARK SMILES O=C(NC[C@@H]1CC[C@H](C(=O)NCCCCNC(=O)c2ccc(-c3c4nc(c(-c5cc(S(=O)(=O)[O-])ccc5F)c5ccc([nH]5)c(-c5cc(S(=O)(=O)[O-])ccc5F)c5nc(c(-c6cc(S(=O)(=O)[O-])ccc6F)c6ccc3[nH]6)C=C5)C=C4)cc2)O1)Nc1ncccn1
REMARK SMILES IDX 13 1 12 2 11 3 9 4 10 5 8 7 5 8 6 9 82 10 7 11 4 12 3 13
REMARK SMILES IDX 1 14 2 15 83 16 84 19 85 20 89 21 86 22 88 23 87 24 14 25
REMARK SMILES IDX 15 26 16 27 17 28 18 30 19 31 20 32 81 33 21 34 80 35 22 36
REMARK SMILES IDX 23 37 24 38 74 39 25 40 79 41 73 42 75 43 26 44 78 45 72 46
REMARK SMILES IDX 71 47 27 49 59 50 39 51 58 52 40 53 43 54 57 55 76 56 41 57
REMARK SMILES IDX 42 58 56 60 77 61 44 62 28 63 29 64 37 65 30 66 36 67 38 68
REMARK SMILES IDX 35 69 31 70 32 71 33 72 34 73 60 74 61 75 69 76 62 77 68 78
REMARK SMILES IDX 70 79 67 80 63 81 64 82 65 83 66 84 45 85 46 86 54 87 47 88
REMARK SMILES IDX 53 89 55 90 52 91 48 92 49 93 50 94 51 95
REMARK H PARENT 11 6 3 17 83 18 16 29 75 48 43 59
REMARK Flexibility Score: inf
ROOT
ATOM      1  C   UNL A   1      32.673  29.621  26.288  1.00  0.00     0.023 C 
ENDROOT
BRANCH   1   2
ATOM      2  C   UNL A   1      32.607  28.435  27.241  1.00  0.00     0.116 C 
BRANCH   2   3
ATOM      3  N   UNL A   1      31.421  27.632  27.051  1.00  0.00    -0.354 N 
ATOM      4  C   UNL A   1      31.260  26.376  26.544  1.00  0.00     0.249 C 
ATOM      5  O   UNL A   1      30.104  25.946  26.464  1.00  0.00    -0.272 OA
ATOM      6  H   UNL A   1      30.585  28.067  27.336  1.00  0.00     0.163 HD
BRANCH   4   7
ATOM      7  C   UNL A   1      32.448  25.491  26.092  1.00  0.00     0.207 C 
ATOM      8  C   UNL A   1      33.371  25.047  23.966  1.00  0.00     0.138 C 
ATOM      9  C   UNL A   1      32.509  23.842  24.325  1.00  0.00     0.037 C 
ATOM     10  O   UNL A   1      33.172  26.033  24.993  1.00  0.00    -0.363 OA
ATOM     11  C   UNL A   1      32.128  24.043  25.778  1.00  0.00     0.045 C 
BRANCH   8  12
ATOM     12  C   UNL A   1      33.083  25.699  22.589  1.00  0.00     0.149 C 
BRANCH  12  13
ATOM     13  N   UNL A   1      33.462  27.105  22.603  1.00  0.00    -0.335 N 
ATOM     14  O   UNL A   1      33.369  29.287  22.422  1.00  0.00    -0.248 OA
ATOM     15  C   UNL A   1      32.753  28.254  22.671  1.00  0.00     0.321 C 
ATOM     16  N   UNL A   1      31.446  28.148  22.994  1.00  0.00    -0.276 N 
ATOM     17  H   UNL A   1      34.435  27.249  22.551  1.00  0.00     0.165 HD
ATOM     18  H   UNL A   1      31.132  27.301  23.384  1.00  0.00     0.175 HD
BRANCH  16  19
ATOM     19  C   UNL A   1      30.520  29.164  22.808  1.00  0.00     0.230 A 
ATOM     20  N   UNL A   1      30.183  29.842  23.918  1.00  0.00    -0.221 NA
ATOM     21  N   UNL A   1      29.974  29.380  21.604  1.00  0.00    -0.221 NA
ATOM     22  C   UNL A   1      29.291  30.839  23.756  1.00  0.00     0.117 A 
ATOM     23  C   UNL A   1      29.081  30.376  21.495  1.00  0.00     0.117 A 
ATOM     24  C   UNL A   1      28.700  31.156  22.555  1.00  0.00     0.040 A 
ENDBRANCH  16  19
ENDBRANCH  12  13
ENDBRANCH   8  12
ENDBRANCH   4   7
ENDBRANCH   2   3
ENDBRANCH   1   2
BRANCH   1  25
ATOM     25  C   UNL A   1      32.162  30.932  26.881  1.00  0.00     0.023 C 
BRANCH  25  26
ATOM     26  C   UNL A   1      33.242  31.913  27.335  1.00  0.00     0.116 C 
BRANCH  26  27
ATOM     27  N   UNL A   1      32.761  33.275  27.517  1.00  0.00    -0.352 N 
ATOM     28  C   UNL A   1      33.216  34.228  28.405  1.00  0.00     0.251 C 
ATOM     29  H   UNL A   1      32.019  33.552  26.932  1.00  0.00     0.163 HD
ATOM     30  O   UNL A   1      32.658  35.310  28.492  1.00  0.00    -0.269 OA
BRANCH  28  31
ATOM     31  C   UNL A   1      34.357  33.886  29.282  1.00  0.00     0.039 A 
ATOM     32  C   UNL A   1      34.124  33.112  30.420  1.00  0.00     0.014 A 
ATOM     33  C   UNL A   1      35.657  34.250  28.924  1.00  0.00     0.014 A 
ATOM     34  C   UNL A   1      35.208  32.625  31.153  1.00  0.00     0.010 A 
ATOM     35  C   UNL A   1      36.736  33.707  29.615  1.00  0.00     0.010 A 
ATOM     36  C   UNL A   1      36.522  32.879  30.728  1.00  0.00    -0.014 A 
BRANCH  36  37
ATOM     37  C   UNL A   1      37.688  32.272  31.422  1.00  0.00     0.031 A 
ATOM     38  C   UNL A   1      38.433  31.133  30.784  1.00  0.00     0.074 A 
ATOM     39  C   UNL A   1      38.025  32.696  32.657  1.00  0.00     0.049 A 
ATOM     40  N   UNL A   1      39.417  30.416  31.262  1.00  0.00    -0.248 NA
ATOM     41  C   UNL A   1      37.987  30.728  29.443  1.00  0.00     0.031 C 
ATOM     42  C   UNL A   1      37.345  33.760  33.401  1.00  0.00     0.029 A 
ATOM     43  N   UNL A   1      39.014  32.278  33.511  1.00  0.00    -0.354 N 
ATOM     44  C   UNL A   1      39.699  29.465  30.287  1.00  0.00     0.074 A 
ATOM     45  C   UNL A   1      38.739  29.662  29.221  1.00  0.00     0.031 C 
ATOM     46  C   UNL A   1      37.952  33.924  34.589  1.00  0.00     0.029 A 
ATOM     47  C   UNL A   1      39.035  32.953  34.710  1.00  0.00     0.049 A 
ATOM     48  H   UNL A   1      39.651  31.562  33.287  1.00  0.00     0.167 HD
ATOM     49  C   UNL A   1      40.681  28.529  30.272  1.00  0.00     0.034 A 
ATOM     50  C   UNL A   1      39.828  32.800  35.788  1.00  0.00     0.034 A 
ATOM     51  C   UNL A   1      41.637  28.354  31.338  1.00  0.00     0.049 A 
ATOM     52  C   UNL A   1      40.907  31.748  35.754  1.00  0.00     0.074 A 
ATOM     53  C   UNL A   1      42.706  27.478  31.404  1.00  0.00     0.029 A 
ATOM     54  N   UNL A   1      41.635  29.066  32.532  1.00  0.00    -0.354 N 
ATOM     55  N   UNL A   1      41.196  30.891  34.802  1.00  0.00    -0.248 NA
ATOM     56  C   UNL A   1      41.775  31.651  36.935  1.00  0.00     0.031 C 
ATOM     57  C   UNL A   1      43.314  27.619  32.657  1.00  0.00     0.029 A 
ATOM     58  C   UNL A   1      42.669  28.632  33.349  1.00  0.00     0.049 A 
ATOM     59  H   UNL A   1      40.994  29.777  32.764  1.00  0.00     0.167 HD
ATOM     60  C   UNL A   1      42.298  30.174  35.258  1.00  0.00     0.074 A 
ATOM     61  C   UNL A   1      42.628  30.708  36.565  1.00  0.00     0.031 C 
ATOM     62  C   UNL A   1      42.978  29.168  34.653  1.00  0.00     0.034 A 
BRANCH  49  63
ATOM     63  C   UNL A   1      40.745  27.615  29.073  1.00  0.00     0.023 A 
ATOM     64  C   UNL A   1      41.684  27.813  28.045  1.00  0.00     0.031 A 
ATOM     65  C   UNL A   1      39.832  26.555  28.933  1.00  0.00     0.131 A 
ATOM     66  C   UNL A   1      41.638  27.020  26.889  1.00  0.00     0.055 A 
ATOM     67  C   UNL A   1      39.844  25.715  27.816  1.00  0.00     0.041 A 
ATOM     68  F   UNL A   1      38.899  26.327  29.872  1.00  0.00    -0.206 F 
ATOM     69  C   UNL A   1      40.740  25.957  26.779  1.00  0.00     0.022 A 
BRANCH  66  70
ATOM     70  S   UNL A   1      42.669  27.492  25.474  1.00  0.00     0.124 S 
ATOM     71  O   UNL A   1      43.940  27.800  26.123  1.00  0.00    -0.237 OA
ATOM     72  O   UNL A   1      42.647  26.286  24.652  1.00  0.00    -0.237 OA
ATOM     73  O   UNL A   1      41.970  28.644  24.908  1.00  0.00    -0.744 OA
ENDBRANCH  66  70
ENDBRANCH  49  63
BRANCH  50  74
ATOM     74  C   UNL A   1      39.640  33.656  36.994  1.00  0.00     0.023 A 
ATOM     75  C   UNL A   1      38.973  33.168  38.129  1.00  0.00     0.031 A 
ATOM     76  C   UNL A   1      40.087  34.989  37.014  1.00  0.00     0.131 A 
ATOM     77  C   UNL A   1      38.730  34.019  39.218  1.00  0.00     0.055 A 
ATOM     78  C   UNL A   1      39.885  35.818  38.119  1.00  0.00     0.041 A 
ATOM     79  F   UNL A   1      40.737  35.503  35.957  1.00  0.00    -0.206 F 
ATOM     80  C   UNL A   1      39.190  35.338  39.224  1.00  0.00     0.022 A 
BRANCH  77  81
ATOM     81  S   UNL A   1      37.731  33.398  40.599  1.00  0.00     0.124 S 
ATOM     82  O   UNL A   1      36.577  32.839  39.904  1.00  0.00    -0.237 OA
ATOM     83  O   UNL A   1      38.636  32.435  41.218  1.00  0.00    -0.237 OA
ATOM     84  O   UNL A   1      37.464  34.597  41.391  1.00  0.00    -0.744 OA
ENDBRANCH  77  81
ENDBRANCH  50  74
BRANCH  62  85
ATOM     85  C   UNL A   1      44.178  28.618  35.384  1.00  0.00     0.023 A 
ATOM     86  C   UNL A   1      44.059  27.585  36.330  1.00  0.00     0.031 A 
ATOM     87  C   UNL A   1      45.457  29.148  35.138  1.00  0.00     0.131 A 
ATOM     88  C   UNL A   1      45.192  27.150  37.035  1.00  0.00     0.055 A 
ATOM     89  C   UNL A   1      46.589  28.672  35.802  1.00  0.00     0.041 A 
ATOM     90  F   UNL A   1      45.627  30.137  34.246  1.00  0.00    -0.206 F 
ATOM     91  C   UNL A   1      46.458  27.676  36.766  1.00  0.00     0.022 A 
BRANCH  88  92
ATOM     92  S   UNL A   1      44.976  25.944  38.373  1.00  0.00     0.124 S 
ATOM     93  O   UNL A   1      46.357  25.618  38.714  1.00  0.00    -0.237 OA
ATOM     94  O   UNL A   1      44.237  26.712  39.370  1.00  0.00    -0.237 OA
ATOM     95  O   UNL A   1      44.221  24.863  37.741  1.00  0.00    -0.744 OA
ENDBRANCH  88  92
ENDBRANCH  62  85
ENDBRANCH  36  37
ENDBRANCH  28  31
ENDBRANCH  26  27
ENDBRANCH  25  26
ENDBRANCH   1  25
TORSDOF 17
ENDMDL
MODEL 2
REMARK VINA RESULT:     -11.6      1.615      2.056
REMARK SMILES O=C(NC[C@@H]1CC[C@H](C(=O)NCCCCNC(=O)c2ccc(-c3c4nc(c(-c5cc(S(=O)(=O)[O-])ccc5F)c5ccc([nH]5)c(-c5cc(S(=O)(=O)[O-])ccc5F)c5nc(c(-c6cc(S(=O)(=O)[O-])ccc6F)c6ccc3[nH]6)C=C5)C=C4)cc2)O1)Nc1ncccn1
REMARK SMILES IDX 13 1 12 2 11 3 9 4 10 5 8 7 5 8 6 9 82 10 7 11 4 12 3 13
REMARK SMILES IDX 1 14 2 15 83 16 84 19 85 20 89 21 86 22 88 23 87 24 14 25
REMARK SMILES IDX 15 26 16 27 17 28 18 30 19 31 20 32 81 33 21 34 80 35 22 36
REMARK SMILES IDX 23 37 24 38 74 39 25 40 79 41 73 42 75 43 26 44 78 45 72 46
REMARK SMILES IDX 71 47 27 49 59 50 39 51 58 52 40 53 43 54 57 55 76 56 41 57
REMARK SMILES IDX 42 58 56 60 77 61 44 62 28 63 29 64 37 65 30 66 36 67 38 68
REMARK SMILES IDX 35 69 31 70 32 71 33 72 34 73 60 74 61 75 69 76 62 77 68 78
REMARK SMILES IDX 70 79 67 80 63 81 64 82 65 83 66 84 45 85 46 86 54 87 47 88
REMARK SMILES IDX 53 89 55 90 52 91 48 92 49 93 50 94 51 95
REMARK H PARENT 11 6 3 17 83 18 16 29 75 48 43 59
REMARK Flexibility Score: inf
ROOT
ATOM      1  C   UNL A   1      31.355  30.493  26.109  1.00  0.00     0.023 C 
ENDROOT
BRANCH   1   2
ATOM      2  C   UNL A   1      32.210  29.648  27.044  1.00  0.00     0.116 C 
BRANCH   2   3
ATOM      3  N   UNL A   1      31.713  28.298  27.185  1.00  0.00    -0.354 N 
ATOM      4  C   UNL A   1      32.134  27.126  26.628  1.00  0.00     0.249 C 
ATOM      5  O   UNL A   1      31.485  26.109  26.903  1.00  0.00    -0.272 OA
ATOM      6  H   UNL A   1      30.938  28.209  27.786  1.00  0.00     0.163 HD
BRANCH   4   7
ATOM      7  C   UNL A   1      33.370  27.029  25.701  1.00  0.00     0.207 C 
ATOM      8  C   UNL A   1      33.617  26.329  23.461  1.00  0.00     0.138 C 
ATOM      9  C   UNL A   1      34.081  25.168  24.332  1.00  0.00     0.037 C 
ATOM     10  O   UNL A   1      33.083  27.333  24.340  1.00  0.00    -0.363 OA
ATOM     11  C   UNL A   1      34.141  25.724  25.740  1.00  0.00     0.045 C 
BRANCH   8  12
ATOM     12  C   UNL A   1      32.548  25.987  22.391  1.00  0.00     0.149 C 
BRANCH  12  13
ATOM     13  N   UNL A   1      31.246  25.795  23.016  1.00  0.00    -0.335 N 
ATOM     14  O   UNL A   1      29.326  26.203  23.990  1.00  0.00    -0.248 OA
ATOM     15  C   UNL A   1      30.185  26.610  23.214  1.00  0.00     0.321 C 
ATOM     16  N   UNL A   1      30.186  27.786  22.549  1.00  0.00    -0.276 N 
ATOM     17  H   UNL A   1      31.111  24.886  23.369  1.00  0.00     0.165 HD
ATOM     18  H   UNL A   1      30.811  27.893  21.796  1.00  0.00     0.175 HD
BRANCH  16  19
ATOM     19  C   UNL A   1      29.355  28.852  22.864  1.00  0.00     0.230 A 
ATOM     20  N   UNL A   1      28.040  28.581  22.828  1.00  0.00    -0.221 NA
ATOM     21  N   UNL A   1      29.865  30.065  23.117  1.00  0.00    -0.221 NA
ATOM     22  C   UNL A   1      27.216  29.602  23.140  1.00  0.00     0.117 A 
ATOM     23  C   UNL A   1      29.004  31.051  23.410  1.00  0.00     0.117 A 
ATOM     24  C   UNL A   1      27.646  30.872  23.443  1.00  0.00     0.040 A 
ENDBRANCH  16  19
ENDBRANCH  12  13
ENDBRANCH   8  12
ENDBRANCH   4   7
ENDBRANCH   2   3
ENDBRANCH   1   2
BRANCH   1  25
ATOM     25  C   UNL A   1      31.279  31.970  26.491  1.00  0.00     0.023 C 
BRANCH  25  26
ATOM     26  C   UNL A   1      32.604  32.611  26.901  1.00  0.00     0.116 C 
BRANCH  26  27
ATOM     27  N   UNL A   1      32.454  33.889  27.584  1.00  0.00    -0.352 N 
ATOM     28  C   UNL A   1      33.274  34.442  28.547  1.00  0.00     0.251 C 
ATOM     29  H   UNL A   1      31.670  34.425  27.327  1.00  0.00     0.163 HD
ATOM     30  O   UNL A   1      32.973  35.495  29.085  1.00  0.00    -0.269 OA
BRANCH  28  31
ATOM     31  C   UNL A   1      34.490  33.702  28.945  1.00  0.00     0.039 A 
ATOM     32  C   UNL A   1      35.722  34.358  28.903  1.00  0.00     0.014 A 
ATOM     33  C   UNL A   1      34.394  32.401  29.445  1.00  0.00     0.014 A 
ATOM     34  C   UNL A   1      36.848  33.738  29.449  1.00  0.00     0.010 A 
ATOM     35  C   UNL A   1      35.502  31.815  30.050  1.00  0.00     0.010 A 
ATOM     36  C   UNL A   1      36.736  32.484  30.070  1.00  0.00    -0.014 A 
BRANCH  36  37
ATOM     37  C   UNL A   1      37.894  31.859  30.763  1.00  0.00     0.031 A 
ATOM     38  C   UNL A   1      38.707  30.805  30.067  1.00  0.00     0.074 A 
ATOM     39  C   UNL A   1      38.161  32.187  32.043  1.00  0.00     0.049 A 
ATOM     40  N   UNL A   1      39.696  30.083  30.526  1.00  0.00    -0.248 NA
ATOM     41  C   UNL A   1      38.333  30.501  28.677  1.00  0.00     0.031 C 
ATOM     42  C   UNL A   1      37.412  33.160  32.842  1.00  0.00     0.029 A 
ATOM     43  N   UNL A   1      39.128  31.731  32.903  1.00  0.00    -0.354 N 
ATOM     44  C   UNL A   1      40.054  29.228  29.489  1.00  0.00     0.074 A 
ATOM     45  C   UNL A   1      39.134  29.483  28.401  1.00  0.00     0.031 C 
ATOM     46  C   UNL A   1      37.961  33.242  34.066  1.00  0.00     0.029 A 
ATOM     47  C   UNL A   1      39.073  32.302  34.154  1.00  0.00     0.049 A 
ATOM     48  H   UNL A   1      39.800  31.058  32.649  1.00  0.00     0.167 HD
ATOM     49  C   UNL A   1      41.070  28.331  29.441  1.00  0.00     0.034 A 
ATOM     50  C   UNL A   1      39.825  32.084  35.251  1.00  0.00     0.034 A 
ATOM     51  C   UNL A   1      41.986  28.098  30.531  1.00  0.00     0.049 A 
ATOM     52  C   UNL A   1      40.943  31.075  35.177  1.00  0.00     0.074 A 
ATOM     53  C   UNL A   1      43.083  27.255  30.571  1.00  0.00     0.029 A 
ATOM     54  N   UNL A   1      41.907  28.705  31.779  1.00  0.00    -0.354 N 
ATOM     55  N   UNL A   1      41.304  30.313  34.171  1.00  0.00    -0.248 NA
ATOM     56  C   UNL A   1      41.763  30.907  36.384  1.00  0.00     0.031 C 
ATOM     57  C   UNL A   1      43.631  27.309  31.858  1.00  0.00     0.029 A 
ATOM     58  C   UNL A   1      42.920  28.237  32.602  1.00  0.00     0.049 A 
ATOM     59  H   UNL A   1      41.230  29.371  32.040  1.00  0.00     0.167 HD
ATOM     60  C   UNL A   1      42.411  29.597  34.615  1.00  0.00     0.074 A 
ATOM     61  C   UNL A   1      42.665  30.028  35.976  1.00  0.00     0.031 C 
ATOM     62  C   UNL A   1      43.154  28.670  33.960  1.00  0.00     0.034 A 
BRANCH  49  63
ATOM     63  C   UNL A   1      41.219  27.525  28.173  1.00  0.00     0.023 A 
ATOM     64  C   UNL A   1      40.870  26.163  28.120  1.00  0.00     0.031 A 
ATOM     65  C   UNL A   1      41.753  28.111  27.012  1.00  0.00     0.131 A 
ATOM     66  C   UNL A   1      41.134  25.415  26.964  1.00  0.00     0.055 A 
ATOM     67  C   UNL A   1      41.938  27.380  25.836  1.00  0.00     0.041 A 
ATOM     68  F   UNL A   1      42.123  29.402  27.006  1.00  0.00    -0.206 F 
ATOM     69  C   UNL A   1      41.643  26.020  25.813  1.00  0.00     0.022 A 
BRANCH  66  70
ATOM     70  S   UNL A   1      40.941  23.613  27.035  1.00  0.00     0.124 S 
ATOM     71  O   UNL A   1      41.477  23.311  28.360  1.00  0.00    -0.237 OA
ATOM     72  O   UNL A   1      39.501  23.444  26.875  1.00  0.00    -0.237 OA
ATOM     73  O   UNL A   1      41.753  23.136  25.918  1.00  0.00    -0.744 OA
ENDBRANCH  66  70
ENDBRANCH  49  63
BRANCH  50  74
ATOM     74  C   UNL A   1      39.554  32.827  36.515  1.00  0.00     0.023 A 
ATOM     75  C   UNL A   1      38.633  32.339  37.455  1.00  0.00     0.031 A 
ATOM     76  C   UNL A   1      40.180  34.057  36.780  1.00  0.00     0.131 A 
ATOM     77  C   UNL A   1      38.329  33.099  38.596  1.00  0.00     0.055 A 
ATOM     78  C   UNL A   1      39.910  34.787  37.939  1.00  0.00     0.041 A 
ATOM     79  F   UNL A   1      41.074  34.565  35.916  1.00  0.00    -0.206 F 
ATOM     80  C   UNL A   1      38.969  34.315  38.849  1.00  0.00     0.022 A 
BRANCH  77  81
ATOM     81  S   UNL A   1      37.022  32.510  39.708  1.00  0.00     0.124 S 
ATOM     82  O   UNL A   1      37.468  31.153  39.999  1.00  0.00    -0.237 OA
ATOM     83  O   UNL A   1      37.111  33.464  40.809  1.00  0.00    -0.237 OA
ATOM     84  O   UNL A   1      35.813  32.611  38.895  1.00  0.00    -0.744 OA
ENDBRANCH  77  81
ENDBRANCH  50  74
BRANCH  62  85
ATOM     85  C   UNL A   1      44.341  28.100  34.695  1.00  0.00     0.023 A 
ATOM     86  C   UNL A   1      44.247  26.917  35.449  1.00  0.00     0.031 A 
ATOM     87  C   UNL A   1      45.582  28.761  34.652  1.00  0.00     0.131 A 
ATOM     88  C   UNL A   1      45.359  26.460  36.172  1.00  0.00     0.055 A 
ATOM     89  C   UNL A   1      46.700  28.271  35.328  1.00  0.00     0.041 A 
ATOM     90  F   UNL A   1      45.726  29.896  33.949  1.00  0.00    -0.206 F 
ATOM     91  C   UNL A   1      46.588  27.120  36.104  1.00  0.00     0.022 A 
BRANCH  88  92
ATOM     92  S   UNL A   1      45.155  25.033  37.275  1.00  0.00     0.124 S 
ATOM     93  O   UNL A   1      43.800  24.595  36.956  1.00  0.00    -0.237 OA
ATOM     94  O   UNL A   1      46.231  24.148  36.843  1.00  0.00    -0.237 OA
ATOM     95  O   UNL A   1      45.323  25.606  38.610  1.00  0.00    -0.744 OA
ENDBRANCH  88  92
ENDBRANCH  62  85
ENDBRANCH  36  37
ENDBRANCH  28  31
ENDBRANCH  26  27
ENDBRANCH  25  26
ENDBRANCH   1  25
TORSDOF 17
ENDMDL
MODEL 3
REMARK VINA RESULT:     -11.5      5.660     10.438
REMARK SMILES O=C(NC[C@@H]1CC[C@H](C(=O)NCCCCNC(=O)c2ccc(-c3c4nc(c(-c5cc(S(=O)(=O)[O-])ccc5F)c5ccc([nH]5)c(-c5cc(S(=O)(=O)[O-])ccc5F)c5nc(c(-c6cc(S(=O)(=O)[O-])ccc6F)c6ccc3[nH]6)C=C5)C=C4)cc2)O1)Nc1ncccn1
REMARK SMILES IDX 13 1 12 2 11 3 9 4 10 5 8 7 5 8 6 9 82 10 7 11 4 12 3 13
REMARK SMILES IDX 1 14 2 15 83 16 84 19 85 20 89 21 86 22 88 23 87 24 14 25
REMARK SMILES IDX 15 26 16 27 17 28 18 30 19 31 20 32 81 33 21 34 80 35 22 36
REMARK SMILES IDX 23 37 24 38 74 39 25 40 79 41 73 42 75 43 26 44 78 45 72 46
REMARK SMILES IDX 71 47 27 49 59 50 39 51 58 52 40 53 43 54 57 55 76 56 41 57
REMARK SMILES IDX 42 58 56 60 77 61 44 62 28 63 29 64 37 65 30 66 36 67 38 68
REMARK SMILES IDX 35 69 31 70 32 71 33 72 34 73 60 74 61 75 69 76 62 77 68 78
REMARK SMILES IDX 70 79 67 80 63 81 64 82 65 83 66 84 45 85 46 86 54 87 47 88
REMARK SMILES IDX 53 89 55 90 52 91 48 92 49 93 50 94 51 95
REMARK H PARENT 11 6 3 17 83 18 16 29 75 48 43 59
REMARK Flexibility Score: inf
ROOT
ATOM      1  C   UNL A   1      34.484  21.482  24.567  1.00  0.00     0.023 C 
ENDROOT
BRANCH   1   2
ATOM      2  C   UNL A   1      33.331  22.476  24.522  1.00  0.00     0.116 C 
BRANCH   2   3
ATOM      3  N   UNL A   1      32.614  22.555  25.774  1.00  0.00    -0.354 N 
ATOM      4  C   UNL A   1      32.371  23.612  26.602  1.00  0.00     0.249 C 
ATOM      5  O   UNL A   1      31.751  23.377  27.646  1.00  0.00    -0.272 OA
ATOM      6  H   UNL A   1      32.237  21.700  26.084  1.00  0.00     0.163 HD
BRANCH   4   7
ATOM      7  C   UNL A   1      32.822  25.058  26.278  1.00  0.00     0.207 C 
ATOM      8  C   UNL A   1      32.610  26.385  24.338  1.00  0.00     0.138 C 
ATOM      9  C   UNL A   1      34.040  25.856  24.348  1.00  0.00     0.037 C 
ATOM     10  O   UNL A   1      31.918  25.758  25.431  1.00  0.00    -0.363 OA
ATOM     11  C   UNL A   1      34.219  25.215  25.709  1.00  0.00     0.045 C 
BRANCH   8  12
ATOM     12  C   UNL A   1      31.807  26.138  23.035  1.00  0.00     0.149 C 
BRANCH  12  13
ATOM     13  N   UNL A   1      30.380  26.304  23.279  1.00  0.00    -0.335 N 
ATOM     14  O   UNL A   1      28.427  27.223  23.654  1.00  0.00    -0.248 OA
ATOM     15  C   UNL A   1      29.531  27.346  23.131  1.00  0.00     0.321 C 
ATOM     16  N   UNL A   1      29.986  28.412  22.438  1.00  0.00    -0.276 N 
ATOM     17  H   UNL A   1      29.945  25.490  23.622  1.00  0.00     0.165 HD
ATOM     18  H   UNL A   1      30.793  28.297  21.887  1.00  0.00     0.175 HD
BRANCH  16  19
ATOM     19  C   UNL A   1      29.380  29.660  22.457  1.00  0.00     0.230 A 
ATOM     20  N   UNL A   1      28.832  30.047  21.293  1.00  0.00    -0.221 NA
ATOM     21  N   UNL A   1      29.419  30.423  23.557  1.00  0.00    -0.221 NA
ATOM     22  C   UNL A   1      28.231  31.254  21.293  1.00  0.00     0.117 A 
ATOM     23  C   UNL A   1      28.818  31.621  23.505  1.00  0.00     0.117 A 
ATOM     24  C   UNL A   1      28.192  32.093  22.381  1.00  0.00     0.040 A 
ENDBRANCH  16  19
ENDBRANCH  12  13
ENDBRANCH   8  12
ENDBRANCH   4   7
ENDBRANCH   2   3
ENDBRANCH   1   2
BRANCH   1  25
ATOM     25  C   UNL A   1      35.542  21.797  25.623  1.00  0.00     0.023 C 
BRANCH  25  26
ATOM     26  C   UNL A   1      36.953  22.035  25.089  1.00  0.00     0.116 C 
BRANCH  26  27
ATOM     27  N   UNL A   1      37.865  20.922  25.313  1.00  0.00    -0.352 N 
ATOM     28  C   UNL A   1      39.083  20.936  25.961  1.00  0.00     0.251 C 
ATOM     29  H   UNL A   1      37.576  20.051  24.958  1.00  0.00     0.163 HD
ATOM     30  O   UNL A   1      39.773  19.931  26.003  1.00  0.00    -0.269 OA
BRANCH  28  31
ATOM     31  C   UNL A   1      39.552  22.208  26.552  1.00  0.00     0.039 A 
ATOM     32  C   UNL A   1      40.593  22.176  27.482  1.00  0.00     0.014 A 
ATOM     33  C   UNL A   1      39.026  23.426  26.115  1.00  0.00     0.014 A 
ATOM     34  C   UNL A   1      41.170  23.375  27.908  1.00  0.00     0.010 A 
ATOM     35  C   UNL A   1      39.647  24.614  26.487  1.00  0.00     0.010 A 
ATOM     36  C   UNL A   1      40.734  24.599  27.376  1.00  0.00    -0.014 A 
BRANCH  36  37
ATOM     37  C   UNL A   1      41.412  25.876  27.723  1.00  0.00     0.031 A 
ATOM     38  C   UNL A   1      40.666  26.943  28.472  1.00  0.00     0.074 A 
ATOM     39  C   UNL A   1      42.670  26.101  27.294  1.00  0.00     0.049 A 
ATOM     40  N   UNL A   1      41.049  28.152  28.793  1.00  0.00    -0.248 NA
ATOM     41  C   UNL A   1      39.294  26.616  28.887  1.00  0.00     0.031 C 
ATOM     42  C   UNL A   1      43.480  25.161  26.513  1.00  0.00     0.029 A 
ATOM     43  N   UNL A   1      43.487  27.194  27.441  1.00  0.00    -0.354 N 
ATOM     44  C   UNL A   1      39.961  28.736  29.434  1.00  0.00     0.074 A 
ATOM     45  C   UNL A   1      38.886  27.767  29.399  1.00  0.00     0.031 C 
ATOM     46  C   UNL A   1      44.682  25.710  26.272  1.00  0.00     0.029 A 
ATOM     47  C   UNL A   1      44.717  27.053  26.841  1.00  0.00     0.049 A 
ATOM     48  H   UNL A   1      43.218  28.004  27.932  1.00  0.00     0.167 HD
ATOM     49  C   UNL A   1      39.875  29.957  30.017  1.00  0.00     0.034 A 
ATOM     50  C   UNL A   1      45.751  27.912  26.751  1.00  0.00     0.034 A 
ATOM     51  C   UNL A   1      40.960  30.907  30.054  1.00  0.00     0.049 A 
ATOM     52  C   UNL A   1      45.630  29.268  27.398  1.00  0.00     0.074 A 
ATOM     53  C   UNL A   1      41.001  32.148  30.665  1.00  0.00     0.029 A 
ATOM     54  N   UNL A   1      42.197  30.724  29.446  1.00  0.00    -0.354 N 
ATOM     55  N   UNL A   1      44.613  29.785  28.047  1.00  0.00    -0.248 NA
ATOM     56  C   UNL A   1      46.800  30.150  27.310  1.00  0.00     0.031 C 
ATOM     57  C   UNL A   1      42.238  32.738  30.379  1.00  0.00     0.029 A 
ATOM     58  C   UNL A   1      42.997  31.838  29.648  1.00  0.00     0.049 A 
ATOM     59  H   UNL A   1      42.466  29.919  28.946  1.00  0.00     0.167 HD
ATOM     60  C   UNL A   1      45.033  31.043  28.471  1.00  0.00     0.074 A 
ATOM     61  C   UNL A   1      46.400  31.199  28.014  1.00  0.00     0.031 C 
ATOM     62  C   UNL A   1      44.355  31.982  29.177  1.00  0.00     0.034 A 
BRANCH  49  63
ATOM     63  C   UNL A   1      38.551  30.333  30.638  1.00  0.00     0.023 A 
ATOM     64  C   UNL A   1      37.539  30.962  29.890  1.00  0.00     0.031 A 
ATOM     65  C   UNL A   1      38.309  30.098  32.002  1.00  0.00     0.131 A 
ATOM     66  C   UNL A   1      36.370  31.406  30.525  1.00  0.00     0.055 A 
ATOM     67  C   UNL A   1      37.108  30.469  32.612  1.00  0.00     0.041 A 
ATOM     68  F   UNL A   1      39.244  29.519  32.773  1.00  0.00    -0.206 F 
ATOM     69  C   UNL A   1      36.137  31.143  31.876  1.00  0.00     0.022 A 
BRANCH  66  70
ATOM     70  S   UNL A   1      35.227  32.463  29.594  1.00  0.00     0.124 S 
ATOM     71  O   UNL A   1      34.583  31.494  28.710  1.00  0.00    -0.237 OA
ATOM     72  O   UNL A   1      34.387  33.023  30.647  1.00  0.00    -0.237 OA
ATOM     73  O   UNL A   1      36.108  33.418  28.925  1.00  0.00    -0.744 OA
ENDBRANCH  66  70
ENDBRANCH  49  63
BRANCH  50  74
ATOM     74  C   UNL A   1      46.993  27.528  26.020  1.00  0.00     0.023 A 
ATOM     75  C   UNL A   1      47.149  27.824  24.657  1.00  0.00     0.031 A 
ATOM     76  C   UNL A   1      48.023  26.821  26.665  1.00  0.00     0.131 A 
ATOM     77  C   UNL A   1      48.288  27.375  23.969  1.00  0.00     0.055 A 
ATOM     78  C   UNL A   1      49.176  26.418  25.988  1.00  0.00     0.041 A 
ATOM     79  F   UNL A   1      47.927  26.519  27.969  1.00  0.00    -0.206 F 
ATOM     80  C   UNL A   1      49.307  26.683  24.628  1.00  0.00     0.022 A 
BRANCH  77  81
ATOM     81  S   UNL A   1      48.382  27.641  22.177  1.00  0.00     0.124 S 
ATOM     82  O   UNL A   1      47.070  28.211  21.892  1.00  0.00    -0.237 OA
ATOM     83  O   UNL A   1      49.516  28.554  22.067  1.00  0.00    -0.237 OA
ATOM     84  O   UNL A   1      48.611  26.300  21.646  1.00  0.00    -0.744 OA
ENDBRANCH  77  81
ENDBRANCH  50  74
BRANCH  62  85
ATOM     85  C   UNL A   1      45.105  33.241  29.536  1.00  0.00     0.023 A 
ATOM     86  C   UNL A   1      45.061  34.386  28.723  1.00  0.00     0.031 A 
ATOM     87  C   UNL A   1      45.886  33.287  30.705  1.00  0.00     0.131 A 
ATOM     88  C   UNL A   1      45.828  35.512  29.061  1.00  0.00     0.055 A 
ATOM     89  C   UNL A   1      46.602  34.429  31.065  1.00  0.00     0.041 A 
ATOM     90  F   UNL A   1      45.964  32.219  31.516  1.00  0.00    -0.206 F 
ATOM     91  C   UNL A   1      46.586  35.546  30.235  1.00  0.00     0.022 A 
BRANCH  88  92
ATOM     92  S   UNL A   1      45.891  36.905  27.900  1.00  0.00     0.124 S 
ATOM     93  O   UNL A   1      46.389  36.265  26.686  1.00  0.00    -0.237 OA
ATOM     94  O   UNL A   1      44.501  37.346  27.865  1.00  0.00    -0.237 OA
ATOM     95  O   UNL A   1      46.821  37.838  28.534  1.00  0.00    -0.744 OA
ENDBRANCH  88  92
ENDBRANCH  62  85
ENDBRANCH  36  37
ENDBRANCH  28  31
ENDBRANCH  26  27
ENDBRANCH  25  26
ENDBRANCH   1  25
TORSDOF 17
ENDMDL
