MODEL 1
REMARK VINA RESULT:     -12.1      0.000      0.000
REMARK SMILES CC[C@](NC(=O)c1cccc(CS(C)(=O)=O)c1)(C(=O)NCCCCNC(=O)c1ccc(-c2c3nc(c(-c4cc(S(=O)(=O)[O-])ccc4F)c4ccc([nH]4)c(-c4cc(S(=O)(=O)[O-])ccc4F)c4nc(c(-c5cc(S(=O)(=O)[O-])ccc5F)c5ccc2[nH]5)C=C4)C=C3)cc1)c1ccccc1
REMARK SMILES IDX 22 1 21 2 20 3 18 4 19 5 3 7 2 8 1 9 91 10 92 11 96 12 93 13
REMARK SMILES IDX 95 14 94 15 4 16 5 17 6 19 7 20 8 21 17 22 9 23 11 24 10 25
REMARK SMILES IDX 12 26 13 27 14 28 15 29 16 30 23 31 24 32 25 33 26 34 27 36
REMARK SMILES IDX 28 37 29 38 90 39 30 40 89 41 31 42 32 43 33 44 83 45 34 46
REMARK SMILES IDX 88 47 82 48 84 49 35 50 87 51 81 52 80 53 36 55 68 56 48 57
REMARK SMILES IDX 67 58 49 59 52 60 66 61 85 62 50 63 51 64 65 66 86 67 53 68
REMARK SMILES IDX 37 69 38 70 46 71 39 72 45 73 47 74 44 75 40 76 41 77 42 78
REMARK SMILES IDX 43 79 69 80 70 81 78 82 71 83 77 84 79 85 76 86 72 87 73 88
REMARK SMILES IDX 74 89 75 90 54 91 55 92 63 93 56 94 62 95 64 96 61 97 57 98
REMARK SMILES IDX 58 99 59 100 60 101
REMARK H PARENT 20 6 4 18 25 35 84 54 52 65
REMARK Flexibility Score: inf
ROOT
ATOM      1  C   UNL A   1      31.734  28.417  26.543  1.00  0.00     0.023 C 
ENDROOT
BRANCH   1   2
ATOM      2  C   UNL A   1      30.997  27.297  25.812  1.00  0.00     0.116 C 
BRANCH   2   3
ATOM      3  N   UNL A   1      30.807  27.513  24.387  1.00  0.00    -0.354 N 
ATOM      4  C   UNL A   1      31.285  26.817  23.293  1.00  0.00     0.250 C 
ATOM      5  O   UNL A   1      30.753  27.106  22.216  1.00  0.00    -0.272 OA
ATOM      6  H   UNL A   1      30.242  28.287  24.162  1.00  0.00     0.163 HD
BRANCH   4   7
ATOM      7  C   UNL A   1      32.298  25.620  23.476  1.00  0.00     0.144 C 
BRANCH   7   8
ATOM      8  C   UNL A   1      33.636  26.417  23.824  1.00  0.00     0.040 C 
ATOM      9  C   UNL A   1      33.990  27.665  23.019  1.00  0.00     0.007 C 
ENDBRANCH   7   8
BRANCH   7  10
ATOM     10  C   UNL A   1      32.027  24.639  24.650  1.00  0.00    -0.013 A 
ATOM     11  C   UNL A   1      30.889  23.823  24.740  1.00  0.00     0.007 A 
ATOM     12  C   UNL A   1      32.966  24.528  25.699  1.00  0.00     0.007 A 
ATOM     13  C   UNL A   1      30.660  23.014  25.862  1.00  0.00     0.000 A 
ATOM     14  C   UNL A   1      32.735  23.734  26.826  1.00  0.00     0.000 A 
ATOM     15  C   UNL A   1      31.570  22.986  26.913  1.00  0.00     0.000 A 
ENDBRANCH   7  10
BRANCH   7  16
ATOM     16  N   UNL A   1      32.397  24.820  22.225  1.00  0.00    -0.334 N 
ATOM     17  C   UNL A   1      33.168  23.722  21.893  1.00  0.00     0.252 C 
ATOM     18  H   UNL A   1      31.806  25.130  21.502  1.00  0.00     0.165 HD
ATOM     19  O   UNL A   1      33.311  23.458  20.697  1.00  0.00    -0.269 OA
BRANCH  17  20
ATOM     20  C   UNL A   1      33.845  22.860  22.894  1.00  0.00     0.040 A 
ATOM     21  C   UNL A   1      35.162  23.139  23.262  1.00  0.00     0.014 A 
ATOM     22  C   UNL A   1      33.235  21.726  23.428  1.00  0.00     0.018 A 
ATOM     23  C   UNL A   1      35.801  22.353  24.229  1.00  0.00     0.001 A 
ATOM     24  C   UNL A   1      33.812  20.996  24.479  1.00  0.00    -0.032 A 
ATOM     25  C   UNL A   1      35.115  21.313  24.864  1.00  0.00     0.005 A 
BRANCH  24  26
ATOM     26  C   UNL A   1      32.966  19.997  25.226  1.00  0.00     0.172 C 
BRANCH  26  27
ATOM     27  S   UNL A   1      32.747  18.457  24.365  1.00  0.00     0.151 S 
ATOM     28  C   UNL A   1      34.393  17.808  24.203  1.00  0.00     0.158 C 
ATOM     29  O   UNL A   1      32.031  17.582  25.270  1.00  0.00    -0.229 OA
ATOM     30  O   UNL A   1      32.219  18.719  23.035  1.00  0.00    -0.229 OA
ENDBRANCH  26  27
ENDBRANCH  24  26
ENDBRANCH  17  20
ENDBRANCH   7  16
ENDBRANCH   4   7
ENDBRANCH   2   3
ENDBRANCH   1   2
BRANCH   1  31
ATOM     31  C   UNL A   1      33.204  28.153  26.850  1.00  0.00     0.023 C 
BRANCH  31  32
ATOM     32  C   UNL A   1      34.180  29.215  26.370  1.00  0.00     0.116 C 
BRANCH  32  33
ATOM     33  N   UNL A   1      33.829  30.555  26.814  1.00  0.00    -0.352 N 
ATOM     34  C   UNL A   1      34.440  31.339  27.763  1.00  0.00     0.251 C 
ATOM     35  H   UNL A   1      33.046  30.955  26.373  1.00  0.00     0.163 HD
ATOM     36  O   UNL A   1      33.925  32.404  28.091  1.00  0.00    -0.269 OA
BRANCH  34  37
ATOM     37  C   UNL A   1      35.685  30.874  28.411  1.00  0.00     0.039 A 
ATOM     38  C   UNL A   1      35.607  29.853  29.360  1.00  0.00     0.014 A 
ATOM     39  C   UNL A   1      36.925  31.417  28.063  1.00  0.00     0.014 A 
ATOM     40  C   UNL A   1      36.780  29.327  29.906  1.00  0.00     0.010 A 
ATOM     41  C   UNL A   1      38.094  30.837  28.544  1.00  0.00     0.010 A 
ATOM     42  C   UNL A   1      38.034  29.786  29.473  1.00  0.00    -0.014 A 
BRANCH  42  43
ATOM     43  C   UNL A   1      39.293  29.180  29.982  1.00  0.00     0.031 A 
ATOM     44  C   UNL A   1      39.967  29.754  31.198  1.00  0.00     0.074 A 
ATOM     45  C   UNL A   1      39.856  28.152  29.316  1.00  0.00     0.049 A 
ATOM     46  N   UNL A   1      41.100  29.411  31.757  1.00  0.00    -0.248 NA
ATOM     47  C   UNL A   1      39.291  30.881  31.856  1.00  0.00     0.031 C 
ATOM     48  C   UNL A   1      39.318  27.539  28.099  1.00  0.00     0.029 A 
ATOM     49  N   UNL A   1      41.008  27.446  29.560  1.00  0.00    -0.354 N 
ATOM     50  C   UNL A   1      41.277  30.287  32.822  1.00  0.00     0.074 A 
ATOM     51  C   UNL A   1      40.168  31.216  32.790  1.00  0.00     0.031 C 
ATOM     52  C   UNL A   1      40.122  26.531  27.722  1.00  0.00     0.029 A 
ATOM     53  C   UNL A   1      41.258  26.458  28.634  1.00  0.00     0.049 A 
ATOM     54  H   UNL A   1      41.599  27.629  30.326  1.00  0.00     0.167 HD
ATOM     55  C   UNL A   1      42.261  30.301  33.756  1.00  0.00     0.034 A 
ATOM     56  C   UNL A   1      42.294  25.603  28.524  1.00  0.00     0.034 A 
ATOM     57  C   UNL A   1      43.357  29.361  33.775  1.00  0.00     0.049 A 
ATOM     58  C   UNL A   1      43.396  25.660  29.552  1.00  0.00     0.074 A 
ATOM     59  C   UNL A   1      44.378  29.249  34.703  1.00  0.00     0.029 A 
ATOM     60  N   UNL A   1      43.585  28.382  32.817  1.00  0.00    -0.354 N 
ATOM     61  N   UNL A   1      43.521  26.458  30.587  1.00  0.00    -0.248 NA
ATOM     62  C   UNL A   1      44.491  24.694  29.403  1.00  0.00     0.031 C 
ATOM     63  C   UNL A   1      45.261  28.254  34.267  1.00  0.00     0.029 A 
ATOM     64  C   UNL A   1      44.747  27.686  33.112  1.00  0.00     0.049 A 
ATOM     65  H   UNL A   1      43.005  28.207  32.040  1.00  0.00     0.167 HD
ATOM     66  C   UNL A   1      44.694  26.070  31.228  1.00  0.00     0.074 A 
ATOM     67  C   UNL A   1      45.228  24.953  30.473  1.00  0.00     0.031 C 
ATOM     68  C   UNL A   1      45.277  26.583  32.342  1.00  0.00     0.034 A 
BRANCH  55  69
ATOM     69  C   UNL A   1      42.206  31.381  34.811  1.00  0.00     0.023 A 
ATOM     70  C   UNL A   1      41.180  31.424  35.771  1.00  0.00     0.031 A 
ATOM     71  C   UNL A   1      43.175  32.399  34.840  1.00  0.00     0.131 A 
ATOM     72  C   UNL A   1      41.101  32.502  36.667  1.00  0.00     0.055 A 
ATOM     73  C   UNL A   1      43.140  33.423  35.790  1.00  0.00     0.041 A 
ATOM     74  F   UNL A   1      44.168  32.425  33.937  1.00  0.00    -0.206 F 
ATOM     75  C   UNL A   1      42.090  33.488  36.701  1.00  0.00     0.022 A 
BRANCH  72  76
ATOM     76  S   UNL A   1      39.609  32.677  37.683  1.00  0.00     0.124 S 
ATOM     77  O   UNL A   1      40.170  32.694  39.031  1.00  0.00    -0.237 OA
ATOM     78  O   UNL A   1      39.049  33.938  37.208  1.00  0.00    -0.237 OA
ATOM     79  O   UNL A   1      38.829  31.485  37.356  1.00  0.00    -0.744 OA
ENDBRANCH  72  76
ENDBRANCH  55  69
BRANCH  56  80
ATOM     80  C   UNL A   1      42.356  24.628  27.396  1.00  0.00     0.023 A 
ATOM     81  C   UNL A   1      41.588  23.453  27.411  1.00  0.00     0.031 A 
ATOM     82  C   UNL A   1      43.219  24.836  26.304  1.00  0.00     0.131 A 
ATOM     83  C   UNL A   1      41.733  22.508  26.384  1.00  0.00     0.055 A 
ATOM     84  C   UNL A   1      43.315  23.920  25.255  1.00  0.00     0.041 A 
ATOM     85  F   UNL A   1      43.976  25.942  26.238  1.00  0.00    -0.206 F 
ATOM     86  C   UNL A   1      42.580  22.740  25.298  1.00  0.00     0.022 A 
BRANCH  83  87
ATOM     87  S   UNL A   1      40.866  20.921  26.533  1.00  0.00     0.124 S 
ATOM     88  O   UNL A   1      41.745  20.032  25.782  1.00  0.00    -0.237 OA
ATOM     89  O   UNL A   1      40.838  20.725  27.978  1.00  0.00    -0.237 OA
ATOM     90  O   UNL A   1      39.568  21.183  25.916  1.00  0.00    -0.744 OA
ENDBRANCH  83  87
ENDBRANCH  56  80
BRANCH  68  91
ATOM     91  C   UNL A   1      46.537  25.910  32.830  1.00  0.00     0.023 A 
ATOM     92  C   UNL A   1      46.500  24.807  33.701  1.00  0.00     0.031 A 
ATOM     93  C   UNL A   1      47.797  26.387  32.423  1.00  0.00     0.131 A 
ATOM     94  C   UNL A   1      47.697  24.256  34.185  1.00  0.00     0.055 A 
ATOM     95  C   UNL A   1      48.983  25.793  32.855  1.00  0.00     0.041 A 
ATOM     96  F   UNL A   1      47.894  27.439  31.594  1.00  0.00    -0.206 F 
ATOM     97  C   UNL A   1      48.938  24.730  33.751  1.00  0.00     0.022 A 
BRANCH  94  98
ATOM     98  S   UNL A   1      47.612  22.973  35.463  1.00  0.00     0.124 S 
ATOM     99  O   UNL A   1      46.171  22.815  35.640  1.00  0.00    -0.237 OA
ATOM    100  O   UNL A   1      48.303  21.854  34.832  1.00  0.00    -0.237 OA
ATOM    101  O   UNL A   1      48.312  23.572  36.598  1.00  0.00    -0.744 OA
ENDBRANCH  94  98
ENDBRANCH  68  91
ENDBRANCH  42  43
ENDBRANCH  34  37
ENDBRANCH  32  33
ENDBRANCH  31  32
ENDBRANCH   1  31
TORSDOF 20
ENDMDL
MODEL 2
REMARK VINA RESULT:     -12.0      4.720      9.678
REMARK SMILES CC[C@](NC(=O)c1cccc(CS(C)(=O)=O)c1)(C(=O)NCCCCNC(=O)c1ccc(-c2c3nc(c(-c4cc(S(=O)(=O)[O-])ccc4F)c4ccc([nH]4)c(-c4cc(S(=O)(=O)[O-])ccc4F)c4nc(c(-c5cc(S(=O)(=O)[O-])ccc5F)c5ccc2[nH]5)C=C4)C=C3)cc1)c1ccccc1
REMARK SMILES IDX 22 1 21 2 20 3 18 4 19 5 3 7 2 8 1 9 91 10 92 11 96 12 93 13
REMARK SMILES IDX 95 14 94 15 4 16 5 17 6 19 7 20 8 21 17 22 9 23 11 24 10 25
REMARK SMILES IDX 12 26 13 27 14 28 15 29 16 30 23 31 24 32 25 33 26 34 27 36
REMARK SMILES IDX 28 37 29 38 90 39 30 40 89 41 31 42 32 43 33 44 83 45 34 46
REMARK SMILES IDX 88 47 82 48 84 49 35 50 87 51 81 52 80 53 36 55 68 56 48 57
REMARK SMILES IDX 67 58 49 59 52 60 66 61 85 62 50 63 51 64 65 66 86 67 53 68
REMARK SMILES IDX 37 69 38 70 46 71 39 72 45 73 47 74 44 75 40 76 41 77 42 78
REMARK SMILES IDX 43 79 69 80 70 81 78 82 71 83 77 84 79 85 76 86 72 87 73 88
REMARK SMILES IDX 74 89 75 90 54 91 55 92 63 93 56 94 62 95 64 96 61 97 57 98
REMARK SMILES IDX 58 99 59 100 60 101
REMARK H PARENT 20 6 4 18 25 35 84 54 52 65
REMARK Flexibility Score: inf
ROOT
ATOM      1  C   UNL A   1      36.200  22.662  23.734  1.00  0.00     0.023 C 
ENDROOT
BRANCH   1   2
ATOM      2  C   UNL A   1      34.747  22.842  23.302  1.00  0.00     0.116 C 
BRANCH   2   3
ATOM      3  N   UNL A   1      33.784  22.032  24.030  1.00  0.00    -0.354 N 
ATOM      4  C   UNL A   1      32.685  22.392  24.786  1.00  0.00     0.250 C 
ATOM      5  O   UNL A   1      31.927  21.462  25.082  1.00  0.00    -0.272 OA
ATOM      6  H   UNL A   1      33.942  21.061  23.976  1.00  0.00     0.163 HD
BRANCH   4   7
ATOM      7  C   UNL A   1      32.361  23.911  25.069  1.00  0.00     0.144 C 
BRANCH   7   8
ATOM      8  C   UNL A   1      33.466  24.249  26.169  1.00  0.00     0.040 C 
ATOM      9  C   UNL A   1      33.710  23.261  27.307  1.00  0.00     0.007 C 
ENDBRANCH   7   8
BRANCH   7  10
ATOM     10  C   UNL A   1      32.561  24.906  23.893  1.00  0.00    -0.013 A 
ATOM     11  C   UNL A   1      31.834  24.857  22.694  1.00  0.00     0.007 A 
ATOM     12  C   UNL A   1      33.516  25.941  24.007  1.00  0.00     0.007 A 
ATOM     13  C   UNL A   1      32.113  25.733  21.636  1.00  0.00     0.000 A 
ATOM     14  C   UNL A   1      33.807  26.808  22.951  1.00  0.00     0.000 A 
ATOM     15  C   UNL A   1      33.112  26.693  21.756  1.00  0.00     0.000 A 
ENDBRANCH   7  10
BRANCH   7  16
ATOM     16  N   UNL A   1      30.967  24.067  25.566  1.00  0.00    -0.334 N 
ATOM     17  C   UNL A   1      30.251  25.178  25.969  1.00  0.00     0.252 C 
ATOM     18  H   UNL A   1      30.463  23.223  25.620  1.00  0.00     0.165 HD
ATOM     19  O   UNL A   1      29.240  24.998  26.649  1.00  0.00    -0.269 OA
BRANCH  17  20
ATOM     20  C   UNL A   1      30.645  26.572  25.641  1.00  0.00     0.040 A 
ATOM     21  C   UNL A   1      31.448  27.286  26.532  1.00  0.00     0.014 A 
ATOM     22  C   UNL A   1      30.176  27.226  24.503  1.00  0.00     0.018 A 
ATOM     23  C   UNL A   1      31.853  28.589  26.220  1.00  0.00     0.001 A 
ATOM     24  C   UNL A   1      30.661  28.485  24.116  1.00  0.00    -0.032 A 
ATOM     25  C   UNL A   1      31.496  29.170  24.999  1.00  0.00     0.005 A 
BRANCH  24  26
ATOM     26  C   UNL A   1      30.368  28.985  22.724  1.00  0.00     0.172 C 
BRANCH  26  27
ATOM     27  S   UNL A   1      28.724  29.631  22.525  1.00  0.00     0.151 S 
ATOM     28  C   UNL A   1      28.705  31.096  23.530  1.00  0.00     0.158 C 
ATOM     29  O   UNL A   1      28.617  30.058  21.146  1.00  0.00    -0.229 OA
ATOM     30  O   UNL A   1      27.765  28.683  23.071  1.00  0.00    -0.229 OA
ENDBRANCH  26  27
ENDBRANCH  24  26
ENDBRANCH  17  20
ENDBRANCH   7  16
ENDBRANCH   4   7
ENDBRANCH   2   3
ENDBRANCH   1   2
BRANCH   1  31
ATOM     31  C   UNL A   1      36.732  23.701  24.716  1.00  0.00     0.023 C 
BRANCH  31  32
ATOM     32  C   UNL A   1      37.059  23.185  26.108  1.00  0.00     0.116 C 
BRANCH  32  33
ATOM     33  N   UNL A   1      38.072  22.141  26.107  1.00  0.00    -0.352 N 
ATOM     34  C   UNL A   1      39.418  22.242  26.365  1.00  0.00     0.251 C 
ATOM     35  H   UNL A   1      37.748  21.238  25.891  1.00  0.00     0.163 HD
ATOM     36  O   UNL A   1      40.141  21.264  26.197  1.00  0.00    -0.269 OA
BRANCH  34  37
ATOM     37  C   UNL A   1      39.989  23.535  26.799  1.00  0.00     0.039 A 
ATOM     38  C   UNL A   1      40.076  24.576  25.873  1.00  0.00     0.014 A 
ATOM     39  C   UNL A   1      40.408  23.731  28.118  1.00  0.00     0.014 A 
ATOM     40  C   UNL A   1      40.513  25.835  26.288  1.00  0.00     0.010 A 
ATOM     41  C   UNL A   1      40.763  25.006  28.548  1.00  0.00     0.010 A 
ATOM     42  C   UNL A   1      40.821  26.072  27.637  1.00  0.00    -0.014 A 
BRANCH  42  43
ATOM     43  C   UNL A   1      41.208  27.427  28.112  1.00  0.00     0.031 A 
ATOM     44  C   UNL A   1      42.658  27.824  28.157  1.00  0.00     0.074 A 
ATOM     45  C   UNL A   1      40.258  28.276  28.555  1.00  0.00     0.049 A 
ATOM     46  N   UNL A   1      43.201  28.930  28.598  1.00  0.00    -0.248 NA
ATOM     47  C   UNL A   1      43.627  26.833  27.666  1.00  0.00     0.031 C 
ATOM     48  C   UNL A   1      38.823  27.987  28.601  1.00  0.00     0.029 A 
ATOM     49  N   UNL A   1      40.355  29.549  29.059  1.00  0.00    -0.354 N 
ATOM     50  C   UNL A   1      44.574  28.763  28.449  1.00  0.00     0.074 A 
ATOM     51  C   UNL A   1      44.781  27.424  27.938  1.00  0.00     0.031 C 
ATOM     52  C   UNL A   1      38.173  29.062  29.076  1.00  0.00     0.029 A 
ATOM     53  C   UNL A   1      39.144  30.095  29.419  1.00  0.00     0.049 A 
ATOM     54  H   UNL A   1      41.211  30.027  29.153  1.00  0.00     0.167 HD
ATOM     55  C   UNL A   1      45.569  29.652  28.694  1.00  0.00     0.034 A 
ATOM     56  C   UNL A   1      38.851  31.287  29.978  1.00  0.00     0.034 A 
ATOM     57  C   UNL A   1      45.343  30.985  29.198  1.00  0.00     0.049 A 
ATOM     58  C   UNL A   1      39.977  32.246  30.275  1.00  0.00     0.074 A 
ATOM     59  C   UNL A   1      46.269  31.987  29.431  1.00  0.00     0.029 A 
ATOM     60  N   UNL A   1      44.105  31.501  29.562  1.00  0.00    -0.354 N 
ATOM     61  N   UNL A   1      41.266  32.095  30.076  1.00  0.00    -0.248 NA
ATOM     62  C   UNL A   1      39.606  33.539  30.862  1.00  0.00     0.031 C 
ATOM     63  C   UNL A   1      45.604  33.077  30.003  1.00  0.00     0.029 A 
ATOM     64  C   UNL A   1      44.249  32.791  30.049  1.00  0.00     0.049 A 
ATOM     65  H   UNL A   1      43.249  31.020  29.484  1.00  0.00     0.167 HD
ATOM     66  C   UNL A   1      41.856  33.287  30.488  1.00  0.00     0.074 A 
ATOM     67  C   UNL A   1      40.779  34.151  30.927  1.00  0.00     0.031 C 
ATOM     68  C   UNL A   1      43.168  33.638  30.498  1.00  0.00     0.034 A 
BRANCH  55  69
ATOM     69  C   UNL A   1      46.987  29.196  28.443  1.00  0.00     0.023 A 
ATOM     70  C   UNL A   1      47.468  28.956  27.143  1.00  0.00     0.031 A 
ATOM     71  C   UNL A   1      47.864  28.971  29.519  1.00  0.00     0.131 A 
ATOM     72  C   UNL A   1      48.756  28.431  26.958  1.00  0.00     0.055 A 
ATOM     73  C   UNL A   1      49.175  28.530  29.321  1.00  0.00     0.041 A 
ATOM     74  F   UNL A   1      47.459  29.161  30.784  1.00  0.00    -0.206 F 
ATOM     75  C   UNL A   1      49.623  28.242  28.036  1.00  0.00     0.022 A 
BRANCH  72  76
ATOM     76  S   UNL A   1      49.227  27.857  25.302  1.00  0.00     0.124 S 
ATOM     77  O   UNL A   1      49.423  26.428  25.529  1.00  0.00    -0.237 OA
ATOM     78  O   UNL A   1      48.066  28.224  24.499  1.00  0.00    -0.237 OA
ATOM     79  O   UNL A   1      50.448  28.608  25.013  1.00  0.00    -0.744 OA
ENDBRANCH  72  76
ENDBRANCH  55  69
BRANCH  56  80
ATOM     80  C   UNL A   1      37.441  31.642  30.309  1.00  0.00     0.023 A 
ATOM     81  C   UNL A   1      36.552  32.082  29.315  1.00  0.00     0.031 A 
ATOM     82  C   UNL A   1      36.973  31.591  31.635  1.00  0.00     0.131 A 
ATOM     83  C   UNL A   1      35.259  32.498  29.666  1.00  0.00     0.055 A 
ATOM     84  C   UNL A   1      35.666  31.952  31.970  1.00  0.00     0.041 A 
ATOM     85  F   UNL A   1      37.779  31.180  32.625  1.00  0.00    -0.206 F 
ATOM     86  C   UNL A   1      34.804  32.423  30.985  1.00  0.00     0.022 A 
BRANCH  83  87
ATOM     87  S   UNL A   1      34.204  33.234  28.386  1.00  0.00     0.124 S 
ATOM     88  O   UNL A   1      33.597  32.051  27.787  1.00  0.00    -0.237 OA
ATOM     89  O   UNL A   1      33.316  34.082  29.174  1.00  0.00    -0.237 OA
ATOM     90  O   UNL A   1      35.151  33.949  27.534  1.00  0.00    -0.744 OA
ENDBRANCH  83  87
ENDBRANCH  56  80
BRANCH  68  91
ATOM     91  C   UNL A   1      43.500  35.037  30.962  1.00  0.00     0.023 A 
ATOM     92  C   UNL A   1      43.507  36.130  30.079  1.00  0.00     0.031 A 
ATOM     93  C   UNL A   1      43.824  35.276  32.310  1.00  0.00     0.131 A 
ATOM     94  C   UNL A   1      43.889  37.400  30.539  1.00  0.00     0.055 A 
ATOM     95  C   UNL A   1      44.139  36.552  32.776  1.00  0.00     0.041 A 
ATOM     96  F   UNL A   1      43.837  34.269  33.199  1.00  0.00    -0.206 F 
ATOM     97  C   UNL A   1      44.186  37.621  31.886  1.00  0.00     0.022 A 
BRANCH  94  98
ATOM     98  S   UNL A   1      44.086  38.741  29.334  1.00  0.00     0.124 S 
ATOM     99  O   UNL A   1      43.056  38.420  28.351  1.00  0.00    -0.237 OA
ATOM    100  O   UNL A   1      43.845  39.929  30.145  1.00  0.00    -0.237 OA
ATOM    101  O   UNL A   1      45.462  38.581  28.865  1.00  0.00    -0.744 OA
ENDBRANCH  94  98
ENDBRANCH  68  91
ENDBRANCH  42  43
ENDBRANCH  34  37
ENDBRANCH  32  33
ENDBRANCH  31  32
ENDBRANCH   1  31
TORSDOF 20
ENDMDL
MODEL 3
REMARK VINA RESULT:     -11.9      4.246      9.390
REMARK SMILES CC[C@](NC(=O)c1cccc(CS(C)(=O)=O)c1)(C(=O)NCCCCNC(=O)c1ccc(-c2c3nc(c(-c4cc(S(=O)(=O)[O-])ccc4F)c4ccc([nH]4)c(-c4cc(S(=O)(=O)[O-])ccc4F)c4nc(c(-c5cc(S(=O)(=O)[O-])ccc5F)c5ccc2[nH]5)C=C4)C=C3)cc1)c1ccccc1
REMARK SMILES IDX 22 1 21 2 20 3 18 4 19 5 3 7 2 8 1 9 91 10 92 11 96 12 93 13
REMARK SMILES IDX 95 14 94 15 4 16 5 17 6 19 7 20 8 21 17 22 9 23 11 24 10 25
REMARK SMILES IDX 12 26 13 27 14 28 15 29 16 30 23 31 24 32 25 33 26 34 27 36
REMARK SMILES IDX 28 37 29 38 90 39 30 40 89 41 31 42 32 43 33 44 83 45 34 46
REMARK SMILES IDX 88 47 82 48 84 49 35 50 87 51 81 52 80 53 36 55 68 56 48 57
REMARK SMILES IDX 67 58 49 59 52 60 66 61 85 62 50 63 51 64 65 66 86 67 53 68
REMARK SMILES IDX 37 69 38 70 46 71 39 72 45 73 47 74 44 75 40 76 41 77 42 78
REMARK SMILES IDX 43 79 69 80 70 81 78 82 71 83 77 84 79 85 76 86 72 87 73 88
REMARK SMILES IDX 74 89 75 90 54 91 55 92 63 93 56 94 62 95 64 96 61 97 57 98
REMARK SMILES IDX 58 99 59 100 60 101
REMARK H PARENT 20 6 4 18 25 35 84 54 52 65
REMARK Flexibility Score: inf
ROOT
ATOM      1  C   UNL A   1      36.157  22.572  23.964  1.00  0.00     0.023 C 
ENDROOT
BRANCH   1   2
ATOM      2  C   UNL A   1      34.743  22.708  23.406  1.00  0.00     0.116 C 
BRANCH   2   3
ATOM      3  N   UNL A   1      33.731  21.920  24.092  1.00  0.00    -0.354 N 
ATOM      4  C   UNL A   1      32.619  22.304  24.815  1.00  0.00     0.250 C 
ATOM      5  O   UNL A   1      31.824  21.394  25.074  1.00  0.00    -0.272 OA
ATOM      6  H   UNL A   1      33.862  20.946  24.031  1.00  0.00     0.163 HD
BRANCH   4   7
ATOM      7  C   UNL A   1      32.331  23.829  25.106  1.00  0.00     0.144 C 
BRANCH   7   8
ATOM      8  C   UNL A   1      33.443  24.135  26.208  1.00  0.00     0.040 C 
ATOM      9  C   UNL A   1      33.638  23.154  27.361  1.00  0.00     0.007 C 
ENDBRANCH   7   8
BRANCH   7  10
ATOM     10  C   UNL A   1      32.556  24.825  23.935  1.00  0.00    -0.013 A 
ATOM     11  C   UNL A   1      31.832  24.796  22.733  1.00  0.00     0.007 A 
ATOM     12  C   UNL A   1      33.530  25.840  24.058  1.00  0.00     0.007 A 
ATOM     13  C   UNL A   1      32.132  25.671  21.680  1.00  0.00     0.000 A 
ATOM     14  C   UNL A   1      33.842  26.707  23.007  1.00  0.00     0.000 A 
ATOM     15  C   UNL A   1      33.149  26.611  21.809  1.00  0.00     0.000 A 
ENDBRANCH   7  10
BRANCH   7  16
ATOM     16  N   UNL A   1      30.941  24.015  25.604  1.00  0.00    -0.334 N 
ATOM     17  C   UNL A   1      30.252  25.141  26.012  1.00  0.00     0.252 C 
ATOM     18  H   UNL A   1      30.417  23.183  25.652  1.00  0.00     0.165 HD
ATOM     19  O   UNL A   1      29.236  24.982  26.691  1.00  0.00    -0.269 OA
BRANCH  17  20
ATOM     20  C   UNL A   1      30.679  26.527  25.693  1.00  0.00     0.040 A 
ATOM     21  C   UNL A   1      31.483  27.223  26.596  1.00  0.00     0.014 A 
ATOM     22  C   UNL A   1      30.241  27.192  24.549  1.00  0.00     0.018 A 
ATOM     23  C   UNL A   1      31.919  28.518  26.293  1.00  0.00     0.001 A 
ATOM     24  C   UNL A   1      30.757  28.441  24.171  1.00  0.00    -0.032 A 
ATOM     25  C   UNL A   1      31.593  29.108  25.067  1.00  0.00     0.005 A 
BRANCH  24  26
ATOM     26  C   UNL A   1      30.496  28.949  22.776  1.00  0.00     0.172 C 
BRANCH  26  27
ATOM     27  S   UNL A   1      28.865  29.619  22.550  1.00  0.00     0.151 S 
ATOM     28  C   UNL A   1      28.862  31.102  23.529  1.00  0.00     0.158 C 
ATOM     29  O   UNL A   1      28.779  30.024  21.163  1.00  0.00    -0.229 OA
ATOM     30  O   UNL A   1      27.884  28.698  23.103  1.00  0.00    -0.229 OA
ENDBRANCH  26  27
ENDBRANCH  24  26
ENDBRANCH  17  20
ENDBRANCH   7  16
ENDBRANCH   4   7
ENDBRANCH   2   3
ENDBRANCH   1   2
BRANCH   1  31
ATOM     31  C   UNL A   1      36.632  23.718  24.851  1.00  0.00     0.023 C 
BRANCH  31  32
ATOM     32  C   UNL A   1      37.127  23.322  26.232  1.00  0.00     0.116 C 
BRANCH  32  33
ATOM     33  N   UNL A   1      38.163  22.301  26.196  1.00  0.00    -0.352 N 
ATOM     34  C   UNL A   1      39.512  22.430  26.418  1.00  0.00     0.251 C 
ATOM     35  H   UNL A   1      37.853  21.392  25.983  1.00  0.00     0.163 HD
ATOM     36  O   UNL A   1      40.252  21.470  26.224  1.00  0.00    -0.269 OA
BRANCH  34  37
ATOM     37  C   UNL A   1      40.066  23.733  26.846  1.00  0.00     0.039 A 
ATOM     38  C   UNL A   1      40.223  24.742  25.893  1.00  0.00     0.014 A 
ATOM     39  C   UNL A   1      40.400  23.971  28.182  1.00  0.00     0.014 A 
ATOM     40  C   UNL A   1      40.644  26.011  26.294  1.00  0.00     0.010 A 
ATOM     41  C   UNL A   1      40.738  25.257  28.592  1.00  0.00     0.010 A 
ATOM     42  C   UNL A   1      40.866  26.291  27.651  1.00  0.00    -0.014 A 
BRANCH  42  43
ATOM     43  C   UNL A   1      41.233  27.659  28.106  1.00  0.00     0.031 A 
ATOM     44  C   UNL A   1      42.677  28.081  28.129  1.00  0.00     0.074 A 
ATOM     45  C   UNL A   1      40.274  28.496  28.549  1.00  0.00     0.049 A 
ATOM     46  N   UNL A   1      43.205  29.202  28.550  1.00  0.00    -0.248 NA
ATOM     47  C   UNL A   1      43.658  27.102  27.639  1.00  0.00     0.031 C 
ATOM     48  C   UNL A   1      38.845  28.182  28.614  1.00  0.00     0.029 A 
ATOM     49  N   UNL A   1      40.354  29.777  29.036  1.00  0.00    -0.354 N 
ATOM     50  C   UNL A   1      44.579  29.058  28.388  1.00  0.00     0.074 A 
ATOM     51  C   UNL A   1      44.804  27.717  27.891  1.00  0.00     0.031 C 
ATOM     52  C   UNL A   1      38.181  29.251  29.084  1.00  0.00     0.029 A 
ATOM     53  C   UNL A   1      39.137  30.306  29.403  1.00  0.00     0.049 A 
ATOM     54  H   UNL A   1      41.202  30.271  29.114  1.00  0.00     0.167 HD
ATOM     55  C   UNL A   1      45.560  29.968  28.610  1.00  0.00     0.034 A 
ATOM     56  C   UNL A   1      38.830  31.499  29.950  1.00  0.00     0.034 A 
ATOM     57  C   UNL A   1      45.316  31.303  29.101  1.00  0.00     0.049 A 
ATOM     58  C   UNL A   1      39.941  32.481  30.223  1.00  0.00     0.074 A 
ATOM     59  C   UNL A   1      46.227  32.323  29.311  1.00  0.00     0.029 A 
ATOM     60  N   UNL A   1      44.073  31.801  29.472  1.00  0.00    -0.354 N 
ATOM     61  N   UNL A   1      41.231  32.350  30.011  1.00  0.00    -0.248 NA
ATOM     62  C   UNL A   1      39.554  33.775  30.798  1.00  0.00     0.031 C 
ATOM     63  C   UNL A   1      45.549  33.409  29.877  1.00  0.00     0.029 A 
ATOM     64  C   UNL A   1      44.200  33.099  29.942  1.00  0.00     0.049 A 
ATOM     65  H   UNL A   1      43.225  31.304  29.410  1.00  0.00     0.167 HD
ATOM     66  C   UNL A   1      41.804  33.558  30.402  1.00  0.00     0.074 A 
ATOM     67  C   UNL A   1      40.716  34.409  30.842  1.00  0.00     0.031 C 
ATOM     68  C   UNL A   1      43.109  33.933  30.393  1.00  0.00     0.034 A 
BRANCH  55  69
ATOM     69  C   UNL A   1      46.984  29.534  28.349  1.00  0.00     0.023 A 
ATOM     70  C   UNL A   1      47.775  28.950  29.355  1.00  0.00     0.031 A 
ATOM     71  C   UNL A   1      47.569  29.730  27.085  1.00  0.00     0.131 A 
ATOM     72  C   UNL A   1      49.125  28.659  29.105  1.00  0.00     0.055 A 
ATOM     73  C   UNL A   1      48.889  29.358  26.818  1.00  0.00     0.041 A 
ATOM     74  F   UNL A   1      46.872  30.301  26.090  1.00  0.00    -0.206 F 
ATOM     75  C   UNL A   1      49.680  28.833  27.835  1.00  0.00     0.022 A 
BRANCH  72  76
ATOM     76  S   UNL A   1      50.183  28.191  30.502  1.00  0.00     0.124 S 
ATOM     77  O   UNL A   1      50.564  26.828  30.141  1.00  0.00    -0.237 OA
ATOM     78  O   UNL A   1      51.246  29.189  30.441  1.00  0.00    -0.237 OA
ATOM     79  O   UNL A   1      49.294  28.297  31.657  1.00  0.00    -0.744 OA
ENDBRANCH  72  76
ENDBRANCH  55  69
BRANCH  56  80
ATOM     80  C   UNL A   1      37.416  31.833  30.293  1.00  0.00     0.023 A 
ATOM     81  C   UNL A   1      36.508  32.241  29.303  1.00  0.00     0.031 A 
ATOM     82  C   UNL A   1      36.965  31.794  31.625  1.00  0.00     0.131 A 
ATOM     83  C   UNL A   1      35.212  32.640  29.664  1.00  0.00     0.055 A 
ATOM     84  C   UNL A   1      35.656  32.136  31.971  1.00  0.00     0.041 A 
ATOM     85  F   UNL A   1      37.791  31.412  32.611  1.00  0.00    -0.206 F 
ATOM     86  C   UNL A   1      34.774  32.576  30.989  1.00  0.00     0.022 A 
BRANCH  83  87
ATOM     87  S   UNL A   1      34.129  33.336  28.386  1.00  0.00     0.124 S 
ATOM     88  O   UNL A   1      33.575  32.132  27.778  1.00  0.00    -0.237 OA
ATOM     89  O   UNL A   1      33.203  34.140  29.177  1.00  0.00    -0.237 OA
ATOM     90  O   UNL A   1      35.045  34.097  27.540  1.00  0.00    -0.744 OA
ENDBRANCH  83  87
ENDBRANCH  56  80
BRANCH  68  91
ATOM     91  C   UNL A   1      43.421  35.342  30.836  1.00  0.00     0.023 A 
ATOM     92  C   UNL A   1      43.528  35.687  32.194  1.00  0.00     0.031 A 
ATOM     93  C   UNL A   1      43.604  36.359  29.880  1.00  0.00     0.131 A 
ATOM     94  C   UNL A   1      43.750  37.023  32.562  1.00  0.00     0.055 A 
ATOM     95  C   UNL A   1      43.890  37.673  30.251  1.00  0.00     0.041 A 
ATOM     96  F   UNL A   1      43.509  36.089  28.568  1.00  0.00    -0.206 F 
ATOM     97  C   UNL A   1      43.951  38.015  31.598  1.00  0.00     0.022 A 
BRANCH  94  98
ATOM     98  S   UNL A   1      43.678  37.468  34.319  1.00  0.00     0.124 S 
ATOM     99  O   UNL A   1      45.061  37.843  34.595  1.00  0.00    -0.237 OA
ATOM    100  O   UNL A   1      42.708  38.558  34.327  1.00  0.00    -0.237 OA
ATOM    101  O   UNL A   1      43.229  36.236  34.966  1.00  0.00    -0.744 OA
ENDBRANCH  94  98
ENDBRANCH  68  91
ENDBRANCH  42  43
ENDBRANCH  34  37
ENDBRANCH  32  33
ENDBRANCH  31  32
ENDBRANCH   1  31
TORSDOF 20
ENDMDL
