MODEL 1
REMARK VINA RESULT:     -11.7      0.000      0.000
REMARK SMILES CC(C)[C@H]1CC[C@@H](C)C/C1=C(\F)C(=O)NCCCCNC(=O)c1ccc(-c2c3nc(c(-c4cc(S(=O)(=O)[O-])ccc4F)c4ccc([nH]4)c(-c4cc(S(=O)(=O)[O-])ccc4F)c4nc(c(-c5cc(S(=O)(=O)[O-])ccc5F)c5ccc2[nH]5)C=C4)C=C3)cc1
REMARK SMILES IDX 18 1 17 2 16 3 15 4 13 5 14 6 11 8 4 9 5 10 10 11 6 12 9 13
REMARK SMILES IDX 7 14 12 15 8 16 2 17 1 18 3 19 19 20 20 21 21 22 22 24 23 25
REMARK SMILES IDX 24 26 85 27 25 28 84 29 26 30 27 31 28 32 78 33 29 34 83 35
REMARK SMILES IDX 77 36 79 37 30 38 82 39 76 40 75 41 31 43 63 44 43 45 62 46
REMARK SMILES IDX 44 47 47 48 61 49 80 50 45 51 46 52 60 54 81 55 48 56 32 57
REMARK SMILES IDX 33 58 41 59 34 60 40 61 42 62 39 63 35 64 36 65 37 66 38 67
REMARK SMILES IDX 64 68 65 69 73 70 66 71 72 72 74 73 71 74 67 75 68 76 69 77
REMARK SMILES IDX 70 78 49 79 50 80 58 81 51 82 57 83 59 84 56 85 52 86 53 87
REMARK SMILES IDX 54 88 55 89
REMARK H PARENT 15 7 20 23 79 42 47 53
REMARK Flexibility Score: inf
ROOT
ATOM      1  C   UNL A   1      35.538  21.825  26.044  1.00  0.00     0.023 C 
ENDROOT
BRANCH   1   2
ATOM      2  C   UNL A   1      34.641  22.671  26.947  1.00  0.00     0.023 C 
BRANCH   2   3
ATOM      3  C   UNL A   1      33.534  21.943  27.706  1.00  0.00     0.116 C 
BRANCH   3   4
ATOM      4  N   UNL A   1      32.295  22.693  27.841  1.00  0.00    -0.350 N 
ATOM      5  C   UNL A   1      31.345  23.014  26.909  1.00  0.00     0.279 C 
ATOM      6  O   UNL A   1      30.251  23.429  27.288  1.00  0.00    -0.267 OA
ATOM      7  H   UNL A   1      32.110  23.024  28.751  1.00  0.00     0.163 HD
BRANCH   5   8
ATOM      8  C   UNL A   1      31.641  22.819  25.468  1.00  0.00     0.187 C 
ATOM      9  C   UNL A   1      32.175  25.265  24.610  1.00  0.00     0.021 C 
ATOM     10  C   UNL A   1      33.257  25.752  23.599  1.00  0.00     0.009 C 
ATOM     11  C   UNL A   1      31.943  23.731  24.514  1.00  0.00    -0.025 C 
ATOM     12  C   UNL A   1      33.136  25.166  22.198  1.00  0.00     0.004 C 
ATOM     13  C   UNL A   1      31.953  23.185  23.083  1.00  0.00     0.038 C 
ATOM     14  C   UNL A   1      33.131  23.647  22.225  1.00  0.00    -0.010 C 
ATOM     15  F   UNL A   1      31.439  21.534  25.081  1.00  0.00    -0.201 F 
ATOM     16  C   UNL A   1      34.469  23.075  22.703  1.00  0.00     0.008 C 
BRANCH   9  17
ATOM     17  C   UNL A   1      32.403  25.982  26.001  1.00  0.00    -0.010 C 
ATOM     18  C   UNL A   1      33.644  26.883  26.095  1.00  0.00     0.008 C 
ATOM     19  C   UNL A   1      31.191  26.822  26.457  1.00  0.00     0.008 C 
ENDBRANCH   9  17
ENDBRANCH   5   8
ENDBRANCH   3   4
ENDBRANCH   2   3
ENDBRANCH   1   2
BRANCH   1  20
ATOM     20  C   UNL A   1      36.915  22.391  25.716  1.00  0.00     0.116 C 
BRANCH  20  21
ATOM     21  N   UNL A   1      37.995  21.437  25.894  1.00  0.00    -0.352 N 
ATOM     22  C   UNL A   1      39.290  21.639  26.307  1.00  0.00     0.251 C 
ATOM     23  H   UNL A   1      37.764  20.503  25.688  1.00  0.00     0.163 HD
ATOM     24  O   UNL A   1      40.071  20.685  26.291  1.00  0.00    -0.269 OA
BRANCH  22  25
ATOM     25  C   UNL A   1      39.768  22.979  26.730  1.00  0.00     0.039 A 
ATOM     26  C   UNL A   1      40.615  23.064  27.839  1.00  0.00     0.014 A 
ATOM     27  C   UNL A   1      39.374  24.149  26.075  1.00  0.00     0.014 A 
ATOM     28  C   UNL A   1      41.102  24.307  28.257  1.00  0.00     0.010 A 
ATOM     29  C   UNL A   1      39.928  25.377  26.440  1.00  0.00     0.010 A 
ATOM     30  C   UNL A   1      40.786  25.475  27.545  1.00  0.00    -0.014 A 
BRANCH  30  31
ATOM     31  C   UNL A   1      41.317  26.799  27.974  1.00  0.00     0.031 A 
ATOM     32  C   UNL A   1      42.751  27.171  27.688  1.00  0.00     0.074 A 
ATOM     33  C   UNL A   1      40.522  27.659  28.643  1.00  0.00     0.049 A 
ATOM     34  N   UNL A   1      43.401  28.267  27.990  1.00  0.00    -0.248 NA
ATOM     35  C   UNL A   1      43.568  26.162  26.997  1.00  0.00     0.031 C 
ATOM     36  C   UNL A   1      39.131  27.401  29.020  1.00  0.00     0.029 A 
ATOM     37  N   UNL A   1      40.765  28.923  29.120  1.00  0.00    -0.354 N 
ATOM     38  C   UNL A   1      44.702  28.077  27.535  1.00  0.00     0.074 A 
ATOM     39  C   UNL A   1      44.764  26.731  27.005  1.00  0.00     0.031 C 
ATOM     40  C   UNL A   1      38.634  28.485  29.637  1.00  0.00     0.029 A 
ATOM     41  C   UNL A   1      39.677  29.500  29.737  1.00  0.00     0.049 A 
ATOM     42  H   UNL A   1      41.634  29.375  29.030  1.00  0.00     0.167 HD
ATOM     43  C   UNL A   1      45.741  28.950  27.530  1.00  0.00     0.034 A 
ATOM     44  C   UNL A   1      39.537  30.709  30.319  1.00  0.00     0.034 A 
ATOM     45  C   UNL A   1      45.662  30.293  28.056  1.00  0.00     0.049 A 
ATOM     46  C   UNL A   1      40.709  31.658  30.314  1.00  0.00     0.074 A 
ATOM     47  C   UNL A   1      46.638  31.275  28.066  1.00  0.00     0.029 A 
ATOM     48  N   UNL A   1      44.544  30.842  28.673  1.00  0.00    -0.354 N 
ATOM     49  N   UNL A   1      41.917  31.482  29.830  1.00  0.00    -0.248 NA
ATOM     50  C   UNL A   1      40.488  32.979  30.915  1.00  0.00     0.031 C 
ATOM     51  C   UNL A   1      46.137  32.387  28.752  1.00  0.00     0.029 A 
ATOM     52  C   UNL A   1      44.816  32.137  29.091  1.00  0.00     0.049 A 
ATOM     53  H   UNL A   1      43.684  30.380  28.796  1.00  0.00     0.167 HD
ATOM     54  C   UNL A   1      42.588  32.686  30.036  1.00  0.00     0.074 A 
ATOM     55  C   UNL A   1      41.639  33.582  30.665  1.00  0.00     0.031 C 
ATOM     56  C   UNL A   1      43.869  33.022  29.731  1.00  0.00     0.034 A 
BRANCH  43  57
ATOM     57  C   UNL A   1      47.056  28.462  26.961  1.00  0.00     0.023 A 
ATOM     58  C   UNL A   1      47.242  28.282  25.578  1.00  0.00     0.031 A 
ATOM     59  C   UNL A   1      48.127  28.139  27.811  1.00  0.00     0.131 A 
ATOM     60  C   UNL A   1      48.431  27.714  25.097  1.00  0.00     0.055 A 
ATOM     61  C   UNL A   1      49.343  27.660  27.319  1.00  0.00     0.041 A 
ATOM     62  F   UNL A   1      48.007  28.268  29.143  1.00  0.00    -0.206 F 
ATOM     63  C   UNL A   1      49.495  27.427  25.955  1.00  0.00     0.022 A 
BRANCH  60  64
ATOM     64  S   UNL A   1      48.506  27.203  23.357  1.00  0.00     0.124 S 
ATOM     65  O   UNL A   1      47.481  28.053  22.756  1.00  0.00    -0.237 OA
ATOM     66  O   UNL A   1      49.884  27.512  22.997  1.00  0.00    -0.237 OA
ATOM     67  O   UNL A   1      48.176  25.780  23.403  1.00  0.00    -0.744 OA
ENDBRANCH  60  64
ENDBRANCH  43  57
BRANCH  44  68
ATOM     68  C   UNL A   1      38.243  31.100  30.953  1.00  0.00     0.023 A 
ATOM     69  C   UNL A   1      37.232  31.731  30.211  1.00  0.00     0.031 A 
ATOM     70  C   UNL A   1      38.021  30.894  32.327  1.00  0.00     0.131 A 
ATOM     71  C   UNL A   1      36.068  32.181  30.854  1.00  0.00     0.055 A 
ATOM     72  C   UNL A   1      36.837  31.291  32.951  1.00  0.00     0.041 A 
ATOM     73  F   UNL A   1      38.952  30.292  33.083  1.00  0.00    -0.206 F 
ATOM     74  C   UNL A   1      35.857  31.953  32.216  1.00  0.00     0.022 A 
BRANCH  71  75
ATOM     75  S   UNL A   1      34.870  33.157  29.903  1.00  0.00     0.124 S 
ATOM     76  O   UNL A   1      35.737  34.112  29.223  1.00  0.00    -0.237 OA
ATOM     77  O   UNL A   1      34.252  32.138  29.061  1.00  0.00    -0.237 OA
ATOM     78  O   UNL A   1      33.999  33.724  30.931  1.00  0.00    -0.744 OA
ENDBRANCH  71  75
ENDBRANCH  44  68
BRANCH  56  79
ATOM     79  C   UNL A   1      44.294  34.441  30.033  1.00  0.00     0.023 A 
ATOM     80  C   UNL A   1      44.159  35.475  29.088  1.00  0.00     0.031 A 
ATOM     81  C   UNL A   1      44.888  34.753  31.269  1.00  0.00     0.131 A 
ATOM     82  C   UNL A   1      44.692  36.744  29.359  1.00  0.00     0.055 A 
ATOM     83  C   UNL A   1      45.343  36.039  31.564  1.00  0.00     0.041 A 
ATOM     84  F   UNL A   1      45.046  33.810  32.211  1.00  0.00    -0.206 F 
ATOM     85  C   UNL A   1      45.267  37.038  30.598  1.00  0.00     0.022 A 
BRANCH  82  86
ATOM     86  S   UNL A   1      44.757  37.963  28.016  1.00  0.00     0.124 S 
ATOM     87  O   UNL A   1      43.695  37.496  27.131  1.00  0.00    -0.237 OA
ATOM     88  O   UNL A   1      44.496  39.215  28.720  1.00  0.00    -0.237 OA
ATOM     89  O   UNL A   1      46.112  37.820  27.489  1.00  0.00    -0.744 OA
ENDBRANCH  82  86
ENDBRANCH  56  79
ENDBRANCH  30  31
ENDBRANCH  22  25
ENDBRANCH  20  21
ENDBRANCH   1  20
TORSDOF 15
ENDMDL
MODEL 2
REMARK VINA RESULT:     -11.5      5.020      9.842
REMARK SMILES CC(C)[C@H]1CC[C@@H](C)C/C1=C(\F)C(=O)NCCCCNC(=O)c1ccc(-c2c3nc(c(-c4cc(S(=O)(=O)[O-])ccc4F)c4ccc([nH]4)c(-c4cc(S(=O)(=O)[O-])ccc4F)c4nc(c(-c5cc(S(=O)(=O)[O-])ccc5F)c5ccc2[nH]5)C=C4)C=C3)cc1
REMARK SMILES IDX 18 1 17 2 16 3 15 4 13 5 14 6 11 8 4 9 5 10 10 11 6 12 9 13
REMARK SMILES IDX 7 14 12 15 8 16 2 17 1 18 3 19 19 20 20 21 21 22 22 24 23 25
REMARK SMILES IDX 24 26 85 27 25 28 84 29 26 30 27 31 28 32 78 33 29 34 83 35
REMARK SMILES IDX 77 36 79 37 30 38 82 39 76 40 75 41 31 43 63 44 43 45 62 46
REMARK SMILES IDX 44 47 47 48 61 49 80 50 45 51 46 52 60 54 81 55 48 56 32 57
REMARK SMILES IDX 33 58 41 59 34 60 40 61 42 62 39 63 35 64 36 65 37 66 38 67
REMARK SMILES IDX 64 68 65 69 73 70 66 71 72 72 74 73 71 74 67 75 68 76 69 77
REMARK SMILES IDX 70 78 49 79 50 80 58 81 51 82 57 83 59 84 56 85 52 86 53 87
REMARK SMILES IDX 54 88 55 89
REMARK H PARENT 15 7 20 23 79 42 47 53
REMARK Flexibility Score: inf
ROOT
ATOM      1  C   UNL A   1      33.061  28.684  25.142  1.00  0.00     0.023 C 
ENDROOT
BRANCH   1   2
ATOM      2  C   UNL A   1      34.098  28.384  24.060  1.00  0.00     0.023 C 
BRANCH   2   3
ATOM      3  C   UNL A   1      33.663  28.576  22.608  1.00  0.00     0.116 C 
BRANCH   3   4
ATOM      4  N   UNL A   1      33.787  27.392  21.774  1.00  0.00    -0.350 N 
ATOM      5  C   UNL A   1      32.942  26.327  21.613  1.00  0.00     0.279 C 
ATOM      6  O   UNL A   1      33.116  25.563  20.666  1.00  0.00    -0.267 OA
ATOM      7  H   UNL A   1      34.613  27.349  21.238  1.00  0.00     0.163 HD
BRANCH   5   8
ATOM      8  C   UNL A   1      31.815  26.139  22.561  1.00  0.00     0.187 C 
ATOM      9  C   UNL A   1      32.743  24.351  24.278  1.00  0.00     0.021 C 
ATOM     10  C   UNL A   1      32.563  24.270  25.825  1.00  0.00     0.009 C 
ATOM     11  C   UNL A   1      31.708  25.311  23.626  1.00  0.00    -0.025 C 
ATOM     12  C   UNL A   1      31.122  24.141  26.297  1.00  0.00     0.004 C 
ATOM     13  C   UNL A   1      30.303  25.219  24.230  1.00  0.00     0.038 C 
ATOM     14  C   UNL A   1      30.253  25.265  25.757  1.00  0.00    -0.010 C 
ATOM     15  F   UNL A   1      30.713  26.831  22.177  1.00  0.00    -0.201 F 
ATOM     16  C   UNL A   1      30.660  26.630  26.320  1.00  0.00     0.008 C 
BRANCH   9  17
ATOM     17  C   UNL A   1      34.284  24.443  23.938  1.00  0.00    -0.010 C 
ATOM     18  C   UNL A   1      35.225  24.639  25.136  1.00  0.00     0.008 C 
ATOM     19  C   UNL A   1      34.804  23.226  23.141  1.00  0.00     0.008 C 
ENDBRANCH   9  17
ENDBRANCH   5   8
ENDBRANCH   3   4
ENDBRANCH   2   3
ENDBRANCH   1   2
BRANCH   1  20
ATOM     20  C   UNL A   1      33.587  28.914  26.555  1.00  0.00     0.116 C 
BRANCH  20  21
ATOM     21  N   UNL A   1      33.512  30.298  26.987  1.00  0.00    -0.352 N 
ATOM     22  C   UNL A   1      34.371  31.022  27.778  1.00  0.00     0.251 C 
ATOM     23  H   UNL A   1      32.726  30.794  26.664  1.00  0.00     0.163 HD
ATOM     24  O   UNL A   1      34.054  32.169  28.100  1.00  0.00    -0.269 OA
BRANCH  22  25
ATOM     25  C   UNL A   1      35.641  30.438  28.278  1.00  0.00     0.039 A 
ATOM     26  C   UNL A   1      36.789  30.568  27.490  1.00  0.00     0.014 A 
ATOM     27  C   UNL A   1      35.714  29.743  29.488  1.00  0.00     0.014 A 
ATOM     28  C   UNL A   1      38.008  30.048  27.935  1.00  0.00     0.010 A 
ATOM     29  C   UNL A   1      36.947  29.301  29.970  1.00  0.00     0.010 A 
ATOM     30  C   UNL A   1      38.107  29.433  29.194  1.00  0.00    -0.014 A 
BRANCH  30  31
ATOM     31  C   UNL A   1      39.408  28.894  29.681  1.00  0.00     0.031 A 
ATOM     32  C   UNL A   1      40.106  29.540  30.852  1.00  0.00     0.074 A 
ATOM     33  C   UNL A   1      39.976  27.841  29.059  1.00  0.00     0.049 A 
ATOM     34  N   UNL A   1      41.246  29.226  31.415  1.00  0.00    -0.248 NA
ATOM     35  C   UNL A   1      39.448  30.712  31.447  1.00  0.00     0.031 C 
ATOM     36  C   UNL A   1      39.424  27.155  27.888  1.00  0.00     0.029 A 
ATOM     37  N   UNL A   1      41.138  27.160  29.323  1.00  0.00    -0.354 N 
ATOM     38  C   UNL A   1      41.445  30.165  32.423  1.00  0.00     0.074 A 
ATOM     39  C   UNL A   1      40.344  31.101  32.341  1.00  0.00     0.031 C 
ATOM     40  C   UNL A   1      40.227  26.131  27.559  1.00  0.00     0.029 A 
ATOM     41  C   UNL A   1      41.371  26.109  28.465  1.00  0.00     0.049 A 
ATOM     42  H   UNL A   1      41.748  27.400  30.057  1.00  0.00     0.167 HD
ATOM     43  C   UNL A   1      42.435  30.225  33.349  1.00  0.00     0.034 A 
ATOM     44  C   UNL A   1      42.391  25.227  28.412  1.00  0.00     0.034 A 
ATOM     45  C   UNL A   1      43.524  29.280  33.423  1.00  0.00     0.049 A 
ATOM     46  C   UNL A   1      43.487  25.322  29.444  1.00  0.00     0.074 A 
ATOM     47  C   UNL A   1      44.556  29.222  34.343  1.00  0.00     0.029 A 
ATOM     48  N   UNL A   1      43.727  28.228  32.536  1.00  0.00    -0.354 N 
ATOM     49  N   UNL A   1      43.631  26.184  30.424  1.00  0.00    -0.248 NA
ATOM     50  C   UNL A   1      44.546  24.309  29.373  1.00  0.00     0.031 C 
ATOM     51  C   UNL A   1      45.421  28.186  33.971  1.00  0.00     0.029 A 
ATOM     52  C   UNL A   1      44.881  27.535  32.872  1.00  0.00     0.049 A 
ATOM     53  H   UNL A   1      43.137  28.007  31.780  1.00  0.00     0.167 HD
ATOM     54  C   UNL A   1      44.779  25.791  31.109  1.00  0.00     0.074 A 
ATOM     55  C   UNL A   1      45.270  24.603  30.442  1.00  0.00     0.031 C 
ATOM     56  C   UNL A   1      45.372  26.358  32.193  1.00  0.00     0.034 A 
BRANCH  43  57
ATOM     57  C   UNL A   1      42.392  31.372  34.337  1.00  0.00     0.023 A 
ATOM     58  C   UNL A   1      41.478  31.394  35.406  1.00  0.00     0.031 A 
ATOM     59  C   UNL A   1      43.252  32.474  34.190  1.00  0.00     0.131 A 
ATOM     60  C   UNL A   1      41.385  32.528  36.228  1.00  0.00     0.055 A 
ATOM     61  C   UNL A   1      43.218  33.560  35.068  1.00  0.00     0.041 A 
ATOM     62  F   UNL A   1      44.135  32.525  33.178  1.00  0.00    -0.206 F 
ATOM     63  C   UNL A   1      42.268  33.600  36.084  1.00  0.00     0.022 A 
BRANCH  60  64
ATOM     64  S   UNL A   1      39.989  32.651  37.380  1.00  0.00     0.124 S 
ATOM     65  O   UNL A   1      39.252  31.424  37.082  1.00  0.00    -0.237 OA
ATOM     66  O   UNL A   1      40.653  32.697  38.677  1.00  0.00    -0.237 OA
ATOM     67  O   UNL A   1      39.318  33.885  36.977  1.00  0.00    -0.744 OA
ENDBRANCH  60  64
ENDBRANCH  43  57
BRANCH  44  68
ATOM     68  C   UNL A   1      42.431  24.175  27.354  1.00  0.00     0.023 A 
ATOM     69  C   UNL A   1      41.754  22.956  27.515  1.00  0.00     0.031 A 
ATOM     70  C   UNL A   1      43.192  24.356  26.184  1.00  0.00     0.131 A 
ATOM     71  C   UNL A   1      41.893  21.944  26.551  1.00  0.00     0.055 A 
ATOM     72  C   UNL A   1      43.280  23.369  25.201  1.00  0.00     0.041 A 
ATOM     73  F   UNL A   1      43.856  25.504  25.977  1.00  0.00    -0.206 F 
ATOM     74  C   UNL A   1      42.639  22.148  25.389  1.00  0.00     0.022 A 
BRANCH  71  75
ATOM     75  S   UNL A   1      41.158  20.319  26.884  1.00  0.00     0.124 S 
ATOM     76  O   UNL A   1      40.037  20.302  25.951  1.00  0.00    -0.237 OA
ATOM     77  O   UNL A   1      42.264  19.419  26.575  1.00  0.00    -0.237 OA
ATOM     78  O   UNL A   1      40.794  20.393  28.298  1.00  0.00    -0.744 OA
ENDBRANCH  71  75
ENDBRANCH  44  68
BRANCH  56  79
ATOM     79  C   UNL A   1      46.593  25.659  32.748  1.00  0.00     0.023 A 
ATOM     80  C   UNL A   1      46.496  24.673  33.747  1.00  0.00     0.031 A 
ATOM     81  C   UNL A   1      47.878  26.020  32.303  1.00  0.00     0.131 A 
ATOM     82  C   UNL A   1      47.660  24.150  34.329  1.00  0.00     0.055 A 
ATOM     83  C   UNL A   1      49.031  25.437  32.830  1.00  0.00     0.041 A 
ATOM     84  F   UNL A   1      48.036  26.955  31.353  1.00  0.00    -0.206 F 
ATOM     85  C   UNL A   1      48.927  24.512  33.865  1.00  0.00     0.022 A 
BRANCH  82  86
ATOM     86  S   UNL A   1      47.499  23.104  35.803  1.00  0.00     0.124 S 
ATOM     87  O   UNL A   1      46.731  21.974  35.290  1.00  0.00    -0.237 OA
ATOM     88  O   UNL A   1      48.891  22.827  36.142  1.00  0.00    -0.237 OA
ATOM     89  O   UNL A   1      46.788  23.957  36.753  1.00  0.00    -0.744 OA
ENDBRANCH  82  86
ENDBRANCH  56  79
ENDBRANCH  30  31
ENDBRANCH  22  25
ENDBRANCH  20  21
ENDBRANCH   1  20
TORSDOF 15
ENDMDL
MODEL 3
REMARK VINA RESULT:     -11.5      4.776      9.572
REMARK SMILES CC(C)[C@H]1CC[C@@H](C)C/C1=C(\F)C(=O)NCCCCNC(=O)c1ccc(-c2c3nc(c(-c4cc(S(=O)(=O)[O-])ccc4F)c4ccc([nH]4)c(-c4cc(S(=O)(=O)[O-])ccc4F)c4nc(c(-c5cc(S(=O)(=O)[O-])ccc5F)c5ccc2[nH]5)C=C4)C=C3)cc1
REMARK SMILES IDX 18 1 17 2 16 3 15 4 13 5 14 6 11 8 4 9 5 10 10 11 6 12 9 13
REMARK SMILES IDX 7 14 12 15 8 16 2 17 1 18 3 19 19 20 20 21 21 22 22 24 23 25
REMARK SMILES IDX 24 26 85 27 25 28 84 29 26 30 27 31 28 32 78 33 29 34 83 35
REMARK SMILES IDX 77 36 79 37 30 38 82 39 76 40 75 41 31 43 63 44 43 45 62 46
REMARK SMILES IDX 44 47 47 48 61 49 80 50 45 51 46 52 60 54 81 55 48 56 32 57
REMARK SMILES IDX 33 58 41 59 34 60 40 61 42 62 39 63 35 64 36 65 37 66 38 67
REMARK SMILES IDX 64 68 65 69 73 70 66 71 72 72 74 73 71 74 67 75 68 76 69 77
REMARK SMILES IDX 70 78 49 79 50 80 58 81 51 82 57 83 59 84 56 85 52 86 53 87
REMARK SMILES IDX 54 88 55 89
REMARK H PARENT 15 7 20 23 79 42 47 53
REMARK Flexibility Score: inf
ROOT
ATOM      1  C   UNL A   1      33.356  28.524  24.909  1.00  0.00     0.023 C 
ENDROOT
BRANCH   1   2
ATOM      2  C   UNL A   1      34.257  28.545  23.675  1.00  0.00     0.023 C 
BRANCH   2   3
ATOM      3  C   UNL A   1      33.570  28.496  22.312  1.00  0.00     0.116 C 
BRANCH   3   4
ATOM      4  N   UNL A   1      33.728  27.239  21.597  1.00  0.00    -0.350 N 
ATOM      5  C   UNL A   1      32.923  26.133  21.557  1.00  0.00     0.279 C 
ATOM      6  O   UNL A   1      33.113  25.285  20.687  1.00  0.00    -0.267 OA
ATOM      7  H   UNL A   1      34.548  27.174  21.054  1.00  0.00     0.163 HD
BRANCH   5   8
ATOM      8  C   UNL A   1      31.817  25.999  22.538  1.00  0.00     0.187 C 
ATOM      9  C   UNL A   1      32.791  24.325  24.342  1.00  0.00     0.021 C 
ATOM     10  C   UNL A   1      32.644  24.338  25.895  1.00  0.00     0.009 C 
ATOM     11  C   UNL A   1      31.737  25.238  23.654  1.00  0.00    -0.025 C 
ATOM     12  C   UNL A   1      31.213  24.232  26.404  1.00  0.00     0.004 C 
ATOM     13  C   UNL A   1      30.345  25.177  24.292  1.00  0.00     0.038 C 
ATOM     14  C   UNL A   1      30.327  25.317  25.814  1.00  0.00    -0.010 C 
ATOM     15  F   UNL A   1      30.704  26.661  22.136  1.00  0.00    -0.201 F 
ATOM     16  C   UNL A   1      30.737  26.716  26.283  1.00  0.00     0.008 C 
BRANCH   9  17
ATOM     17  C   UNL A   1      34.324  24.402  23.965  1.00  0.00    -0.010 C 
ATOM     18  C   UNL A   1      35.299  24.532  25.144  1.00  0.00     0.008 C 
ATOM     19  C   UNL A   1      34.799  23.210  23.106  1.00  0.00     0.008 C 
ENDBRANCH   9  17
ENDBRANCH   5   8
ENDBRANCH   3   4
ENDBRANCH   2   3
ENDBRANCH   1   2
BRANCH   1  20
ATOM     20  C   UNL A   1      34.024  28.782  26.256  1.00  0.00     0.116 C 
BRANCH  20  21
ATOM     21  N   UNL A   1      33.811  30.124  26.764  1.00  0.00    -0.352 N 
ATOM     22  C   UNL A   1      34.570  30.867  27.635  1.00  0.00     0.251 C 
ATOM     23  H   UNL A   1      32.999  30.571  26.434  1.00  0.00     0.163 HD
ATOM     24  O   UNL A   1      34.142  31.961  28.009  1.00  0.00    -0.269 OA
BRANCH  22  25
ATOM     25  C   UNL A   1      35.864  30.363  28.158  1.00  0.00     0.039 A 
ATOM     26  C   UNL A   1      35.873  29.705  29.393  1.00  0.00     0.014 A 
ATOM     27  C   UNL A   1      37.068  30.552  27.473  1.00  0.00     0.014 A 
ATOM     28  C   UNL A   1      37.070  29.199  29.910  1.00  0.00     0.010 A 
ATOM     29  C   UNL A   1      38.245  29.972  27.949  1.00  0.00     0.010 A 
ATOM     30  C   UNL A   1      38.265  29.303  29.181  1.00  0.00    -0.014 A 
BRANCH  30  31
ATOM     31  C   UNL A   1      39.539  28.748  29.719  1.00  0.00     0.031 A 
ATOM     32  C   UNL A   1      40.168  29.351  30.951  1.00  0.00     0.074 A 
ATOM     33  C   UNL A   1      40.144  27.720  29.091  1.00  0.00     0.049 A 
ATOM     34  N   UNL A   1      41.276  29.017  31.564  1.00  0.00    -0.248 NA
ATOM     35  C   UNL A   1      39.473  30.499  31.552  1.00  0.00     0.031 C 
ATOM     36  C   UNL A   1      39.661  27.078  27.867  1.00  0.00     0.029 A 
ATOM     37  N   UNL A   1      41.292  27.031  29.394  1.00  0.00    -0.354 N 
ATOM     38  C   UNL A   1      41.415  29.918  32.617  1.00  0.00     0.074 A 
ATOM     39  C   UNL A   1      40.317  30.855  32.509  1.00  0.00     0.031 C 
ATOM     40  C   UNL A   1      40.485  26.068  27.545  1.00  0.00     0.029 A 
ATOM     41  C   UNL A   1      41.577  26.013  28.512  1.00  0.00     0.049 A 
ATOM     42  H   UNL A   1      41.859  27.245  30.170  1.00  0.00     0.167 HD
ATOM     43  C   UNL A   1      42.352  29.945  33.599  1.00  0.00     0.034 A 
ATOM     44  C   UNL A   1      42.601  25.136  28.483  1.00  0.00     0.034 A 
ATOM     45  C   UNL A   1      43.437  28.999  33.698  1.00  0.00     0.049 A 
ATOM     46  C   UNL A   1      43.638  25.194  29.577  1.00  0.00     0.074 A 
ATOM     47  C   UNL A   1      44.417  28.908  34.671  1.00  0.00     0.029 A 
ATOM     48  N   UNL A   1      43.693  27.981  32.785  1.00  0.00    -0.354 N 
ATOM     49  N   UNL A   1      43.724  26.018  30.596  1.00  0.00    -0.248 NA
ATOM     50  C   UNL A   1      44.702  24.185  29.528  1.00  0.00     0.031 C 
ATOM     51  C   UNL A   1      45.305  27.888  34.310  1.00  0.00     0.029 A 
ATOM     52  C   UNL A   1      44.830  27.278  33.159  1.00  0.00     0.049 A 
ATOM     53  H   UNL A   1      43.148  27.788  31.989  1.00  0.00     0.167 HD
ATOM     54  C   UNL A   1      44.833  25.601  31.329  1.00  0.00     0.074 A 
ATOM     55  C   UNL A   1      45.364  24.440  30.646  1.00  0.00     0.031 C 
ATOM     56  C   UNL A   1      45.362  26.128  32.464  1.00  0.00     0.034 A 
BRANCH  43  57
ATOM     57  C   UNL A   1      42.249  31.053  34.625  1.00  0.00     0.023 A 
ATOM     58  C   UNL A   1      42.917  32.281  34.458  1.00  0.00     0.031 A 
ATOM     59  C   UNL A   1      41.504  30.871  35.802  1.00  0.00     0.131 A 
ATOM     60  C   UNL A   1      42.898  33.236  35.485  1.00  0.00     0.055 A 
ATOM     61  C   UNL A   1      41.413  31.863  36.781  1.00  0.00     0.041 A 
ATOM     62  F   UNL A   1      40.859  29.715  36.032  1.00  0.00    -0.206 F 
ATOM     63  C   UNL A   1      42.128  33.048  36.634  1.00  0.00     0.022 A 
BRANCH  60  64
ATOM     64  S   UNL A   1      44.024  34.655  35.370  1.00  0.00     0.124 S 
ATOM     65  O   UNL A   1      43.404  35.437  34.303  1.00  0.00    -0.237 OA
ATOM     66  O   UNL A   1      43.948  35.228  36.708  1.00  0.00    -0.237 OA
ATOM     67  O   UNL A   1      45.307  34.048  35.021  1.00  0.00    -0.744 OA
ENDBRANCH  60  64
ENDBRANCH  43  57
BRANCH  44  68
ATOM     68  C   UNL A   1      42.704  24.125  27.390  1.00  0.00     0.023 A 
ATOM     69  C   UNL A   1      42.024  22.899  27.467  1.00  0.00     0.031 A 
ATOM     70  C   UNL A   1      43.528  24.350  26.272  1.00  0.00     0.131 A 
ATOM     71  C   UNL A   1      42.220  21.924  26.476  1.00  0.00     0.055 A 
ATOM     72  C   UNL A   1      43.674  23.402  25.259  1.00  0.00     0.041 A 
ATOM     73  F   UNL A   1      44.198  25.507  26.145  1.00  0.00    -0.206 F 
ATOM     74  C   UNL A   1      43.029  22.173  25.365  1.00  0.00     0.022 A 
BRANCH  71  75
ATOM     75  S   UNL A   1      41.475  20.286  26.706  1.00  0.00     0.124 S 
ATOM     76  O   UNL A   1      42.220  19.778  27.853  1.00  0.00    -0.237 OA
ATOM     77  O   UNL A   1      40.076  20.622  26.947  1.00  0.00    -0.237 OA
ATOM     78  O   UNL A   1      41.742  19.610  25.438  1.00  0.00    -0.744 OA
ENDBRANCH  71  75
ENDBRANCH  44  68
BRANCH  56  79
ATOM     79  C   UNL A   1      46.552  25.410  33.060  1.00  0.00     0.023 A 
ATOM     80  C   UNL A   1      47.872  25.717  32.683  1.00  0.00     0.031 A 
ATOM     81  C   UNL A   1      46.358  24.368  33.986  1.00  0.00     0.131 A 
ATOM     82  C   UNL A   1      48.935  24.934  33.158  1.00  0.00     0.055 A 
ATOM     83  C   UNL A   1      47.428  23.645  34.516  1.00  0.00     0.041 A 
ATOM     84  F   UNL A   1      45.122  24.027  34.384  1.00  0.00    -0.206 F 
ATOM     85  C   UNL A   1      48.724  23.912  34.086  1.00  0.00     0.022 A 
BRANCH  82  86
ATOM     86  S   UNL A   1      50.581  25.173  32.430  1.00  0.00     0.124 S 
ATOM     87  O   UNL A   1      50.633  24.102  31.440  1.00  0.00    -0.237 OA
ATOM     88  O   UNL A   1      50.492  26.529  31.899  1.00  0.00    -0.237 OA
ATOM     89  O   UNL A   1      51.485  25.011  33.567  1.00  0.00    -0.744 OA
ENDBRANCH  82  86
ENDBRANCH  56  79
ENDBRANCH  30  31
ENDBRANCH  22  25
ENDBRANCH  20  21
ENDBRANCH   1  20
TORSDOF 15
ENDMDL
