MODEL 1
REMARK VINA RESULT:     -11.4      0.000      0.000
REMARK SMILES C=CC[N@H+]1C[C@@H](C(=O)NCCCCNC(=O)c2ccc(-c3c4nc(c(-c5cc(S(=O)(=O)[O-])ccc5F)c5ccc([nH]5)c(-c5cc(S(=O)(=O)[O-])ccc5F)c5nc(c(-c6cc(S(=O)(=O)[O-])ccc6F)c6ccc3[nH]6)C=C5)C=C4)cc2)C2(CC[NH+](C)CC2)C1
REMARK SMILES IDX 12 1 11 2 10 3 9 4 7 5 8 6 6 8 4 9 5 10 87 11 80 13 81 14
REMARK SMILES IDX 86 15 82 16 85 17 83 18 84 19 3 21 2 22 1 23 13 24 14 25
REMARK SMILES IDX 15 26 16 28 17 29 18 30 79 31 19 32 78 33 20 34 21 35 22 36
REMARK SMILES IDX 72 37 23 38 77 39 71 40 73 41 24 42 76 43 70 44 69 45 25 47
REMARK SMILES IDX 57 48 37 49 56 50 38 51 41 52 55 53 74 54 39 55 40 56 54 58
REMARK SMILES IDX 75 59 42 60 26 61 27 62 35 63 28 64 34 65 36 66 33 67 29 68
REMARK SMILES IDX 30 69 31 70 32 71 58 72 59 73 67 74 60 75 66 76 68 77 65 78
REMARK SMILES IDX 61 79 62 80 63 81 64 82 43 83 44 84 52 85 45 86 51 87 53 88
REMARK SMILES IDX 50 89 46 90 47 91 48 92 49 93
REMARK H PARENT 9 7 4 12 83 20 14 27 73 46 41 57
REMARK Flexibility Score: inf
ROOT
ATOM      1  C   UNL A   1      31.509  31.863  27.084  1.00  0.00     0.023 C 
ENDROOT
BRANCH   1   2
ATOM      2  C   UNL A   1      31.124  31.332  25.706  1.00  0.00     0.023 C 
BRANCH   2   3
ATOM      3  C   UNL A   1      31.474  29.862  25.475  1.00  0.00     0.116 C 
BRANCH   3   4
ATOM      4  N   UNL A   1      32.703  29.675  24.727  1.00  0.00    -0.356 N 
ATOM      5  C   UNL A   1      32.983  29.132  23.515  1.00  0.00     0.229 C 
ATOM      6  O   UNL A   1      34.157  29.233  23.137  1.00  0.00    -0.275 OA
ATOM      7  H   UNL A   1      33.500  30.014  25.196  1.00  0.00     0.163 HD
BRANCH   5   8
ATOM      8  C   UNL A   1      31.980  28.401  22.619  1.00  0.00     0.145 C 
ATOM      9  N   UNL A   1      29.604  28.301  22.646  1.00  0.00    -0.331 N 
ATOM     10  C   UNL A   1      30.712  29.216  22.360  1.00  0.00     0.276 C 
ATOM     11  C   UNL A   1      30.079  27.274  23.568  1.00  0.00     0.270 C 
ATOM     12  H   UNL A   1      29.322  27.841  21.780  1.00  0.00     0.348 HD
ATOM     13  C   UNL A   1      31.493  26.983  23.033  1.00  0.00     0.047 C 
ATOM     14  C   UNL A   1      32.394  26.258  24.046  1.00  0.00     0.075 C 
ATOM     15  C   UNL A   1      31.336  26.058  21.783  1.00  0.00     0.075 C 
ATOM     16  C   UNL A   1      33.690  25.729  23.426  1.00  0.00     0.262 C 
ATOM     17  C   UNL A   1      32.658  25.482  21.268  1.00  0.00     0.262 C 
ATOM     18  N   UNL A   1      33.466  24.826  22.297  1.00  0.00    -0.337 N 
ATOM     19  C   UNL A   1      32.919  23.541  22.722  1.00  0.00     0.332 C 
ATOM     20  H   UNL A   1      34.370  24.609  21.878  1.00  0.00     0.347 HD
BRANCH   9  21
ATOM     21  C   UNL A   1      28.361  28.953  23.023  1.00  0.00     0.290 C 
BRANCH  21  22
ATOM     22  C   UNL A   1      28.631  30.407  23.282  1.00  0.00     0.025 C 
ATOM     23  C   UNL A   1      27.767  31.385  22.979  1.00  0.00     0.010 C 
ENDBRANCH  21  22
ENDBRANCH   9  21
ENDBRANCH   5   8
ENDBRANCH   3   4
ENDBRANCH   2   3
ENDBRANCH   1   2
BRANCH   1  24
ATOM     24  C   UNL A   1      32.774  32.708  27.090  1.00  0.00     0.116 C 
BRANCH  24  25
ATOM     25  N   UNL A   1      32.573  34.020  27.695  1.00  0.00    -0.352 N 
ATOM     26  C   UNL A   1      33.243  34.583  28.752  1.00  0.00     0.251 C 
ATOM     27  H   UNL A   1      31.864  34.573  27.293  1.00  0.00     0.163 HD
ATOM     28  O   UNL A   1      32.860  35.642  29.235  1.00  0.00    -0.269 OA
BRANCH  26  29
ATOM     29  C   UNL A   1      34.405  33.866  29.306  1.00  0.00     0.039 A 
ATOM     30  C   UNL A   1      35.690  34.277  28.951  1.00  0.00     0.014 A 
ATOM     31  C   UNL A   1      34.209  32.844  30.239  1.00  0.00     0.014 A 
ATOM     32  C   UNL A   1      36.788  33.705  29.591  1.00  0.00     0.010 A 
ATOM     33  C   UNL A   1      35.297  32.338  30.934  1.00  0.00     0.010 A 
ATOM     34  C   UNL A   1      36.597  32.761  30.614  1.00  0.00    -0.014 A 
BRANCH  34  35
ATOM     35  C   UNL A   1      37.742  32.178  31.353  1.00  0.00     0.031 A 
ATOM     36  C   UNL A   1      38.549  31.081  30.718  1.00  0.00     0.074 A 
ATOM     37  C   UNL A   1      37.997  32.578  32.615  1.00  0.00     0.049 A 
ATOM     38  N   UNL A   1      39.514  30.359  31.228  1.00  0.00    -0.248 NA
ATOM     39  C   UNL A   1      38.192  30.720  29.337  1.00  0.00     0.031 C 
ATOM     40  C   UNL A   1      37.245  33.599  33.349  1.00  0.00     0.029 A 
ATOM     41  N   UNL A   1      38.952  32.166  33.508  1.00  0.00    -0.354 N 
ATOM     42  C   UNL A   1      39.863  29.447  30.237  1.00  0.00     0.074 A 
ATOM     43  C   UNL A   1      38.959  29.663  29.128  1.00  0.00     0.031 C 
ATOM     44  C   UNL A   1      37.785  33.749  34.569  1.00  0.00     0.029 A 
ATOM     45  C   UNL A   1      38.890  32.809  34.722  1.00  0.00     0.049 A 
ATOM     46  H   UNL A   1      39.620  31.473  33.300  1.00  0.00     0.167 HD
ATOM     47  C   UNL A   1      40.864  28.533  30.244  1.00  0.00     0.034 A 
ATOM     48  C   UNL A   1      39.636  32.650  35.832  1.00  0.00     0.034 A 
ATOM     49  C   UNL A   1      41.769  28.353  31.351  1.00  0.00     0.049 A 
ATOM     50  C   UNL A   1      40.745  31.629  35.816  1.00  0.00     0.074 A 
ATOM     51  C   UNL A   1      42.853  27.500  31.452  1.00  0.00     0.029 A 
ATOM     52  N   UNL A   1      41.692  29.041  32.557  1.00  0.00    -0.354 N 
ATOM     53  N   UNL A   1      41.096  30.805  34.855  1.00  0.00    -0.248 NA
ATOM     54  C   UNL A   1      41.565  31.525  37.030  1.00  0.00     0.031 C 
ATOM     55  C   UNL A   1      43.398  27.633  32.734  1.00  0.00     0.029 A 
ATOM     56  C   UNL A   1      42.696  28.617  33.412  1.00  0.00     0.049 A 
ATOM     57  H   UNL A   1      41.021  29.729  32.771  1.00  0.00     0.167 HD
ATOM     58  C   UNL A   1      42.198  30.107  35.339  1.00  0.00     0.074 A 
ATOM     59  C   UNL A   1      42.459  30.616  36.670  1.00  0.00     0.031 C 
ATOM     60  C   UNL A   1      42.932  29.135  34.739  1.00  0.00     0.034 A 
BRANCH  47  61
ATOM     61  C   UNL A   1      41.008  27.660  29.021  1.00  0.00     0.023 A 
ATOM     62  C   UNL A   1      41.999  27.906  28.052  1.00  0.00     0.031 A 
ATOM     63  C   UNL A   1      40.116  26.598  28.792  1.00  0.00     0.131 A 
ATOM     64  C   UNL A   1      42.018  27.163  26.863  1.00  0.00     0.055 A 
ATOM     65  C   UNL A   1      40.196  25.805  27.645  1.00  0.00     0.041 A 
ATOM     66  F   UNL A   1      39.137  26.326  29.668  1.00  0.00    -0.206 F 
ATOM     67  C   UNL A   1      41.140  26.097  26.664  1.00  0.00     0.022 A 
BRANCH  64  68
ATOM     68  S   UNL A   1      43.103  27.713  25.518  1.00  0.00     0.124 S 
ATOM     69  O   UNL A   1      44.048  28.567  26.235  1.00  0.00    -0.237 OA
ATOM     70  O   UNL A   1      43.639  26.456  25.009  1.00  0.00    -0.237 OA
ATOM     71  O   UNL A   1      42.198  28.420  24.615  1.00  0.00    -0.744 OA
ENDBRANCH  64  68
ENDBRANCH  47  61
BRANCH  48  72
ATOM     72  C   UNL A   1      39.370  33.468  37.048  1.00  0.00     0.023 A 
ATOM     73  C   UNL A   1      40.067  34.665  37.278  1.00  0.00     0.031 A 
ATOM     74  C   UNL A   1      38.441  33.049  38.018  1.00  0.00     0.131 A 
ATOM     75  C   UNL A   1      39.863  35.376  38.471  1.00  0.00     0.055 A 
ATOM     76  C   UNL A   1      38.206  33.786  39.181  1.00  0.00     0.041 A 
ATOM     77  F   UNL A   1      37.740  31.918  37.842  1.00  0.00    -0.206 F 
ATOM     78  C   UNL A   1      38.930  34.950  39.419  1.00  0.00     0.022 A 
BRANCH  75  79
ATOM     79  S   UNL A   1      40.898  36.828  38.803  1.00  0.00     0.124 S 
ATOM     80  O   UNL A   1      41.673  36.929  37.571  1.00  0.00    -0.237 OA
ATOM     81  O   UNL A   1      39.897  37.868  39.017  1.00  0.00    -0.237 OA
ATOM     82  O   UNL A   1      41.657  36.441  39.989  1.00  0.00    -0.744 OA
ENDBRANCH  75  79
ENDBRANCH  48  72
BRANCH  60  83
ATOM     83  C   UNL A   1      44.114  28.603  35.507  1.00  0.00     0.023 A 
ATOM     84  C   UNL A   1      43.989  27.531  36.407  1.00  0.00     0.031 A 
ATOM     85  C   UNL A   1      45.383  29.187  35.341  1.00  0.00     0.131 A 
ATOM     86  C   UNL A   1      45.103  27.109  37.148  1.00  0.00     0.055 A 
ATOM     87  C   UNL A   1      46.499  28.725  36.038  1.00  0.00     0.041 A 
ATOM     88  F   UNL A   1      45.557  30.214  34.494  1.00  0.00    -0.206 F 
ATOM     89  C   UNL A   1      46.360  27.688  36.956  1.00  0.00     0.022 A 
BRANCH  86  90
ATOM     90  S   UNL A   1      44.869  25.843  38.425  1.00  0.00     0.124 S 
ATOM     91  O   UNL A   1      46.234  25.377  38.643  1.00  0.00    -0.237 OA
ATOM     92  O   UNL A   1      44.274  26.607  39.517  1.00  0.00    -0.237 OA
ATOM     93  O   UNL A   1      43.976  24.875  37.790  1.00  0.00    -0.744 OA
ENDBRANCH  86  90
ENDBRANCH  60  83
ENDBRANCH  34  35
ENDBRANCH  26  29
ENDBRANCH  24  25
ENDBRANCH   1  24
TORSDOF 16
ENDMDL
MODEL 2
REMARK VINA RESULT:     -11.4      1.374      1.691
REMARK SMILES C=CC[N@H+]1C[C@@H](C(=O)NCCCCNC(=O)c2ccc(-c3c4nc(c(-c5cc(S(=O)(=O)[O-])ccc5F)c5ccc([nH]5)c(-c5cc(S(=O)(=O)[O-])ccc5F)c5nc(c(-c6cc(S(=O)(=O)[O-])ccc6F)c6ccc3[nH]6)C=C5)C=C4)cc2)C2(CC[NH+](C)CC2)C1
REMARK SMILES IDX 12 1 11 2 10 3 9 4 7 5 8 6 6 8 4 9 5 10 87 11 80 13 81 14
REMARK SMILES IDX 86 15 82 16 85 17 83 18 84 19 3 21 2 22 1 23 13 24 14 25
REMARK SMILES IDX 15 26 16 28 17 29 18 30 79 31 19 32 78 33 20 34 21 35 22 36
REMARK SMILES IDX 72 37 23 38 77 39 71 40 73 41 24 42 76 43 70 44 69 45 25 47
REMARK SMILES IDX 57 48 37 49 56 50 38 51 41 52 55 53 74 54 39 55 40 56 54 58
REMARK SMILES IDX 75 59 42 60 26 61 27 62 35 63 28 64 34 65 36 66 33 67 29 68
REMARK SMILES IDX 30 69 31 70 32 71 58 72 59 73 67 74 60 75 66 76 68 77 65 78
REMARK SMILES IDX 61 79 62 80 63 81 64 82 43 83 44 84 52 85 45 86 51 87 53 88
REMARK SMILES IDX 50 89 46 90 47 91 48 92 49 93
REMARK H PARENT 9 7 4 12 83 20 14 27 73 46 41 57
REMARK Flexibility Score: inf
ROOT
ATOM      1  C   UNL A   1      32.166  31.529  27.064  1.00  0.00     0.023 C 
ENDROOT
BRANCH   1   2
ATOM      2  C   UNL A   1      32.611  30.143  26.603  1.00  0.00     0.023 C 
BRANCH   2   3
ATOM      3  C   UNL A   1      32.146  29.765  25.197  1.00  0.00     0.116 C 
BRANCH   3   4
ATOM      4  N   UNL A   1      33.240  29.473  24.290  1.00  0.00    -0.356 N 
ATOM      5  C   UNL A   1      33.342  28.718  23.166  1.00  0.00     0.229 C 
ATOM      6  O   UNL A   1      34.427  28.777  22.574  1.00  0.00    -0.275 OA
ATOM      7  H   UNL A   1      34.083  29.915  24.541  1.00  0.00     0.163 HD
BRANCH   5   8
ATOM      8  C   UNL A   1      32.247  27.803  22.609  1.00  0.00     0.145 C 
ATOM      9  N   UNL A   1      29.882  27.833  22.848  1.00  0.00    -0.331 N 
ATOM     10  C   UNL A   1      30.982  28.567  22.217  1.00  0.00     0.276 C 
ATOM     11  C   UNL A   1      30.412  27.102  23.995  1.00  0.00     0.270 C 
ATOM     12  H   UNL A   1      29.514  27.151  22.183  1.00  0.00     0.348 HD
ATOM     13  C   UNL A   1      31.765  26.598  23.465  1.00  0.00     0.047 C 
ATOM     14  C   UNL A   1      32.735  26.163  24.576  1.00  0.00     0.075 C 
ATOM     15  C   UNL A   1      31.478  25.352  22.565  1.00  0.00     0.075 C 
ATOM     16  C   UNL A   1      33.959  25.411  24.046  1.00  0.00     0.262 C 
ATOM     17  C   UNL A   1      32.736  24.586  22.146  1.00  0.00     0.262 C 
ATOM     18  N   UNL A   1      33.615  24.226  23.260  1.00  0.00    -0.337 N 
ATOM     19  C   UNL A   1      33.077  23.152  24.091  1.00  0.00     0.332 C 
ATOM     20  H   UNL A   1      34.473  23.850  22.857  1.00  0.00     0.347 HD
BRANCH   9  21
ATOM     21  C   UNL A   1      28.693  28.627  23.106  1.00  0.00     0.290 C 
BRANCH  21  22
ATOM     22  C   UNL A   1      29.008  30.074  22.858  1.00  0.00     0.025 C 
ATOM     23  C   UNL A   1      28.543  31.073  23.620  1.00  0.00     0.010 C 
ENDBRANCH  21  22
ENDBRANCH   9  21
ENDBRANCH   5   8
ENDBRANCH   3   4
ENDBRANCH   2   3
ENDBRANCH   1   2
BRANCH   1  24
ATOM     24  C   UNL A   1      33.314  32.461  27.419  1.00  0.00     0.116 C 
BRANCH  24  25
ATOM     25  N   UNL A   1      32.866  33.815  27.725  1.00  0.00    -0.352 N 
ATOM     26  C   UNL A   1      33.286  34.644  28.733  1.00  0.00     0.251 C 
ATOM     27  H   UNL A   1      32.172  34.181  27.130  1.00  0.00     0.163 HD
ATOM     28  O   UNL A   1      32.710  35.705  28.945  1.00  0.00    -0.269 OA
BRANCH  26  29
ATOM     29  C   UNL A   1      34.419  34.210  29.570  1.00  0.00     0.039 A 
ATOM     30  C   UNL A   1      34.171  33.421  30.694  1.00  0.00     0.014 A 
ATOM     31  C   UNL A   1      35.726  34.520  29.184  1.00  0.00     0.014 A 
ATOM     32  C   UNL A   1      35.246  32.882  31.398  1.00  0.00     0.010 A 
ATOM     33  C   UNL A   1      36.790  33.913  29.833  1.00  0.00     0.010 A 
ATOM     34  C   UNL A   1      36.561  33.092  30.948  1.00  0.00    -0.014 A 
BRANCH  34  35
ATOM     35  C   UNL A   1      37.722  32.482  31.640  1.00  0.00     0.031 A 
ATOM     36  C   UNL A   1      38.457  31.346  30.986  1.00  0.00     0.074 A 
ATOM     37  C   UNL A   1      38.055  32.895  32.879  1.00  0.00     0.049 A 
ATOM     38  N   UNL A   1      39.420  30.599  31.461  1.00  0.00    -0.248 NA
ATOM     39  C   UNL A   1      38.016  30.973  29.633  1.00  0.00     0.031 C 
ATOM     40  C   UNL A   1      37.378  33.956  33.629  1.00  0.00     0.029 A 
ATOM     41  N   UNL A   1      39.040  32.465  33.730  1.00  0.00    -0.354 N 
ATOM     42  C   UNL A   1      39.686  29.657  30.473  1.00  0.00     0.074 A 
ATOM     43  C   UNL A   1      38.734  29.885  29.406  1.00  0.00     0.031 C 
ATOM     44  C   UNL A   1      37.985  34.109  34.818  1.00  0.00     0.029 A 
ATOM     45  C   UNL A   1      39.062  33.132  34.933  1.00  0.00     0.049 A 
ATOM     46  H   UNL A   1      39.672  31.745  33.502  1.00  0.00     0.167 HD
ATOM     47  C   UNL A   1      40.654  28.708  30.446  1.00  0.00     0.034 A 
ATOM     48  C   UNL A   1      39.859  32.967  36.007  1.00  0.00     0.034 A 
ATOM     49  C   UNL A   1      41.607  28.516  31.509  1.00  0.00     0.049 A 
ATOM     50  C   UNL A   1      40.929  31.906  35.955  1.00  0.00     0.074 A 
ATOM     51  C   UNL A   1      42.665  27.627  31.572  1.00  0.00     0.029 A 
ATOM     52  N   UNL A   1      41.616  29.228  32.704  1.00  0.00    -0.354 N 
ATOM     53  N   UNL A   1      41.202  31.053  34.994  1.00  0.00    -0.248 NA
ATOM     54  C   UNL A   1      41.806  31.795  37.127  1.00  0.00     0.031 C 
ATOM     55  C   UNL A   1      43.279  27.763  32.822  1.00  0.00     0.029 A 
ATOM     56  C   UNL A   1      42.647  28.784  33.516  1.00  0.00     0.049 A 
ATOM     57  H   UNL A   1      40.982  29.943  32.938  1.00  0.00     0.167 HD
ATOM     58  C   UNL A   1      42.302  30.325  35.435  1.00  0.00     0.074 A 
ATOM     59  C   UNL A   1      42.649  30.849  36.741  1.00  0.00     0.031 C 
ATOM     60  C   UNL A   1      42.970  29.317  34.818  1.00  0.00     0.034 A 
BRANCH  47  61
ATOM     61  C   UNL A   1      40.704  27.808  29.235  1.00  0.00     0.023 A 
ATOM     62  C   UNL A   1      41.649  28.004  28.211  1.00  0.00     0.031 A 
ATOM     63  C   UNL A   1      39.768  26.772  29.075  1.00  0.00     0.131 A 
ATOM     64  C   UNL A   1      41.580  27.239  27.038  1.00  0.00     0.055 A 
ATOM     65  C   UNL A   1      39.760  25.956  27.942  1.00  0.00     0.041 A 
ATOM     66  F   UNL A   1      38.829  26.549  30.008  1.00  0.00    -0.206 F 
ATOM     67  C   UNL A   1      40.659  26.199  26.907  1.00  0.00     0.022 A 
BRANCH  64  68
ATOM     68  S   UNL A   1      42.609  27.728  25.626  1.00  0.00     0.124 S 
ATOM     69  O   UNL A   1      42.570  26.522  24.803  1.00  0.00    -0.237 OA
ATOM     70  O   UNL A   1      41.894  28.885  25.099  1.00  0.00    -0.237 OA
ATOM     71  O   UNL A   1      43.906  28.018  26.233  1.00  0.00    -0.744 OA
ENDBRANCH  64  68
ENDBRANCH  47  61
BRANCH  48  72
ATOM     72  C   UNL A   1      39.684  33.816  37.218  1.00  0.00     0.023 A 
ATOM     73  C   UNL A   1      39.018  33.325  38.352  1.00  0.00     0.031 A 
ATOM     74  C   UNL A   1      40.147  35.144  37.249  1.00  0.00     0.131 A 
ATOM     75  C   UNL A   1      38.788  34.168  39.450  1.00  0.00     0.055 A 
ATOM     76  C   UNL A   1      39.959  35.964  38.364  1.00  0.00     0.041 A 
ATOM     77  F   UNL A   1      40.800  35.660  36.196  1.00  0.00    -0.206 F 
ATOM     78  C   UNL A   1      39.263  35.481  39.468  1.00  0.00     0.022 A 
BRANCH  75  79
ATOM     79  S   UNL A   1      37.786  33.546  40.827  1.00  0.00     0.124 S 
ATOM     80  O   UNL A   1      37.049  34.740  41.224  1.00  0.00    -0.237 OA
ATOM     81  O   UNL A   1      37.004  32.496  40.180  1.00  0.00    -0.237 OA
ATOM     82  O   UNL A   1      38.780  33.077  41.789  1.00  0.00    -0.744 OA
ENDBRANCH  75  79
ENDBRANCH  48  72
BRANCH  60  83
ATOM     83  C   UNL A   1      44.171  28.757  35.536  1.00  0.00     0.023 A 
ATOM     84  C   UNL A   1      44.051  27.721  36.477  1.00  0.00     0.031 A 
ATOM     85  C   UNL A   1      45.452  29.277  35.278  1.00  0.00     0.131 A 
ATOM     86  C   UNL A   1      45.187  27.272  37.168  1.00  0.00     0.055 A 
ATOM     87  C   UNL A   1      46.586  28.788  35.926  1.00  0.00     0.041 A 
ATOM     88  F   UNL A   1      45.620  30.268  34.388  1.00  0.00    -0.206 F 
ATOM     89  C   UNL A   1      46.455  27.788  36.885  1.00  0.00     0.022 A 
BRANCH  86  90
ATOM     90  S   UNL A   1      44.974  26.060  38.499  1.00  0.00     0.124 S 
ATOM     91  O   UNL A   1      46.337  25.918  39.001  1.00  0.00    -0.237 OA
ATOM     92  O   UNL A   1      44.033  26.734  39.388  1.00  0.00    -0.237 OA
ATOM     93  O   UNL A   1      44.441  24.885  37.811  1.00  0.00    -0.744 OA
ENDBRANCH  86  90
ENDBRANCH  60  83
ENDBRANCH  34  35
ENDBRANCH  26  29
ENDBRANCH  24  25
ENDBRANCH   1  24
TORSDOF 16
ENDMDL
MODEL 3
REMARK VINA RESULT:     -11.3      3.163      4.784
REMARK SMILES C=CC[N@H+]1C[C@@H](C(=O)NCCCCNC(=O)c2ccc(-c3c4nc(c(-c5cc(S(=O)(=O)[O-])ccc5F)c5ccc([nH]5)c(-c5cc(S(=O)(=O)[O-])ccc5F)c5nc(c(-c6cc(S(=O)(=O)[O-])ccc6F)c6ccc3[nH]6)C=C5)C=C4)cc2)C2(CC[NH+](C)CC2)C1
REMARK SMILES IDX 12 1 11 2 10 3 9 4 7 5 8 6 6 8 4 9 5 10 87 11 80 13 81 14
REMARK SMILES IDX 86 15 82 16 85 17 83 18 84 19 3 21 2 22 1 23 13 24 14 25
REMARK SMILES IDX 15 26 16 28 17 29 18 30 79 31 19 32 78 33 20 34 21 35 22 36
REMARK SMILES IDX 72 37 23 38 77 39 71 40 73 41 24 42 76 43 70 44 69 45 25 47
REMARK SMILES IDX 57 48 37 49 56 50 38 51 41 52 55 53 74 54 39 55 40 56 54 58
REMARK SMILES IDX 75 59 42 60 26 61 27 62 35 63 28 64 34 65 36 66 33 67 29 68
REMARK SMILES IDX 30 69 31 70 32 71 58 72 59 73 67 74 60 75 66 76 68 77 65 78
REMARK SMILES IDX 61 79 62 80 63 81 64 82 43 83 44 84 52 85 45 86 51 87 53 88
REMARK SMILES IDX 50 89 46 90 47 91 48 92 49 93
REMARK H PARENT 9 7 4 12 83 20 14 27 73 46 41 57
REMARK Flexibility Score: inf
ROOT
ATOM      1  C   UNL A   1      32.307  27.944  25.672  1.00  0.00     0.023 C 
ENDROOT
BRANCH   1   2
ATOM      2  C   UNL A   1      33.063  26.642  25.416  1.00  0.00     0.023 C 
BRANCH   2   3
ATOM      3  C   UNL A   1      32.320  25.645  24.527  1.00  0.00     0.116 C 
BRANCH   3   4
ATOM      4  N   UNL A   1      31.731  24.544  25.267  1.00  0.00    -0.356 N 
ATOM      5  C   UNL A   1      31.970  23.208  25.296  1.00  0.00     0.229 C 
ATOM      6  O   UNL A   1      31.332  22.565  26.139  1.00  0.00    -0.275 OA
ATOM      7  H   UNL A   1      31.008  24.825  25.873  1.00  0.00     0.163 HD
BRANCH   5   8
ATOM      8  C   UNL A   1      32.929  22.458  24.367  1.00  0.00     0.145 C 
ATOM      9  N   UNL A   1      33.152  20.150  23.844  1.00  0.00    -0.331 N 
ATOM     10  C   UNL A   1      32.258  21.293  23.640  1.00  0.00     0.276 C 
ATOM     11  C   UNL A   1      33.932  20.384  25.055  1.00  0.00     0.270 C 
ATOM     12  H   UNL A   1      33.800  20.091  23.058  1.00  0.00     0.348 HD
ATOM     13  C   UNL A   1      34.251  21.886  24.953  1.00  0.00     0.047 C 
ATOM     14  C   UNL A   1      34.693  22.511  26.286  1.00  0.00     0.075 C 
ATOM     15  C   UNL A   1      35.428  22.044  23.936  1.00  0.00     0.075 C 
ATOM     16  C   UNL A   1      35.269  23.921  26.128  1.00  0.00     0.262 C 
ATOM     17  C   UNL A   1      36.026  23.453  23.893  1.00  0.00     0.262 C 
ATOM     18  N   UNL A   1      36.403  23.983  25.205  1.00  0.00    -0.337 N 
ATOM     19  C   UNL A   1      37.597  23.349  25.757  1.00  0.00     0.332 C 
ATOM     20  H   UNL A   1      36.654  24.963  25.073  1.00  0.00     0.347 HD
BRANCH   9  21
ATOM     21  C   UNL A   1      32.504  18.852  23.758  1.00  0.00     0.290 C 
BRANCH  21  22
ATOM     22  C   UNL A   1      33.508  17.782  24.078  1.00  0.00     0.025 C 
ATOM     23  C   UNL A   1      34.029  16.958  23.159  1.00  0.00     0.010 C 
ENDBRANCH  21  22
ENDBRANCH   9  21
ENDBRANCH   5   8
ENDBRANCH   3   4
ENDBRANCH   2   3
ENDBRANCH   1   2
BRANCH   1  24
ATOM     24  C   UNL A   1      33.092  29.196  25.313  1.00  0.00     0.116 C 
BRANCH  24  25
ATOM     25  N   UNL A   1      32.486  30.412  25.841  1.00  0.00    -0.352 N 
ATOM     26  C   UNL A   1      32.918  31.198  26.879  1.00  0.00     0.251 C 
ATOM     27  H   UNL A   1      31.659  30.708  25.395  1.00  0.00     0.163 HD
ATOM     28  O   UNL A   1      32.219  32.114  27.297  1.00  0.00    -0.269 OA
BRANCH  26  29
ATOM     29  C   UNL A   1      34.220  30.890  27.496  1.00  0.00     0.039 A 
ATOM     30  C   UNL A   1      35.126  31.926  27.726  1.00  0.00     0.014 A 
ATOM     31  C   UNL A   1      34.497  29.586  27.918  1.00  0.00     0.014 A 
ATOM     32  C   UNL A   1      36.290  31.664  28.447  1.00  0.00     0.010 A 
ATOM     33  C   UNL A   1      35.612  29.348  28.706  1.00  0.00     0.010 A 
ATOM     34  C   UNL A   1      36.521  30.382  28.975  1.00  0.00    -0.014 A 
BRANCH  34  35
ATOM     35  C   UNL A   1      37.720  30.088  29.796  1.00  0.00     0.031 A 
ATOM     36  C   UNL A   1      38.786  29.183  29.247  1.00  0.00     0.074 A 
ATOM     37  C   UNL A   1      37.803  30.567  31.053  1.00  0.00     0.049 A 
ATOM     38  N   UNL A   1      39.853  28.707  29.835  1.00  0.00    -0.248 NA
ATOM     39  C   UNL A   1      38.601  28.717  27.864  1.00  0.00     0.031 C 
ATOM     40  C   UNL A   1      36.802  31.414  31.707  1.00  0.00     0.029 A 
ATOM     41  N   UNL A   1      38.770  30.400  32.011  1.00  0.00    -0.354 N 
ATOM     42  C   UNL A   1      40.454  27.870  28.900  1.00  0.00     0.074 A 
ATOM     43  C   UNL A   1      39.593  27.851  27.737  1.00  0.00     0.031 C 
ATOM     44  C   UNL A   1      37.220  31.711  32.948  1.00  0.00     0.029 A 
ATOM     45  C   UNL A   1      38.494  31.044  33.195  1.00  0.00     0.049 A 
ATOM     46  H   UNL A   1      39.586  29.868  31.865  1.00  0.00     0.167 HD
ATOM     47  C   UNL A   1      41.631  27.203  28.994  1.00  0.00     0.034 A 
ATOM     48  C   UNL A   1      39.189  31.084  34.348  1.00  0.00     0.034 A 
ATOM     49  C   UNL A   1      42.484  27.257  30.154  1.00  0.00     0.049 A 
ATOM     50  C   UNL A   1      40.495  30.335  34.431  1.00  0.00     0.074 A 
ATOM     51  C   UNL A   1      43.722  26.669  30.345  1.00  0.00     0.029 A 
ATOM     52  N   UNL A   1      42.184  27.941  31.327  1.00  0.00    -0.354 N 
ATOM     53  N   UNL A   1      41.076  29.586  33.522  1.00  0.00    -0.248 NA
ATOM     54  C   UNL A   1      41.242  30.446  35.689  1.00  0.00     0.031 C 
ATOM     55  C   UNL A   1      44.145  26.953  31.649  1.00  0.00     0.029 A 
ATOM     56  C   UNL A   1      43.203  27.772  32.250  1.00  0.00     0.049 A 
ATOM     57  H   UNL A   1      41.367  28.467  31.479  1.00  0.00     0.167 HD
ATOM     58  C   UNL A   1      42.274  29.163  34.090  1.00  0.00     0.074 A 
ATOM     59  C   UNL A   1      42.335  29.751  35.413  1.00  0.00     0.031 C 
ATOM     60  C   UNL A   1      43.239  28.364  33.567  1.00  0.00     0.034 A 
BRANCH  47  61
ATOM     61  C   UNL A   1      42.037  26.353  27.815  1.00  0.00     0.023 A 
ATOM     62  C   UNL A   1      41.677  24.995  27.726  1.00  0.00     0.031 A 
ATOM     63  C   UNL A   1      42.836  26.889  26.789  1.00  0.00     0.131 A 
ATOM     64  C   UNL A   1      42.186  24.201  26.689  1.00  0.00     0.055 A 
ATOM     65  C   UNL A   1      43.267  26.112  25.712  1.00  0.00     0.041 A 
ATOM     66  F   UNL A   1      43.229  28.171  26.828  1.00  0.00    -0.206 F 
ATOM     67  C   UNL A   1      42.957  24.755  25.667  1.00  0.00     0.022 A 
BRANCH  64  68
ATOM     68  S   UNL A   1      41.954  22.405  26.784  1.00  0.00     0.124 S 
ATOM     69  O   UNL A   1      42.248  21.997  25.412  1.00  0.00    -0.237 OA
ATOM     70  O   UNL A   1      42.933  22.011  27.791  1.00  0.00    -0.237 OA
ATOM     71  O   UNL A   1      40.556  22.261  27.182  1.00  0.00    -0.744 OA
ENDBRANCH  64  68
ENDBRANCH  47  61
BRANCH  48  72
ATOM     72  C   UNL A   1      38.675  31.853  35.516  1.00  0.00     0.023 A 
ATOM     73  C   UNL A   1      38.152  31.192  36.639  1.00  0.00     0.031 A 
ATOM     74  C   UNL A   1      38.666  33.259  35.514  1.00  0.00     0.131 A 
ATOM     75  C   UNL A   1      37.595  31.935  37.692  1.00  0.00     0.055 A 
ATOM     76  C   UNL A   1      38.155  33.994  36.586  1.00  0.00     0.041 A 
ATOM     77  F   UNL A   1      39.165  33.940  34.470  1.00  0.00    -0.206 F 
ATOM     78  C   UNL A   1      37.602  33.331  37.678  1.00  0.00     0.022 A 
BRANCH  75  79
ATOM     79  S   UNL A   1      36.785  31.044  39.048  1.00  0.00     0.124 S 
ATOM     80  O   UNL A   1      36.653  29.704  38.488  1.00  0.00    -0.237 OA
ATOM     81  O   UNL A   1      37.754  31.194  40.129  1.00  0.00    -0.237 OA
ATOM     82  O   UNL A   1      35.531  31.771  39.233  1.00  0.00    -0.744 OA
ENDBRANCH  75  79
ENDBRANCH  48  72
BRANCH  60  83
ATOM     83  C   UNL A   1      44.461  28.128  34.417  1.00  0.00     0.023 A 
ATOM     84  C   UNL A   1      44.531  27.062  35.330  1.00  0.00     0.031 A 
ATOM     85  C   UNL A   1      45.567  28.991  34.316  1.00  0.00     0.131 A 
ATOM     86  C   UNL A   1      45.663  26.916  36.145  1.00  0.00     0.055 A 
ATOM     87  C   UNL A   1      46.713  28.807  35.089  1.00  0.00     0.041 A 
ATOM     88  F   UNL A   1      45.551  30.025  33.460  1.00  0.00    -0.206 F 
ATOM     89  C   UNL A   1      46.761  27.772  36.019  1.00  0.00     0.022 A 
BRANCH  86  90
ATOM     90  S   UNL A   1      45.650  25.639  37.432  1.00  0.00     0.124 S 
ATOM     91  O   UNL A   1      45.118  24.487  36.711  1.00  0.00    -0.237 OA
ATOM     92  O   UNL A   1      47.057  25.560  37.811  1.00  0.00    -0.237 OA
ATOM     93  O   UNL A   1      44.765  26.193  38.456  1.00  0.00    -0.744 OA
ENDBRANCH  86  90
ENDBRANCH  60  83
ENDBRANCH  34  35
ENDBRANCH  26  29
ENDBRANCH  24  25
ENDBRANCH   1  24
TORSDOF 16
ENDMDL
