MODEL 1
REMARK VINA RESULT:     -11.6      0.000      0.000
REMARK SMILES C[C@@](NC(=O)c1cc(Br)c[nH]1)(C(=O)NCCCCNC(=O)c1ccc(-c2c3nc(c(-c4cc(S(=O)(=O)[O-])ccc4F)c4ccc([nH]4)c(-c4cc(S(=O)(=O)[O-])ccc4F)c4nc(c(-c5cc(S(=O)(=O)[O-])ccc5F)c5ccc2[nH]5)C=C4)C=C3)cc1)C(F)(F)F
REMARK SMILES IDX 17 1 16 2 15 3 14 4 12 5 13 6 2 8 1 9 3 10 4 11 5 13 6 14
REMARK SMILES IDX 7 15 11 16 8 17 10 18 9 20 85 21 86 22 87 23 88 24 18 25
REMARK SMILES IDX 19 26 20 27 21 29 22 30 23 31 84 32 24 33 83 34 25 35 26 36
REMARK SMILES IDX 27 37 77 38 28 39 82 40 76 41 78 42 29 43 81 44 75 45 74 46
REMARK SMILES IDX 30 48 62 49 42 50 61 51 43 52 46 53 60 54 79 55 44 56 45 57
REMARK SMILES IDX 59 59 80 60 47 61 31 62 32 63 40 64 33 65 39 66 41 67 38 68
REMARK SMILES IDX 34 69 35 70 36 71 37 72 63 73 64 74 72 75 65 76 71 77 73 78
REMARK SMILES IDX 70 79 66 80 67 81 68 82 69 83 48 84 49 85 57 86 50 87 56 88
REMARK SMILES IDX 58 89 55 90 51 91 52 92 53 93 54 94
REMARK H PARENT 14 7 3 12 11 19 19 28 78 47 46 58
REMARK Flexibility Score: inf
ROOT
ATOM      1  C   UNL A   1      36.104  20.842  25.143  1.00  0.00     0.023 C 
ENDROOT
BRANCH   1   2
ATOM      2  C   UNL A   1      35.321  21.659  26.176  1.00  0.00     0.023 C 
BRANCH   2   3
ATOM      3  C   UNL A   1      33.847  21.283  26.293  1.00  0.00     0.116 C 
BRANCH   3   4
ATOM      4  N   UNL A   1      33.303  20.876  25.008  1.00  0.00    -0.354 N 
ATOM      5  C   UNL A   1      32.612  21.578  24.065  1.00  0.00     0.254 C 
ATOM      6  O   UNL A   1      32.268  20.954  23.058  1.00  0.00    -0.272 OA
ATOM      7  H   UNL A   1      33.462  19.932  24.778  1.00  0.00     0.163 HD
BRANCH   5   8
ATOM      8  C   UNL A   1      32.172  23.034  24.292  1.00  0.00     0.212 C 
ATOM      9  C   UNL A   1      31.048  23.335  23.273  1.00  0.00     0.056 C 
BRANCH   8  10
ATOM     10  N   UNL A   1      31.644  23.311  25.662  1.00  0.00    -0.329 N 
ATOM     11  C   UNL A   1      30.648  24.150  26.096  1.00  0.00     0.268 C 
ATOM     12  H   UNL A   1      32.089  22.804  26.379  1.00  0.00     0.165 HD
ATOM     13  O   UNL A   1      30.162  23.899  27.199  1.00  0.00    -0.268 OA
BRANCH  11  14
ATOM     14  C   UNL A   1      30.338  25.352  25.366  1.00  0.00     0.105 A 
ATOM     15  C   UNL A   1      31.125  26.498  25.307  1.00  0.00     0.049 A 
ATOM     16  N   UNL A   1      29.198  25.631  24.639  1.00  0.00    -0.356 N 
ATOM     17  C   UNL A   1      30.517  27.386  24.405  1.00  0.00     0.036 A 
ATOM     18  C   UNL A   1      29.333  26.836  23.993  1.00  0.00     0.098 A 
ATOM     19  H   UNL A   1      28.405  25.050  24.589  1.00  0.00     0.166 HD
ATOM     20  Br  UNL A   1      31.257  29.018  23.867  1.00  0.00    -0.049 Br
ENDBRANCH  11  14
ENDBRANCH   8  10
BRANCH   8  21
ATOM     21  C   UNL A   1      33.354  23.964  23.939  1.00  0.00     0.420 C 
ATOM     22  F   UNL A   1      33.933  24.534  25.016  1.00  0.00    -0.168 F 
ATOM     23  F   UNL A   1      34.331  23.243  23.321  1.00  0.00    -0.168 F 
ATOM     24  F   UNL A   1      33.006  24.945  23.074  1.00  0.00    -0.168 F 
ENDBRANCH   8  21
ENDBRANCH   5   8
ENDBRANCH   3   4
ENDBRANCH   2   3
ENDBRANCH   1   2
BRANCH   1  25
ATOM     25  C   UNL A   1      37.580  21.210  25.011  1.00  0.00     0.116 C 
BRANCH  25  26
ATOM     26  N   UNL A   1      38.459  20.167  25.515  1.00  0.00    -0.352 N 
ATOM     27  C   UNL A   1      39.670  20.291  26.155  1.00  0.00     0.251 C 
ATOM     28  H   UNL A   1      38.145  19.245  25.379  1.00  0.00     0.163 HD
ATOM     29  O   UNL A   1      40.361  19.297  26.350  1.00  0.00    -0.269 OA
BRANCH  27  30
ATOM     30  C   UNL A   1      40.139  21.629  26.572  1.00  0.00     0.039 A 
ATOM     31  C   UNL A   1      41.132  21.724  27.551  1.00  0.00     0.014 A 
ATOM     32  C   UNL A   1      39.617  22.784  25.981  1.00  0.00     0.014 A 
ATOM     33  C   UNL A   1      41.651  22.977  27.887  1.00  0.00     0.010 A 
ATOM     34  C   UNL A   1      40.183  24.023  26.269  1.00  0.00     0.010 A 
ATOM     35  C   UNL A   1      41.207  24.131  27.222  1.00  0.00    -0.014 A 
BRANCH  35  36
ATOM     36  C   UNL A   1      41.804  25.461  27.512  1.00  0.00     0.031 A 
ATOM     37  C   UNL A   1      41.020  26.486  28.284  1.00  0.00     0.074 A 
ATOM     38  C   UNL A   1      43.023  25.766  27.025  1.00  0.00     0.049 A 
ATOM     39  N   UNL A   1      41.333  27.722  28.574  1.00  0.00    -0.248 NA
ATOM     40  C   UNL A   1      39.695  26.071  28.767  1.00  0.00     0.031 C 
ATOM     41  C   UNL A   1      43.861  24.870  26.224  1.00  0.00     0.029 A 
ATOM     42  N   UNL A   1      43.767  26.915  27.122  1.00  0.00    -0.354 N 
ATOM     43  C   UNL A   1      40.243  28.238  29.266  1.00  0.00     0.074 A 
ATOM     44  C   UNL A   1      39.236  27.197  29.292  1.00  0.00     0.031 C 
ATOM     45  C   UNL A   1      45.008  25.498  25.917  1.00  0.00     0.029 A 
ATOM     46  C   UNL A   1      44.972  26.851  26.463  1.00  0.00     0.049 A 
ATOM     47  H   UNL A   1      43.465  27.711  27.616  1.00  0.00     0.167 HD
ATOM     48  C   UNL A   1      40.101  29.456  29.845  1.00  0.00     0.034 A 
ATOM     49  C   UNL A   1      45.935  27.781  26.305  1.00  0.00     0.034 A 
ATOM     50  C   UNL A   1      41.117  30.480  29.814  1.00  0.00     0.049 A 
ATOM     51  C   UNL A   1      45.752  29.135  26.941  1.00  0.00     0.074 A 
ATOM     52  C   UNL A   1      41.101  31.732  30.406  1.00  0.00     0.029 A 
ATOM     53  N   UNL A   1      42.331  30.377  29.146  1.00  0.00    -0.354 N 
ATOM     54  N   UNL A   1      44.734  29.591  27.635  1.00  0.00    -0.248 NA
ATOM     55  C   UNL A   1      46.852  30.095  26.785  1.00  0.00     0.031 C 
ATOM     56  C   UNL A   1      42.273  32.404  30.047  1.00  0.00     0.029 A 
ATOM     57  C   UNL A   1      43.058  31.549  29.289  1.00  0.00     0.049 A 
ATOM     58  H   UNL A   1      42.632  29.586  28.643  1.00  0.00     0.167 HD
ATOM     59  C   UNL A   1      45.085  30.881  28.020  1.00  0.00     0.074 A 
ATOM     60  C   UNL A   1      46.412  31.124  27.494  1.00  0.00     0.031 C 
ATOM     61  C   UNL A   1      44.376  31.782  28.747  1.00  0.00     0.034 A 
BRANCH  48  62
ATOM     62  C   UNL A   1      38.790  29.744  30.537  1.00  0.00     0.023 A 
ATOM     63  C   UNL A   1      37.781  30.503  29.915  1.00  0.00     0.031 A 
ATOM     64  C   UNL A   1      38.558  29.291  31.846  1.00  0.00     0.131 A 
ATOM     65  C   UNL A   1      36.628  30.856  30.631  1.00  0.00     0.055 A 
ATOM     66  C   UNL A   1      37.370  29.574  32.524  1.00  0.00     0.041 A 
ATOM     67  F   UNL A   1      39.489  28.579  32.500  1.00  0.00    -0.206 F 
ATOM     68  C   UNL A   1      36.402  30.376  31.922  1.00  0.00     0.022 A 
BRANCH  65  69
ATOM     69  S   UNL A   1      35.498  32.074  29.903  1.00  0.00     0.124 S 
ATOM     70  O   UNL A   1      34.927  31.319  28.790  1.00  0.00    -0.237 OA
ATOM     71  O   UNL A   1      34.593  32.365  31.008  1.00  0.00    -0.237 OA
ATOM     72  O   UNL A   1      36.382  33.171  29.513  1.00  0.00    -0.744 OA
ENDBRANCH  65  69
ENDBRANCH  48  62
BRANCH  49  73
ATOM     73  C   UNL A   1      47.154  27.475  25.504  1.00  0.00     0.023 A 
ATOM     74  C   UNL A   1      47.234  27.823  24.146  1.00  0.00     0.031 A 
ATOM     75  C   UNL A   1      48.244  26.798  26.078  1.00  0.00     0.131 A 
ATOM     76  C   UNL A   1      48.363  27.455  23.396  1.00  0.00     0.055 A 
ATOM     77  C   UNL A   1      49.385  26.478  25.341  1.00  0.00     0.041 A 
ATOM     78  F   UNL A   1      48.221  26.451  27.375  1.00  0.00    -0.206 F 
ATOM     79  C   UNL A   1      49.444  26.795  23.987  1.00  0.00     0.022 A 
BRANCH  76  80
ATOM     80  S   UNL A   1      48.369  27.789  21.614  1.00  0.00     0.124 S 
ATOM     81  O   UNL A   1      48.611  26.460  21.063  1.00  0.00    -0.237 OA
ATOM     82  O   UNL A   1      47.032  28.336  21.405  1.00  0.00    -0.237 OA
ATOM     83  O   UNL A   1      49.463  28.743  21.449  1.00  0.00    -0.744 OA
ENDBRANCH  76  80
ENDBRANCH  49  73
BRANCH  61  84
ATOM     84  C   UNL A   1      45.050  33.099  29.048  1.00  0.00     0.023 A 
ATOM     85  C   UNL A   1      44.838  34.238  28.252  1.00  0.00     0.031 A 
ATOM     86  C   UNL A   1      45.926  33.209  30.142  1.00  0.00     0.131 A 
ATOM     87  C   UNL A   1      45.537  35.423  28.530  1.00  0.00     0.055 A 
ATOM     88  C   UNL A   1      46.574  34.406  30.448  1.00  0.00     0.041 A 
ATOM     89  F   UNL A   1      46.166  32.151  30.934  1.00  0.00    -0.206 F 
ATOM     90  C   UNL A   1      46.391  35.518  29.632  1.00  0.00     0.022 A 
BRANCH  87  91
ATOM     91  S   UNL A   1      45.380  36.818  27.380  1.00  0.00     0.124 S 
ATOM     92  O   UNL A   1      44.003  36.677  26.917  1.00  0.00    -0.237 OA
ATOM     93  O   UNL A   1      45.648  37.965  28.241  1.00  0.00    -0.237 OA
ATOM     94  O   UNL A   1      46.403  36.548  26.371  1.00  0.00    -0.744 OA
ENDBRANCH  87  91
ENDBRANCH  61  84
ENDBRANCH  35  36
ENDBRANCH  27  30
ENDBRANCH  25  26
ENDBRANCH   1  25
TORSDOF 17
ENDMDL
MODEL 2
REMARK VINA RESULT:     -11.5      5.184      7.933
REMARK SMILES C[C@@](NC(=O)c1cc(Br)c[nH]1)(C(=O)NCCCCNC(=O)c1ccc(-c2c3nc(c(-c4cc(S(=O)(=O)[O-])ccc4F)c4ccc([nH]4)c(-c4cc(S(=O)(=O)[O-])ccc4F)c4nc(c(-c5cc(S(=O)(=O)[O-])ccc5F)c5ccc2[nH]5)C=C4)C=C3)cc1)C(F)(F)F
REMARK SMILES IDX 17 1 16 2 15 3 14 4 12 5 13 6 2 8 1 9 3 10 4 11 5 13 6 14
REMARK SMILES IDX 7 15 11 16 8 17 10 18 9 20 85 21 86 22 87 23 88 24 18 25
REMARK SMILES IDX 19 26 20 27 21 29 22 30 23 31 84 32 24 33 83 34 25 35 26 36
REMARK SMILES IDX 27 37 77 38 28 39 82 40 76 41 78 42 29 43 81 44 75 45 74 46
REMARK SMILES IDX 30 48 62 49 42 50 61 51 43 52 46 53 60 54 79 55 44 56 45 57
REMARK SMILES IDX 59 59 80 60 47 61 31 62 32 63 40 64 33 65 39 66 41 67 38 68
REMARK SMILES IDX 34 69 35 70 36 71 37 72 63 73 64 74 72 75 65 76 71 77 73 78
REMARK SMILES IDX 70 79 66 80 67 81 68 82 69 83 48 84 49 85 57 86 50 87 56 88
REMARK SMILES IDX 58 89 55 90 51 91 52 92 53 93 54 94
REMARK H PARENT 14 7 3 12 11 19 19 28 78 47 46 58
REMARK Flexibility Score: inf
ROOT
ATOM      1  C   UNL A   1      32.850  29.509  25.403  1.00  0.00     0.023 C 
ENDROOT
BRANCH   1   2
ATOM      2  C   UNL A   1      33.953  28.446  25.383  1.00  0.00     0.023 C 
BRANCH   2   3
ATOM      3  C   UNL A   1      33.474  27.031  25.694  1.00  0.00     0.116 C 
BRANCH   3   4
ATOM      4  N   UNL A   1      33.669  26.148  24.556  1.00  0.00    -0.354 N 
ATOM      5  C   UNL A   1      32.787  25.373  23.862  1.00  0.00     0.254 C 
ATOM      6  O   UNL A   1      33.252  24.712  22.930  1.00  0.00    -0.272 OA
ATOM      7  H   UNL A   1      34.597  26.101  24.230  1.00  0.00     0.163 HD
BRANCH   5   8
ATOM      8  C   UNL A   1      31.317  25.227  24.289  1.00  0.00     0.212 C 
ATOM      9  C   UNL A   1      30.653  24.233  23.308  1.00  0.00     0.056 C 
BRANCH   8  10
ATOM     10  N   UNL A   1      31.128  24.708  25.677  1.00  0.00    -0.329 N 
ATOM     11  C   UNL A   1      31.818  23.761  26.391  1.00  0.00     0.268 C 
ATOM     12  H   UNL A   1      30.376  25.116  26.165  1.00  0.00     0.165 HD
ATOM     13  O   UNL A   1      31.703  23.807  27.616  1.00  0.00    -0.268 OA
BRANCH  11  14
ATOM     14  C   UNL A   1      32.480  22.676  25.714  1.00  0.00     0.105 A 
ATOM     15  C   UNL A   1      31.910  21.451  25.381  1.00  0.00     0.049 A 
ATOM     16  N   UNL A   1      33.799  22.608  25.313  1.00  0.00    -0.356 N 
ATOM     17  C   UNL A   1      32.857  20.729  24.636  1.00  0.00     0.036 A 
ATOM     18  C   UNL A   1      34.015  21.457  24.594  1.00  0.00     0.098 A 
ATOM     19  H   UNL A   1      34.485  23.284  25.513  1.00  0.00     0.166 HD
ATOM     20  Br  UNL A   1      32.528  19.073  23.832  1.00  0.00    -0.049 Br
ENDBRANCH  11  14
ENDBRANCH   8  10
BRANCH   8  21
ATOM     21  C   UNL A   1      30.612  26.587  24.089  1.00  0.00     0.420 C 
ATOM     22  F   UNL A   1      31.266  27.417  23.249  1.00  0.00    -0.168 F 
ATOM     23  F   UNL A   1      29.381  26.386  23.540  1.00  0.00    -0.168 F 
ATOM     24  F   UNL A   1      30.401  27.242  25.254  1.00  0.00    -0.168 F 
ENDBRANCH   8  21
ENDBRANCH   5   8
ENDBRANCH   3   4
ENDBRANCH   2   3
ENDBRANCH   1   2
BRANCH   1  25
ATOM     25  C   UNL A   1      32.466  30.016  26.791  1.00  0.00     0.116 C 
BRANCH  25  26
ATOM     26  N   UNL A   1      32.496  31.468  26.879  1.00  0.00    -0.352 N 
ATOM     27  C   UNL A   1      33.419  32.278  27.497  1.00  0.00     0.251 C 
ATOM     28  H   UNL A   1      31.753  31.935  26.434  1.00  0.00     0.163 HD
ATOM     29  O   UNL A   1      33.190  33.476  27.626  1.00  0.00    -0.269 OA
BRANCH  27  30
ATOM     30  C   UNL A   1      34.664  31.687  28.030  1.00  0.00     0.039 A 
ATOM     31  C   UNL A   1      35.802  32.491  28.141  1.00  0.00     0.014 A 
ATOM     32  C   UNL A   1      34.701  30.351  28.440  1.00  0.00     0.014 A 
ATOM     33  C   UNL A   1      36.958  31.973  28.729  1.00  0.00     0.010 A 
ATOM     34  C   UNL A   1      35.832  29.858  29.086  1.00  0.00     0.010 A 
ATOM     35  C   UNL A   1      36.970  30.664  29.241  1.00  0.00    -0.014 A 
BRANCH  35  36
ATOM     36  C   UNL A   1      38.165  30.124  29.939  1.00  0.00     0.031 A 
ATOM     37  C   UNL A   1      38.503  30.595  31.327  1.00  0.00     0.074 A 
ATOM     38  C   UNL A   1      38.978  29.260  29.300  1.00  0.00     0.049 A 
ATOM     39  N   UNL A   1      39.537  30.302  32.072  1.00  0.00    -0.248 NA
ATOM     40  C   UNL A   1      37.566  31.546  31.943  1.00  0.00     0.031 C 
ATOM     41  C   UNL A   1      38.779  28.765  27.935  1.00  0.00     0.029 A 
ATOM     42  N   UNL A   1      40.140  28.654  29.705  1.00  0.00    -0.354 N 
ATOM     43  C   UNL A   1      39.382  31.037  33.242  1.00  0.00     0.074 A 
ATOM     44  C   UNL A   1      38.187  31.839  33.076  1.00  0.00     0.031 C 
ATOM     45  C   UNL A   1      39.775  27.919  27.625  1.00  0.00     0.029 A 
ATOM     46  C   UNL A   1      40.703  27.842  28.748  1.00  0.00     0.049 A 
ATOM     47  H   UNL A   1      40.534  28.788  30.597  1.00  0.00     0.167 HD
ATOM     48  C   UNL A   1      40.150  31.029  34.360  1.00  0.00     0.034 A 
ATOM     49  C   UNL A   1      41.846  27.126  28.768  1.00  0.00     0.034 A 
ATOM     50  C   UNL A   1      41.335  30.220  34.511  1.00  0.00     0.049 A 
ATOM     51  C   UNL A   1      42.695  27.144  30.013  1.00  0.00     0.074 A 
ATOM     52  C   UNL A   1      42.163  30.097  35.615  1.00  0.00     0.029 A 
ATOM     53  N   UNL A   1      41.871  29.401  33.525  1.00  0.00    -0.354 N 
ATOM     54  N   UNL A   1      42.509  27.807  31.131  1.00  0.00    -0.248 NA
ATOM     55  C   UNL A   1      43.901  26.306  30.005  1.00  0.00     0.031 C 
ATOM     56  C   UNL A   1      43.226  29.254  35.276  1.00  0.00     0.029 A 
ATOM     57  C   UNL A   1      43.029  28.792  33.984  1.00  0.00     0.049 A 
ATOM     58  H   UNL A   1      41.485  29.272  32.629  1.00  0.00     0.167 HD
ATOM     59  C   UNL A   1      43.560  27.444  31.967  1.00  0.00     0.074 A 
ATOM     60  C   UNL A   1      44.367  26.494  31.230  1.00  0.00     0.031 C 
ATOM     61  C   UNL A   1      43.832  27.856  33.232  1.00  0.00     0.034 A 
BRANCH  48  62
ATOM     62  C   UNL A   1      39.737  31.942  35.489  1.00  0.00     0.023 A 
ATOM     63  C   UNL A   1      38.961  31.476  36.567  1.00  0.00     0.031 A 
ATOM     64  C   UNL A   1      40.085  33.303  35.472  1.00  0.00     0.131 A 
ATOM     65  C   UNL A   1      38.490  32.376  37.533  1.00  0.00     0.055 A 
ATOM     66  C   UNL A   1      39.684  34.179  36.484  1.00  0.00     0.041 A 
ATOM     67  F   UNL A   1      40.807  33.813  34.462  1.00  0.00    -0.206 F 
ATOM     68  C   UNL A   1      38.867  33.720  37.514  1.00  0.00     0.022 A 
BRANCH  65  69
ATOM     69  S   UNL A   1      37.257  31.793  38.729  1.00  0.00     0.124 S 
ATOM     70  O   UNL A   1      37.970  31.958  39.993  1.00  0.00    -0.237 OA
ATOM     71  O   UNL A   1      36.142  32.704  38.501  1.00  0.00    -0.237 OA
ATOM     72  O   UNL A   1      37.022  30.407  38.332  1.00  0.00    -0.744 OA
ENDBRANCH  65  69
ENDBRANCH  48  62
BRANCH  49  73
ATOM     73  C   UNL A   1      42.263  26.341  27.572  1.00  0.00     0.023 A 
ATOM     74  C   UNL A   1      41.907  24.990  27.431  1.00  0.00     0.031 A 
ATOM     75  C   UNL A   1      43.055  26.924  26.567  1.00  0.00     0.131 A 
ATOM     76  C   UNL A   1      42.377  24.255  26.332  1.00  0.00     0.055 A 
ATOM     77  C   UNL A   1      43.479  26.201  25.451  1.00  0.00     0.041 A 
ATOM     78  F   UNL A   1      43.416  28.214  26.649  1.00  0.00    -0.206 F 
ATOM     79  C   UNL A   1      43.151  24.854  25.335  1.00  0.00     0.022 A 
BRANCH  76  80
ATOM     80  S   UNL A   1      42.022  22.478  26.260  1.00  0.00     0.124 S 
ATOM     81  O   UNL A   1      42.658  22.098  25.004  1.00  0.00    -0.237 OA
ATOM     82  O   UNL A   1      42.663  21.992  27.477  1.00  0.00    -0.237 OA
ATOM     83  O   UNL A   1      40.562  22.422  26.263  1.00  0.00    -0.744 OA
ENDBRANCH  76  80
ENDBRANCH  49  73
BRANCH  61  84
ATOM     84  C   UNL A   1      45.032  27.241  33.908  1.00  0.00     0.023 A 
ATOM     85  C   UNL A   1      44.932  26.056  34.658  1.00  0.00     0.031 A 
ATOM     86  C   UNL A   1      46.292  27.857  33.809  1.00  0.00     0.131 A 
ATOM     87  C   UNL A   1      46.061  25.555  35.325  1.00  0.00     0.055 A 
ATOM     88  C   UNL A   1      47.423  27.323  34.427  1.00  0.00     0.041 A 
ATOM     89  F   UNL A   1      46.443  28.992  33.107  1.00  0.00    -0.206 F 
ATOM     90  C   UNL A   1      47.308  26.172  35.201  1.00  0.00     0.022 A 
BRANCH  87  91
ATOM     91  S   UNL A   1      45.860  24.130  36.430  1.00  0.00     0.124 S 
ATOM     92  O   UNL A   1      45.186  23.166  35.563  1.00  0.00    -0.237 OA
ATOM     93  O   UNL A   1      47.239  23.811  36.784  1.00  0.00    -0.237 OA
ATOM     94  O   UNL A   1      45.045  24.655  37.524  1.00  0.00    -0.744 OA
ENDBRANCH  87  91
ENDBRANCH  61  84
ENDBRANCH  35  36
ENDBRANCH  27  30
ENDBRANCH  25  26
ENDBRANCH   1  25
TORSDOF 17
ENDMDL
MODEL 3
REMARK VINA RESULT:     -11.5      5.270     10.329
REMARK SMILES C[C@@](NC(=O)c1cc(Br)c[nH]1)(C(=O)NCCCCNC(=O)c1ccc(-c2c3nc(c(-c4cc(S(=O)(=O)[O-])ccc4F)c4ccc([nH]4)c(-c4cc(S(=O)(=O)[O-])ccc4F)c4nc(c(-c5cc(S(=O)(=O)[O-])ccc5F)c5ccc2[nH]5)C=C4)C=C3)cc1)C(F)(F)F
REMARK SMILES IDX 17 1 16 2 15 3 14 4 12 5 13 6 2 8 1 9 3 10 4 11 5 13 6 14
REMARK SMILES IDX 7 15 11 16 8 17 10 18 9 20 85 21 86 22 87 23 88 24 18 25
REMARK SMILES IDX 19 26 20 27 21 29 22 30 23 31 84 32 24 33 83 34 25 35 26 36
REMARK SMILES IDX 27 37 77 38 28 39 82 40 76 41 78 42 29 43 81 44 75 45 74 46
REMARK SMILES IDX 30 48 62 49 42 50 61 51 43 52 46 53 60 54 79 55 44 56 45 57
REMARK SMILES IDX 59 59 80 60 47 61 31 62 32 63 40 64 33 65 39 66 41 67 38 68
REMARK SMILES IDX 34 69 35 70 36 71 37 72 63 73 64 74 72 75 65 76 71 77 73 78
REMARK SMILES IDX 70 79 66 80 67 81 68 82 69 83 48 84 49 85 57 86 50 87 56 88
REMARK SMILES IDX 58 89 55 90 51 91 52 92 53 93 54 94
REMARK H PARENT 14 7 3 12 11 19 19 28 78 47 46 58
REMARK Flexibility Score: inf
ROOT
ATOM      1  C   UNL A   1      32.779  29.373  25.338  1.00  0.00     0.023 C 
ENDROOT
BRANCH   1   2
ATOM      2  C   UNL A   1      33.909  28.345  25.456  1.00  0.00     0.023 C 
BRANCH   2   3
ATOM      3  C   UNL A   1      33.440  26.918  25.721  1.00  0.00     0.116 C 
BRANCH   3   4
ATOM      4  N   UNL A   1      33.635  26.074  24.554  1.00  0.00    -0.354 N 
ATOM      5  C   UNL A   1      32.758  25.300  23.852  1.00  0.00     0.254 C 
ATOM      6  O   UNL A   1      33.221  24.679  22.892  1.00  0.00    -0.272 OA
ATOM      7  H   UNL A   1      34.557  26.060  24.209  1.00  0.00     0.163 HD
BRANCH   5   8
ATOM      8  C   UNL A   1      31.300  25.106  24.301  1.00  0.00     0.212 C 
ATOM      9  C   UNL A   1      30.659  24.079  23.339  1.00  0.00     0.056 C 
BRANCH   8  10
ATOM     10  N   UNL A   1      31.149  24.593  25.696  1.00  0.00    -0.329 N 
ATOM     11  C   UNL A   1      31.863  23.655  26.398  1.00  0.00     0.268 C 
ATOM     12  H   UNL A   1      30.406  25.000  26.200  1.00  0.00     0.165 HD
ATOM     13  O   UNL A   1      31.778  23.707  27.626  1.00  0.00    -0.268 OA
BRANCH  11  14
ATOM     14  C   UNL A   1      32.514  22.570  25.710  1.00  0.00     0.105 A 
ATOM     15  C   UNL A   1      31.935  21.351  25.373  1.00  0.00     0.049 A 
ATOM     16  N   UNL A   1      33.831  22.496  25.303  1.00  0.00    -0.356 N 
ATOM     17  C   UNL A   1      32.874  20.628  24.619  1.00  0.00     0.036 A 
ATOM     18  C   UNL A   1      34.036  21.349  24.575  1.00  0.00     0.098 A 
ATOM     19  H   UNL A   1      34.522  23.167  25.504  1.00  0.00     0.166 HD
ATOM     20  Br  UNL A   1      32.531  18.978  23.806  1.00  0.00    -0.049 Br
ENDBRANCH  11  14
ENDBRANCH   8  10
BRANCH   8  21
ATOM     21  C   UNL A   1      30.544  26.438  24.099  1.00  0.00     0.420 C 
ATOM     22  F   UNL A   1      31.161  27.286  23.249  1.00  0.00    -0.168 F 
ATOM     23  F   UNL A   1      29.318  26.188  23.560  1.00  0.00    -0.168 F 
ATOM     24  F   UNL A   1      30.318  27.092  25.262  1.00  0.00    -0.168 F 
ENDBRANCH   8  21
ENDBRANCH   5   8
ENDBRANCH   3   4
ENDBRANCH   2   3
ENDBRANCH   1   2
BRANCH   1  25
ATOM     25  C   UNL A   1      32.239  29.897  26.667  1.00  0.00     0.116 C 
BRANCH  25  26
ATOM     26  N   UNL A   1      32.153  31.349  26.696  1.00  0.00    -0.352 N 
ATOM     27  C   UNL A   1      32.991  32.252  27.306  1.00  0.00     0.251 C 
ATOM     28  H   UNL A   1      31.390  31.738  26.212  1.00  0.00     0.163 HD
ATOM     29  O   UNL A   1      32.664  33.433  27.380  1.00  0.00    -0.269 OA
BRANCH  27  30
ATOM     30  C   UNL A   1      34.261  31.784  27.897  1.00  0.00     0.039 A 
ATOM     31  C   UNL A   1      35.330  32.677  28.001  1.00  0.00     0.014 A 
ATOM     32  C   UNL A   1      34.388  30.473  28.368  1.00  0.00     0.014 A 
ATOM     33  C   UNL A   1      36.505  32.276  28.641  1.00  0.00     0.010 A 
ATOM     34  C   UNL A   1      35.533  30.098  29.064  1.00  0.00     0.010 A 
ATOM     35  C   UNL A   1      36.602  30.996  29.211  1.00  0.00    -0.014 A 
BRANCH  35  36
ATOM     36  C   UNL A   1      37.814  30.580  29.964  1.00  0.00     0.031 A 
ATOM     37  C   UNL A   1      38.786  29.611  29.349  1.00  0.00     0.074 A 
ATOM     38  C   UNL A   1      38.004  31.025  31.222  1.00  0.00     0.049 A 
ATOM     39  N   UNL A   1      39.858  29.072  29.869  1.00  0.00    -0.248 NA
ATOM     40  C   UNL A   1      38.494  29.170  27.978  1.00  0.00     0.031 C 
ATOM     41  C   UNL A   1      37.106  31.933  31.941  1.00  0.00     0.029 A 
ATOM     42  N   UNL A   1      39.006  30.768  32.123  1.00  0.00    -0.354 N 
ATOM     43  C   UNL A   1      40.365  28.220  28.894  1.00  0.00     0.074 A 
ATOM     44  C   UNL A   1      39.444  28.269  27.778  1.00  0.00     0.031 C 
ATOM     45  C   UNL A   1      37.607  32.167  33.165  1.00  0.00     0.029 A 
ATOM     46  C   UNL A   1      38.837  31.399  33.333  1.00  0.00     0.049 A 
ATOM     47  H   UNL A   1      39.773  30.185  31.923  1.00  0.00     0.167 HD
ATOM     48  C   UNL A   1      41.505  27.484  28.917  1.00  0.00     0.034 A 
ATOM     49  C   UNL A   1      39.581  31.355  34.457  1.00  0.00     0.034 A 
ATOM     50  C   UNL A   1      42.415  27.451  30.035  1.00  0.00     0.049 A 
ATOM     51  C   UNL A   1      40.834  30.516  34.468  1.00  0.00     0.074 A 
ATOM     52  C   UNL A   1      43.620  26.779  30.150  1.00  0.00     0.029 A 
ATOM     53  N   UNL A   1      42.217  28.111  31.242  1.00  0.00    -0.354 N 
ATOM     54  N   UNL A   1      41.326  29.754  33.519  1.00  0.00    -0.248 NA
ATOM     55  C   UNL A   1      41.637  30.543  35.696  1.00  0.00     0.031 C 
ATOM     56  C   UNL A   1      44.118  26.984  31.440  1.00  0.00     0.029 A 
ATOM     57  C   UNL A   1      43.262  27.842  32.112  1.00  0.00     0.049 A 
ATOM     58  H   UNL A   1      41.446  28.688  31.449  1.00  0.00     0.167 HD
ATOM     59  C   UNL A   1      42.511  29.233  34.028  1.00  0.00     0.074 A 
ATOM     60  C   UNL A   1      42.666  29.779  35.361  1.00  0.00     0.031 C 
ATOM     61  C   UNL A   1      43.395  28.383  33.445  1.00  0.00     0.034 A 
BRANCH  48  62
ATOM     62  C   UNL A   1      41.806  26.641  27.701  1.00  0.00     0.023 A 
ATOM     63  C   UNL A   1      41.471  25.275  27.650  1.00  0.00     0.031 A 
ATOM     64  C   UNL A   1      42.470  27.195  26.593  1.00  0.00     0.131 A 
ATOM     65  C   UNL A   1      41.875  24.494  26.558  1.00  0.00     0.055 A 
ATOM     66  C   UNL A   1      42.795  26.430  25.471  1.00  0.00     0.041 A 
ATOM     67  F   UNL A   1      42.833  28.487  26.588  1.00  0.00    -0.206 F 
ATOM     68  C   UNL A   1      42.513  25.066  25.456  1.00  0.00     0.022 A 
BRANCH  65  69
ATOM     69  S   UNL A   1      41.690  22.693  26.668  1.00  0.00     0.124 S 
ATOM     70  O   UNL A   1      42.549  22.376  27.806  1.00  0.00    -0.237 OA
ATOM     71  O   UNL A   1      40.257  22.536  26.885  1.00  0.00    -0.237 OA
ATOM     72  O   UNL A   1      42.181  22.218  25.376  1.00  0.00    -0.744 OA
ENDBRANCH  65  69
ENDBRANCH  48  62
BRANCH  49  73
ATOM     73  C   UNL A   1      39.161  32.114  35.668  1.00  0.00     0.023 A 
ATOM     74  C   UNL A   1      38.443  31.490  36.701  1.00  0.00     0.031 A 
ATOM     75  C   UNL A   1      39.445  33.485  35.795  1.00  0.00     0.131 A 
ATOM     76  C   UNL A   1      37.995  32.247  37.796  1.00  0.00     0.055 A 
ATOM     77  C   UNL A   1      39.039  34.222  36.909  1.00  0.00     0.041 A 
ATOM     78  F   UNL A   1      40.137  34.127  34.840  1.00  0.00    -0.206 F 
ATOM     79  C   UNL A   1      38.298  33.606  37.912  1.00  0.00     0.022 A 
BRANCH  76  80
ATOM     80  S   UNL A   1      36.943  31.443  39.036  1.00  0.00     0.124 S 
ATOM     81  O   UNL A   1      37.768  31.541  40.234  1.00  0.00    -0.237 OA
ATOM     82  O   UNL A   1      35.749  32.280  39.008  1.00  0.00    -0.237 OA
ATOM     83  O   UNL A   1      36.767  30.092  38.507  1.00  0.00    -0.744 OA
ENDBRANCH  76  80
ENDBRANCH  49  73
BRANCH  61  84
ATOM     84  C   UNL A   1      44.630  28.031  34.238  1.00  0.00     0.023 A 
ATOM     85  C   UNL A   1      44.669  26.912  35.088  1.00  0.00     0.031 A 
ATOM     86  C   UNL A   1      45.779  28.837  34.150  1.00  0.00     0.131 A 
ATOM     87  C   UNL A   1      45.816  26.660  35.858  1.00  0.00     0.055 A 
ATOM     88  C   UNL A   1      46.936  28.549  34.875  1.00  0.00     0.041 A 
ATOM     89  F   UNL A   1      45.795  29.920  33.356  1.00  0.00    -0.206 F 
ATOM     90  C   UNL A   1      46.955  27.463  35.744  1.00  0.00     0.022 A 
BRANCH  87  91
ATOM     91  S   UNL A   1      45.770  25.317  37.077  1.00  0.00     0.124 S 
ATOM     92  O   UNL A   1      47.184  25.152  37.400  1.00  0.00    -0.237 OA
ATOM     93  O   UNL A   1      44.937  25.882  38.134  1.00  0.00    -0.237 OA
ATOM     94  O   UNL A   1      45.168  24.207  36.342  1.00  0.00    -0.744 OA
ENDBRANCH  87  91
ENDBRANCH  61  84
ENDBRANCH  35  36
ENDBRANCH  27  30
ENDBRANCH  25  26
ENDBRANCH   1  25
TORSDOF 17
ENDMDL
