MODEL 1
REMARK VINA RESULT:     -10.7      0.000      0.000
REMARK SMILES CC[C@@H]1CCCC[C@@]1(O)[C@H](F)C(=O)NCCCCNC(=O)c1ccc(-c2c3nc(c(-c4cc(S(=O)(=O)[O-])ccc4F)c4ccc([nH]4)c(-c4cc(S(=O)(=O)[O-])ccc4F)c4nc(c(-c5cc(S(=O)(=O)[O-])ccc5F)c5ccc2[nH]5)C=C4)C=C3)cc1
REMARK SMILES IDX 17 1 16 2 15 3 14 4 12 5 13 6 10 8 11 9 8 10 3 11 4 12 5 13
REMARK SMILES IDX 7 14 6 15 2 16 1 17 9 18 18 20 19 21 20 22 21 24 22 25 23 26
REMARK SMILES IDX 84 27 24 28 83 29 25 30 26 31 27 32 77 33 28 34 82 35 76 36
REMARK SMILES IDX 78 37 29 38 81 39 75 40 74 41 30 43 62 44 42 45 61 46 43 47
REMARK SMILES IDX 46 48 60 49 79 50 44 51 45 52 59 54 80 55 47 56 31 57 32 58
REMARK SMILES IDX 40 59 33 60 39 61 41 62 38 63 34 64 35 65 36 66 37 67 63 68
REMARK SMILES IDX 64 69 72 70 65 71 71 72 73 73 70 74 66 75 67 76 68 77 69 78
REMARK SMILES IDX 48 79 49 80 57 81 50 82 56 83 58 84 55 85 51 86 52 87 53 88
REMARK SMILES IDX 54 89
REMARK H PARENT 14 7 9 19 19 23 78 42 46 53
REMARK Flexibility Score: inf
ROOT
ATOM      1  C   UNL A   1      33.509  34.225  28.686  1.00  0.00     0.023 C 
ENDROOT
BRANCH   1   2
ATOM      2  C   UNL A   1      34.046  35.651  28.669  1.00  0.00     0.023 C 
BRANCH   2   3
ATOM      3  C   UNL A   1      33.462  36.580  29.719  1.00  0.00     0.116 C 
BRANCH   3   4
ATOM      4  N   UNL A   1      32.417  36.000  30.547  1.00  0.00    -0.353 N 
ATOM      5  C   UNL A   1      32.506  35.714  31.888  1.00  0.00     0.257 C 
ATOM      6  O   UNL A   1      31.468  35.517  32.525  1.00  0.00    -0.272 OA
ATOM      7  H   UNL A   1      31.563  35.792  30.103  1.00  0.00     0.163 HD
BRANCH   5   8
ATOM      8  C   UNL A   1      33.880  35.647  32.568  1.00  0.00     0.287 C 
ATOM      9  F   UNL A   1      33.878  36.484  33.656  1.00  0.00    -0.234 F 
BRANCH   8  10
ATOM     10  C   UNL A   1      34.359  34.204  32.999  1.00  0.00     0.108 C 
ATOM     11  C   UNL A   1      35.016  33.415  31.820  1.00  0.00     0.024 C 
ATOM     12  C   UNL A   1      36.367  34.062  31.419  1.00  0.00     0.007 C 
ATOM     13  C   UNL A   1      37.324  34.206  32.606  1.00  0.00     0.001 C 
ATOM     14  C   UNL A   1      35.359  34.318  34.173  1.00  0.00     0.039 C 
ATOM     15  C   UNL A   1      36.685  34.951  33.769  1.00  0.00     0.003 C 
BRANCH  11  16
ATOM     16  C   UNL A   1      35.248  31.870  31.972  1.00  0.00     0.003 C 
ATOM     17  C   UNL A   1      36.379  31.324  32.832  1.00  0.00     0.004 C 
ENDBRANCH  11  16
BRANCH  10  18
ATOM     18  O   UNL A   1      33.248  33.437  33.475  1.00  0.00    -0.386 OA
ATOM     19  H   UNL A   1      33.042  32.735  32.837  1.00  0.00     0.211 HD
ENDBRANCH  10  18
ENDBRANCH   8  10
ENDBRANCH   5   8
ENDBRANCH   3   4
ENDBRANCH   2   3
ENDBRANCH   1   2
BRANCH   1  20
ATOM     20  C   UNL A   1      34.491  33.142  28.256  1.00  0.00     0.116 C 
BRANCH  20  21
ATOM     21  N   UNL A   1      33.853  31.994  27.632  1.00  0.00    -0.352 N 
ATOM     22  C   UNL A   1      34.336  30.715  27.457  1.00  0.00     0.251 C 
ATOM     23  H   UNL A   1      32.945  32.154  27.285  1.00  0.00     0.163 HD
ATOM     24  O   UNL A   1      33.701  29.910  26.791  1.00  0.00    -0.269 OA
BRANCH  22  25
ATOM     25  C   UNL A   1      35.642  30.337  28.048  1.00  0.00     0.039 A 
ATOM     26  C   UNL A   1      35.658  29.688  29.284  1.00  0.00     0.014 A 
ATOM     27  C   UNL A   1      36.838  30.598  27.377  1.00  0.00     0.014 A 
ATOM     28  C   UNL A   1      36.873  29.236  29.810  1.00  0.00     0.010 A 
ATOM     29  C   UNL A   1      38.033  30.066  27.857  1.00  0.00     0.010 A 
ATOM     30  C   UNL A   1      38.066  29.385  29.083  1.00  0.00    -0.014 A 
BRANCH  30  31
ATOM     31  C   UNL A   1      39.355  28.848  29.601  1.00  0.00     0.031 A 
ATOM     32  C   UNL A   1      40.038  29.519  30.764  1.00  0.00     0.074 A 
ATOM     33  C   UNL A   1      39.931  27.789  28.997  1.00  0.00     0.049 A 
ATOM     34  N   UNL A   1      41.180  29.229  31.333  1.00  0.00    -0.248 NA
ATOM     35  C   UNL A   1      39.363  30.690  31.343  1.00  0.00     0.031 C 
ATOM     36  C   UNL A   1      39.394  27.086  27.829  1.00  0.00     0.029 A 
ATOM     37  N   UNL A   1      41.096  27.118  29.276  1.00  0.00    -0.354 N 
ATOM     38  C   UNL A   1      41.365  30.188  32.325  1.00  0.00     0.074 A 
ATOM     39  C   UNL A   1      40.252  31.106  32.231  1.00  0.00     0.031 C 
ATOM     40  C   UNL A   1      40.210  26.067  27.514  1.00  0.00     0.029 A 
ATOM     41  C   UNL A   1      41.350  26.068  28.425  1.00  0.00     0.049 A 
ATOM     42  H   UNL A   1      41.695  27.367  30.017  1.00  0.00     0.167 HD
ATOM     43  C   UNL A   1      42.359  30.279  33.243  1.00  0.00     0.034 A 
ATOM     44  C   UNL A   1      42.386  25.205  28.377  1.00  0.00     0.034 A 
ATOM     45  C   UNL A   1      43.455  29.345  33.333  1.00  0.00     0.049 A 
ATOM     46  C   UNL A   1      43.480  25.328  29.411  1.00  0.00     0.074 A 
ATOM     47  C   UNL A   1      44.483  29.310  34.259  1.00  0.00     0.029 A 
ATOM     48  N   UNL A   1      43.671  28.283  32.463  1.00  0.00    -0.354 N 
ATOM     49  N   UNL A   1      43.607  26.205  30.381  1.00  0.00    -0.248 NA
ATOM     50  C   UNL A   1      44.556  24.332  29.355  1.00  0.00     0.031 C 
ATOM     51  C   UNL A   1      45.358  28.277  33.905  1.00  0.00     0.029 A 
ATOM     52  C   UNL A   1      44.831  27.607  32.814  1.00  0.00     0.049 A 
ATOM     53  H   UNL A   1      43.086  28.045  31.707  1.00  0.00     0.167 HD
ATOM     54  C   UNL A   1      44.759  25.839  31.073  1.00  0.00     0.074 A 
ATOM     55  C   UNL A   1      45.273  24.653  30.420  1.00  0.00     0.031 C 
ATOM     56  C   UNL A   1      45.338  26.428  32.151  1.00  0.00     0.034 A 
BRANCH  43  57
ATOM     57  C   UNL A   1      42.315  31.443  34.206  1.00  0.00     0.023 A 
ATOM     58  C   UNL A   1      41.489  31.436  35.343  1.00  0.00     0.031 A 
ATOM     59  C   UNL A   1      43.102  32.586  33.974  1.00  0.00     0.131 A 
ATOM     60  C   UNL A   1      41.412  32.573  36.164  1.00  0.00     0.055 A 
ATOM     61  C   UNL A   1      43.085  33.681  34.842  1.00  0.00     0.041 A 
ATOM     62  F   UNL A   1      43.893  32.665  32.894  1.00  0.00    -0.206 F 
ATOM     63  C   UNL A   1      42.226  33.684  35.937  1.00  0.00     0.022 A 
BRANCH  60  64
ATOM     64  S   UNL A   1      40.133  32.632  37.448  1.00  0.00     0.124 S 
ATOM     65  O   UNL A   1      40.911  32.356  38.653  1.00  0.00    -0.237 OA
ATOM     66  O   UNL A   1      39.616  33.990  37.317  1.00  0.00    -0.237 OA
ATOM     67  O   UNL A   1      39.206  31.572  37.057  1.00  0.00    -0.744 OA
ENDBRANCH  60  64
ENDBRANCH  43  57
BRANCH  44  68
ATOM     68  C   UNL A   1      42.455  24.153  27.320  1.00  0.00     0.023 A 
ATOM     69  C   UNL A   1      41.620  23.025  27.362  1.00  0.00     0.031 A 
ATOM     70  C   UNL A   1      43.401  24.232  26.283  1.00  0.00     0.131 A 
ATOM     71  C   UNL A   1      41.788  21.993  26.423  1.00  0.00     0.055 A 
ATOM     72  C   UNL A   1      43.521  23.234  25.314  1.00  0.00     0.041 A 
ATOM     73  F   UNL A   1      44.223  25.290  26.191  1.00  0.00    -0.206 F 
ATOM     74  C   UNL A   1      42.723  22.097  25.391  1.00  0.00     0.022 A 
BRANCH  71  75
ATOM     75  S   UNL A   1      40.836  20.463  26.634  1.00  0.00     0.124 S 
ATOM     76  O   UNL A   1      40.918  20.258  28.075  1.00  0.00    -0.237 OA
ATOM     77  O   UNL A   1      39.528  20.847  26.113  1.00  0.00    -0.237 OA
ATOM     78  O   UNL A   1      41.567  19.493  25.821  1.00  0.00    -0.744 OA
ENDBRANCH  71  75
ENDBRANCH  44  68
BRANCH  56  79
ATOM     79  C   UNL A   1      46.564  25.754  32.724  1.00  0.00     0.023 A 
ATOM     80  C   UNL A   1      47.849  25.971  32.195  1.00  0.00     0.031 A 
ATOM     81  C   UNL A   1      46.438  24.853  33.796  1.00  0.00     0.131 A 
ATOM     82  C   UNL A   1      48.940  25.238  32.684  1.00  0.00     0.055 A 
ATOM     83  C   UNL A   1      47.539  24.183  34.330  1.00  0.00     0.041 A 
ATOM     84  F   UNL A   1      45.236  24.603  34.342  1.00  0.00    -0.206 F 
ATOM     85  C   UNL A   1      48.797  24.359  33.761  1.00  0.00     0.022 A 
BRANCH  82  86
ATOM     86  S   UNL A   1      50.525  25.349  31.809  1.00  0.00     0.124 S 
ATOM     87  O   UNL A   1      50.163  26.122  30.625  1.00  0.00    -0.237 OA
ATOM     88  O   UNL A   1      51.372  26.031  32.782  1.00  0.00    -0.237 OA
ATOM     89  O   UNL A   1      50.874  23.952  31.554  1.00  0.00    -0.744 OA
ENDBRANCH  82  86
ENDBRANCH  56  79
ENDBRANCH  30  31
ENDBRANCH  22  25
ENDBRANCH  20  21
ENDBRANCH   1  20
TORSDOF 17
ENDMDL
MODEL 2
REMARK VINA RESULT:     -10.5      5.658     10.963
REMARK SMILES CC[C@@H]1CCCC[C@@]1(O)[C@H](F)C(=O)NCCCCNC(=O)c1ccc(-c2c3nc(c(-c4cc(S(=O)(=O)[O-])ccc4F)c4ccc([nH]4)c(-c4cc(S(=O)(=O)[O-])ccc4F)c4nc(c(-c5cc(S(=O)(=O)[O-])ccc5F)c5ccc2[nH]5)C=C4)C=C3)cc1
REMARK SMILES IDX 17 1 16 2 15 3 14 4 12 5 13 6 10 8 11 9 8 10 3 11 4 12 5 13
REMARK SMILES IDX 7 14 6 15 2 16 1 17 9 18 18 20 19 21 20 22 21 24 22 25 23 26
REMARK SMILES IDX 84 27 24 28 83 29 25 30 26 31 27 32 77 33 28 34 82 35 76 36
REMARK SMILES IDX 78 37 29 38 81 39 75 40 74 41 30 43 62 44 42 45 61 46 43 47
REMARK SMILES IDX 46 48 60 49 79 50 44 51 45 52 59 54 80 55 47 56 31 57 32 58
REMARK SMILES IDX 40 59 33 60 39 61 41 62 38 63 34 64 35 65 36 66 37 67 63 68
REMARK SMILES IDX 64 69 72 70 65 71 71 72 73 73 70 74 66 75 67 76 68 77 69 78
REMARK SMILES IDX 48 79 49 80 57 81 50 82 56 83 58 84 55 85 51 86 52 87 53 88
REMARK SMILES IDX 54 89
REMARK H PARENT 14 7 9 19 19 23 78 42 46 53
REMARK Flexibility Score: inf
ROOT
ATOM      1  C   UNL A   1      35.527  21.101  24.614  1.00  0.00     0.023 C 
ENDROOT
BRANCH   1   2
ATOM      2  C   UNL A   1      34.248  21.288  25.421  1.00  0.00     0.023 C 
BRANCH   2   3
ATOM      3  C   UNL A   1      33.772  22.723  25.565  1.00  0.00     0.116 C 
BRANCH   3   4
ATOM      4  N   UNL A   1      32.820  22.955  26.639  1.00  0.00    -0.353 N 
ATOM      5  C   UNL A   1      31.673  23.708  26.562  1.00  0.00     0.257 C 
ATOM      6  O   UNL A   1      30.812  23.573  27.435  1.00  0.00    -0.272 OA
ATOM      7  H   UNL A   1      33.017  22.532  27.506  1.00  0.00     0.163 HD
BRANCH   5   8
ATOM      8  C   UNL A   1      31.479  24.693  25.402  1.00  0.00     0.287 C 
ATOM      9  F   UNL A   1      30.337  24.355  24.719  1.00  0.00    -0.234 F 
BRANCH   8  10
ATOM     10  C   UNL A   1      31.436  26.221  25.803  1.00  0.00     0.108 C 
ATOM     11  C   UNL A   1      32.835  26.764  26.240  1.00  0.00     0.024 C 
ATOM     12  C   UNL A   1      33.803  26.809  25.029  1.00  0.00     0.007 C 
ATOM     13  C   UNL A   1      33.231  27.602  23.850  1.00  0.00     0.001 C 
ATOM     14  C   UNL A   1      30.899  27.054  24.616  1.00  0.00     0.039 C 
ATOM     15  C   UNL A   1      31.858  27.096  23.433  1.00  0.00     0.003 C 
BRANCH  11  16
ATOM     16  C   UNL A   1      32.920  28.148  26.976  1.00  0.00     0.003 C 
ATOM     17  C   UNL A   1      34.207  28.960  26.981  1.00  0.00     0.004 C 
ENDBRANCH  11  16
BRANCH  10  18
ATOM     18  O   UNL A   1      30.528  26.419  26.892  1.00  0.00    -0.386 OA
ATOM     19  H   UNL A   1      29.694  26.784  26.556  1.00  0.00     0.211 HD
ENDBRANCH  10  18
ENDBRANCH   8  10
ENDBRANCH   5   8
ENDBRANCH   3   4
ENDBRANCH   2   3
ENDBRANCH   1   2
BRANCH   1  20
ATOM     20  C   UNL A   1      36.802  21.629  25.261  1.00  0.00     0.116 C 
BRANCH  20  21
ATOM     21  N   UNL A   1      37.809  20.603  25.481  1.00  0.00    -0.352 N 
ATOM     22  C   UNL A   1      39.099  20.732  25.950  1.00  0.00     0.251 C 
ATOM     23  H   UNL A   1      37.528  19.685  25.264  1.00  0.00     0.163 HD
ATOM     24  O   UNL A   1      39.847  19.766  25.948  1.00  0.00    -0.269 OA
BRANCH  22  25
ATOM     25  C   UNL A   1      39.579  22.054  26.419  1.00  0.00     0.039 A 
ATOM     26  C   UNL A   1      40.694  22.106  27.258  1.00  0.00     0.014 A 
ATOM     27  C   UNL A   1      38.951  23.233  26.013  1.00  0.00     0.014 A 
ATOM     28  C   UNL A   1      41.220  23.347  27.629  1.00  0.00     0.010 A 
ATOM     29  C   UNL A   1      39.531  24.465  26.307  1.00  0.00     0.010 A 
ATOM     30  C   UNL A   1      40.669  24.537  27.125  1.00  0.00    -0.014 A 
BRANCH  30  31
ATOM     31  C   UNL A   1      41.263  25.861  27.459  1.00  0.00     0.031 A 
ATOM     32  C   UNL A   1      42.632  26.226  26.947  1.00  0.00     0.074 A 
ATOM     33  C   UNL A   1      40.590  26.714  28.258  1.00  0.00     0.049 A 
ATOM     34  N   UNL A   1      43.334  27.309  27.160  1.00  0.00    -0.248 NA
ATOM     35  C   UNL A   1      43.314  25.226  26.112  1.00  0.00     0.031 C 
ATOM     36  C   UNL A   1      39.280  26.454  28.860  1.00  0.00     0.029 A 
ATOM     37  N   UNL A   1      40.913  27.971  28.708  1.00  0.00    -0.354 N 
ATOM     38  C   UNL A   1      44.543  27.115  26.498  1.00  0.00     0.074 A 
ATOM     39  C   UNL A   1      44.503  25.783  25.937  1.00  0.00     0.031 C 
ATOM     40  C   UNL A   1      38.900  27.528  29.571  1.00  0.00     0.029 A 
ATOM     41  C   UNL A   1      39.953  28.536  29.515  1.00  0.00     0.049 A 
ATOM     42  H   UNL A   1      41.755  28.425  28.474  1.00  0.00     0.167 HD
ATOM     43  C   UNL A   1      45.580  27.977  26.352  1.00  0.00     0.034 A 
ATOM     44  C   UNL A   1      39.926  29.729  30.146  1.00  0.00     0.034 A 
ATOM     45  C   UNL A   1      45.597  29.310  26.906  1.00  0.00     0.049 A 
ATOM     46  C   UNL A   1      41.092  30.670  29.967  1.00  0.00     0.074 A 
ATOM     47  C   UNL A   1      46.570  30.285  26.771  1.00  0.00     0.029 A 
ATOM     48  N   UNL A   1      44.600  29.854  27.706  1.00  0.00    -0.354 N 
ATOM     49  N   UNL A   1      42.202  30.493  29.286  1.00  0.00    -0.248 NA
ATOM     50  C   UNL A   1      40.991  31.978  30.624  1.00  0.00     0.031 C 
ATOM     51  C   UNL A   1      46.197  31.388  27.548  1.00  0.00     0.029 A 
ATOM     52  C   UNL A   1      44.948  31.140  28.094  1.00  0.00     0.049 A 
ATOM     53  H   UNL A   1      43.766  29.395  27.959  1.00  0.00     0.167 HD
ATOM     54  C   UNL A   1      42.912  31.686  29.404  1.00  0.00     0.074 A 
ATOM     55  C   UNL A   1      42.094  32.576  30.202  1.00  0.00     0.031 C 
ATOM     56  C   UNL A   1      44.128  32.017  28.897  1.00  0.00     0.034 A 
BRANCH  43  57
ATOM     57  C   UNL A   1      46.788  27.494  25.583  1.00  0.00     0.023 A 
ATOM     58  C   UNL A   1      47.055  27.925  24.272  1.00  0.00     0.031 A 
ATOM     59  C   UNL A   1      47.678  26.573  26.165  1.00  0.00     0.131 A 
ATOM     60  C   UNL A   1      48.139  27.384  23.561  1.00  0.00     0.055 A 
ATOM     61  C   UNL A   1      48.803  26.104  25.483  1.00  0.00     0.041 A 
ATOM     62  F   UNL A   1      47.465  26.105  27.405  1.00  0.00    -0.206 F 
ATOM     63  C   UNL A   1      49.031  26.498  24.168  1.00  0.00     0.022 A 
BRANCH  60  64
ATOM     64  S   UNL A   1      48.283  27.747  21.790  1.00  0.00     0.124 S 
ATOM     65  O   UNL A   1      48.609  26.432  21.245  1.00  0.00    -0.237 OA
ATOM     66  O   UNL A   1      46.959  28.265  21.465  1.00  0.00    -0.237 OA
ATOM     67  O   UNL A   1      49.367  28.725  21.729  1.00  0.00    -0.744 OA
ENDBRANCH  60  64
ENDBRANCH  43  57
BRANCH  44  68
ATOM     68  C   UNL A   1      38.768  30.108  31.008  1.00  0.00     0.023 A 
ATOM     69  C   UNL A   1      37.676  30.822  30.488  1.00  0.00     0.031 A 
ATOM     70  C   UNL A   1      38.765  29.814  32.384  1.00  0.00     0.131 A 
ATOM     71  C   UNL A   1      36.658  31.270  31.346  1.00  0.00     0.055 A 
ATOM     72  C   UNL A   1      37.719  30.207  33.221  1.00  0.00     0.041 A 
ATOM     73  F   UNL A   1      39.781  29.131  32.935  1.00  0.00    -0.206 F 
ATOM     74  C   UNL A   1      36.666  30.955  32.706  1.00  0.00     0.022 A 
BRANCH  71  75
ATOM     75  S   UNL A   1      35.375  32.364  30.675  1.00  0.00     0.124 S 
ATOM     76  O   UNL A   1      36.097  33.624  30.545  1.00  0.00    -0.237 OA
ATOM     77  O   UNL A   1      35.027  31.691  29.428  1.00  0.00    -0.237 OA
ATOM     78  O   UNL A   1      34.337  32.340  31.703  1.00  0.00    -0.744 OA
ENDBRANCH  71  75
ENDBRANCH  44  68
BRANCH  56  79
ATOM     79  C   UNL A   1      44.614  33.426  29.146  1.00  0.00     0.023 A 
ATOM     80  C   UNL A   1      44.260  34.496  28.304  1.00  0.00     0.031 A 
ATOM     81  C   UNL A   1      45.475  33.696  30.225  1.00  0.00     0.131 A 
ATOM     82  C   UNL A   1      44.826  35.763  28.507  1.00  0.00     0.055 A 
ATOM     83  C   UNL A   1      45.975  34.975  30.467  1.00  0.00     0.041 A 
ATOM     84  F   UNL A   1      45.850  32.715  31.062  1.00  0.00    -0.206 F 
ATOM     85  C   UNL A   1      45.667  36.014  29.594  1.00  0.00     0.022 A 
BRANCH  82  86
ATOM     86  S   UNL A   1      44.555  37.047  27.254  1.00  0.00     0.124 S 
ATOM     87  O   UNL A   1      45.792  36.985  26.484  1.00  0.00    -0.237 OA
ATOM     88  O   UNL A   1      43.356  36.570  26.574  1.00  0.00    -0.237 OA
ATOM     89  O   UNL A   1      44.377  38.264  28.045  1.00  0.00    -0.744 OA
ENDBRANCH  82  86
ENDBRANCH  56  79
ENDBRANCH  30  31
ENDBRANCH  22  25
ENDBRANCH  20  21
ENDBRANCH   1  20
TORSDOF 17
ENDMDL
MODEL 3
REMARK VINA RESULT:     -10.4      3.743      6.339
REMARK SMILES CC[C@@H]1CCCC[C@@]1(O)[C@H](F)C(=O)NCCCCNC(=O)c1ccc(-c2c3nc(c(-c4cc(S(=O)(=O)[O-])ccc4F)c4ccc([nH]4)c(-c4cc(S(=O)(=O)[O-])ccc4F)c4nc(c(-c5cc(S(=O)(=O)[O-])ccc5F)c5ccc2[nH]5)C=C4)C=C3)cc1
REMARK SMILES IDX 17 1 16 2 15 3 14 4 12 5 13 6 10 8 11 9 8 10 3 11 4 12 5 13
REMARK SMILES IDX 7 14 6 15 2 16 1 17 9 18 18 20 19 21 20 22 21 24 22 25 23 26
REMARK SMILES IDX 84 27 24 28 83 29 25 30 26 31 27 32 77 33 28 34 82 35 76 36
REMARK SMILES IDX 78 37 29 38 81 39 75 40 74 41 30 43 62 44 42 45 61 46 43 47
REMARK SMILES IDX 46 48 60 49 79 50 44 51 45 52 59 54 80 55 47 56 31 57 32 58
REMARK SMILES IDX 40 59 33 60 39 61 41 62 38 63 34 64 35 65 36 66 37 67 63 68
REMARK SMILES IDX 64 69 72 70 65 71 71 72 73 73 70 74 66 75 67 76 68 77 69 78
REMARK SMILES IDX 48 79 49 80 57 81 50 82 56 83 58 84 55 85 51 86 52 87 53 88
REMARK SMILES IDX 54 89
REMARK H PARENT 14 7 9 19 19 23 78 42 46 53
REMARK Flexibility Score: inf
ROOT
ATOM      1  C   UNL A   1      31.963  29.365  25.411  1.00  0.00     0.023 C 
ENDROOT
BRANCH   1   2
ATOM      2  C   UNL A   1      31.881  27.873  25.115  1.00  0.00     0.023 C 
BRANCH   2   3
ATOM      3  C   UNL A   1      33.216  27.159  24.986  1.00  0.00     0.116 C 
BRANCH   3   4
ATOM      4  N   UNL A   1      33.685  26.966  23.623  1.00  0.00    -0.353 N 
ATOM      5  C   UNL A   1      33.472  25.859  22.838  1.00  0.00     0.257 C 
ATOM      6  O   UNL A   1      33.653  25.948  21.621  1.00  0.00    -0.272 OA
ATOM      7  H   UNL A   1      34.206  27.701  23.225  1.00  0.00     0.163 HD
BRANCH   5   8
ATOM      8  C   UNL A   1      33.013  24.542  23.478  1.00  0.00     0.287 C 
ATOM      9  F   UNL A   1      32.005  24.006  22.717  1.00  0.00    -0.234 F 
BRANCH   8  10
ATOM     10  C   UNL A   1      34.146  23.464  23.709  1.00  0.00     0.108 C 
ATOM     11  C   UNL A   1      35.096  23.838  24.891  1.00  0.00     0.024 C 
ATOM     12  C   UNL A   1      34.340  23.759  26.243  1.00  0.00     0.007 C 
ATOM     13  C   UNL A   1      33.673  22.398  26.462  1.00  0.00     0.001 C 
ATOM     14  C   UNL A   1      33.501  22.083  23.972  1.00  0.00     0.039 C 
ATOM     15  C   UNL A   1      32.764  22.012  25.304  1.00  0.00     0.003 C 
BRANCH  11  16
ATOM     16  C   UNL A   1      36.453  23.067  25.053  1.00  0.00     0.003 C 
ATOM     17  C   UNL A   1      37.643  23.705  25.757  1.00  0.00     0.004 C 
ENDBRANCH  11  16
BRANCH  10  18
ATOM     18  O   UNL A   1      34.945  23.329  22.528  1.00  0.00    -0.386 OA
ATOM     19  H   UNL A   1      35.876  23.221  22.779  1.00  0.00     0.211 HD
ENDBRANCH  10  18
ENDBRANCH   8  10
ENDBRANCH   5   8
ENDBRANCH   3   4
ENDBRANCH   2   3
ENDBRANCH   1   2
BRANCH   1  20
ATOM     20  C   UNL A   1      33.145  29.807  26.267  1.00  0.00     0.116 C 
BRANCH  20  21
ATOM     21  N   UNL A   1      33.037  31.177  26.742  1.00  0.00    -0.352 N 
ATOM     22  C   UNL A   1      33.863  31.870  27.601  1.00  0.00     0.251 C 
ATOM     23  H   UNL A   1      32.263  31.681  26.401  1.00  0.00     0.163 HD
ATOM     24  O   UNL A   1      33.540  32.983  27.990  1.00  0.00    -0.269 OA
BRANCH  22  25
ATOM     25  C   UNL A   1      35.119  31.243  28.075  1.00  0.00     0.039 A 
ATOM     26  C   UNL A   1      36.290  32.003  28.083  1.00  0.00     0.014 A 
ATOM     27  C   UNL A   1      35.136  29.924  28.534  1.00  0.00     0.014 A 
ATOM     28  C   UNL A   1      37.461  31.460  28.620  1.00  0.00     0.010 A 
ATOM     29  C   UNL A   1      36.278  29.420  29.152  1.00  0.00     0.010 A 
ATOM     30  C   UNL A   1      37.457  30.179  29.196  1.00  0.00    -0.014 A 
BRANCH  30  31
ATOM     31  C   UNL A   1      38.681  29.617  29.831  1.00  0.00     0.031 A 
ATOM     32  C   UNL A   1      39.115  30.098  31.191  1.00  0.00     0.074 A 
ATOM     33  C   UNL A   1      39.425  28.710  29.166  1.00  0.00     0.049 A 
ATOM     34  N   UNL A   1      40.168  29.762  31.892  1.00  0.00    -0.248 NA
ATOM     35  C   UNL A   1      38.269  31.116  31.834  1.00  0.00     0.031 C 
ATOM     36  C   UNL A   1      39.138  28.204  27.821  1.00  0.00     0.029 A 
ATOM     37  N   UNL A   1      40.575  28.053  29.524  1.00  0.00    -0.354 N 
ATOM     38  C   UNL A   1      40.118  30.535  33.048  1.00  0.00     0.074 A 
ATOM     39  C   UNL A   1      38.969  31.404  32.920  1.00  0.00     0.031 C 
ATOM     40  C   UNL A   1      40.068  27.296  27.483  1.00  0.00     0.029 A 
ATOM     41  C   UNL A   1      41.041  27.184  28.564  1.00  0.00     0.049 A 
ATOM     42  H   UNL A   1      41.026  28.191  30.388  1.00  0.00     0.167 HD
ATOM     43  C   UNL A   1      40.940  30.505  34.126  1.00  0.00     0.034 A 
ATOM     44  C   UNL A   1      42.133  26.391  28.551  1.00  0.00     0.034 A 
ATOM     45  C   UNL A   1      42.073  29.619  34.244  1.00  0.00     0.049 A 
ATOM     46  C   UNL A   1      43.032  26.375  29.764  1.00  0.00     0.074 A 
ATOM     47  C   UNL A   1      42.938  29.465  35.315  1.00  0.00     0.029 A 
ATOM     48  N   UNL A   1      42.506  28.741  33.258  1.00  0.00    -0.354 N 
ATOM     49  N   UNL A   1      42.935  27.069  30.875  1.00  0.00    -0.248 NA
ATOM     50  C   UNL A   1      44.174  25.454  29.727  1.00  0.00     0.031 C 
ATOM     51  C   UNL A   1      43.933  28.553  34.948  1.00  0.00     0.029 A 
ATOM     52  C   UNL A   1      43.640  28.065  33.684  1.00  0.00     0.049 A 
ATOM     53  H   UNL A   1      42.071  28.616  32.384  1.00  0.00     0.167 HD
ATOM     54  C   UNL A   1      43.984  26.637  31.684  1.00  0.00     0.074 A 
ATOM     55  C   UNL A   1      44.683  25.611  30.939  1.00  0.00     0.031 C 
ATOM     56  C   UNL A   1      44.335  27.048  32.930  1.00  0.00     0.034 A 
BRANCH  43  57
ATOM     57  C   UNL A   1      40.655  31.474  35.250  1.00  0.00     0.023 A 
ATOM     58  C   UNL A   1      39.599  31.272  36.155  1.00  0.00     0.031 A 
ATOM     59  C   UNL A   1      41.442  32.629  35.408  1.00  0.00     0.131 A 
ATOM     60  C   UNL A   1      39.313  32.241  37.131  1.00  0.00     0.055 A 
ATOM     61  C   UNL A   1      41.206  33.547  36.435  1.00  0.00     0.041 A 
ATOM     62  F   UNL A   1      42.450  32.892  34.562  1.00  0.00    -0.206 F 
ATOM     63  C   UNL A   1      40.127  33.363  37.294  1.00  0.00     0.022 A 
BRANCH  60  64
ATOM     64  S   UNL A   1      37.781  32.084  38.088  1.00  0.00     0.124 S 
ATOM     65  O   UNL A   1      37.405  30.698  37.819  1.00  0.00    -0.237 OA
ATOM     66  O   UNL A   1      38.226  32.373  39.447  1.00  0.00    -0.237 OA
ATOM     67  O   UNL A   1      36.901  33.087  37.493  1.00  0.00    -0.744 OA
ENDBRANCH  60  64
ENDBRANCH  43  57
BRANCH  44  68
ATOM     68  C   UNL A   1      42.449  25.550  27.359  1.00  0.00     0.023 A 
ATOM     69  C   UNL A   1      42.029  24.212  27.280  1.00  0.00     0.031 A 
ATOM     70  C   UNL A   1      43.232  26.055  26.306  1.00  0.00     0.131 A 
ATOM     71  C   UNL A   1      42.442  23.409  26.204  1.00  0.00     0.055 A 
ATOM     72  C   UNL A   1      43.588  25.270  25.207  1.00  0.00     0.041 A 
ATOM     73  F   UNL A   1      43.660  27.328  26.326  1.00  0.00    -0.206 F 
ATOM     74  C   UNL A   1      43.207  23.934  25.161  1.00  0.00     0.022 A 
BRANCH  71  75
ATOM     75  S   UNL A   1      42.053  21.637  26.242  1.00  0.00     0.124 S 
ATOM     76  O   UNL A   1      43.022  21.100  25.295  1.00  0.00    -0.237 OA
ATOM     77  O   UNL A   1      42.278  21.309  27.646  1.00  0.00    -0.237 OA
ATOM     78  O   UNL A   1      40.659  21.587  25.808  1.00  0.00    -0.744 OA
ENDBRANCH  71  75
ENDBRANCH  44  68
BRANCH  56  79
ATOM     79  C   UNL A   1      45.498  26.338  33.583  1.00  0.00     0.023 A 
ATOM     80  C   UNL A   1      45.321  25.180  34.361  1.00  0.00     0.031 A 
ATOM     81  C   UNL A   1      46.801  26.851  33.454  1.00  0.00     0.131 A 
ATOM     82  C   UNL A   1      46.414  24.621  35.042  1.00  0.00     0.055 A 
ATOM     83  C   UNL A   1      47.896  26.247  34.071  1.00  0.00     0.041 A 
ATOM     84  F   UNL A   1      47.032  27.956  32.726  1.00  0.00    -0.206 F 
ATOM     85  C   UNL A   1      47.703  25.136  34.887  1.00  0.00     0.022 A 
BRANCH  82  86
ATOM     86  S   UNL A   1      46.105  23.292  36.238  1.00  0.00     0.124 S 
ATOM     87  O   UNL A   1      45.333  23.983  37.265  1.00  0.00    -0.237 OA
ATOM     88  O   UNL A   1      45.371  22.317  35.437  1.00  0.00    -0.237 OA
ATOM     89  O   UNL A   1      47.447  22.878  36.643  1.00  0.00    -0.744 OA
ENDBRANCH  82  86
ENDBRANCH  56  79
ENDBRANCH  30  31
ENDBRANCH  22  25
ENDBRANCH  20  21
ENDBRANCH   1  20
TORSDOF 17
ENDMDL
