MODEL 1
REMARK VINA RESULT:     -11.2      0.000      0.000
REMARK SMILES COc1ccc(-c2ccc(C(=O)NCc3ccc(C(=O)NCCCCNC(=O)c4ccc(-c5c6nc(c(-c7cc(S(=O)(=O)[O-])ccc7F)c7ccc([nH]7)c(-c7cc(S(=O)(=O)[O-])ccc7F)c7nc(c(-c8cc(S(=O)(=O)[O-])ccc8F)c8ccc5[nH]8)C=C7)C=C6)cc4)cc3)o2)c([N+](=O)[O-])c1
REMARK SMILES IDX 22 1 21 2 19 3 20 4 18 6 15 7 16 8 93 9 17 10 92 11 14 12
REMARK SMILES IDX 13 13 11 14 12 15 10 17 7 18 8 19 94 20 9 21 6 22 3 23 4 24
REMARK SMILES IDX 99 25 5 26 95 27 2 28 1 29 96 30 97 31 98 32 23 33 24 34
REMARK SMILES IDX 25 35 26 36 27 37 28 39 29 40 30 41 91 42 31 43 90 44 32 45
REMARK SMILES IDX 33 46 34 47 84 48 35 49 89 50 83 51 85 52 36 53 88 54 82 55
REMARK SMILES IDX 81 56 37 58 69 59 49 60 68 61 50 62 53 63 67 64 86 65 51 66
REMARK SMILES IDX 52 67 66 69 87 70 54 71 38 72 39 73 47 74 40 75 46 76 48 77
REMARK SMILES IDX 45 78 41 79 42 80 43 81 44 82 70 83 71 84 79 85 72 86 78 87
REMARK SMILES IDX 80 88 77 89 73 90 74 91 75 92 76 93 55 94 56 95 64 96 57 97
REMARK SMILES IDX 63 98 65 99 62 100 58 101 59 102 60 103 61 104
REMARK H PARENT 21 5 13 16 26 38 85 57 53 68
REMARK Flexibility Score: inf
ROOT
ATOM      1  C   UNL A   1      35.842  33.031  27.860  1.00  0.00     0.116 C 
ENDROOT
BRANCH   1   2
ATOM      2  N   UNL A   1      36.232  31.701  28.281  1.00  0.00    -0.352 N 
ATOM      3  C   UNL A   1      35.648  30.480  28.051  1.00  0.00     0.251 C 
ATOM      4  O   UNL A   1      36.214  29.471  28.468  1.00  0.00    -0.269 OA
ATOM      5  H   UNL A   1      37.053  31.666  28.823  1.00  0.00     0.163 HD
BRANCH   3   6
ATOM      6  C   UNL A   1      34.386  30.327  27.276  1.00  0.00     0.039 A 
ATOM      7  C   UNL A   1      31.930  30.177  25.877  1.00  0.00    -0.029 A 
ATOM      8  C   UNL A   1      32.165  31.197  26.811  1.00  0.00     0.006 A 
ATOM      9  C   UNL A   1      32.950  29.252  25.635  1.00  0.00     0.006 A 
ATOM     10  C   UNL A   1      33.381  31.274  27.496  1.00  0.00     0.014 A 
ATOM     11  C   UNL A   1      34.168  29.338  26.315  1.00  0.00     0.014 A 
BRANCH   7  12
ATOM     12  C   UNL A   1      30.636  30.073  25.113  1.00  0.00     0.152 C 
BRANCH  12  13
ATOM     13  N   UNL A   1      30.861  29.967  23.692  1.00  0.00    -0.345 N 
ATOM     14  C   UNL A   1      30.628  28.950  22.802  1.00  0.00     0.287 C 
ATOM     15  O   UNL A   1      30.786  29.241  21.613  1.00  0.00    -0.266 OA
ATOM     16  H   UNL A   1      31.251  30.774  23.286  1.00  0.00     0.164 HD
BRANCH  14  17
ATOM     17  C   UNL A   1      30.234  27.622  23.236  1.00  0.00     0.192 A 
ATOM     18  C   UNL A   1      30.714  25.542  23.831  1.00  0.00     0.142 A 
ATOM     19  C   UNL A   1      29.352  25.670  23.962  1.00  0.00     0.052 A 
ATOM     20  O   UNL A   1      31.255  26.713  23.410  1.00  0.00    -0.451 OA
ATOM     21  C   UNL A   1      29.047  26.999  23.586  1.00  0.00     0.057 A 
BRANCH  18  22
ATOM     22  C   UNL A   1      31.652  24.462  24.076  1.00  0.00     0.095 A 
ATOM     23  C   UNL A   1      33.681  22.521  24.445  1.00  0.00     0.125 A 
ATOM     24  C   UNL A   1      33.283  22.905  23.162  1.00  0.00     0.047 A 
ATOM     25  C   UNL A   1      33.051  23.084  25.551  1.00  0.00     0.132 A 
ATOM     26  C   UNL A   1      32.274  23.855  22.978  1.00  0.00     0.023 A 
ATOM     27  C   UNL A   1      32.041  24.044  25.357  1.00  0.00     0.284 A 
BRANCH  23  28
ATOM     28  O   UNL A   1      34.700  21.613  24.479  1.00  0.00    -0.497 OA
ATOM     29  C   UNL A   1      36.003  22.092  24.166  1.00  0.00     0.278 C 
ENDBRANCH  23  28
BRANCH  27  30
ATOM     30  N   UNL A   1      31.405  24.587  26.549  1.00  0.00     0.063 N 
ATOM     31  O   UNL A   1      30.604  23.868  27.161  1.00  0.00    -0.258 OA
ATOM     32  O   UNL A   1      31.746  25.727  26.896  1.00  0.00    -0.258 OA
ENDBRANCH  27  30
ENDBRANCH  18  22
ENDBRANCH  14  17
ENDBRANCH  12  13
ENDBRANCH   7  12
ENDBRANCH   3   6
ENDBRANCH   1   2
BRANCH   1  33
ATOM     33  C   UNL A   1      35.734  33.971  29.062  1.00  0.00     0.023 C 
BRANCH  33  34
ATOM     34  C   UNL A   1      34.567  34.956  29.001  1.00  0.00     0.023 C 
BRANCH  34  35
ATOM     35  C   UNL A   1      33.253  34.421  29.554  1.00  0.00     0.116 C 
BRANCH  35  36
ATOM     36  N   UNL A   1      32.615  35.327  30.494  1.00  0.00    -0.352 N 
ATOM     37  C   UNL A   1      32.960  35.581  31.803  1.00  0.00     0.251 C 
ATOM     38  H   UNL A   1      31.837  35.823  30.152  1.00  0.00     0.163 HD
ATOM     39  O   UNL A   1      32.250  36.290  32.495  1.00  0.00    -0.269 OA
BRANCH  37  40
ATOM     40  C   UNL A   1      34.171  34.938  32.361  1.00  0.00     0.039 A 
ATOM     41  C   UNL A   1      34.070  33.635  32.848  1.00  0.00     0.014 A 
ATOM     42  C   UNL A   1      35.401  35.602  32.363  1.00  0.00     0.014 A 
ATOM     43  C   UNL A   1      35.220  32.973  33.281  1.00  0.00     0.010 A 
ATOM     44  C   UNL A   1      36.556  34.914  32.720  1.00  0.00     0.010 A 
ATOM     45  C   UNL A   1      36.477  33.594  33.188  1.00  0.00    -0.014 A 
BRANCH  45  46
ATOM     46  C   UNL A   1      37.712  32.875  33.588  1.00  0.00     0.031 A 
ATOM     47  C   UNL A   1      38.407  33.226  34.875  1.00  0.00     0.074 A 
ATOM     48  C   UNL A   1      38.228  31.938  32.769  1.00  0.00     0.049 A 
ATOM     49  N   UNL A   1      39.498  32.723  35.390  1.00  0.00    -0.248 NA
ATOM     50  C   UNL A   1      37.811  34.310  35.671  1.00  0.00     0.031 C 
ATOM     51  C   UNL A   1      37.677  31.558  31.465  1.00  0.00     0.029 A 
ATOM     52  N   UNL A   1      39.332  31.134  32.906  1.00  0.00    -0.354 N 
ATOM     53  C   UNL A   1      39.726  33.432  36.565  1.00  0.00     0.074 A 
ATOM     54  C   UNL A   1      38.698  34.448  36.644  1.00  0.00     0.031 C 
ATOM     55  C   UNL A   1      38.423  30.572  30.943  1.00  0.00     0.029 A 
ATOM     56  C   UNL A   1      39.523  30.272  31.853  1.00  0.00     0.049 A 
ATOM     57  H   UNL A   1      39.930  31.172  33.687  1.00  0.00     0.167 HD
ATOM     58  C   UNL A   1      40.684  33.235  37.504  1.00  0.00     0.034 A 
ATOM     59  C   UNL A   1      40.477  29.342  31.645  1.00  0.00     0.034 A 
ATOM     60  C   UNL A   1      41.694  32.208  37.411  1.00  0.00     0.049 A 
ATOM     61  C   UNL A   1      41.525  29.132  32.708  1.00  0.00     0.074 A 
ATOM     62  C   UNL A   1      42.683  31.885  38.323  1.00  0.00     0.029 A 
ATOM     63  N   UNL A   1      41.846  31.338  36.338  1.00  0.00    -0.354 N 
ATOM     64  N   UNL A   1      41.690  29.770  33.845  1.00  0.00    -0.248 NA
ATOM     65  C   UNL A   1      42.503  28.065  32.468  1.00  0.00     0.031 C 
ATOM     66  C   UNL A   1      43.469  30.863  37.777  1.00  0.00     0.029 A 
ATOM     67  C   UNL A   1      42.926  30.495  36.556  1.00  0.00     0.049 A 
ATOM     68  H   UNL A   1      41.271  31.323  35.538  1.00  0.00     0.167 HD
ATOM     69  C   UNL A   1      42.771  29.155  34.470  1.00  0.00     0.074 A 
ATOM     70  C   UNL A   1      43.203  28.087  33.591  1.00  0.00     0.031 C 
ATOM     71  C   UNL A   1      43.351  29.442  35.664  1.00  0.00     0.034 A 
BRANCH  58  72
ATOM     72  C   UNL A   1      40.688  34.166  38.695  1.00  0.00     0.023 A 
ATOM     73  C   UNL A   1      39.897  33.911  39.831  1.00  0.00     0.031 A 
ATOM     74  C   UNL A   1      41.459  35.340  38.682  1.00  0.00     0.131 A 
ATOM     75  C   UNL A   1      39.831  34.856  40.865  1.00  0.00     0.055 A 
ATOM     76  C   UNL A   1      41.455  36.236  39.756  1.00  0.00     0.041 A 
ATOM     77  F   UNL A   1      42.218  35.650  37.619  1.00  0.00    -0.206 F 
ATOM     78  C   UNL A   1      40.625  36.005  40.847  1.00  0.00     0.022 A 
BRANCH  75  79
ATOM     79  S   UNL A   1      38.577  34.637  42.159  1.00  0.00     0.124 S 
ATOM     80  O   UNL A   1      37.391  34.320  41.366  1.00  0.00    -0.237 OA
ATOM     81  O   UNL A   1      39.128  33.545  42.950  1.00  0.00    -0.237 OA
ATOM     82  O   UNL A   1      38.543  35.937  42.826  1.00  0.00    -0.744 OA
ENDBRANCH  75  79
ENDBRANCH  58  72
BRANCH  59  83
ATOM     83  C   UNL A   1      40.480  28.527  30.397  1.00  0.00     0.023 A 
ATOM     84  C   UNL A   1      41.366  28.816  29.346  1.00  0.00     0.031 A 
ATOM     85  C   UNL A   1      39.569  27.472  30.220  1.00  0.00     0.131 A 
ATOM     86  C   UNL A   1      41.289  28.091  28.147  1.00  0.00     0.055 A 
ATOM     87  C   UNL A   1      39.531  26.719  29.044  1.00  0.00     0.041 A 
ATOM     88  F   UNL A   1      38.707  27.147  31.197  1.00  0.00    -0.206 F 
ATOM     89  C   UNL A   1      40.386  27.037  27.993  1.00  0.00     0.022 A 
BRANCH  86  90
ATOM     90  S   UNL A   1      42.336  28.601  26.756  1.00  0.00     0.124 S 
ATOM     91  O   UNL A   1      43.163  27.416  26.556  1.00  0.00    -0.237 OA
ATOM     92  O   UNL A   1      41.347  28.877  25.719  1.00  0.00    -0.237 OA
ATOM     93  O   UNL A   1      43.038  29.774  27.272  1.00  0.00    -0.744 OA
ENDBRANCH  86  90
ENDBRANCH  59  83
BRANCH  71  94
ATOM     94  C   UNL A   1      44.488  28.549  36.101  1.00  0.00     0.023 A 
ATOM     95  C   UNL A   1      44.297  27.502  37.018  1.00  0.00     0.031 A 
ATOM     96  C   UNL A   1      45.788  28.772  35.611  1.00  0.00     0.131 A 
ATOM     97  C   UNL A   1      45.400  26.761  37.471  1.00  0.00     0.055 A 
ATOM     98  C   UNL A   1      46.870  27.989  36.015  1.00  0.00     0.041 A 
ATOM     99  F   UNL A   1      46.027  29.759  34.732  1.00  0.00    -0.206 F 
ATOM    100  C   UNL A   1      46.682  26.987  36.963  1.00  0.00     0.022 A 
BRANCH  97 101
ATOM    101  S   UNL A   1      45.153  25.572  38.818  1.00  0.00     0.124 S 
ATOM    102  O   UNL A   1      44.301  26.323  39.735  1.00  0.00    -0.237 OA
ATOM    103  O   UNL A   1      44.518  24.451  38.132  1.00  0.00    -0.237 OA
ATOM    104  O   UNL A   1      46.509  25.314  39.301  1.00  0.00    -0.744 OA
ENDBRANCH  97 101
ENDBRANCH  71  94
ENDBRANCH  45  46
ENDBRANCH  37  40
ENDBRANCH  35  36
ENDBRANCH  34  35
ENDBRANCH  33  34
ENDBRANCH   1  33
TORSDOF 20
ENDMDL
MODEL 2
REMARK VINA RESULT:     -11.1      1.607      7.639
REMARK SMILES COc1ccc(-c2ccc(C(=O)NCc3ccc(C(=O)NCCCCNC(=O)c4ccc(-c5c6nc(c(-c7cc(S(=O)(=O)[O-])ccc7F)c7ccc([nH]7)c(-c7cc(S(=O)(=O)[O-])ccc7F)c7nc(c(-c8cc(S(=O)(=O)[O-])ccc8F)c8ccc5[nH]8)C=C7)C=C6)cc4)cc3)o2)c([N+](=O)[O-])c1
REMARK SMILES IDX 22 1 21 2 19 3 20 4 18 6 15 7 16 8 93 9 17 10 92 11 14 12
REMARK SMILES IDX 13 13 11 14 12 15 10 17 7 18 8 19 94 20 9 21 6 22 3 23 4 24
REMARK SMILES IDX 99 25 5 26 95 27 2 28 1 29 96 30 97 31 98 32 23 33 24 34
REMARK SMILES IDX 25 35 26 36 27 37 28 39 29 40 30 41 91 42 31 43 90 44 32 45
REMARK SMILES IDX 33 46 34 47 84 48 35 49 89 50 83 51 85 52 36 53 88 54 82 55
REMARK SMILES IDX 81 56 37 58 69 59 49 60 68 61 50 62 53 63 67 64 86 65 51 66
REMARK SMILES IDX 52 67 66 69 87 70 54 71 38 72 39 73 47 74 40 75 46 76 48 77
REMARK SMILES IDX 45 78 41 79 42 80 43 81 44 82 70 83 71 84 79 85 72 86 78 87
REMARK SMILES IDX 80 88 77 89 73 90 74 91 75 92 76 93 55 94 56 95 64 96 57 97
REMARK SMILES IDX 63 98 65 99 62 100 58 101 59 102 60 103 61 104
REMARK H PARENT 21 5 13 16 26 38 85 57 53 68
REMARK Flexibility Score: inf
ROOT
ATOM      1  C   UNL A   1      34.715  34.466  29.193  1.00  0.00     0.116 C 
ENDROOT
BRANCH   1   2
ATOM      2  N   UNL A   1      36.150  34.270  29.148  1.00  0.00    -0.352 N 
ATOM      3  C   UNL A   1      36.895  33.194  28.735  1.00  0.00     0.251 C 
ATOM      4  O   UNL A   1      38.122  33.296  28.734  1.00  0.00    -0.269 OA
ATOM      5  H   UNL A   1      36.679  35.036  29.469  1.00  0.00     0.163 HD
BRANCH   3   6
ATOM      6  C   UNL A   1      36.279  31.931  28.243  1.00  0.00     0.039 A 
ATOM      7  C   UNL A   1      34.964  29.616  27.281  1.00  0.00    -0.029 A 
ATOM      8  C   UNL A   1      34.282  30.837  27.394  1.00  0.00     0.006 A 
ATOM      9  C   UNL A   1      36.317  29.579  27.631  1.00  0.00     0.006 A 
ATOM     10  C   UNL A   1      34.934  31.982  27.862  1.00  0.00     0.014 A 
ATOM     11  C   UNL A   1      36.968  30.727  28.090  1.00  0.00     0.014 A 
BRANCH   7  12
ATOM     12  C   UNL A   1      34.294  28.369  26.769  1.00  0.00     0.152 C 
BRANCH  12  13
ATOM     13  N   UNL A   1      32.937  28.257  27.242  1.00  0.00    -0.345 N 
ATOM     14  C   UNL A   1      31.924  27.391  26.921  1.00  0.00     0.287 C 
ATOM     15  O   UNL A   1      30.918  27.464  27.633  1.00  0.00    -0.266 OA
ATOM     16  H   UNL A   1      32.693  28.924  27.924  1.00  0.00     0.164 HD
BRANCH  14  17
ATOM     17  C   UNL A   1      32.028  26.462  25.810  1.00  0.00     0.192 A 
ATOM     18  C   UNL A   1      33.000  24.762  24.772  1.00  0.00     0.142 A 
ATOM     19  C   UNL A   1      31.921  25.114  23.997  1.00  0.00     0.052 A 
ATOM     20  O   UNL A   1      33.064  25.556  25.871  1.00  0.00    -0.451 OA
ATOM     21  C   UNL A   1      31.299  26.196  24.661  1.00  0.00     0.057 A 
BRANCH  18  22
ATOM     22  C   UNL A   1      34.018  23.733  24.673  1.00  0.00     0.095 A 
ATOM     23  C   UNL A   1      36.187  21.914  24.584  1.00  0.00     0.125 A 
ATOM     24  C   UNL A   1      36.172  23.050  23.770  1.00  0.00     0.047 A 
ATOM     25  C   UNL A   1      35.108  21.667  25.427  1.00  0.00     0.132 A 
ATOM     26  C   UNL A   1      35.098  23.944  23.805  1.00  0.00     0.023 A 
ATOM     27  C   UNL A   1      34.033  22.574  25.461  1.00  0.00     0.284 A 
BRANCH  23  28
ATOM     28  O   UNL A   1      37.313  21.149  24.476  1.00  0.00    -0.497 OA
ATOM     29  C   UNL A   1      38.337  21.366  25.439  1.00  0.00     0.278 C 
ENDBRANCH  23  28
BRANCH  27  30
ATOM     30  N   UNL A   1      32.924  22.255  26.349  1.00  0.00     0.063 N 
ATOM     31  O   UNL A   1      31.901  21.766  25.851  1.00  0.00    -0.258 OA
ATOM     32  O   UNL A   1      33.100  22.455  27.560  1.00  0.00    -0.258 OA
ENDBRANCH  27  30
ENDBRANCH  18  22
ENDBRANCH  14  17
ENDBRANCH  12  13
ENDBRANCH   7  12
ENDBRANCH   3   6
ENDBRANCH   1   2
BRANCH   1  33
ATOM     33  C   UNL A   1      34.298  35.629  28.290  1.00  0.00     0.023 C 
BRANCH  33  34
ATOM     34  C   UNL A   1      33.278  36.585  28.908  1.00  0.00     0.023 C 
BRANCH  34  35
ATOM     35  C   UNL A   1      33.541  36.941  30.364  1.00  0.00     0.116 C 
BRANCH  35  36
ATOM     36  N   UNL A   1      32.439  36.598  31.247  1.00  0.00    -0.352 N 
ATOM     37  C   UNL A   1      32.411  35.660  32.255  1.00  0.00     0.251 C 
ATOM     38  H   UNL A   1      31.604  37.102  31.108  1.00  0.00     0.163 HD
ATOM     39  O   UNL A   1      31.367  35.415  32.833  1.00  0.00    -0.269 OA
BRANCH  37  40
ATOM     40  C   UNL A   1      33.654  34.924  32.581  1.00  0.00     0.039 A 
ATOM     41  C   UNL A   1      34.862  35.623  32.581  1.00  0.00     0.014 A 
ATOM     42  C   UNL A   1      33.619  33.570  32.922  1.00  0.00     0.014 A 
ATOM     43  C   UNL A   1      36.029  34.974  32.987  1.00  0.00     0.010 A 
ATOM     44  C   UNL A   1      34.767  32.949  33.401  1.00  0.00     0.010 A 
ATOM     45  C   UNL A   1      35.986  33.643  33.433  1.00  0.00    -0.014 A 
BRANCH  45  46
ATOM     46  C   UNL A   1      37.212  32.965  33.925  1.00  0.00     0.031 A 
ATOM     47  C   UNL A   1      37.837  31.859  33.119  1.00  0.00     0.074 A 
ATOM     48  C   UNL A   1      37.732  33.318  35.116  1.00  0.00     0.049 A 
ATOM     49  N   UNL A   1      38.897  31.140  33.385  1.00  0.00    -0.248 NA
ATOM     50  C   UNL A   1      37.160  31.492  31.866  1.00  0.00     0.031 C 
ATOM     51  C   UNL A   1      37.175  34.334  36.014  1.00  0.00     0.029 A 
ATOM     52  N   UNL A   1      38.843  32.866  35.781  1.00  0.00    -0.354 N 
ATOM     53  C   UNL A   1      39.010  30.231  32.338  1.00  0.00     0.074 A 
ATOM     54  C   UNL A   1      37.868  30.445  31.474  1.00  0.00     0.031 C 
ATOM     55  C   UNL A   1      37.967  34.450  37.092  1.00  0.00     0.029 A 
ATOM     56  C   UNL A   1      39.067  33.498  36.981  1.00  0.00     0.049 A 
ATOM     57  H   UNL A   1      39.427  32.154  35.429  1.00  0.00     0.167 HD
ATOM     58  C   UNL A   1      39.991  29.325  32.103  1.00  0.00     0.034 A 
ATOM     59  C   UNL A   1      40.050  33.331  37.887  1.00  0.00     0.034 A 
ATOM     60  C   UNL A   1      41.128  29.135  32.971  1.00  0.00     0.049 A 
ATOM     61  C   UNL A   1      41.136  32.326  37.601  1.00  0.00     0.074 A 
ATOM     62  C   UNL A   1      42.206  28.283  32.809  1.00  0.00     0.029 A 
ATOM     63  N   UNL A   1      41.333  29.808  34.169  1.00  0.00    -0.354 N 
ATOM     64  N   UNL A   1      41.264  31.517  36.573  1.00  0.00    -0.248 NA
ATOM     65  C   UNL A   1      42.220  32.227  38.585  1.00  0.00     0.031 C 
ATOM     66  C   UNL A   1      43.029  28.395  33.936  1.00  0.00     0.029 A 
ATOM     67  C   UNL A   1      42.507  29.373  34.767  1.00  0.00     0.049 A 
ATOM     68  H   UNL A   1      40.732  30.494  34.541  1.00  0.00     0.167 HD
ATOM     69  C   UNL A   1      42.462  30.837  36.773  1.00  0.00     0.074 A 
ATOM     70  C   UNL A   1      43.023  31.346  38.008  1.00  0.00     0.031 C 
ATOM     71  C   UNL A   1      43.048  29.883  36.006  1.00  0.00     0.034 A 
BRANCH  58  72
ATOM     72  C   UNL A   1      39.856  28.463  30.868  1.00  0.00     0.023 A 
ATOM     73  C   UNL A   1      40.537  28.771  29.677  1.00  0.00     0.031 A 
ATOM     74  C   UNL A   1      39.007  27.342  30.868  1.00  0.00     0.131 A 
ATOM     75  C   UNL A   1      40.294  28.021  28.516  1.00  0.00     0.055 A 
ATOM     76  C   UNL A   1      38.837  26.547  29.731  1.00  0.00     0.041 A 
ATOM     77  F   UNL A   1      38.314  27.009  31.968  1.00  0.00    -0.206 F 
ATOM     78  C   UNL A   1      39.469  26.895  28.542  1.00  0.00     0.022 A 
BRANCH  75  79
ATOM     79  S   UNL A   1      40.951  28.632  26.939  1.00  0.00     0.124 S 
ATOM     80  O   UNL A   1      39.781  29.300  26.373  1.00  0.00    -0.237 OA
ATOM     81  O   UNL A   1      42.040  29.501  27.365  1.00  0.00    -0.237 OA
ATOM     82  O   UNL A   1      41.360  27.413  26.244  1.00  0.00    -0.744 OA
ENDBRANCH  75  79
ENDBRANCH  58  72
BRANCH  59  83
ATOM     83  C   UNL A   1      40.069  34.140  39.140  1.00  0.00     0.023 A 
ATOM     84  C   UNL A   1      39.330  33.746  40.267  1.00  0.00     0.031 A 
ATOM     85  C   UNL A   1      40.796  35.340  39.214  1.00  0.00     0.131 A 
ATOM     86  C   UNL A   1      39.293  34.571  41.402  1.00  0.00     0.055 A 
ATOM     87  C   UNL A   1      40.798  36.132  40.365  1.00  0.00     0.041 A 
ATOM     88  F   UNL A   1      41.528  35.758  38.169  1.00  0.00    -0.206 F 
ATOM     89  C   UNL A   1      40.032  35.754  41.464  1.00  0.00     0.022 A 
BRANCH  86  90
ATOM     90  S   UNL A   1      38.197  34.111  42.773  1.00  0.00     0.124 S 
ATOM     91  O   UNL A   1      39.141  33.552  43.734  1.00  0.00    -0.237 OA
ATOM     92  O   UNL A   1      37.604  35.396  43.129  1.00  0.00    -0.237 OA
ATOM     93  O   UNL A   1      37.279  33.150  42.166  1.00  0.00    -0.744 OA
ENDBRANCH  86  90
ENDBRANCH  59  83
BRANCH  71  94
ATOM     94  C   UNL A   1      44.391  29.368  36.466  1.00  0.00     0.023 A 
ATOM     95  C   UNL A   1      44.503  28.308  37.382  1.00  0.00     0.031 A 
ATOM     96  C   UNL A   1      45.574  29.969  36.001  1.00  0.00     0.131 A 
ATOM     97  C   UNL A   1      45.767  27.928  37.859  1.00  0.00     0.055 A 
ATOM     98  C   UNL A   1      46.832  29.542  36.428  1.00  0.00     0.041 A 
ATOM     99  F   UNL A   1      45.526  30.986  35.124  1.00  0.00    -0.206 F 
ATOM    100  C   UNL A   1      46.933  28.527  37.374  1.00  0.00     0.022 A 
BRANCH  97 101
ATOM    101  S   UNL A   1      45.859  26.714  39.203  1.00  0.00     0.124 S 
ATOM    102  O   UNL A   1      46.459  25.565  38.534  1.00  0.00    -0.237 OA
ATOM    103  O   UNL A   1      46.703  27.395  40.180  1.00  0.00    -0.237 OA
ATOM    104  O   UNL A   1      44.464  26.540  39.605  1.00  0.00    -0.744 OA
ENDBRANCH  97 101
ENDBRANCH  71  94
ENDBRANCH  45  46
ENDBRANCH  37  40
ENDBRANCH  35  36
ENDBRANCH  34  35
ENDBRANCH  33  34
ENDBRANCH   1  33
TORSDOF 20
ENDMDL
MODEL 3
REMARK VINA RESULT:     -11.0      1.566      2.365
REMARK SMILES COc1ccc(-c2ccc(C(=O)NCc3ccc(C(=O)NCCCCNC(=O)c4ccc(-c5c6nc(c(-c7cc(S(=O)(=O)[O-])ccc7F)c7ccc([nH]7)c(-c7cc(S(=O)(=O)[O-])ccc7F)c7nc(c(-c8cc(S(=O)(=O)[O-])ccc8F)c8ccc5[nH]8)C=C7)C=C6)cc4)cc3)o2)c([N+](=O)[O-])c1
REMARK SMILES IDX 22 1 21 2 19 3 20 4 18 6 15 7 16 8 93 9 17 10 92 11 14 12
REMARK SMILES IDX 13 13 11 14 12 15 10 17 7 18 8 19 94 20 9 21 6 22 3 23 4 24
REMARK SMILES IDX 99 25 5 26 95 27 2 28 1 29 96 30 97 31 98 32 23 33 24 34
REMARK SMILES IDX 25 35 26 36 27 37 28 39 29 40 30 41 91 42 31 43 90 44 32 45
REMARK SMILES IDX 33 46 34 47 84 48 35 49 89 50 83 51 85 52 36 53 88 54 82 55
REMARK SMILES IDX 81 56 37 58 69 59 49 60 68 61 50 62 53 63 67 64 86 65 51 66
REMARK SMILES IDX 52 67 66 69 87 70 54 71 38 72 39 73 47 74 40 75 46 76 48 77
REMARK SMILES IDX 45 78 41 79 42 80 43 81 44 82 70 83 71 84 79 85 72 86 78 87
REMARK SMILES IDX 80 88 77 89 73 90 74 91 75 92 76 93 55 94 56 95 64 96 57 97
REMARK SMILES IDX 63 98 65 99 62 100 58 101 59 102 60 103 61 104
REMARK H PARENT 21 5 13 16 26 38 85 57 53 68
REMARK Flexibility Score: inf
ROOT
ATOM      1  C   UNL A   1      34.094  33.837  29.406  1.00  0.00     0.116 C 
ENDROOT
BRANCH   1   2
ATOM      2  N   UNL A   1      35.522  33.741  29.179  1.00  0.00    -0.352 N 
ATOM      3  C   UNL A   1      36.268  32.771  28.557  1.00  0.00     0.251 C 
ATOM      4  O   UNL A   1      37.478  32.952  28.432  1.00  0.00    -0.269 OA
ATOM      5  H   UNL A   1      36.045  34.498  29.529  1.00  0.00     0.163 HD
BRANCH   3   6
ATOM      6  C   UNL A   1      35.663  31.535  27.987  1.00  0.00     0.039 A 
ATOM      7  C   UNL A   1      34.661  29.107  26.931  1.00  0.00    -0.029 A 
ATOM      8  C   UNL A   1      35.988  29.206  27.376  1.00  0.00     0.006 A 
ATOM      9  C   UNL A   1      33.839  30.232  27.047  1.00  0.00     0.006 A 
ATOM     10  C   UNL A   1      36.480  30.403  27.904  1.00  0.00     0.014 A 
ATOM     11  C   UNL A   1      34.332  31.425  27.584  1.00  0.00     0.014 A 
BRANCH   7  12
ATOM     12  C   UNL A   1      34.097  27.830  26.369  1.00  0.00     0.152 C 
BRANCH  12  13
ATOM     13  N   UNL A   1      32.698  27.677  26.685  1.00  0.00    -0.345 N 
ATOM     14  C   UNL A   1      31.836  26.621  26.538  1.00  0.00     0.287 C 
ATOM     15  O   UNL A   1      30.728  26.765  27.062  1.00  0.00    -0.266 OA
ATOM     16  H   UNL A   1      32.286  28.479  27.082  1.00  0.00     0.164 HD
BRANCH  14  17
ATOM     17  C   UNL A   1      32.204  25.424  25.804  1.00  0.00     0.192 A 
ATOM     18  C   UNL A   1      33.659  23.851  25.241  1.00  0.00     0.142 A 
ATOM     19  C   UNL A   1      32.486  23.529  24.602  1.00  0.00     0.052 A 
ATOM     20  O   UNL A   1      33.496  24.979  25.977  1.00  0.00    -0.451 OA
ATOM     21  C   UNL A   1      31.556  24.531  24.965  1.00  0.00     0.057 A 
BRANCH  18  22
ATOM     22  C   UNL A   1      34.970  23.233  25.309  1.00  0.00     0.095 A 
ATOM     23  C   UNL A   1      37.564  22.161  25.689  1.00  0.00     0.125 A 
ATOM     24  C   UNL A   1      37.380  23.530  25.476  1.00  0.00     0.047 A 
ATOM     25  C   UNL A   1      36.458  21.316  25.687  1.00  0.00     0.132 A 
ATOM     26  C   UNL A   1      36.101  24.059  25.278  1.00  0.00     0.023 A 
ATOM     27  C   UNL A   1      35.174  21.858  25.493  1.00  0.00     0.284 A 
BRANCH  23  28
ATOM     28  O   UNL A   1      38.860  21.786  25.904  1.00  0.00    -0.497 OA
ATOM     29  C   UNL A   1      39.683  22.694  26.626  1.00  0.00     0.278 C 
ENDBRANCH  23  28
BRANCH  27  30
ATOM     30  N   UNL A   1      34.056  20.925  25.483  1.00  0.00     0.063 N 
ATOM     31  O   UNL A   1      33.450  20.730  26.545  1.00  0.00    -0.258 OA
ATOM     32  O   UNL A   1      33.759  20.419  24.391  1.00  0.00    -0.258 OA
ENDBRANCH  27  30
ENDBRANCH  18  22
ENDBRANCH  14  17
ENDBRANCH  12  13
ENDBRANCH   7  12
ENDBRANCH   3   6
ENDBRANCH   1   2
BRANCH   1  33
ATOM     33  C   UNL A   1      33.430  34.699  28.331  1.00  0.00     0.023 C 
BRANCH  33  34
ATOM     34  C   UNL A   1      32.734  35.953  28.858  1.00  0.00     0.023 C 
BRANCH  34  35
ATOM     35  C   UNL A   1      33.350  36.542  30.119  1.00  0.00     0.116 C 
BRANCH  35  36
ATOM     36  N   UNL A   1      32.458  36.505  31.265  1.00  0.00    -0.352 N 
ATOM     37  C   UNL A   1      32.600  35.793  32.436  1.00  0.00     0.251 C 
ATOM     38  H   UNL A   1      31.648  37.060  31.197  1.00  0.00     0.163 HD
ATOM     39  O   UNL A   1      31.701  35.785  33.258  1.00  0.00    -0.269 OA
BRANCH  37  40
ATOM     40  C   UNL A   1      33.835  35.004  32.647  1.00  0.00     0.039 A 
ATOM     41  C   UNL A   1      35.066  35.620  32.423  1.00  0.00     0.014 A 
ATOM     42  C   UNL A   1      33.775  33.684  33.100  1.00  0.00     0.014 A 
ATOM     43  C   UNL A   1      36.243  34.928  32.717  1.00  0.00     0.010 A 
ATOM     44  C   UNL A   1      34.944  33.026  33.466  1.00  0.00     0.010 A 
ATOM     45  C   UNL A   1      36.191  33.639  33.273  1.00  0.00    -0.014 A 
BRANCH  45  46
ATOM     46  C   UNL A   1      37.436  32.920  33.645  1.00  0.00     0.031 A 
ATOM     47  C   UNL A   1      38.227  33.355  34.848  1.00  0.00     0.074 A 
ATOM     48  C   UNL A   1      37.871  31.907  32.871  1.00  0.00     0.049 A 
ATOM     49  N   UNL A   1      39.341  32.864  35.326  1.00  0.00    -0.248 NA
ATOM     50  C   UNL A   1      37.714  34.515  35.591  1.00  0.00     0.031 C 
ATOM     51  C   UNL A   1      37.220  31.439  31.645  1.00  0.00     0.029 A 
ATOM     52  N   UNL A   1      38.963  31.086  32.998  1.00  0.00    -0.354 N 
ATOM     53  C   UNL A   1      39.667  33.659  36.420  1.00  0.00     0.074 A 
ATOM     54  C   UNL A   1      38.670  34.706  36.486  1.00  0.00     0.031 C 
ATOM     55  C   UNL A   1      37.905  30.393  31.155  1.00  0.00     0.029 A 
ATOM     56  C   UNL A   1      39.060  30.137  32.008  1.00  0.00     0.049 A 
ATOM     57  H   UNL A   1      39.616  31.169  33.731  1.00  0.00     0.167 HD
ATOM     58  C   UNL A   1      40.685  33.511  37.303  1.00  0.00     0.034 A 
ATOM     59  C   UNL A   1      39.975  29.167  31.813  1.00  0.00     0.034 A 
ATOM     60  C   UNL A   1      41.662  32.452  37.227  1.00  0.00     0.049 A 
ATOM     61  C   UNL A   1      41.092  29.014  32.814  1.00  0.00     0.074 A 
ATOM     62  C   UNL A   1      42.705  32.175  38.092  1.00  0.00     0.029 A 
ATOM     63  N   UNL A   1      41.718  31.495  36.221  1.00  0.00    -0.354 N 
ATOM     64  N   UNL A   1      41.351  29.736  33.882  1.00  0.00    -0.248 NA
ATOM     65  C   UNL A   1      42.026  27.903  32.596  1.00  0.00     0.031 C 
ATOM     66  C   UNL A   1      43.428  31.092  37.579  1.00  0.00     0.029 A 
ATOM     67  C   UNL A   1      42.791  30.642  36.432  1.00  0.00     0.049 A 
ATOM     68  H   UNL A   1      41.088  31.432  35.467  1.00  0.00     0.167 HD
ATOM     69  C   UNL A   1      42.459  29.143  34.479  1.00  0.00     0.074 A 
ATOM     70  C   UNL A   1      42.804  27.996  33.664  1.00  0.00     0.031 C 
ATOM     71  C   UNL A   1      43.129  29.508  35.603  1.00  0.00     0.034 A 
BRANCH  58  72
ATOM     72  C   UNL A   1      40.793  34.534  38.411  1.00  0.00     0.023 A 
ATOM     73  C   UNL A   1      40.140  34.357  39.644  1.00  0.00     0.031 A 
ATOM     74  C   UNL A   1      41.526  35.718  38.222  1.00  0.00     0.131 A 
ATOM     75  C   UNL A   1      40.161  35.380  40.604  1.00  0.00     0.055 A 
ATOM     76  C   UNL A   1      41.616  36.696  39.216  1.00  0.00     0.041 A 
ATOM     77  F   UNL A   1      42.154  35.955  37.059  1.00  0.00    -0.206 F 
ATOM     78  C   UNL A   1      40.917  36.538  40.408  1.00  0.00     0.022 A 
BRANCH  75  79
ATOM     79  S   UNL A   1      39.064  35.241  42.042  1.00  0.00     0.124 S 
ATOM     80  O   UNL A   1      39.075  36.611  42.552  1.00  0.00    -0.237 OA
ATOM     81  O   UNL A   1      37.814  34.792  41.444  1.00  0.00    -0.237 OA
ATOM     82  O   UNL A   1      39.738  34.262  42.893  1.00  0.00    -0.744 OA
ENDBRANCH  75  79
ENDBRANCH  58  72
BRANCH  59  83
ATOM     83  C   UNL A   1      39.872  28.255  30.639  1.00  0.00     0.023 A 
ATOM     84  C   UNL A   1      40.608  28.496  29.467  1.00  0.00     0.031 A 
ATOM     85  C   UNL A   1      39.005  27.148  30.657  1.00  0.00     0.131 A 
ATOM     86  C   UNL A   1      40.425  27.674  28.345  1.00  0.00     0.055 A 
ATOM     87  C   UNL A   1      38.866  26.302  29.555  1.00  0.00     0.041 A 
ATOM     88  F   UNL A   1      38.287  26.866  31.755  1.00  0.00    -0.206 F 
ATOM     89  C   UNL A   1      39.569  26.572  28.384  1.00  0.00     0.022 A 
BRANCH  86  90
ATOM     90  S   UNL A   1      41.267  28.116  26.800  1.00  0.00     0.124 S 
ATOM     91  O   UNL A   1      41.198  26.864  26.055  1.00  0.00    -0.237 OA
ATOM     92  O   UNL A   1      40.433  29.205  26.303  1.00  0.00    -0.237 OA
ATOM     93  O   UNL A   1      42.603  28.509  27.241  1.00  0.00    -0.744 OA
ENDBRANCH  86  90
ENDBRANCH  59  83
BRANCH  71  94
ATOM     94  C   UNL A   1      44.274  28.622  36.032  1.00  0.00     0.023 A 
ATOM     95  C   UNL A   1      44.104  27.601  36.983  1.00  0.00     0.031 A 
ATOM     96  C   UNL A   1      45.560  28.824  35.500  1.00  0.00     0.131 A 
ATOM     97  C   UNL A   1      45.215  26.868  37.426  1.00  0.00     0.055 A 
ATOM     98  C   UNL A   1      46.649  28.048  35.896  1.00  0.00     0.041 A 
ATOM     99  F   UNL A   1      45.779  29.786  34.588  1.00  0.00    -0.206 F 
ATOM    100  C   UNL A   1      46.483  27.073  36.876  1.00  0.00     0.022 A 
BRANCH  97 101
ATOM    101  S   UNL A   1      45.001  25.717  38.811  1.00  0.00     0.124 S 
ATOM    102  O   UNL A   1      44.051  26.433  39.657  1.00  0.00    -0.237 OA
ATOM    103  O   UNL A   1      44.488  24.523  38.148  1.00  0.00    -0.237 OA
ATOM    104  O   UNL A   1      46.349  25.589  39.362  1.00  0.00    -0.744 OA
ENDBRANCH  97 101
ENDBRANCH  71  94
ENDBRANCH  45  46
ENDBRANCH  37  40
ENDBRANCH  35  36
ENDBRANCH  34  35
ENDBRANCH  33  34
ENDBRANCH   1  33
TORSDOF 20
ENDMDL
