MODEL 1
REMARK VINA RESULT:     -14.2      0.000      0.000
REMARK SMILES Cc1ccccc1NC(=S)NN1C(=O)CS[C@H]1c1ccccc1C(=O)NCCCCNC(=O)c1ccc(-c2c3nc(c(-c4cc(S(=O)(=O)[O-])ccc4F)c4ccc([nH]4)c(-c4cc(S(=O)(=O)[O-])ccc4F)c4nc(c(-c5cc(S(=O)(=O)[O-])ccc5F)c5ccc2[nH]5)C=C4)C=C3)cc1
REMARK SMILES IDX 27 1 26 2 24 3 25 4 23 6 18 7 19 8 20 9 22 10 21 11 17 12
REMARK SMILES IDX 12 13 13 14 14 15 15 16 16 17 11 18 9 20 10 21 8 22 7 24
REMARK SMILES IDX 1 25 2 26 3 27 4 28 6 29 5 30 28 31 29 32 30 33 31 34 32 35
REMARK SMILES IDX 33 37 34 38 35 39 96 40 36 41 95 42 37 43 38 44 39 45 89 46
REMARK SMILES IDX 40 47 94 48 88 49 90 50 41 51 93 52 87 53 86 54 42 56 74 57
REMARK SMILES IDX 54 58 73 59 55 60 58 61 72 62 91 63 56 64 57 65 71 67 92 68
REMARK SMILES IDX 59 69 43 70 44 71 52 72 45 73 51 74 53 75 50 76 46 77 47 78
REMARK SMILES IDX 48 79 49 80 75 81 76 82 84 83 77 84 83 85 85 86 82 87 78 88
REMARK SMILES IDX 79 89 80 90 81 91 60 92 61 93 69 94 62 95 68 96 70 97 67 98
REMARK SMILES IDX 63 99 64 100 65 101 66 102
REMARK H PARENT 26 5 11 19 8 23 31 36 90 55 58 66
REMARK Flexibility Score: inf
ROOT
ATOM      1  C   UNL A   1      34.203  22.324  27.445  1.00  0.00     0.116 C 
ENDROOT
BRANCH   1   2
ATOM      2  N   UNL A   1      32.630  22.648  27.716  1.00  0.00    -0.352 N 
ATOM      3  C   UNL A   1      31.640  23.039  26.872  1.00  0.00     0.251 C 
ATOM      4  O   UNL A   1      30.544  23.429  27.250  1.00  0.00    -0.269 OA
ATOM      5  H   UNL A   1      32.348  22.541  28.653  1.00  0.00     0.163 HD
BRANCH   3   6
ATOM      6  C   UNL A   1      31.943  22.882  25.456  1.00  0.00     0.046 A 
ATOM      7  C   UNL A   1      32.102  24.013  24.644  1.00  0.00    -0.001 A 
ATOM      8  C   UNL A   1      32.946  23.821  23.522  1.00  0.00     0.007 A 
ATOM      9  C   UNL A   1      33.505  22.558  23.217  1.00  0.00     0.000 A 
ATOM     10  C   UNL A   1      32.388  21.594  25.094  1.00  0.00     0.014 A 
ATOM     11  C   UNL A   1      33.175  21.432  23.967  1.00  0.00     0.001 A 
BRANCH   7  12
ATOM     12  C   UNL A   1      31.522  25.455  25.051  1.00  0.00     0.197 C 
ATOM     13  N   UNL A   1      32.588  27.005  24.904  1.00  0.00    -0.236 N 
ATOM     14  C   UNL A   1      32.424  28.026  23.469  1.00  0.00     0.252 C 
ATOM     15  O   UNL A   1      33.443  28.621  23.145  1.00  0.00    -0.272 OA
ATOM     16  C   UNL A   1      30.688  27.607  22.428  1.00  0.00     0.174 C 
ATOM     17  S   UNL A   1      29.752  25.678  23.508  1.00  0.00    -0.120 SA
BRANCH  13  18
ATOM     18  N   UNL A   1      33.593  27.472  25.855  1.00  0.00    -0.270 N 
ATOM     19  H   UNL A   1      34.525  27.207  25.676  1.00  0.00     0.191 HD
BRANCH  18  20
ATOM     20  C   UNL A   1      33.371  28.265  27.002  1.00  0.00     0.189 C 
ATOM     21  S   UNL A   1      31.782  28.208  27.623  1.00  0.00    -0.039 S 
BRANCH  20  22
ATOM     22  N   UNL A   1      34.294  29.074  27.698  1.00  0.00    -0.331 N 
ATOM     23  H   UNL A   1      34.818  28.588  28.375  1.00  0.00     0.169 HD
BRANCH  22  24
ATOM     24  C   UNL A   1      34.626  30.519  27.604  1.00  0.00     0.043 A 
ATOM     25  C   UNL A   1      37.264  29.870  27.442  1.00  0.00     0.046 C 
ATOM     26  C   UNL A   1      36.290  30.830  28.098  1.00  0.00    -0.028 A 
ATOM     27  C   UNL A   1      36.775  32.433  28.739  1.00  0.00     0.005 A 
ATOM     28  C   UNL A   1      35.624  33.820  28.765  1.00  0.00     0.000 A 
ATOM     29  C   UNL A   1      33.460  31.945  27.524  1.00  0.00     0.026 A 
ATOM     30  C   UNL A   1      33.924  33.572  28.202  1.00  0.00     0.002 A 
ENDBRANCH  22  24
ENDBRANCH  20  22
ENDBRANCH  18  20
ENDBRANCH  13  18
ENDBRANCH   7  12
ENDBRANCH   3   6
ENDBRANCH   1   2
BRANCH   1  31
ATOM     31  C   UNL A   1      35.600  23.442  26.144  1.00  0.00     0.023 C 
BRANCH  31  32
ATOM     32  C   UNL A   1      37.565  23.714  25.952  1.00  0.00     0.023 C 
BRANCH  32  33
ATOM     33  C   UNL A   1      39.609  23.505  26.781  1.00  0.00     0.116 C 
BRANCH  33  34
ATOM     34  N   UNL A   1      40.722  22.215  26.756  1.00  0.00    -0.352 N 
ATOM     35  C   UNL A   1      41.986  22.283  26.165  1.00  0.00     0.251 C 
ATOM     36  H   UNL A   1      40.458  21.368  27.185  1.00  0.00     0.163 HD
ATOM     37  O   UNL A   1      42.270  22.076  24.998  1.00  0.00    -0.269 OA
BRANCH  35  38
ATOM     38  C   UNL A   1      43.014  22.703  27.157  1.00  0.00     0.039 A 
ATOM     39  C   UNL A   1      42.674  22.593  28.512  1.00  0.00     0.014 A 
ATOM     40  C   UNL A   1      43.713  23.805  26.672  1.00  0.00     0.014 A 
ATOM     41  C   UNL A   1      42.772  23.724  29.313  1.00  0.00     0.010 A 
ATOM     42  C   UNL A   1      43.576  24.969  27.384  1.00  0.00     0.010 A 
ATOM     43  C   UNL A   1      43.092  24.928  28.696  1.00  0.00    -0.014 A 
BRANCH  43  44
ATOM     44  C   UNL A   1      43.183  26.204  29.369  1.00  0.00     0.031 A 
ATOM     45  C   UNL A   1      41.966  27.031  29.262  1.00  0.00     0.074 A 
ATOM     46  C   UNL A   1      44.255  26.540  30.120  1.00  0.00     0.049 A 
ATOM     47  N   UNL A   1      41.921  28.285  29.515  1.00  0.00    -0.248 NA
ATOM     48  C   UNL A   1      40.683  26.509  28.767  1.00  0.00     0.031 C 
ATOM     49  C   UNL A   1      44.379  27.669  31.040  1.00  0.00     0.029 A 
ATOM     50  N   UNL A   1      45.560  26.056  29.987  1.00  0.00    -0.354 N 
ATOM     51  C   UNL A   1      40.597  28.647  29.530  1.00  0.00     0.074 A 
ATOM     52  C   UNL A   1      39.883  27.561  28.929  1.00  0.00     0.031 C 
ATOM     53  C   UNL A   1      45.679  27.992  31.154  1.00  0.00     0.029 A 
ATOM     54  C   UNL A   1      46.408  27.168  30.205  1.00  0.00     0.049 A 
ATOM     55  H   UNL A   1      45.833  25.132  29.784  1.00  0.00     0.167 HD
ATOM     56  C   UNL A   1      40.259  29.773  30.201  1.00  0.00     0.034 A 
ATOM     57  C   UNL A   1      47.173  27.650  29.181  1.00  0.00     0.034 A 
ATOM     58  C   UNL A   1      41.456  30.579  30.434  1.00  0.00     0.049 A 
ATOM     59  C   UNL A   1      46.764  29.044  28.755  1.00  0.00     0.074 A 
ATOM     60  C   UNL A   1      42.258  30.801  31.539  1.00  0.00     0.029 A 
ATOM     61  N   UNL A   1      42.197  30.981  29.323  1.00  0.00    -0.354 N 
ATOM     62  N   UNL A   1      45.616  29.596  29.045  1.00  0.00    -0.248 NA
ATOM     63  C   UNL A   1      47.636  29.937  28.001  1.00  0.00     0.031 C 
ATOM     64  C   UNL A   1      43.543  31.199  31.059  1.00  0.00     0.029 A 
ATOM     65  C   UNL A   1      43.497  31.284  29.676  1.00  0.00     0.049 A 
ATOM     66  H   UNL A   1      41.840  31.040  28.408  1.00  0.00     0.167 HD
ATOM     67  C   UNL A   1      45.567  30.868  28.532  1.00  0.00     0.074 A 
ATOM     68  C   UNL A   1      46.871  31.038  27.909  1.00  0.00     0.031 C 
ATOM     69  C   UNL A   1      44.462  31.671  28.650  1.00  0.00     0.034 A 
BRANCH  56  70
ATOM     70  C   UNL A   1      38.908  30.032  30.817  1.00  0.00     0.023 A 
ATOM     71  C   UNL A   1      38.696  31.284  31.424  1.00  0.00     0.031 A 
ATOM     72  C   UNL A   1      37.863  29.092  30.987  1.00  0.00     0.131 A 
ATOM     73  C   UNL A   1      37.522  31.552  32.151  1.00  0.00     0.055 A 
ATOM     74  C   UNL A   1      36.671  29.382  31.659  1.00  0.00     0.041 A 
ATOM     75  F   UNL A   1      37.953  27.820  30.581  1.00  0.00    -0.206 F 
ATOM     76  C   UNL A   1      36.496  30.616  32.255  1.00  0.00     0.022 A 
BRANCH  73  77
ATOM     77  S   UNL A   1      37.384  33.130  33.027  1.00  0.00     0.124 S 
ATOM     78  O   UNL A   1      38.779  33.547  33.125  1.00  0.00    -0.237 OA
ATOM     79  O   UNL A   1      36.535  33.907  32.131  1.00  0.00    -0.237 OA
ATOM     80  O   UNL A   1      36.762  32.758  34.297  1.00  0.00    -0.744 OA
ENDBRANCH  73  77
ENDBRANCH  56  70
BRANCH  57  81
ATOM     81  C   UNL A   1      47.692  26.550  28.311  1.00  0.00     0.023 A 
ATOM     82  C   UNL A   1      47.294  26.592  26.957  1.00  0.00     0.031 A 
ATOM     83  C   UNL A   1      48.878  25.870  28.620  1.00  0.00     0.131 A 
ATOM     84  C   UNL A   1      48.173  26.165  25.948  1.00  0.00     0.055 A 
ATOM     85  C   UNL A   1      49.722  25.387  27.608  1.00  0.00     0.041 A 
ATOM     86  F   UNL A   1      49.316  25.803  29.886  1.00  0.00    -0.206 F 
ATOM     87  C   UNL A   1      49.402  25.589  26.265  1.00  0.00     0.022 A 
BRANCH  84  88
ATOM     88  S   UNL A   1      47.803  26.660  24.242  1.00  0.00     0.124 S 
ATOM     89  O   UNL A   1      46.423  27.115  24.340  1.00  0.00    -0.237 OA
ATOM     90  O   UNL A   1      48.808  27.695  24.009  1.00  0.00    -0.237 OA
ATOM     91  O   UNL A   1      48.018  25.439  23.471  1.00  0.00    -0.744 OA
ENDBRANCH  84  88
ENDBRANCH  57  81
BRANCH  69  92
ATOM     92  C   UNL A   1      44.212  32.934  27.842  1.00  0.00     0.023 A 
ATOM     93  C   UNL A   1      44.166  34.213  28.412  1.00  0.00     0.031 A 
ATOM     94  C   UNL A   1      44.092  32.902  26.429  1.00  0.00     0.131 A 
ATOM     95  C   UNL A   1      43.899  35.354  27.635  1.00  0.00     0.055 A 
ATOM     96  C   UNL A   1      43.944  34.050  25.644  1.00  0.00     0.041 A 
ATOM     97  F   UNL A   1      44.123  31.754  25.738  1.00  0.00    -0.206 F 
ATOM     98  C   UNL A   1      43.819  35.288  26.249  1.00  0.00     0.022 A 
BRANCH  95  99
ATOM     99  S   UNL A   1      43.548  36.903  28.504  1.00  0.00     0.124 S 
ATOM    100  O   UNL A   1      43.396  36.443  29.882  1.00  0.00    -0.237 OA
ATOM    101  O   UNL A   1      44.744  37.693  28.231  1.00  0.00    -0.237 OA
ATOM    102  O   UNL A   1      42.323  37.385  27.871  1.00  0.00    -0.744 OA
ENDBRANCH  95  99
ENDBRANCH  69  92
ENDBRANCH  43  44
ENDBRANCH  35  38
ENDBRANCH  33  34
ENDBRANCH  32  33
ENDBRANCH  31  32
ENDBRANCH   1  31
TORSDOF 19
ENDMDL
MODEL 2
REMARK VINA RESULT:     -13.6      1.724      3.010
REMARK SMILES Cc1ccccc1NC(=S)NN1C(=O)CS[C@H]1c1ccccc1C(=O)NCCCCNC(=O)c1ccc(-c2c3nc(c(-c4cc(S(=O)(=O)[O-])ccc4F)c4ccc([nH]4)c(-c4cc(S(=O)(=O)[O-])ccc4F)c4nc(c(-c5cc(S(=O)(=O)[O-])ccc5F)c5ccc2[nH]5)C=C4)C=C3)cc1
REMARK SMILES IDX 27 1 26 2 24 3 25 4 23 6 18 7 19 8 20 9 22 10 21 11 17 12
REMARK SMILES IDX 12 13 13 14 14 15 15 16 16 17 11 18 9 20 10 21 8 22 7 24
REMARK SMILES IDX 1 25 2 26 3 27 4 28 6 29 5 30 28 31 29 32 30 33 31 34 32 35
REMARK SMILES IDX 33 37 34 38 35 39 96 40 36 41 95 42 37 43 38 44 39 45 89 46
REMARK SMILES IDX 40 47 94 48 88 49 90 50 41 51 93 52 87 53 86 54 42 56 74 57
REMARK SMILES IDX 54 58 73 59 55 60 58 61 72 62 91 63 56 64 57 65 71 67 92 68
REMARK SMILES IDX 59 69 43 70 44 71 52 72 45 73 51 74 53 75 50 76 46 77 47 78
REMARK SMILES IDX 48 79 49 80 75 81 76 82 84 83 77 84 83 85 85 86 82 87 78 88
REMARK SMILES IDX 79 89 80 90 81 91 60 92 61 93 69 94 62 95 68 96 70 97 67 98
REMARK SMILES IDX 63 99 64 100 65 101 66 102
REMARK H PARENT 26 5 11 19 8 23 31 36 90 55 58 66
REMARK Flexibility Score: inf
ROOT
ATOM      1  C   UNL A   1      34.284  21.823  27.643  1.00  0.00     0.116 C 
ENDROOT
BRANCH   1   2
ATOM      2  N   UNL A   1      33.221  20.870  26.859  1.00  0.00    -0.352 N 
ATOM      3  C   UNL A   1      33.115  20.542  25.544  1.00  0.00     0.251 C 
ATOM      4  O   UNL A   1      32.149  19.962  25.069  1.00  0.00    -0.269 OA
ATOM      5  H   UNL A   1      32.538  20.460  27.438  1.00  0.00     0.163 HD
BRANCH   3   6
ATOM      6  C   UNL A   1      34.286  20.856  24.738  1.00  0.00     0.046 A 
ATOM      7  C   UNL A   1      34.365  22.083  24.066  1.00  0.00    -0.001 A 
ATOM      8  C   UNL A   1      35.685  22.548  23.838  1.00  0.00     0.007 A 
ATOM      9  C   UNL A   1      36.818  21.778  24.192  1.00  0.00     0.000 A 
ATOM     10  C   UNL A   1      35.400  20.026  24.978  1.00  0.00     0.014 A 
ATOM     11  C   UNL A   1      36.674  20.491  24.704  1.00  0.00     0.001 A 
BRANCH   7  12
ATOM     12  C   UNL A   1      33.068  22.975  23.745  1.00  0.00     0.197 C 
ATOM     13  N   UNL A   1      33.210  24.841  23.506  1.00  0.00    -0.236 N 
ATOM     14  C   UNL A   1      33.306  25.491  21.864  1.00  0.00     0.252 C 
ATOM     15  O   UNL A   1      33.942  26.532  21.761  1.00  0.00    -0.272 OA
ATOM     16  C   UNL A   1      32.714  24.098  20.455  1.00  0.00     0.174 C 
ATOM     17  S   UNL A   1      32.395  22.057  21.679  1.00  0.00    -0.120 SA
BRANCH  13  18
ATOM     18  N   UNL A   1      33.281  25.857  24.552  1.00  0.00    -0.270 N 
ATOM     19  H   UNL A   1      34.080  25.843  25.127  1.00  0.00     0.191 HD
BRANCH  18  20
ATOM     20  C   UNL A   1      32.324  26.859  24.826  1.00  0.00     0.189 C 
ATOM     21  S   UNL A   1      32.048  27.163  26.482  1.00  0.00    -0.039 S 
BRANCH  20  22
ATOM     22  N   UNL A   1      31.590  27.641  23.909  1.00  0.00    -0.331 N 
ATOM     23  H   UNL A   1      31.900  27.560  22.979  1.00  0.00     0.169 HD
BRANCH  22  24
ATOM     24  C   UNL A   1      30.437  28.564  24.080  1.00  0.00     0.043 A 
ATOM     25  C   UNL A   1      28.749  26.436  23.904  1.00  0.00     0.046 C 
ATOM     26  C   UNL A   1      28.953  27.864  23.435  1.00  0.00    -0.028 A 
ATOM     27  C   UNL A   1      27.610  28.911  22.874  1.00  0.00     0.005 A 
ATOM     28  C   UNL A   1      27.667  30.702  23.081  1.00  0.00     0.000 A 
ATOM     29  C   UNL A   1      30.478  30.379  24.398  1.00  0.00     0.026 A 
ATOM     30  C   UNL A   1      29.139  31.463  23.804  1.00  0.00     0.002 A 
ENDBRANCH  22  24
ENDBRANCH  20  22
ENDBRANCH  18  20
ENDBRANCH  13  18
ENDBRANCH   7  12
ENDBRANCH   3   6
ENDBRANCH   1   2
BRANCH   1  31
ATOM     31  C   UNL A   1      35.406  23.543  26.821  1.00  0.00     0.023 C 
BRANCH  31  32
ATOM     32  C   UNL A   1      37.298  24.145  26.651  1.00  0.00     0.023 C 
BRANCH  32  33
ATOM     33  C   UNL A   1      39.455  23.648  26.539  1.00  0.00     0.116 C 
BRANCH  33  34
ATOM     34  N   UNL A   1      40.325  22.251  26.979  1.00  0.00    -0.352 N 
ATOM     35  C   UNL A   1      41.551  21.884  26.417  1.00  0.00     0.251 C 
ATOM     36  H   UNL A   1      39.941  21.666  27.672  1.00  0.00     0.163 HD
ATOM     37  O   UNL A   1      41.735  21.241  25.398  1.00  0.00    -0.269 OA
BRANCH  35  38
ATOM     38  C   UNL A   1      42.685  22.428  27.213  1.00  0.00     0.039 A 
ATOM     39  C   UNL A   1      42.600  22.308  28.607  1.00  0.00     0.014 A 
ATOM     40  C   UNL A   1      43.167  23.588  26.614  1.00  0.00     0.014 A 
ATOM     41  C   UNL A   1      42.714  23.458  29.378  1.00  0.00     0.010 A 
ATOM     42  C   UNL A   1      43.032  24.744  27.338  1.00  0.00     0.010 A 
ATOM     43  C   UNL A   1      42.791  24.678  28.715  1.00  0.00    -0.014 A 
BRANCH  43  44
ATOM     44  C   UNL A   1      42.861  25.968  29.362  1.00  0.00     0.031 A 
ATOM     45  C   UNL A   1      41.678  26.821  29.138  1.00  0.00     0.074 A 
ATOM     46  C   UNL A   1      43.878  26.298  30.188  1.00  0.00     0.049 A 
ATOM     47  N   UNL A   1      41.646  28.082  29.356  1.00  0.00    -0.248 NA
ATOM     48  C   UNL A   1      40.425  26.316  28.554  1.00  0.00     0.031 C 
ATOM     49  C   UNL A   1      43.958  27.447  31.088  1.00  0.00     0.029 A 
ATOM     50  N   UNL A   1      45.177  25.780  30.172  1.00  0.00    -0.354 N 
ATOM     51  C   UNL A   1      40.335  28.476  29.255  1.00  0.00     0.074 A 
ATOM     52  C   UNL A   1      39.643  27.391  28.625  1.00  0.00     0.031 C 
ATOM     53  C   UNL A   1      45.252  27.743  31.298  1.00  0.00     0.029 A 
ATOM     54  C   UNL A   1      46.033  26.877  30.430  1.00  0.00     0.049 A 
ATOM     55  H   UNL A   1      45.441  24.844  30.014  1.00  0.00     0.167 HD
ATOM     56  C   UNL A   1      39.973  29.626  29.870  1.00  0.00     0.034 A 
ATOM     57  C   UNL A   1      46.890  27.313  29.460  1.00  0.00     0.034 A 
ATOM     58  C   UNL A   1      41.169  30.409  30.177  1.00  0.00     0.049 A 
ATOM     59  C   UNL A   1      46.552  28.705  28.968  1.00  0.00     0.074 A 
ATOM     60  C   UNL A   1      41.885  30.641  31.337  1.00  0.00     0.029 A 
ATOM     61  N   UNL A   1      42.006  30.764  29.121  1.00  0.00    -0.354 N 
ATOM     62  N   UNL A   1      45.399  29.292  29.151  1.00  0.00    -0.248 NA
ATOM     63  C   UNL A   1      47.504  29.557  28.264  1.00  0.00     0.031 C 
ATOM     64  C   UNL A   1      43.214  30.996  30.953  1.00  0.00     0.029 A 
ATOM     65  C   UNL A   1      43.280  31.046  29.569  1.00  0.00     0.049 A 
ATOM     66  H   UNL A   1      41.724  30.808  28.179  1.00  0.00     0.167 HD
ATOM     67  C   UNL A   1      45.424  30.550  28.605  1.00  0.00     0.074 A 
ATOM     68  C   UNL A   1      46.777  30.672  28.085  1.00  0.00     0.031 C 
ATOM     69  C   UNL A   1      44.334  31.382  28.615  1.00  0.00     0.034 A 
BRANCH  56  70
ATOM     70  C   UNL A   1      38.585  29.934  30.368  1.00  0.00     0.023 A 
ATOM     71  C   UNL A   1      37.861  30.942  29.705  1.00  0.00     0.031 A 
ATOM     72  C   UNL A   1      37.974  29.420  31.538  1.00  0.00     0.131 A 
ATOM     73  C   UNL A   1      36.623  31.395  30.197  1.00  0.00     0.055 A 
ATOM     74  C   UNL A   1      36.715  29.830  31.991  1.00  0.00     0.041 A 
ATOM     75  F   UNL A   1      38.579  28.548  32.353  1.00  0.00    -0.206 F 
ATOM     76  C   UNL A   1      36.034  30.830  31.325  1.00  0.00     0.022 A 
BRANCH  73  77
ATOM     77  S   UNL A   1      35.822  32.794  29.376  1.00  0.00     0.124 S 
ATOM     78  O   UNL A   1      36.792  33.865  29.582  1.00  0.00    -0.237 OA
ATOM     79  O   UNL A   1      35.674  32.307  28.009  1.00  0.00    -0.237 OA
ATOM     80  O   UNL A   1      34.569  32.947  30.114  1.00  0.00    -0.744 OA
ENDBRANCH  73  77
ENDBRANCH  56  70
BRANCH  57  81
ATOM     81  C   UNL A   1      47.448  26.179  28.661  1.00  0.00     0.023 A 
ATOM     82  C   UNL A   1      46.834  25.940  27.412  1.00  0.00     0.031 A 
ATOM     83  C   UNL A   1      48.769  25.745  28.830  1.00  0.00     0.131 A 
ATOM     84  C   UNL A   1      47.599  25.494  26.322  1.00  0.00     0.055 A 
ATOM     85  C   UNL A   1      49.511  25.238  27.751  1.00  0.00     0.041 A 
ATOM     86  F   UNL A   1      49.413  25.951  29.989  1.00  0.00    -0.206 F 
ATOM     87  C   UNL A   1      48.946  25.170  26.477  1.00  0.00     0.022 A 
BRANCH  84  88
ATOM     88  S   UNL A   1      46.875  25.645  24.665  1.00  0.00     0.124 S 
ATOM     89  O   UNL A   1      46.147  26.904  24.754  1.00  0.00    -0.237 OA
ATOM     90  O   UNL A   1      48.067  25.649  23.820  1.00  0.00    -0.237 OA
ATOM     91  O   UNL A   1      46.056  24.444  24.532  1.00  0.00    -0.744 OA
ENDBRANCH  84  88
ENDBRANCH  57  81
BRANCH  69  92
ATOM     92  C   UNL A   1      44.182  32.629  27.759  1.00  0.00     0.023 A 
ATOM     93  C   UNL A   1      44.028  33.914  28.295  1.00  0.00     0.031 A 
ATOM     94  C   UNL A   1      44.272  32.576  26.344  1.00  0.00     0.131 A 
ATOM     95  C   UNL A   1      43.856  35.038  27.469  1.00  0.00     0.055 A 
ATOM     96  C   UNL A   1      44.220  33.710  25.527  1.00  0.00     0.041 A 
ATOM     97  F   UNL A   1      44.428  31.420  25.683  1.00  0.00    -0.206 F 
ATOM     98  C   UNL A   1      43.983  34.954  26.087  1.00  0.00     0.022 A 
BRANCH  95  99
ATOM     99  S   UNL A   1      43.351  36.591  28.252  1.00  0.00     0.124 S 
ATOM    100  O   UNL A   1      42.166  36.944  27.473  1.00  0.00    -0.237 OA
ATOM    101  O   UNL A   1      43.101  36.182  29.629  1.00  0.00    -0.237 OA
ATOM    102  O   UNL A   1      44.504  37.467  28.058  1.00  0.00    -0.744 OA
ENDBRANCH  95  99
ENDBRANCH  69  92
ENDBRANCH  43  44
ENDBRANCH  35  38
ENDBRANCH  33  34
ENDBRANCH  32  33
ENDBRANCH  31  32
ENDBRANCH   1  31
TORSDOF 19
ENDMDL
MODEL 3
REMARK VINA RESULT:     -13.0      6.417     14.682
REMARK SMILES Cc1ccccc1NC(=S)NN1C(=O)CS[C@H]1c1ccccc1C(=O)NCCCCNC(=O)c1ccc(-c2c3nc(c(-c4cc(S(=O)(=O)[O-])ccc4F)c4ccc([nH]4)c(-c4cc(S(=O)(=O)[O-])ccc4F)c4nc(c(-c5cc(S(=O)(=O)[O-])ccc5F)c5ccc2[nH]5)C=C4)C=C3)cc1
REMARK SMILES IDX 27 1 26 2 24 3 25 4 23 6 18 7 19 8 20 9 22 10 21 11 17 12
REMARK SMILES IDX 12 13 13 14 14 15 15 16 16 17 11 18 9 20 10 21 8 22 7 24
REMARK SMILES IDX 1 25 2 26 3 27 4 28 6 29 5 30 28 31 29 32 30 33 31 34 32 35
REMARK SMILES IDX 33 37 34 38 35 39 96 40 36 41 95 42 37 43 38 44 39 45 89 46
REMARK SMILES IDX 40 47 94 48 88 49 90 50 41 51 93 52 87 53 86 54 42 56 74 57
REMARK SMILES IDX 54 58 73 59 55 60 58 61 72 62 91 63 56 64 57 65 71 67 92 68
REMARK SMILES IDX 59 69 43 70 44 71 52 72 45 73 51 74 53 75 50 76 46 77 47 78
REMARK SMILES IDX 48 79 49 80 75 81 76 82 84 83 77 84 83 85 85 86 82 87 78 88
REMARK SMILES IDX 79 89 80 90 81 91 60 92 61 93 69 94 62 95 68 96 70 97 67 98
REMARK SMILES IDX 63 99 64 100 65 101 66 102
REMARK H PARENT 26 5 11 19 8 23 31 36 90 55 58 66
REMARK Flexibility Score: inf
ROOT
ATOM      1  C   UNL A   1      43.863  41.106  29.798  1.00  0.00     0.116 C 
ENDROOT
BRANCH   1   2
ATOM      2  N   UNL A   1      44.622  40.102  28.764  1.00  0.00    -0.352 N 
ATOM      3  C   UNL A   1      44.346  39.773  27.474  1.00  0.00     0.251 C 
ATOM      4  O   UNL A   1      44.896  38.857  26.879  1.00  0.00    -0.269 OA
ATOM      5  H   UNL A   1      45.417  39.659  29.137  1.00  0.00     0.163 HD
BRANCH   3   6
ATOM      6  C   UNL A   1      43.395  40.650  26.807  1.00  0.00     0.046 A 
ATOM      7  C   UNL A   1      43.850  41.613  25.896  1.00  0.00    -0.001 A 
ATOM      8  C   UNL A   1      42.910  41.971  24.896  1.00  0.00     0.007 A 
ATOM      9  C   UNL A   1      41.595  41.450  24.888  1.00  0.00     0.000 A 
ATOM     10  C   UNL A   1      42.053  40.223  26.884  1.00  0.00     0.014 A 
ATOM     11  C   UNL A   1      41.148  40.626  25.917  1.00  0.00     0.001 A 
BRANCH   7  12
ATOM     12  C   UNL A   1      45.370  42.131  25.877  1.00  0.00     0.197 C 
ATOM     13  N   UNL A   1      46.046  43.098  24.405  1.00  0.00    -0.236 N 
ATOM     14  C   UNL A   1      46.092  44.864  24.487  1.00  0.00     0.252 C 
ATOM     15  O   UNL A   1      45.976  45.430  23.408  1.00  0.00    -0.272 OA
ATOM     16  C   UNL A   1      45.869  45.545  26.426  1.00  0.00     0.174 C 
ATOM     17  S   UNL A   1      45.368  43.592  27.729  1.00  0.00    -0.120 SA
BRANCH  13  18
ATOM     18  N   UNL A   1      46.533  42.549  23.143  1.00  0.00    -0.270 N 
ATOM     19  H   UNL A   1      47.430  42.143  23.156  1.00  0.00     0.191 HD
BRANCH  18  20
ATOM     20  C   UNL A   1      45.853  42.537  21.906  1.00  0.00     0.189 C 
ATOM     21  S   UNL A   1      46.800  42.077  20.563  1.00  0.00    -0.039 S 
BRANCH  20  22
ATOM     22  N   UNL A   1      44.498  42.838  21.650  1.00  0.00    -0.331 N 
ATOM     23  H   UNL A   1      43.865  42.215  22.074  1.00  0.00     0.169 HD
BRANCH  22  24
ATOM     24  C   UNL A   1      43.845  43.917  20.864  1.00  0.00     0.043 A 
ATOM     25  C   UNL A   1      41.415  42.881  21.519  1.00  0.00     0.046 C 
ATOM     26  C   UNL A   1      42.217  43.456  20.367  1.00  0.00    -0.028 A 
ATOM     27  C   UNL A   1      41.461  44.176  18.910  1.00  0.00     0.005 A 
ATOM     28  C   UNL A   1      42.271  45.497  17.989  1.00  0.00     0.000 A 
ATOM     29  C   UNL A   1      44.650  45.335  20.002  1.00  0.00     0.026 A 
ATOM     30  C   UNL A   1      43.912  46.056  18.500  1.00  0.00     0.002 A 
ENDBRANCH  22  24
ENDBRANCH  20  22
ENDBRANCH  18  20
ENDBRANCH  13  18
ENDBRANCH   7  12
ENDBRANCH   3   6
ENDBRANCH   1   2
BRANCH   1  31
ATOM     31  C   UNL A   1      44.022  41.132  32.004  1.00  0.00     0.023 C 
BRANCH  31  32
ATOM     32  C   UNL A   1      44.405  39.857  33.487  1.00  0.00     0.023 C 
BRANCH  32  33
ATOM     33  C   UNL A   1      45.083  37.855  34.153  1.00  0.00     0.116 C 
BRANCH  33  34
ATOM     34  N   UNL A   1      44.867  36.301  33.490  1.00  0.00    -0.352 N 
ATOM     35  C   UNL A   1      45.260  35.119  34.123  1.00  0.00     0.251 C 
ATOM     36  H   UNL A   1      44.438  36.231  32.606  1.00  0.00     0.163 HD
ATOM     37  O   UNL A   1      46.357  34.589  34.085  1.00  0.00    -0.269 OA
BRANCH  35  38
ATOM     38  C   UNL A   1      44.148  34.555  34.936  1.00  0.00     0.039 A 
ATOM     39  C   UNL A   1      44.263  33.215  35.331  1.00  0.00     0.014 A 
ATOM     40  C   UNL A   1      42.935  35.081  34.502  1.00  0.00     0.014 A 
ATOM     41  C   UNL A   1      43.236  32.339  35.003  1.00  0.00     0.010 A 
ATOM     42  C   UNL A   1      42.046  34.187  33.962  1.00  0.00     0.010 A 
ATOM     43  C   UNL A   1      42.207  32.818  34.201  1.00  0.00    -0.014 A 
BRANCH  43  44
ATOM     44  C   UNL A   1      41.093  32.029  33.725  1.00  0.00     0.031 A 
ATOM     45  C   UNL A   1      41.143  31.721  32.283  1.00  0.00     0.074 A 
ATOM     46  C   UNL A   1      40.160  31.532  34.566  1.00  0.00     0.049 A 
ATOM     47  N   UNL A   1      40.144  31.305  31.599  1.00  0.00    -0.248 NA
ATOM     48  C   UNL A   1      42.340  31.945  31.457  1.00  0.00     0.031 C 
ATOM     49  C   UNL A   1      39.135  30.533  34.270  1.00  0.00     0.029 A 
ATOM     50  N   UNL A   1      39.791  32.047  35.813  1.00  0.00    -0.354 N 
ATOM     51  C   UNL A   1      40.628  30.915  30.375  1.00  0.00     0.074 A 
ATOM     52  C   UNL A   1      41.951  31.455  30.282  1.00  0.00     0.031 C 
ATOM     53  C   UNL A   1      38.106  30.705  35.117  1.00  0.00     0.029 A 
ATOM     54  C   UNL A   1      38.385  31.905  35.889  1.00  0.00     0.049 A 
ATOM     55  H   UNL A   1      40.387  32.429  36.497  1.00  0.00     0.167 HD
ATOM     56  C   UNL A   1      39.887  30.040  29.655  1.00  0.00     0.034 A 
ATOM     57  C   UNL A   1      37.590  33.015  35.918  1.00  0.00     0.034 A 
ATOM     58  C   UNL A   1      38.523  30.011  30.179  1.00  0.00     0.049 A 
ATOM     59  C   UNL A   1      36.722  33.142  34.685  1.00  0.00     0.074 A 
ATOM     60  C   UNL A   1      37.826  29.121  30.976  1.00  0.00     0.029 A 
ATOM     61  N   UNL A   1      37.811  31.209  30.212  1.00  0.00    -0.354 N 
ATOM     62  N   UNL A   1      36.937  32.506  33.563  1.00  0.00    -0.248 NA
ATOM     63  C   UNL A   1      35.520  33.967  34.635  1.00  0.00     0.031 C 
ATOM     64  C   UNL A   1      36.771  29.849  31.604  1.00  0.00     0.029 A 
ATOM     65  C   UNL A   1      36.788  31.154  31.136  1.00  0.00     0.049 A 
ATOM     66  H   UNL A   1      38.012  31.990  29.649  1.00  0.00     0.167 HD
ATOM     67  C   UNL A   1      35.959  32.822  32.653  1.00  0.00     0.074 A 
ATOM     68  C   UNL A   1      35.083  33.722  33.388  1.00  0.00     0.031 C 
ATOM     69  C   UNL A   1      35.953  32.329  31.374  1.00  0.00     0.034 A 
BRANCH  56  70
ATOM     70  C   UNL A   1      40.444  29.080  28.636  1.00  0.00     0.023 A 
ATOM     71  C   UNL A   1      41.581  28.333  28.994  1.00  0.00     0.031 A 
ATOM     72  C   UNL A   1      40.036  28.951  27.286  1.00  0.00     0.131 A 
ATOM     73  C   UNL A   1      42.252  27.529  28.054  1.00  0.00     0.055 A 
ATOM     74  C   UNL A   1      40.669  28.104  26.369  1.00  0.00     0.041 A 
ATOM     75  F   UNL A   1      39.052  29.681  26.749  1.00  0.00    -0.206 F 
ATOM     76  C   UNL A   1      41.791  27.392  26.748  1.00  0.00     0.022 A 
BRANCH  73  77
ATOM     77  S   UNL A   1      43.791  26.716  28.549  1.00  0.00     0.124 S 
ATOM     78  O   UNL A   1      43.536  25.328  28.176  1.00  0.00    -0.237 OA
ATOM     79  O   UNL A   1      44.786  27.429  27.756  1.00  0.00    -0.237 OA
ATOM     80  O   UNL A   1      43.857  26.965  29.989  1.00  0.00    -0.744 OA
ENDBRANCH  73  77
ENDBRANCH  56  70
BRANCH  57  81
ATOM     81  C   UNL A   1      38.213  34.122  36.708  1.00  0.00     0.023 A 
ATOM     82  C   UNL A   1      38.331  33.899  38.098  1.00  0.00     0.031 A 
ATOM     83  C   UNL A   1      39.096  35.035  36.118  1.00  0.00     0.131 A 
ATOM     84  C   UNL A   1      39.435  34.404  38.803  1.00  0.00     0.055 A 
ATOM     85  C   UNL A   1      40.161  35.589  36.846  1.00  0.00     0.041 A 
ATOM     86  F   UNL A   1      39.043  35.283  34.802  1.00  0.00    -0.206 F 
ATOM     87  C   UNL A   1      40.371  35.226  38.177  1.00  0.00     0.022 A 
BRANCH  84  88
ATOM     88  S   UNL A   1      39.772  33.716  40.448  1.00  0.00     0.124 S 
ATOM     89  O   UNL A   1      38.638  34.195  41.227  1.00  0.00    -0.237 OA
ATOM     90  O   UNL A   1      39.803  32.281  40.170  1.00  0.00    -0.237 OA
ATOM     91  O   UNL A   1      41.071  34.281  40.802  1.00  0.00    -0.744 OA
ENDBRANCH  84  88
ENDBRANCH  57  81
BRANCH  69  92
ATOM     92  C   UNL A   1      35.113  32.879  30.232  1.00  0.00     0.023 A 
ATOM     93  C   UNL A   1      34.766  34.231  30.116  1.00  0.00     0.031 A 
ATOM     94  C   UNL A   1      34.692  32.056  29.155  1.00  0.00     0.131 A 
ATOM     95  C   UNL A   1      33.959  34.694  29.063  1.00  0.00     0.055 A 
ATOM     96  C   UNL A   1      33.990  32.541  28.048  1.00  0.00     0.041 A 
ATOM     97  F   UNL A   1      34.953  30.742  29.119  1.00  0.00    -0.206 F 
ATOM     98  C   UNL A   1      33.593  33.866  28.007  1.00  0.00     0.022 A 
BRANCH  95  99
ATOM     99  S   UNL A   1      33.311  36.381  29.174  1.00  0.00     0.124 S 
ATOM    100  O   UNL A   1      34.223  37.107  28.294  1.00  0.00    -0.237 OA
ATOM    101  O   UNL A   1      31.947  36.227  28.681  1.00  0.00    -0.237 OA
ATOM    102  O   UNL A   1      33.431  36.704  30.594  1.00  0.00    -0.744 OA
ENDBRANCH  95  99
ENDBRANCH  69  92
ENDBRANCH  43  44
ENDBRANCH  35  38
ENDBRANCH  33  34
ENDBRANCH  32  33
ENDBRANCH  31  32
ENDBRANCH   1  31
TORSDOF 19
ENDMDL
