MODEL 1
REMARK VINA RESULT:     -12.0      0.000      0.000
REMARK SMILES CC[NH+]1CC[NH+]([C@@H]2CC(=O)N(c3ccc(C(=O)NCCCCNC(=O)c4ccc(-c5c6nc(c(-c7cc(S(=O)(=O)[O-])ccc7F)c7ccc([nH]7)c(-c7cc(S(=O)(=O)[O-])ccc7F)c7nc(c(-c8cc(S(=O)(=O)[O-])ccc8F)c8ccc5[nH]8)C=C7)C=C6)cc4)cc3)C2=O)CC1
REMARK SMILES IDX 20 1 19 2 18 3 16 4 17 5 15 7 12 8 13 9 90 10 14 11 89 12
REMARK SMILES IDX 11 13 7 14 8 15 91 16 9 17 92 18 10 19 6 20 3 21 4 22 94 23
REMARK SMILES IDX 5 25 93 26 2 28 1 29 21 30 22 31 23 32 24 33 25 35 26 36
REMARK SMILES IDX 27 37 88 38 28 39 87 40 29 41 30 42 31 43 81 44 32 45 86 46
REMARK SMILES IDX 80 47 82 48 33 49 85 50 79 51 78 52 34 54 66 55 46 56 65 57
REMARK SMILES IDX 47 58 50 59 64 60 83 61 48 62 49 63 63 65 84 66 51 67 35 68
REMARK SMILES IDX 36 69 44 70 37 71 43 72 45 73 42 74 38 75 39 76 40 77 41 78
REMARK SMILES IDX 67 79 68 80 76 81 69 82 75 83 77 84 74 85 70 86 71 87 72 88
REMARK SMILES IDX 73 89 52 90 53 91 61 92 54 93 60 94 62 95 59 96 55 97 56 98
REMARK SMILES IDX 57 99 58 100
REMARK H PARENT 18 6 3 24 6 27 23 34 82 53 50 64
REMARK Flexibility Score: inf
ROOT
ATOM      1  C   UNL A   1      37.116  21.161  24.707  1.00  0.00     0.023 C 
ENDROOT
BRANCH   1   2
ATOM      2  C   UNL A   1      35.917  21.207  25.661  1.00  0.00     0.116 C 
BRANCH   2   3
ATOM      3  N   UNL A   1      34.811  20.427  25.141  1.00  0.00    -0.352 N 
ATOM      4  C   UNL A   1      33.560  20.782  24.703  1.00  0.00     0.251 C 
ATOM      5  O   UNL A   1      32.838  19.884  24.267  1.00  0.00    -0.269 OA
ATOM      6  H   UNL A   1      34.992  19.461  25.094  1.00  0.00     0.163 HD
BRANCH   4   7
ATOM      7  C   UNL A   1      33.045  22.184  24.698  1.00  0.00     0.039 A 
ATOM      8  C   UNL A   1      32.107  24.848  24.505  1.00  0.00     0.052 A 
ATOM      9  C   UNL A   1      32.432  24.128  23.351  1.00  0.00     0.027 A 
ATOM     10  C   UNL A   1      32.223  24.221  25.743  1.00  0.00     0.027 A 
ATOM     11  C   UNL A   1      32.923  22.819  23.452  1.00  0.00     0.016 A 
ATOM     12  C   UNL A   1      32.640  22.893  25.829  1.00  0.00     0.016 A 
BRANCH   8  13
ATOM     13  N   UNL A   1      31.666  26.184  24.437  1.00  0.00    -0.245 N 
ATOM     14  C   UNL A   1      30.291  28.059  24.119  1.00  0.00     0.285 C 
ATOM     15  C   UNL A   1      31.704  28.521  24.445  1.00  0.00     0.176 C 
ATOM     16  C   UNL A   1      30.350  26.545  24.286  1.00  0.00     0.292 C 
ATOM     17  C   UNL A   1      32.506  27.263  24.544  1.00  0.00     0.240 C 
ATOM     18  O   UNL A   1      29.369  25.812  24.287  1.00  0.00    -0.267 OA
ATOM     19  O   UNL A   1      33.722  27.273  24.676  1.00  0.00    -0.274 OA
BRANCH  14  20
ATOM     20  N   UNL A   1      29.678  28.425  22.829  1.00  0.00    -0.315 N 
ATOM     21  N   UNL A   1      28.209  31.019  22.365  1.00  0.00    -0.326 N 
ATOM     22  C   UNL A   1      27.579  29.886  23.076  1.00  0.00     0.324 C 
ATOM     23  C   UNL A   1      29.675  30.935  22.494  1.00  0.00     0.324 C 
ATOM     24  H   UNL A   1      27.918  31.897  22.795  1.00  0.00     0.348 HD
ATOM     25  C   UNL A   1      28.209  28.488  22.830  1.00  0.00     0.325 C 
ATOM     26  C   UNL A   1      30.261  29.565  22.107  1.00  0.00     0.325 C 
ATOM     27  H   UNL A   1      29.944  27.609  22.279  1.00  0.00     0.349 HD
BRANCH  21  28
ATOM     28  C   UNL A   1      27.753  31.081  20.969  1.00  0.00     0.259 C 
ATOM     29  C   UNL A   1      28.031  32.431  20.314  1.00  0.00     0.071 C 
ENDBRANCH  21  28
ENDBRANCH  14  20
ENDBRANCH   8  13
ENDBRANCH   4   7
ENDBRANCH   2   3
ENDBRANCH   1   2
BRANCH   1  30
ATOM     30  C   UNL A   1      38.128  20.059  25.019  1.00  0.00     0.023 C 
BRANCH  30  31
ATOM     31  C   UNL A   1      39.272  20.490  25.926  1.00  0.00     0.116 C 
BRANCH  31  32
ATOM     32  N   UNL A   1      40.312  19.483  26.059  1.00  0.00    -0.352 N 
ATOM     33  C   UNL A   1      41.647  19.672  26.342  1.00  0.00     0.251 C 
ATOM     34  H   UNL A   1      40.026  18.549  25.930  1.00  0.00     0.163 HD
ATOM     35  O   UNL A   1      42.422  18.731  26.313  1.00  0.00    -0.269 OA
BRANCH  33  36
ATOM     36  C   UNL A   1      42.122  21.043  26.628  1.00  0.00     0.039 A 
ATOM     37  C   UNL A   1      42.316  21.921  25.561  1.00  0.00     0.014 A 
ATOM     38  C   UNL A   1      42.314  21.471  27.944  1.00  0.00     0.014 A 
ATOM     39  C   UNL A   1      42.638  23.255  25.819  1.00  0.00     0.010 A 
ATOM     40  C   UNL A   1      42.568  22.814  28.200  1.00  0.00     0.010 A 
ATOM     41  C   UNL A   1      42.729  23.719  27.140  1.00  0.00    -0.014 A 
BRANCH  41  42
ATOM     42  C   UNL A   1      42.992  25.151  27.438  1.00  0.00     0.031 A 
ATOM     43  C   UNL A   1      44.373  25.716  27.240  1.00  0.00     0.074 A 
ATOM     44  C   UNL A   1      42.007  25.914  27.954  1.00  0.00     0.049 A 
ATOM     45  N   UNL A   1      44.823  26.910  27.521  1.00  0.00    -0.248 NA
ATOM     46  C   UNL A   1      45.386  24.806  26.682  1.00  0.00     0.031 C 
ATOM     47  C   UNL A   1      40.642  25.462  28.233  1.00  0.00     0.029 A 
ATOM     48  N   UNL A   1      42.005  27.229  28.351  1.00  0.00    -0.354 N 
ATOM     49  C   UNL A   1      46.176  26.889  27.198  1.00  0.00     0.074 A 
ATOM     50  C   UNL A   1      46.479  25.550  26.740  1.00  0.00     0.031 C 
ATOM     51  C   UNL A   1      39.933  26.484  28.739  1.00  0.00     0.029 A 
ATOM     52  C   UNL A   1      40.798  27.652  28.862  1.00  0.00     0.049 A 
ATOM     53  H   UNL A   1      42.793  27.814  28.277  1.00  0.00     0.167 HD
ATOM     54  C   UNL A   1      47.076  27.900  27.264  1.00  0.00     0.034 A 
ATOM     55  C   UNL A   1      40.438  28.842  29.383  1.00  0.00     0.034 A 
ATOM     56  C   UNL A   1      46.748  29.239  27.686  1.00  0.00     0.049 A 
ATOM     57  C   UNL A   1      41.461  29.951  29.433  1.00  0.00     0.074 A 
ATOM     58  C   UNL A   1      47.561  30.358  27.702  1.00  0.00     0.029 A 
ATOM     59  N   UNL A   1      45.511  29.639  28.171  1.00  0.00    -0.354 N 
ATOM     60  N   UNL A   1      42.718  29.935  29.049  1.00  0.00    -0.248 NA
ATOM     61  C   UNL A   1      41.015  31.241  29.974  1.00  0.00     0.031 C 
ATOM     62  C   UNL A   1      46.835  31.419  28.254  1.00  0.00     0.029 A 
ATOM     63  C   UNL A   1      45.548  30.979  28.519  1.00  0.00     0.049 A 
ATOM     64  H   UNL A   1      44.722  29.055  28.256  1.00  0.00     0.167 HD
ATOM     65  C   UNL A   1      43.195  31.224  29.268  1.00  0.00     0.074 A 
ATOM     66  C   UNL A   1      42.091  31.993  29.802  1.00  0.00     0.031 C 
ATOM     67  C   UNL A   1      44.435  31.730  29.046  1.00  0.00     0.034 A 
BRANCH  54  68
ATOM     68  C   UNL A   1      48.505  27.594  26.894  1.00  0.00     0.023 A 
ATOM     69  C   UNL A   1      48.996  27.800  25.593  1.00  0.00     0.031 A 
ATOM     70  C   UNL A   1      49.394  27.097  27.864  1.00  0.00     0.131 A 
ATOM     71  C   UNL A   1      50.322  27.461  25.284  1.00  0.00     0.055 A 
ATOM     72  C   UNL A   1      50.730  26.827  27.567  1.00  0.00     0.041 A 
ATOM     73  F   UNL A   1      48.975  26.862  29.117  1.00  0.00    -0.206 F 
ATOM     74  C   UNL A   1      51.199  26.999  26.268  1.00  0.00     0.022 A 
BRANCH  71  75
ATOM     75  S   UNL A   1      50.857  27.536  23.553  1.00  0.00     0.124 S 
ATOM     76  O   UNL A   1      52.089  26.752  23.591  1.00  0.00    -0.237 OA
ATOM     77  O   UNL A   1      49.735  26.929  22.849  1.00  0.00    -0.237 OA
ATOM     78  O   UNL A   1      51.043  28.966  23.315  1.00  0.00    -0.744 OA
ENDBRANCH  71  75
ENDBRANCH  54  68
BRANCH  55  79
ATOM     79  C   UNL A   1      39.060  29.063  29.912  1.00  0.00     0.023 A 
ATOM     80  C   UNL A   1      38.085  29.708  29.135  1.00  0.00     0.031 A 
ATOM     81  C   UNL A   1      38.722  28.705  31.229  1.00  0.00     0.131 A 
ATOM     82  C   UNL A   1      36.843  30.038  29.701  1.00  0.00     0.055 A 
ATOM     83  C   UNL A   1      37.464  28.983  31.769  1.00  0.00     0.041 A 
ATOM     84  F   UNL A   1      39.615  28.081  32.015  1.00  0.00    -0.206 F 
ATOM     85  C   UNL A   1      36.523  29.670  31.010  1.00  0.00     0.022 A 
BRANCH  82  86
ATOM     86  S   UNL A   1      35.700  31.068  28.740  1.00  0.00     0.124 S 
ATOM     87  O   UNL A   1      36.620  31.925  28.001  1.00  0.00    -0.237 OA
ATOM     88  O   UNL A   1      34.982  30.068  27.956  1.00  0.00    -0.237 OA
ATOM     89  O   UNL A   1      34.906  31.741  29.766  1.00  0.00    -0.744 OA
ENDBRANCH  82  86
ENDBRANCH  55  79
BRANCH  67  90
ATOM     90  C   UNL A   1      44.634  33.199  29.326  1.00  0.00     0.023 A 
ATOM     91  C   UNL A   1      44.361  34.179  28.357  1.00  0.00     0.031 A 
ATOM     92  C   UNL A   1      45.114  33.617  30.579  1.00  0.00     0.131 A 
ATOM     93  C   UNL A   1      44.624  35.528  28.639  1.00  0.00     0.055 A 
ATOM     94  C   UNL A   1      45.318  34.966  30.874  1.00  0.00     0.041 A 
ATOM     95  F   UNL A   1      45.390  32.721  31.540  1.00  0.00    -0.206 F 
ATOM     96  C   UNL A   1      45.085  35.929  29.895  1.00  0.00     0.022 A 
BRANCH  93  97
ATOM     97  S   UNL A   1      44.435  36.748  27.309  1.00  0.00     0.124 S 
ATOM     98  O   UNL A   1      43.281  36.229  26.583  1.00  0.00    -0.237 OA
ATOM     99  O   UNL A   1      44.218  37.986  28.051  1.00  0.00    -0.237 OA
ATOM    100  O   UNL A   1      45.706  36.671  26.590  1.00  0.00    -0.744 OA
ENDBRANCH  93  97
ENDBRANCH  67  90
ENDBRANCH  41  42
ENDBRANCH  33  36
ENDBRANCH  31  32
ENDBRANCH  30  31
ENDBRANCH   1  30
TORSDOF 17
ENDMDL
MODEL 2
REMARK VINA RESULT:     -11.7      1.733      7.581
REMARK SMILES CC[NH+]1CC[NH+]([C@@H]2CC(=O)N(c3ccc(C(=O)NCCCCNC(=O)c4ccc(-c5c6nc(c(-c7cc(S(=O)(=O)[O-])ccc7F)c7ccc([nH]7)c(-c7cc(S(=O)(=O)[O-])ccc7F)c7nc(c(-c8cc(S(=O)(=O)[O-])ccc8F)c8ccc5[nH]8)C=C7)C=C6)cc4)cc3)C2=O)CC1
REMARK SMILES IDX 20 1 19 2 18 3 16 4 17 5 15 7 12 8 13 9 90 10 14 11 89 12
REMARK SMILES IDX 11 13 7 14 8 15 91 16 9 17 92 18 10 19 6 20 3 21 4 22 94 23
REMARK SMILES IDX 5 25 93 26 2 28 1 29 21 30 22 31 23 32 24 33 25 35 26 36
REMARK SMILES IDX 27 37 88 38 28 39 87 40 29 41 30 42 31 43 81 44 32 45 86 46
REMARK SMILES IDX 80 47 82 48 33 49 85 50 79 51 78 52 34 54 66 55 46 56 65 57
REMARK SMILES IDX 47 58 50 59 64 60 83 61 48 62 49 63 63 65 84 66 51 67 35 68
REMARK SMILES IDX 36 69 44 70 37 71 43 72 45 73 42 74 38 75 39 76 40 77 41 78
REMARK SMILES IDX 67 79 68 80 76 81 69 82 75 83 77 84 74 85 70 86 71 87 72 88
REMARK SMILES IDX 73 89 52 90 53 91 61 92 54 93 60 94 62 95 59 96 55 97 56 98
REMARK SMILES IDX 57 99 58 100
REMARK H PARENT 18 6 3 24 6 27 23 34 82 53 50 64
REMARK Flexibility Score: inf
ROOT
ATOM      1  C   UNL A   1      39.410  21.860  26.183  1.00  0.00     0.023 C 
ENDROOT
BRANCH   1   2
ATOM      2  C   UNL A   1      38.063  22.445  25.745  1.00  0.00     0.116 C 
BRANCH   2   3
ATOM      3  N   UNL A   1      37.109  21.391  25.462  1.00  0.00    -0.352 N 
ATOM      4  C   UNL A   1      35.764  21.415  25.189  1.00  0.00     0.251 C 
ATOM      5  O   UNL A   1      35.217  20.339  24.941  1.00  0.00    -0.269 OA
ATOM      6  H   UNL A   1      37.499  20.487  25.466  1.00  0.00     0.163 HD
BRANCH   4   7
ATOM      7  C   UNL A   1      34.944  22.663  25.147  1.00  0.00     0.039 A 
ATOM      8  C   UNL A   1      33.298  24.965  25.218  1.00  0.00     0.052 A 
ATOM      9  C   UNL A   1      33.274  24.047  26.271  1.00  0.00     0.027 A 
ATOM     10  C   UNL A   1      34.168  24.743  24.153  1.00  0.00     0.027 A 
ATOM     11  C   UNL A   1      34.069  22.893  26.220  1.00  0.00     0.016 A 
ATOM     12  C   UNL A   1      35.011  23.632  24.145  1.00  0.00     0.016 A 
BRANCH   8  13
ATOM     13  N   UNL A   1      32.468  26.103  25.216  1.00  0.00    -0.245 N 
ATOM     14  C   UNL A   1      30.654  27.533  24.799  1.00  0.00     0.285 C 
ATOM     15  C   UNL A   1      31.735  28.297  25.551  1.00  0.00     0.176 C 
ATOM     16  C   UNL A   1      31.170  26.099  24.769  1.00  0.00     0.292 C 
ATOM     17  C   UNL A   1      32.864  27.328  25.690  1.00  0.00     0.240 C 
ATOM     18  O   UNL A   1      30.507  25.134  24.408  1.00  0.00    -0.267 OA
ATOM     19  O   UNL A   1      33.953  27.655  26.143  1.00  0.00    -0.274 OA
BRANCH  14  20
ATOM     20  N   UNL A   1      30.243  27.975  23.454  1.00  0.00    -0.315 N 
ATOM     21  N   UNL A   1      28.178  30.120  22.971  1.00  0.00    -0.326 N 
ATOM     22  C   UNL A   1      27.794  28.740  23.338  1.00  0.00     0.324 C 
ATOM     23  C   UNL A   1      29.537  30.407  23.464  1.00  0.00     0.324 C 
ATOM     24  H   UNL A   1      27.547  30.783  23.422  1.00  0.00     0.348 HD
ATOM     25  C   UNL A   1      28.861  27.642  23.082  1.00  0.00     0.325 C 
ATOM     26  C   UNL A   1      30.585  29.351  23.066  1.00  0.00     0.325 C 
ATOM     27  H   UNL A   1      30.857  27.388  22.889  1.00  0.00     0.349 HD
BRANCH  21  28
ATOM     28  C   UNL A   1      28.028  30.340  21.525  1.00  0.00     0.259 C 
ATOM     29  C   UNL A   1      28.034  31.818  21.146  1.00  0.00     0.071 C 
ENDBRANCH  21  28
ENDBRANCH  14  20
ENDBRANCH   8  13
ENDBRANCH   4   7
ENDBRANCH   2   3
ENDBRANCH   1   2
BRANCH   1  30
ATOM     30  C   UNL A   1      39.577  20.370  25.891  1.00  0.00     0.023 C 
BRANCH  30  31
ATOM     31  C   UNL A   1      40.537  19.646  26.825  1.00  0.00     0.116 C 
BRANCH  31  32
ATOM     32  N   UNL A   1      41.689  19.081  26.140  1.00  0.00    -0.352 N 
ATOM     33  C   UNL A   1      42.843  19.721  25.748  1.00  0.00     0.251 C 
ATOM     34  H   UNL A   1      41.636  18.119  25.931  1.00  0.00     0.163 HD
ATOM     35  O   UNL A   1      43.678  19.134  25.083  1.00  0.00    -0.269 OA
BRANCH  33  36
ATOM     36  C   UNL A   1      43.018  21.146  26.108  1.00  0.00     0.039 A 
ATOM     37  C   UNL A   1      43.277  21.474  27.440  1.00  0.00     0.014 A 
ATOM     38  C   UNL A   1      42.985  22.138  25.125  1.00  0.00     0.014 A 
ATOM     39  C   UNL A   1      43.573  22.795  27.777  1.00  0.00     0.010 A 
ATOM     40  C   UNL A   1      43.347  23.441  25.452  1.00  0.00     0.010 A 
ATOM     41  C   UNL A   1      43.648  23.781  26.780  1.00  0.00    -0.014 A 
BRANCH  41  42
ATOM     42  C   UNL A   1      44.039  25.177  27.104  1.00  0.00     0.031 A 
ATOM     43  C   UNL A   1      43.020  26.128  27.671  1.00  0.00     0.074 A 
ATOM     44  C   UNL A   1      45.287  25.601  26.818  1.00  0.00     0.049 A 
ATOM     45  N   UNL A   1      43.140  27.402  27.939  1.00  0.00    -0.248 NA
ATOM     46  C   UNL A   1      41.682  25.580  27.941  1.00  0.00     0.031 C 
ATOM     47  C   UNL A   1      46.345  24.781  26.224  1.00  0.00     0.029 A 
ATOM     48  N   UNL A   1      45.875  26.832  26.974  1.00  0.00    -0.354 N 
ATOM     49  C   UNL A   1      41.889  27.813  28.386  1.00  0.00     0.074 A 
ATOM     50  C   UNL A   1      41.015  26.662  28.311  1.00  0.00     0.031 C 
ATOM     51  C   UNL A   1      47.454  25.525  26.081  1.00  0.00     0.029 A 
ATOM     52  C   UNL A   1      47.178  26.886  26.532  1.00  0.00     0.049 A 
ATOM     53  H   UNL A   1      45.407  27.605  27.365  1.00  0.00     0.167 HD
ATOM     54  C   UNL A   1      41.511  29.036  28.831  1.00  0.00     0.034 A 
ATOM     55  C   UNL A   1      48.044  27.917  26.483  1.00  0.00     0.034 A 
ATOM     56  C   UNL A   1      42.404  30.162  28.935  1.00  0.00     0.049 A 
ATOM     57  C   UNL A   1      47.595  29.265  26.996  1.00  0.00     0.074 A 
ATOM     58  C   UNL A   1      42.148  31.418  29.458  1.00  0.00     0.029 A 
ATOM     59  N   UNL A   1      43.723  30.174  28.504  1.00  0.00    -0.354 N 
ATOM     60  N   UNL A   1      46.429  29.616  27.488  1.00  0.00    -0.248 NA
ATOM     61  C   UNL A   1      48.583  30.351  26.958  1.00  0.00     0.031 C 
ATOM     62  C   UNL A   1      43.291  32.206  29.287  1.00  0.00     0.029 A 
ATOM     63  C   UNL A   1      44.283  31.422  28.720  1.00  0.00     0.049 A 
ATOM     64  H   UNL A   1      44.193  29.406  28.103  1.00  0.00     0.167 HD
ATOM     65  C   UNL A   1      46.560  30.953  27.854  1.00  0.00     0.074 A 
ATOM     66  C   UNL A   1      47.920  31.340  27.539  1.00  0.00     0.031 C 
ATOM     67  C   UNL A   1      45.642  31.787  28.403  1.00  0.00     0.034 A 
BRANCH  54  68
ATOM     68  C   UNL A   1      40.066  29.227  29.217  1.00  0.00     0.023 A 
ATOM     69  C   UNL A   1      39.657  29.281  30.561  1.00  0.00     0.031 A 
ATOM     70  C   UNL A   1      39.083  29.370  28.221  1.00  0.00     0.131 A 
ATOM     71  C   UNL A   1      38.296  29.419  30.872  1.00  0.00     0.055 A 
ATOM     72  C   UNL A   1      37.740  29.575  28.539  1.00  0.00     0.041 A 
ATOM     73  F   UNL A   1      39.413  29.307  26.922  1.00  0.00    -0.206 F 
ATOM     74  C   UNL A   1      37.338  29.591  29.871  1.00  0.00     0.022 A 
BRANCH  71  75
ATOM     75  S   UNL A   1      37.782  29.267  32.605  1.00  0.00     0.124 S 
ATOM     76  O   UNL A   1      38.840  30.004  33.292  1.00  0.00    -0.237 OA
ATOM     77  O   UNL A   1      36.466  29.895  32.600  1.00  0.00    -0.237 OA
ATOM     78  O   UNL A   1      37.784  27.824  32.838  1.00  0.00    -0.744 OA
ENDBRANCH  71  75
ENDBRANCH  54  68
BRANCH  55  79
ATOM     79  C   UNL A   1      49.416  27.742  25.925  1.00  0.00     0.023 A 
ATOM     80  C   UNL A   1      49.692  28.042  24.582  1.00  0.00     0.031 A 
ATOM     81  C   UNL A   1      50.453  27.197  26.704  1.00  0.00     0.131 A 
ATOM     82  C   UNL A   1      50.948  27.732  24.037  1.00  0.00     0.055 A 
ATOM     83  C   UNL A   1      51.720  26.946  26.173  1.00  0.00     0.041 A 
ATOM     84  F   UNL A   1      50.247  26.896  27.997  1.00  0.00    -0.206 F 
ATOM     85  C   UNL A   1      51.968  27.196  24.827  1.00  0.00     0.022 A 
BRANCH  82  86
ATOM     86  S   UNL A   1      51.189  27.924  22.250  1.00  0.00     0.124 S 
ATOM     87  O   UNL A   1      52.583  28.346  22.180  1.00  0.00    -0.237 OA
ATOM     88  O   UNL A   1      50.899  26.580  21.761  1.00  0.00    -0.237 OA
ATOM     89  O   UNL A   1      50.208  28.944  21.884  1.00  0.00    -0.744 OA
ENDBRANCH  82  86
ENDBRANCH  55  79
BRANCH  67  90
ATOM     90  C   UNL A   1      46.106  33.180  28.751  1.00  0.00     0.023 A 
ATOM     91  C   UNL A   1      45.976  34.249  27.848  1.00  0.00     0.031 A 
ATOM     92  C   UNL A   1      46.695  33.434  30.001  1.00  0.00     0.131 A 
ATOM     93  C   UNL A   1      46.482  35.513  28.188  1.00  0.00     0.055 A 
ATOM     94  C   UNL A   1      47.143  34.707  30.357  1.00  0.00     0.041 A 
ATOM     95  F   UNL A   1      46.842  32.447  30.901  1.00  0.00    -0.206 F 
ATOM     96  C   UNL A   1      47.049  35.752  29.442  1.00  0.00     0.022 A 
BRANCH  93  97
ATOM     97  S   UNL A   1      46.464  36.823  26.934  1.00  0.00     0.124 S 
ATOM     98  O   UNL A   1      47.344  37.824  27.529  1.00  0.00    -0.237 OA
ATOM     99  O   UNL A   1      46.984  36.136  25.757  1.00  0.00    -0.237 OA
ATOM    100  O   UNL A   1      45.054  37.205  26.857  1.00  0.00    -0.744 OA
ENDBRANCH  93  97
ENDBRANCH  67  90
ENDBRANCH  41  42
ENDBRANCH  33  36
ENDBRANCH  31  32
ENDBRANCH  30  31
ENDBRANCH   1  30
TORSDOF 17
ENDMDL
MODEL 3
REMARK VINA RESULT:     -11.5      2.693      8.069
REMARK SMILES CC[NH+]1CC[NH+]([C@@H]2CC(=O)N(c3ccc(C(=O)NCCCCNC(=O)c4ccc(-c5c6nc(c(-c7cc(S(=O)(=O)[O-])ccc7F)c7ccc([nH]7)c(-c7cc(S(=O)(=O)[O-])ccc7F)c7nc(c(-c8cc(S(=O)(=O)[O-])ccc8F)c8ccc5[nH]8)C=C7)C=C6)cc4)cc3)C2=O)CC1
REMARK SMILES IDX 20 1 19 2 18 3 16 4 17 5 15 7 12 8 13 9 90 10 14 11 89 12
REMARK SMILES IDX 11 13 7 14 8 15 91 16 9 17 92 18 10 19 6 20 3 21 4 22 94 23
REMARK SMILES IDX 5 25 93 26 2 28 1 29 21 30 22 31 23 32 24 33 25 35 26 36
REMARK SMILES IDX 27 37 88 38 28 39 87 40 29 41 30 42 31 43 81 44 32 45 86 46
REMARK SMILES IDX 80 47 82 48 33 49 85 50 79 51 78 52 34 54 66 55 46 56 65 57
REMARK SMILES IDX 47 58 50 59 64 60 83 61 48 62 49 63 63 65 84 66 51 67 35 68
REMARK SMILES IDX 36 69 44 70 37 71 43 72 45 73 42 74 38 75 39 76 40 77 41 78
REMARK SMILES IDX 67 79 68 80 76 81 69 82 75 83 77 84 74 85 70 86 71 87 72 88
REMARK SMILES IDX 73 89 52 90 53 91 61 92 54 93 60 94 62 95 59 96 55 97 56 98
REMARK SMILES IDX 57 99 58 100
REMARK H PARENT 18 6 3 24 6 27 23 34 82 53 50 64
REMARK Flexibility Score: inf
ROOT
ATOM      1  C   UNL A   1      37.778  19.918  24.414  1.00  0.00     0.023 C 
ENDROOT
BRANCH   1   2
ATOM      2  C   UNL A   1      36.573  20.672  24.988  1.00  0.00     0.116 C 
BRANCH   2   3
ATOM      3  N   UNL A   1      35.402  19.819  25.034  1.00  0.00    -0.352 N 
ATOM      4  C   UNL A   1      34.059  20.097  25.012  1.00  0.00     0.251 C 
ATOM      5  O   UNL A   1      33.282  19.141  25.019  1.00  0.00    -0.269 OA
ATOM      6  H   UNL A   1      35.610  18.859  25.091  1.00  0.00     0.163 HD
BRANCH   4   7
ATOM      7  C   UNL A   1      33.494  21.480  24.950  1.00  0.00     0.039 A 
ATOM      8  C   UNL A   1      32.523  24.138  24.987  1.00  0.00     0.052 A 
ATOM      9  C   UNL A   1      33.550  23.749  25.852  1.00  0.00     0.027 A 
ATOM     10  C   UNL A   1      32.011  23.204  24.089  1.00  0.00     0.027 A 
ATOM     11  C   UNL A   1      34.009  22.425  25.851  1.00  0.00     0.016 A 
ATOM     12  C   UNL A   1      32.526  21.909  24.042  1.00  0.00     0.016 A 
BRANCH   8  13
ATOM     13  N   UNL A   1      32.003  25.446  25.006  1.00  0.00    -0.245 N 
ATOM     14  C   UNL A   1      31.702  27.728  24.543  1.00  0.00     0.285 C 
ATOM     15  C   UNL A   1      30.718  27.299  25.623  1.00  0.00     0.176 C 
ATOM     16  C   UNL A   1      32.373  26.427  24.118  1.00  0.00     0.292 C 
ATOM     17  C   UNL A   1      31.049  25.868  25.898  1.00  0.00     0.240 C 
ATOM     18  O   UNL A   1      33.104  26.313  23.142  1.00  0.00    -0.267 OA
ATOM     19  O   UNL A   1      30.527  25.240  26.809  1.00  0.00    -0.274 OA
BRANCH  14  20
ATOM     20  N   UNL A   1      32.704  28.769  24.833  1.00  0.00    -0.315 N 
ATOM     21  N   UNL A   1      33.272  29.798  27.612  1.00  0.00    -0.326 N 
ATOM     22  C   UNL A   1      32.088  30.243  26.845  1.00  0.00     0.324 C 
ATOM     23  C   UNL A   1      33.698  28.467  27.142  1.00  0.00     0.324 C 
ATOM     24  H   UNL A   1      33.027  29.706  28.598  1.00  0.00     0.348 HD
ATOM     25  C   UNL A   1      32.157  30.049  25.306  1.00  0.00     0.325 C 
ATOM     26  C   UNL A   1      33.881  28.369  25.616  1.00  0.00     0.325 C 
ATOM     27  H   UNL A   1      33.063  28.925  23.891  1.00  0.00     0.349 HD
BRANCH  21  28
ATOM     28  C   UNL A   1      34.343  30.804  27.553  1.00  0.00     0.259 C 
ATOM     29  C   UNL A   1      33.972  32.107  28.256  1.00  0.00     0.071 C 
ENDBRANCH  21  28
ENDBRANCH  14  20
ENDBRANCH   8  13
ENDBRANCH   4   7
ENDBRANCH   2   3
ENDBRANCH   1   2
BRANCH   1  30
ATOM     30  C   UNL A   1      38.581  19.130  25.448  1.00  0.00     0.023 C 
BRANCH  30  31
ATOM     31  C   UNL A   1      39.785  19.872  26.012  1.00  0.00     0.116 C 
BRANCH  31  32
ATOM     32  N   UNL A   1      40.997  19.069  26.033  1.00  0.00    -0.352 N 
ATOM     33  C   UNL A   1      42.296  19.496  26.195  1.00  0.00     0.251 C 
ATOM     34  H   UNL A   1      40.873  18.099  25.917  1.00  0.00     0.163 HD
ATOM     35  O   UNL A   1      43.222  18.712  26.081  1.00  0.00    -0.269 OA
BRANCH  33  36
ATOM     36  C   UNL A   1      42.541  20.932  26.459  1.00  0.00     0.039 A 
ATOM     37  C   UNL A   1      42.618  21.366  27.783  1.00  0.00     0.014 A 
ATOM     38  C   UNL A   1      42.751  21.824  25.405  1.00  0.00     0.014 A 
ATOM     39  C   UNL A   1      42.976  22.688  28.052  1.00  0.00     0.010 A 
ATOM     40  C   UNL A   1      43.173  23.121  25.676  1.00  0.00     0.010 A 
ATOM     41  C   UNL A   1      43.293  23.565  27.002  1.00  0.00    -0.014 A 
BRANCH  41  42
ATOM     42  C   UNL A   1      43.753  24.951  27.268  1.00  0.00     0.031 A 
ATOM     43  C   UNL A   1      42.788  25.970  27.812  1.00  0.00     0.074 A 
ATOM     44  C   UNL A   1      45.015  25.306  26.950  1.00  0.00     0.049 A 
ATOM     45  N   UNL A   1      42.970  27.245  28.030  1.00  0.00    -0.248 NA
ATOM     46  C   UNL A   1      41.430  25.495  28.120  1.00  0.00     0.031 C 
ATOM     47  C   UNL A   1      46.025  24.416  26.373  1.00  0.00     0.029 A 
ATOM     48  N   UNL A   1      45.661  26.513  27.052  1.00  0.00    -0.354 N 
ATOM     49  C   UNL A   1      41.746  27.731  28.477  1.00  0.00     0.074 A 
ATOM     50  C   UNL A   1      40.819  26.621  28.458  1.00  0.00     0.031 C 
ATOM     51  C   UNL A   1      47.165  25.102  26.188  1.00  0.00     0.029 A 
ATOM     52  C   UNL A   1      46.959  26.489  26.590  1.00  0.00     0.049 A 
ATOM     53  H   UNL A   1      45.236  27.321  27.419  1.00  0.00     0.167 HD
ATOM     54  C   UNL A   1      41.432  28.986  28.881  1.00  0.00     0.034 A 
ATOM     55  C   UNL A   1      47.871  27.477  26.492  1.00  0.00     0.034 A 
ATOM     56  C   UNL A   1      42.378  30.073  28.931  1.00  0.00     0.049 A 
ATOM     57  C   UNL A   1      47.492  28.862  26.959  1.00  0.00     0.074 A 
ATOM     58  C   UNL A   1      42.188  31.357  29.409  1.00  0.00     0.029 A 
ATOM     59  N   UNL A   1      43.690  30.006  28.482  1.00  0.00    -0.354 N 
ATOM     60  N   UNL A   1      46.351  29.285  27.453  1.00  0.00    -0.248 NA
ATOM     61  C   UNL A   1      48.529  29.899  26.867  1.00  0.00     0.031 C 
ATOM     62  C   UNL A   1      43.363  32.084  29.193  1.00  0.00     0.029 A 
ATOM     63  C   UNL A   1      44.310  31.234  28.643  1.00  0.00     0.049 A 
ATOM     64  H   UNL A   1      44.117  29.203  28.104  1.00  0.00     0.167 HD
ATOM     65  C   UNL A   1      46.550  30.627  27.766  1.00  0.00     0.074 A 
ATOM     66  C   UNL A   1      47.921  30.938  27.419  1.00  0.00     0.031 C 
ATOM     67  C   UNL A   1      45.679  31.523  28.295  1.00  0.00     0.034 A 
BRANCH  54  68
ATOM     68  C   UNL A   1      40.004  29.259  29.279  1.00  0.00     0.023 A 
ATOM     69  C   UNL A   1      39.601  29.292  30.625  1.00  0.00     0.031 A 
ATOM     70  C   UNL A   1      39.031  29.502  28.292  1.00  0.00     0.131 A 
ATOM     71  C   UNL A   1      38.252  29.508  30.945  1.00  0.00     0.055 A 
ATOM     72  C   UNL A   1      37.705  29.785  28.621  1.00  0.00     0.041 A 
ATOM     73  F   UNL A   1      39.355  29.463  26.990  1.00  0.00    -0.206 F 
ATOM     74  C   UNL A   1      37.306  29.779  29.954  1.00  0.00     0.022 A 
BRANCH  71  75
ATOM     75  S   UNL A   1      37.730  29.330  32.673  1.00  0.00     0.124 S 
ATOM     76  O   UNL A   1      38.813  30.010  33.379  1.00  0.00    -0.237 OA
ATOM     77  O   UNL A   1      36.438  30.005  32.685  1.00  0.00    -0.237 OA
ATOM     78  O   UNL A   1      37.680  27.882  32.867  1.00  0.00    -0.744 OA
ENDBRANCH  71  75
ENDBRANCH  54  68
BRANCH  55  79
ATOM     79  C   UNL A   1      49.225  27.217  25.923  1.00  0.00     0.023 A 
ATOM     80  C   UNL A   1      50.347  27.092  26.758  1.00  0.00     0.031 A 
ATOM     81  C   UNL A   1      49.432  27.170  24.533  1.00  0.00     0.131 A 
ATOM     82  C   UNL A   1      51.631  26.996  26.199  1.00  0.00     0.055 A 
ATOM     83  C   UNL A   1      50.706  27.014  23.981  1.00  0.00     0.041 A 
ATOM     84  F   UNL A   1      48.394  27.279  23.686  1.00  0.00    -0.206 F 
ATOM     85  C   UNL A   1      51.816  26.946  24.815  1.00  0.00     0.022 A 
BRANCH  82  86
ATOM     86  S   UNL A   1      53.065  27.064  27.307  1.00  0.00     0.124 S 
ATOM     87  O   UNL A   1      52.636  28.052  28.290  1.00  0.00    -0.237 OA
ATOM     88  O   UNL A   1      53.148  25.685  27.776  1.00  0.00    -0.237 OA
ATOM     89  O   UNL A   1      54.152  27.488  26.428  1.00  0.00    -0.744 OA
ENDBRANCH  82  86
ENDBRANCH  55  79
BRANCH  67  90
ATOM     90  C   UNL A   1      46.212  32.905  28.584  1.00  0.00     0.023 A 
ATOM     91  C   UNL A   1      46.806  33.226  29.816  1.00  0.00     0.031 A 
ATOM     92  C   UNL A   1      46.112  33.915  27.611  1.00  0.00     0.131 A 
ATOM     93  C   UNL A   1      47.227  34.540  30.065  1.00  0.00     0.055 A 
ATOM     94  C   UNL A   1      46.586  35.207  27.843  1.00  0.00     0.041 A 
ATOM     95  F   UNL A   1      45.553  33.661  26.416  1.00  0.00    -0.206 F 
ATOM     96  C   UNL A   1      47.136  35.528  29.081  1.00  0.00     0.022 A 
BRANCH  93  97
ATOM     97  S   UNL A   1      47.820  34.965  31.726  1.00  0.00     0.124 S 
ATOM     98  O   UNL A   1      47.466  36.377  31.822  1.00  0.00    -0.237 OA
ATOM     99  O   UNL A   1      47.054  34.056  32.573  1.00  0.00    -0.237 OA
ATOM    100  O   UNL A   1      49.254  34.688  31.658  1.00  0.00    -0.744 OA
ENDBRANCH  93  97
ENDBRANCH  67  90
ENDBRANCH  41  42
ENDBRANCH  33  36
ENDBRANCH  31  32
ENDBRANCH  30  31
ENDBRANCH   1  30
TORSDOF 17
ENDMDL
