MODEL 1
REMARK VINA RESULT:     -11.2      0.000      0.000
REMARK SMILES O=C(CCn1cc(Cl)c([N+](=O)[O-])n1)NCCCCNC(=O)c1ccc(-c2c3nc(c(-c4cc(S(=O)(=O)[O-])ccc4F)c4ccc([nH]4)c(-c4cc(S(=O)(=O)[O-])ccc4F)c4nc(c(-c5cc(S(=O)(=O)[O-])ccc5F)c5ccc2[nH]5)C=C4)C=C3)cc1
REMARK SMILES IDX 16 1 15 2 14 3 1 4 2 5 3 7 4 8 5 9 6 10 13 11 7 12 9 13 8 14
REMARK SMILES IDX 10 15 11 16 12 17 17 18 18 19 19 20 20 21 21 23 22 24 23 25
REMARK SMILES IDX 84 26 24 27 83 28 25 29 26 30 27 31 77 32 28 33 82 34 76 35
REMARK SMILES IDX 78 36 29 37 81 38 75 39 74 40 30 42 62 43 42 44 61 45 43 46
REMARK SMILES IDX 46 47 60 48 79 49 44 50 45 51 59 53 80 54 47 55 31 56 32 57
REMARK SMILES IDX 40 58 33 59 39 60 41 61 38 62 34 63 35 64 36 65 37 66 63 67
REMARK SMILES IDX 64 68 72 69 65 70 71 71 73 72 70 73 66 74 67 75 68 76 69 77
REMARK SMILES IDX 48 78 49 79 57 80 50 81 56 82 58 83 55 84 51 85 52 86 53 87
REMARK SMILES IDX 54 88
REMARK H PARENT 14 6 19 22 78 41 46 52
REMARK Flexibility Score: inf
ROOT
ATOM      1  C   UNL A   1      37.730  29.940  32.906  1.00  0.00     0.023 C 
ENDROOT
BRANCH   1   2
ATOM      2  C   UNL A   1      38.466  30.639  34.058  1.00  0.00     0.116 C 
BRANCH   2   3
ATOM      3  N   UNL A   1      37.664  31.612  34.787  1.00  0.00    -0.356 N 
ATOM      4  O   UNL A   1      38.459  33.431  33.626  1.00  0.00    -0.275 OA
ATOM      5  C   UNL A   1      37.672  32.949  34.435  1.00  0.00     0.221 C 
ATOM      6  H   UNL A   1      37.108  31.313  35.543  1.00  0.00     0.163 HD
BRANCH   5   7
ATOM      7  C   UNL A   1      36.584  33.797  35.065  1.00  0.00     0.125 C 
BRANCH   7   8
ATOM      8  C   UNL A   1      35.235  33.523  34.394  1.00  0.00     0.179 C 
BRANCH   8   9
ATOM      9  N   UNL A   1      34.959  34.463  33.315  1.00  0.00    -0.178 N 
ATOM     10  C   UNL A   1      34.834  34.152  31.992  1.00  0.00     0.161 A 
ATOM     11  N   UNL A   1      34.578  35.724  33.600  1.00  0.00     0.061 NA
ATOM     12  C   UNL A   1      34.110  35.178  31.437  1.00  0.00     0.160 A 
ATOM     13  C   UNL A   1      34.119  36.190  32.418  1.00  0.00     0.408 A 
ATOM     14  Cl  UNL A   1      33.345  35.127  29.932  1.00  0.00    -0.073 Cl
BRANCH  13  15
ATOM     15  N   UNL A   1      33.632  37.554  32.342  1.00  0.00    -0.020 N 
ATOM     16  O   UNL A   1      32.901  37.833  31.380  1.00  0.00    -0.358 OA
ATOM     17  O   UNL A   1      33.947  38.342  33.246  1.00  0.00    -0.358 OA
ENDBRANCH  13  15
ENDBRANCH   8   9
ENDBRANCH   7   8
ENDBRANCH   5   7
ENDBRANCH   2   3
ENDBRANCH   1   2
BRANCH   1  18
ATOM     18  C   UNL A   1      36.714  30.774  32.110  1.00  0.00     0.023 C 
BRANCH  18  19
ATOM     19  C   UNL A   1      36.960  30.835  30.607  1.00  0.00     0.116 C 
BRANCH  19  20
ATOM     20  N   UNL A   1      35.939  30.184  29.787  1.00  0.00    -0.352 N 
ATOM     21  C   UNL A   1      36.138  29.535  28.567  1.00  0.00     0.251 C 
ATOM     22  H   UNL A   1      35.016  30.206  30.130  1.00  0.00     0.163 HD
ATOM     23  O   UNL A   1      35.215  29.387  27.785  1.00  0.00    -0.269 OA
BRANCH  21  24
ATOM     24  C   UNL A   1      37.501  29.042  28.252  1.00  0.00     0.039 A 
ATOM     25  C   UNL A   1      38.315  29.618  27.272  1.00  0.00     0.014 A 
ATOM     26  C   UNL A   1      37.977  27.989  29.019  1.00  0.00     0.014 A 
ATOM     27  C   UNL A   1      39.644  29.188  27.153  1.00  0.00     0.010 A 
ATOM     28  C   UNL A   1      39.318  27.710  29.032  1.00  0.00     0.010 A 
ATOM     29  C   UNL A   1      40.155  28.245  28.059  1.00  0.00    -0.014 A 
BRANCH  29  30
ATOM     30  C   UNL A   1      41.563  27.836  28.075  1.00  0.00     0.031 A 
ATOM     31  C   UNL A   1      41.905  26.598  27.321  1.00  0.00     0.074 A 
ATOM     32  C   UNL A   1      42.557  28.637  28.526  1.00  0.00     0.049 A 
ATOM     33  N   UNL A   1      42.262  25.450  27.793  1.00  0.00    -0.248 NA
ATOM     34  C   UNL A   1      41.745  26.597  25.865  1.00  0.00     0.031 C 
ATOM     35  C   UNL A   1      42.468  30.002  29.067  1.00  0.00     0.029 A 
ATOM     36  N   UNL A   1      43.901  28.427  28.493  1.00  0.00    -0.354 N 
ATOM     37  C   UNL A   1      42.594  24.657  26.694  1.00  0.00     0.074 A 
ATOM     38  C   UNL A   1      42.069  25.344  25.547  1.00  0.00     0.031 C 
ATOM     39  C   UNL A   1      43.693  30.572  29.090  1.00  0.00     0.029 A 
ATOM     40  C   UNL A   1      44.671  29.552  28.771  1.00  0.00     0.049 A 
ATOM     41  H   UNL A   1      44.298  27.549  28.289  1.00  0.00     0.167 HD
ATOM     42  C   UNL A   1      43.470  23.618  26.804  1.00  0.00     0.034 A 
ATOM     43  C   UNL A   1      46.025  29.648  28.793  1.00  0.00     0.034 A 
ATOM     44  C   UNL A   1      43.698  23.285  28.194  1.00  0.00     0.049 A 
ATOM     45  C   UNL A   1      46.529  28.279  29.055  1.00  0.00     0.074 A 
ATOM     46  C   UNL A   1      42.885  22.906  29.244  1.00  0.00     0.029 A 
ATOM     47  N   UNL A   1      44.863  23.730  28.781  1.00  0.00    -0.354 N 
ATOM     48  N   UNL A   1      46.281  27.634  30.163  1.00  0.00    -0.248 NA
ATOM     49  C   UNL A   1      46.880  27.443  27.919  1.00  0.00     0.031 C 
ATOM     50  C   UNL A   1      43.376  23.643  30.363  1.00  0.00     0.029 A 
ATOM     51  C   UNL A   1      44.507  24.354  29.951  1.00  0.00     0.049 A 
ATOM     52  H   UNL A   1      45.775  23.620  28.429  1.00  0.00     0.167 HD
ATOM     53  C   UNL A   1      46.008  26.334  29.768  1.00  0.00     0.074 A 
ATOM     54  C   UNL A   1      46.502  26.252  28.393  1.00  0.00     0.031 C 
ATOM     55  C   UNL A   1      45.166  25.532  30.486  1.00  0.00     0.034 A 
BRANCH  42  56
ATOM     56  C   UNL A   1      44.390  23.111  25.711  1.00  0.00     0.023 A 
ATOM     57  C   UNL A   1      44.443  21.716  25.513  1.00  0.00     0.031 A 
ATOM     58  C   UNL A   1      45.401  23.856  25.062  1.00  0.00     0.131 A 
ATOM     59  C   UNL A   1      45.505  21.119  24.812  1.00  0.00     0.055 A 
ATOM     60  C   UNL A   1      46.415  23.263  24.302  1.00  0.00     0.041 A 
ATOM     61  F   UNL A   1      45.527  25.179  25.202  1.00  0.00    -0.206 F 
ATOM     62  C   UNL A   1      46.493  21.884  24.203  1.00  0.00     0.022 A 
BRANCH  59  63
ATOM     63  S   UNL A   1      45.674  19.316  24.886  1.00  0.00     0.124 S 
ATOM     64  O   UNL A   1      44.529  18.946  25.712  1.00  0.00    -0.237 OA
ATOM     65  O   UNL A   1      45.598  18.949  23.476  1.00  0.00    -0.237 OA
ATOM     66  O   UNL A   1      46.981  19.123  25.511  1.00  0.00    -0.744 OA
ENDBRANCH  59  63
ENDBRANCH  42  56
BRANCH  43  67
ATOM     67  C   UNL A   1      46.857  30.780  28.310  1.00  0.00     0.023 A 
ATOM     68  C   UNL A   1      46.393  31.740  27.387  1.00  0.00     0.031 A 
ATOM     69  C   UNL A   1      48.079  31.063  28.963  1.00  0.00     0.131 A 
ATOM     70  C   UNL A   1      47.136  32.922  27.156  1.00  0.00     0.055 A 
ATOM     71  C   UNL A   1      48.805  32.234  28.734  1.00  0.00     0.041 A 
ATOM     72  F   UNL A   1      48.565  30.244  29.910  1.00  0.00    -0.206 F 
ATOM     73  C   UNL A   1      48.331  33.174  27.835  1.00  0.00     0.022 A 
BRANCH  70  74
ATOM     74  S   UNL A   1      46.508  34.202  26.019  1.00  0.00     0.124 S 
ATOM     75  O   UNL A   1      45.448  33.494  25.311  1.00  0.00    -0.237 OA
ATOM     76  O   UNL A   1      46.087  35.255  26.935  1.00  0.00    -0.237 OA
ATOM     77  O   UNL A   1      47.676  34.534  25.201  1.00  0.00    -0.744 OA
ENDBRANCH  70  74
ENDBRANCH  43  67
BRANCH  55  78
ATOM     78  C   UNL A   1      44.710  26.005  31.854  1.00  0.00     0.023 A 
ATOM     79  C   UNL A   1      43.635  26.899  32.081  1.00  0.00     0.031 A 
ATOM     80  C   UNL A   1      45.303  25.408  32.980  1.00  0.00     0.131 A 
ATOM     81  C   UNL A   1      43.199  27.165  33.395  1.00  0.00     0.055 A 
ATOM     82  C   UNL A   1      44.857  25.659  34.277  1.00  0.00     0.041 A 
ATOM     83  F   UNL A   1      46.307  24.528  32.832  1.00  0.00    -0.206 F 
ATOM     84  C   UNL A   1      43.804  26.541  34.491  1.00  0.00     0.022 A 
BRANCH  81  85
ATOM     85  S   UNL A   1      41.828  28.330  33.701  1.00  0.00     0.124 S 
ATOM     86  O   UNL A   1      41.287  28.576  32.369  1.00  0.00    -0.237 OA
ATOM     87  O   UNL A   1      40.965  27.582  34.611  1.00  0.00    -0.237 OA
ATOM     88  O   UNL A   1      42.491  29.486  34.310  1.00  0.00    -0.744 OA
ENDBRANCH  81  85
ENDBRANCH  55  78
ENDBRANCH  29  30
ENDBRANCH  21  24
ENDBRANCH  19  20
ENDBRANCH  18  19
ENDBRANCH   1  18
TORSDOF 17
ENDMDL
MODEL 2
REMARK VINA RESULT:     -10.9      2.107      3.143
REMARK SMILES O=C(CCn1cc(Cl)c([N+](=O)[O-])n1)NCCCCNC(=O)c1ccc(-c2c3nc(c(-c4cc(S(=O)(=O)[O-])ccc4F)c4ccc([nH]4)c(-c4cc(S(=O)(=O)[O-])ccc4F)c4nc(c(-c5cc(S(=O)(=O)[O-])ccc5F)c5ccc2[nH]5)C=C4)C=C3)cc1
REMARK SMILES IDX 16 1 15 2 14 3 1 4 2 5 3 7 4 8 5 9 6 10 13 11 7 12 9 13 8 14
REMARK SMILES IDX 10 15 11 16 12 17 17 18 18 19 19 20 20 21 21 23 22 24 23 25
REMARK SMILES IDX 84 26 24 27 83 28 25 29 26 30 27 31 77 32 28 33 82 34 76 35
REMARK SMILES IDX 78 36 29 37 81 38 75 39 74 40 30 42 62 43 42 44 61 45 43 46
REMARK SMILES IDX 46 47 60 48 79 49 44 50 45 51 59 53 80 54 47 55 31 56 32 57
REMARK SMILES IDX 40 58 33 59 39 60 41 61 38 62 34 63 35 64 36 65 37 66 63 67
REMARK SMILES IDX 64 68 72 69 65 70 71 71 73 72 70 73 66 74 67 75 68 76 69 77
REMARK SMILES IDX 48 78 49 79 57 80 50 81 56 82 58 83 55 84 51 85 52 86 53 87
REMARK SMILES IDX 54 88
REMARK H PARENT 14 6 19 22 78 41 46 52
REMARK Flexibility Score: inf
ROOT
ATOM      1  C   UNL A   1      32.812  29.734  27.246  1.00  0.00     0.023 C 
ENDROOT
BRANCH   1   2
ATOM      2  C   UNL A   1      32.465  31.223  27.117  1.00  0.00     0.116 C 
BRANCH   2   3
ATOM      3  N   UNL A   1      33.515  32.131  27.561  1.00  0.00    -0.356 N 
ATOM      4  O   UNL A   1      32.151  33.980  27.653  1.00  0.00    -0.275 OA
ATOM      5  C   UNL A   1      33.232  33.446  27.880  1.00  0.00     0.221 C 
ATOM      6  H   UNL A   1      34.441  31.802  27.635  1.00  0.00     0.163 HD
BRANCH   5   7
ATOM      7  C   UNL A   1      34.335  34.194  28.605  1.00  0.00     0.125 C 
BRANCH   7   8
ATOM      8  C   UNL A   1      34.868  33.360  29.774  1.00  0.00     0.179 C 
BRANCH   8   9
ATOM      9  N   UNL A   1      34.420  33.873  31.063  1.00  0.00    -0.178 N 
ATOM     10  C   UNL A   1      34.754  33.371  32.287  1.00  0.00     0.161 A 
ATOM     11  N   UNL A   1      33.793  35.064  31.133  1.00  0.00     0.061 NA
ATOM     12  C   UNL A   1      34.551  34.396  33.177  1.00  0.00     0.160 A 
ATOM     13  C   UNL A   1      33.811  35.353  32.453  1.00  0.00     0.408 A 
ATOM     14  Cl  UNL A   1      35.157  34.453  34.752  1.00  0.00    -0.073 Cl
BRANCH  13  15
ATOM     15  N   UNL A   1      33.193  36.582  32.912  1.00  0.00    -0.020 N 
ATOM     16  O   UNL A   1      33.803  37.223  33.780  1.00  0.00    -0.358 OA
ATOM     17  O   UNL A   1      32.121  36.930  32.394  1.00  0.00    -0.358 OA
ENDBRANCH  13  15
ENDBRANCH   8   9
ENDBRANCH   7   8
ENDBRANCH   5   7
ENDBRANCH   2   3
ENDBRANCH   1   2
BRANCH   1  18
ATOM     18  C   UNL A   1      34.063  29.234  26.506  1.00  0.00     0.023 C 
BRANCH  18  19
ATOM     19  C   UNL A   1      35.262  28.927  27.393  1.00  0.00     0.116 C 
BRANCH  19  20
ATOM     20  N   UNL A   1      35.383  29.769  28.583  1.00  0.00    -0.352 N 
ATOM     21  C   UNL A   1      36.404  29.726  29.535  1.00  0.00     0.251 C 
ATOM     22  H   UNL A   1      34.672  30.435  28.727  1.00  0.00     0.163 HD
ATOM     23  O   UNL A   1      36.222  30.159  30.660  1.00  0.00    -0.269 OA
BRANCH  21  24
ATOM     24  C   UNL A   1      37.705  29.134  29.139  1.00  0.00     0.039 A 
ATOM     25  C   UNL A   1      38.431  29.560  28.022  1.00  0.00     0.014 A 
ATOM     26  C   UNL A   1      38.220  28.148  29.967  1.00  0.00     0.014 A 
ATOM     27  C   UNL A   1      39.722  29.053  27.817  1.00  0.00     0.010 A 
ATOM     28  C   UNL A   1      39.543  27.805  29.874  1.00  0.00     0.010 A 
ATOM     29  C   UNL A   1      40.291  28.190  28.766  1.00  0.00    -0.014 A 
BRANCH  29  30
ATOM     30  C   UNL A   1      41.675  27.715  28.683  1.00  0.00     0.031 A 
ATOM     31  C   UNL A   1      41.916  26.506  27.847  1.00  0.00     0.074 A 
ATOM     32  C   UNL A   1      42.730  28.442  29.122  1.00  0.00     0.049 A 
ATOM     33  N   UNL A   1      42.239  25.318  28.236  1.00  0.00    -0.248 NA
ATOM     34  C   UNL A   1      41.681  26.595  26.404  1.00  0.00     0.031 C 
ATOM     35  C   UNL A   1      42.737  29.777  29.741  1.00  0.00     0.029 A 
ATOM     36  N   UNL A   1      44.059  28.171  29.006  1.00  0.00    -0.354 N 
ATOM     37  C   UNL A   1      42.474  24.574  27.080  1.00  0.00     0.074 A 
ATOM     38  C   UNL A   1      41.925  25.348  26.002  1.00  0.00     0.031 C 
ATOM     39  C   UNL A   1      43.988  30.287  29.727  1.00  0.00     0.029 A 
ATOM     40  C   UNL A   1      44.897  29.242  29.302  1.00  0.00     0.049 A 
ATOM     41  H   UNL A   1      44.400  27.288  28.734  1.00  0.00     0.167 HD
ATOM     42  C   UNL A   1      43.302  23.490  27.087  1.00  0.00     0.034 A 
ATOM     43  C   UNL A   1      46.254  29.272  29.256  1.00  0.00     0.034 A 
ATOM     44  C   UNL A   1      43.584  23.070  28.442  1.00  0.00     0.049 A 
ATOM     45  C   UNL A   1      46.701  27.869  29.416  1.00  0.00     0.074 A 
ATOM     46  C   UNL A   1      42.808  22.670  29.513  1.00  0.00     0.029 A 
ATOM     47  N   UNL A   1      44.799  23.425  28.989  1.00  0.00    -0.354 N 
ATOM     48  N   UNL A   1      46.479  27.175  30.499  1.00  0.00    -0.248 NA
ATOM     49  C   UNL A   1      46.951  27.083  28.219  1.00  0.00     0.031 C 
ATOM     50  C   UNL A   1      43.392  23.320  30.642  1.00  0.00     0.029 A 
ATOM     51  C   UNL A   1      44.535  23.999  30.208  1.00  0.00     0.049 A 
ATOM     52  H   UNL A   1      45.685  23.293  28.582  1.00  0.00     0.167 HD
ATOM     53  C   UNL A   1      46.122  25.914  30.050  1.00  0.00     0.074 A 
ATOM     54  C   UNL A   1      46.539  25.886  28.648  1.00  0.00     0.031 C 
ATOM     55  C   UNL A   1      45.278  25.112  30.769  1.00  0.00     0.034 A 
BRANCH  42  56
ATOM     56  C   UNL A   1      44.138  23.003  25.920  1.00  0.00     0.023 A 
ATOM     57  C   UNL A   1      43.978  21.656  25.534  1.00  0.00     0.031 A 
ATOM     58  C   UNL A   1      45.253  23.667  25.361  1.00  0.00     0.131 A 
ATOM     59  C   UNL A   1      44.939  21.006  24.741  1.00  0.00     0.055 A 
ATOM     60  C   UNL A   1      46.168  23.036  24.511  1.00  0.00     0.041 A 
ATOM     61  F   UNL A   1      45.580  24.924  25.676  1.00  0.00    -0.206 F 
ATOM     62  C   UNL A   1      46.035  21.688  24.224  1.00  0.00     0.022 A 
BRANCH  59  63
ATOM     63  S   UNL A   1      44.830  19.205  24.568  1.00  0.00     0.124 S 
ATOM     64  O   UNL A   1      45.604  18.979  23.351  1.00  0.00    -0.237 OA
ATOM     65  O   UNL A   1      45.438  18.747  25.813  1.00  0.00    -0.237 OA
ATOM     66  O   UNL A   1      43.395  18.962  24.448  1.00  0.00    -0.744 OA
ENDBRANCH  59  63
ENDBRANCH  42  56
BRANCH  43  67
ATOM     67  C   UNL A   1      47.114  30.389  28.790  1.00  0.00     0.023 A 
ATOM     68  C   UNL A   1      48.169  30.925  29.559  1.00  0.00     0.031 A 
ATOM     69  C   UNL A   1      47.047  30.791  27.436  1.00  0.00     0.131 A 
ATOM     70  C   UNL A   1      49.101  31.811  28.968  1.00  0.00     0.055 A 
ATOM     71  C   UNL A   1      47.973  31.662  26.858  1.00  0.00     0.041 A 
ATOM     72  F   UNL A   1      46.122  30.280  26.607  1.00  0.00    -0.206 F 
ATOM     73  C   UNL A   1      49.011  32.170  27.621  1.00  0.00     0.022 A 
BRANCH  70  74
ATOM     74  S   UNL A   1      50.509  32.450  29.935  1.00  0.00     0.124 S 
ATOM     75  O   UNL A   1      51.562  31.492  29.621  1.00  0.00    -0.237 OA
ATOM     76  O   UNL A   1      50.673  33.796  29.396  1.00  0.00    -0.237 OA
ATOM     77  O   UNL A   1      50.026  32.400  31.316  1.00  0.00    -0.744 OA
ENDBRANCH  70  74
ENDBRANCH  43  67
BRANCH  55  78
ATOM     78  C   UNL A   1      44.917  25.529  32.183  1.00  0.00     0.023 A 
ATOM     79  C   UNL A   1      43.846  26.390  32.521  1.00  0.00     0.031 A 
ATOM     80  C   UNL A   1      45.605  24.907  33.240  1.00  0.00     0.131 A 
ATOM     81  C   UNL A   1      43.504  26.603  33.873  1.00  0.00     0.055 A 
ATOM     82  C   UNL A   1      45.253  25.104  34.574  1.00  0.00     0.041 A 
ATOM     83  F   UNL A   1      46.612  24.055  32.987  1.00  0.00    -0.206 F 
ATOM     84  C   UNL A   1      44.202  25.955  34.897  1.00  0.00     0.022 A 
BRANCH  81  85
ATOM     85  S   UNL A   1      42.139  27.726  34.321  1.00  0.00     0.124 S 
ATOM     86  O   UNL A   1      42.765  28.676  35.234  1.00  0.00    -0.237 OA
ATOM     87  O   UNL A   1      41.724  28.263  33.028  1.00  0.00    -0.237 OA
ATOM     88  O   UNL A   1      41.158  26.838  34.949  1.00  0.00    -0.744 OA
ENDBRANCH  81  85
ENDBRANCH  55  78
ENDBRANCH  29  30
ENDBRANCH  21  24
ENDBRANCH  19  20
ENDBRANCH  18  19
ENDBRANCH   1  18
TORSDOF 17
ENDMDL
MODEL 3
REMARK VINA RESULT:     -10.7      5.738     11.651
REMARK SMILES O=C(CCn1cc(Cl)c([N+](=O)[O-])n1)NCCCCNC(=O)c1ccc(-c2c3nc(c(-c4cc(S(=O)(=O)[O-])ccc4F)c4ccc([nH]4)c(-c4cc(S(=O)(=O)[O-])ccc4F)c4nc(c(-c5cc(S(=O)(=O)[O-])ccc5F)c5ccc2[nH]5)C=C4)C=C3)cc1
REMARK SMILES IDX 16 1 15 2 14 3 1 4 2 5 3 7 4 8 5 9 6 10 13 11 7 12 9 13 8 14
REMARK SMILES IDX 10 15 11 16 12 17 17 18 18 19 19 20 20 21 21 23 22 24 23 25
REMARK SMILES IDX 84 26 24 27 83 28 25 29 26 30 27 31 77 32 28 33 82 34 76 35
REMARK SMILES IDX 78 36 29 37 81 38 75 39 74 40 30 42 62 43 42 44 61 45 43 46
REMARK SMILES IDX 46 47 60 48 79 49 44 50 45 51 59 53 80 54 47 55 31 56 32 57
REMARK SMILES IDX 40 58 33 59 39 60 41 61 38 62 34 63 35 64 36 65 37 66 63 67
REMARK SMILES IDX 64 68 72 69 65 70 71 71 73 72 70 73 66 74 67 75 68 76 69 77
REMARK SMILES IDX 48 78 49 79 57 80 50 81 56 82 58 83 55 84 51 85 52 86 53 87
REMARK SMILES IDX 54 88
REMARK H PARENT 14 6 19 22 78 41 46 52
REMARK Flexibility Score: inf
ROOT
ATOM      1  C   UNL A   1      36.948  21.126  24.541  1.00  0.00     0.023 C 
ENDROOT
BRANCH   1   2
ATOM      2  C   UNL A   1      36.074  21.583  25.717  1.00  0.00     0.116 C 
BRANCH   2   3
ATOM      3  N   UNL A   1      34.736  21.005  25.738  1.00  0.00    -0.356 N 
ATOM      4  O   UNL A   1      33.764  22.717  24.550  1.00  0.00    -0.275 OA
ATOM      5  C   UNL A   1      33.691  21.603  25.058  1.00  0.00     0.221 C 
ATOM      6  H   UNL A   1      34.574  20.176  26.244  1.00  0.00     0.163 HD
BRANCH   5   7
ATOM      7  C   UNL A   1      32.441  20.757  24.909  1.00  0.00     0.125 C 
BRANCH   7   8
ATOM      8  C   UNL A   1      32.700  19.576  23.970  1.00  0.00     0.179 C 
BRANCH   8   9
ATOM      9  N   UNL A   1      33.099  18.377  24.695  1.00  0.00    -0.178 N 
ATOM     10  C   UNL A   1      32.259  17.423  25.191  1.00  0.00     0.161 A 
ATOM     11  N   UNL A   1      34.396  18.011  24.732  1.00  0.00     0.061 NA
ATOM     12  C   UNL A   1      33.024  16.291  25.331  1.00  0.00     0.160 A 
ATOM     13  C   UNL A   1      34.352  16.742  25.195  1.00  0.00     0.408 A 
ATOM     14  Cl  UNL A   1      32.421  14.728  25.540  1.00  0.00    -0.073 Cl
BRANCH  13  15
ATOM     15  N   UNL A   1      35.596  16.021  25.385  1.00  0.00    -0.020 N 
ATOM     16  O   UNL A   1      36.537  16.653  25.887  1.00  0.00    -0.358 OA
ATOM     17  O   UNL A   1      35.636  14.823  25.065  1.00  0.00    -0.358 OA
ENDBRANCH  13  15
ENDBRANCH   8   9
ENDBRANCH   7   8
ENDBRANCH   5   7
ENDBRANCH   2   3
ENDBRANCH   1   2
BRANCH   1  18
ATOM     18  C   UNL A   1      37.912  19.955  24.793  1.00  0.00     0.023 C 
BRANCH  18  19
ATOM     19  C   UNL A   1      39.010  20.227  25.813  1.00  0.00     0.116 C 
BRANCH  19  20
ATOM     20  N   UNL A   1      40.089  19.239  25.838  1.00  0.00    -0.352 N 
ATOM     21  C   UNL A   1      41.457  19.501  25.930  1.00  0.00     0.251 C 
ATOM     22  H   UNL A   1      39.823  18.293  25.786  1.00  0.00     0.163 HD
ATOM     23  O   UNL A   1      42.273  18.681  25.547  1.00  0.00    -0.269 OA
BRANCH  21  24
ATOM     24  C   UNL A   1      41.883  20.804  26.498  1.00  0.00     0.039 A 
ATOM     25  C   UNL A   1      42.320  21.875  25.711  1.00  0.00     0.014 A 
ATOM     26  C   UNL A   1      41.784  20.948  27.874  1.00  0.00     0.014 A 
ATOM     27  C   UNL A   1      42.550  23.116  26.321  1.00  0.00     0.010 A 
ATOM     28  C   UNL A   1      41.821  22.199  28.430  1.00  0.00     0.010 A 
ATOM     29  C   UNL A   1      42.272  23.284  27.686  1.00  0.00    -0.014 A 
BRANCH  29  30
ATOM     30  C   UNL A   1      42.373  24.579  28.367  1.00  0.00     0.031 A 
ATOM     31  C   UNL A   1      41.197  25.486  28.253  1.00  0.00     0.074 A 
ATOM     32  C   UNL A   1      43.354  24.868  29.256  1.00  0.00     0.049 A 
ATOM     33  N   UNL A   1      41.105  26.594  27.597  1.00  0.00    -0.248 NA
ATOM     34  C   UNL A   1      39.932  25.072  28.864  1.00  0.00     0.031 C 
ATOM     35  C   UNL A   1      44.465  24.018  29.713  1.00  0.00     0.029 A 
ATOM     36  N   UNL A   1      43.499  25.976  30.033  1.00  0.00    -0.354 N 
ATOM     37  C   UNL A   1      39.854  27.131  27.902  1.00  0.00     0.074 A 
ATOM     38  C   UNL A   1      39.113  26.064  28.515  1.00  0.00     0.031 C 
ATOM     39  C   UNL A   1      45.016  24.539  30.831  1.00  0.00     0.029 A 
ATOM     40  C   UNL A   1      44.446  25.854  31.045  1.00  0.00     0.049 A 
ATOM     41  H   UNL A   1      42.976  26.798  29.890  1.00  0.00     0.167 HD
ATOM     42  C   UNL A   1      39.617  28.472  27.827  1.00  0.00     0.034 A 
ATOM     43  C   UNL A   1      44.790  26.780  31.976  1.00  0.00     0.034 A 
ATOM     44  C   UNL A   1      40.676  29.139  27.102  1.00  0.00     0.049 A 
ATOM     45  C   UNL A   1      44.443  28.097  31.394  1.00  0.00     0.074 A 
ATOM     46  C   UNL A   1      41.211  29.012  25.834  1.00  0.00     0.029 A 
ATOM     47  N   UNL A   1      41.631  29.815  27.831  1.00  0.00    -0.354 N 
ATOM     48  N   UNL A   1      45.012  28.566  30.317  1.00  0.00    -0.248 NA
ATOM     49  C   UNL A   1      43.142  28.668  31.705  1.00  0.00     0.031 C 
ATOM     50  C   UNL A   1      42.622  29.114  26.027  1.00  0.00     0.029 A 
ATOM     51  C   UNL A   1      42.855  29.385  27.379  1.00  0.00     0.049 A 
ATOM     52  H   UNL A   1      41.467  30.478  28.539  1.00  0.00     0.167 HD
ATOM     53  C   UNL A   1      43.982  29.140  29.588  1.00  0.00     0.074 A 
ATOM     54  C   UNL A   1      42.880  29.272  30.541  1.00  0.00     0.031 C 
ATOM     55  C   UNL A   1      44.023  29.201  28.222  1.00  0.00     0.034 A 
BRANCH  42  56
ATOM     56  C   UNL A   1      38.632  29.250  28.677  1.00  0.00     0.023 A 
ATOM     57  C   UNL A   1      38.883  29.302  30.063  1.00  0.00     0.031 A 
ATOM     58  C   UNL A   1      37.351  29.689  28.274  1.00  0.00     0.131 A 
ATOM     59  C   UNL A   1      37.874  29.658  30.974  1.00  0.00     0.055 A 
ATOM     60  C   UNL A   1      36.373  30.115  29.180  1.00  0.00     0.041 A 
ATOM     61  F   UNL A   1      36.936  29.642  27.005  1.00  0.00    -0.206 F 
ATOM     62  C   UNL A   1      36.617  30.067  30.542  1.00  0.00     0.022 A 
BRANCH  59  63
ATOM     63  S   UNL A   1      38.177  29.382  32.740  1.00  0.00     0.124 S 
ATOM     64  O   UNL A   1      37.603  30.588  33.329  1.00  0.00    -0.237 OA
ATOM     65  O   UNL A   1      37.451  28.139  32.978  1.00  0.00    -0.237 OA
ATOM     66  O   UNL A   1      39.632  29.280  32.822  1.00  0.00    -0.744 OA
ENDBRANCH  59  63
ENDBRANCH  42  56
BRANCH  43  67
ATOM     67  C   UNL A   1      45.109  26.542  33.407  1.00  0.00     0.023 A 
ATOM     68  C   UNL A   1      44.797  25.342  34.080  1.00  0.00     0.031 A 
ATOM     69  C   UNL A   1      45.966  27.444  34.079  1.00  0.00     0.131 A 
ATOM     70  C   UNL A   1      45.342  25.082  35.360  1.00  0.00     0.055 A 
ATOM     71  C   UNL A   1      46.504  27.180  35.341  1.00  0.00     0.041 A 
ATOM     72  F   UNL A   1      46.377  28.580  33.491  1.00  0.00    -0.206 F 
ATOM     73  C   UNL A   1      46.200  25.991  35.984  1.00  0.00     0.022 A 
BRANCH  70  74
ATOM     74  S   UNL A   1      45.003  23.502  36.205  1.00  0.00     0.124 S 
ATOM     75  O   UNL A   1      43.800  23.038  35.524  1.00  0.00    -0.237 OA
ATOM     76  O   UNL A   1      46.225  22.745  35.954  1.00  0.00    -0.237 OA
ATOM     77  O   UNL A   1      44.804  23.896  37.600  1.00  0.00    -0.744 OA
ENDBRANCH  70  74
ENDBRANCH  43  67
BRANCH  55  78
ATOM     78  C   UNL A   1      45.319  28.838  27.521  1.00  0.00     0.023 A 
ATOM     79  C   UNL A   1      45.656  27.539  27.073  1.00  0.00     0.031 A 
ATOM     80  C   UNL A   1      46.182  29.890  27.168  1.00  0.00     0.131 A 
ATOM     81  C   UNL A   1      46.822  27.333  26.305  1.00  0.00     0.055 A 
ATOM     82  C   UNL A   1      47.324  29.686  26.393  1.00  0.00     0.041 A 
ATOM     83  F   UNL A   1      45.904  31.151  27.536  1.00  0.00    -0.206 F 
ATOM     84  C   UNL A   1      47.650  28.406  25.960  1.00  0.00     0.022 A 
BRANCH  81  85
ATOM     85  S   UNL A   1      47.278  25.660  25.738  1.00  0.00     0.124 S 
ATOM     86  O   UNL A   1      48.724  25.744  25.561  1.00  0.00    -0.237 OA
ATOM     87  O   UNL A   1      46.819  24.811  26.834  1.00  0.00    -0.237 OA
ATOM     88  O   UNL A   1      46.522  25.503  24.494  1.00  0.00    -0.744 OA
ENDBRANCH  81  85
ENDBRANCH  55  78
ENDBRANCH  29  30
ENDBRANCH  21  24
ENDBRANCH  19  20
ENDBRANCH  18  19
ENDBRANCH   1  18
TORSDOF 17
ENDMDL
