MODEL 1
REMARK VINA RESULT:     -11.7      0.000      0.000
REMARK SMILES CN(CC(C)(C)O)S(=O)(=O)c1cc(Cl)cc(C(=O)NCCCCNC(=O)c2ccc(-c3c4nc(c(-c5cc(S(=O)(=O)[O-])ccc5F)c5ccc([nH]5)c(-c5cc(S(=O)(=O)[O-])ccc5F)c5nc(c(-c6cc(S(=O)(=O)[O-])ccc6F)c6ccc3[nH]6)C=C5)C=C4)cc2)c1Cl
REMARK SMILES IDX 20 1 19 2 17 3 18 4 16 6 11 7 12 8 90 9 13 10 91 11 14 12
REMARK SMILES IDX 15 13 8 14 9 15 10 16 2 17 1 18 3 19 4 20 5 21 6 22 7 23
REMARK SMILES IDX 21 25 22 26 23 27 24 28 25 29 26 31 27 32 28 33 89 34 29 35
REMARK SMILES IDX 88 36 30 37 31 38 32 39 82 40 33 41 87 42 81 43 83 44 34 45
REMARK SMILES IDX 86 46 80 47 79 48 35 50 67 51 47 52 66 53 48 54 51 55 65 56
REMARK SMILES IDX 84 57 49 58 50 59 64 61 85 62 52 63 36 64 37 65 45 66 38 67
REMARK SMILES IDX 44 68 46 69 43 70 39 71 40 72 41 73 42 74 68 75 69 76 77 77
REMARK SMILES IDX 70 78 76 79 78 80 75 81 71 82 72 83 73 84 74 85 53 86 54 87
REMARK SMILES IDX 62 88 55 89 61 90 63 91 60 92 56 93 57 94 58 95 59 96
REMARK H PARENT 19 5 7 24 24 30 83 49 51 60
REMARK Flexibility Score: inf
ROOT
ATOM      1  C   UNL A   1      34.215  21.684  27.263  1.00  0.00     0.116 C 
ENDROOT
BRANCH   1   2
ATOM      2  N   UNL A   1      33.391  20.741  26.523  1.00  0.00    -0.352 N 
ATOM      3  C   UNL A   1      32.438  20.984  25.556  1.00  0.00     0.252 C 
ATOM      4  O   UNL A   1      31.886  20.041  24.993  1.00  0.00    -0.269 OA
ATOM      5  H   UNL A   1      33.535  19.793  26.745  1.00  0.00     0.163 HD
BRANCH   3   6
ATOM      6  C   UNL A   1      31.947  22.358  25.285  1.00  0.00     0.061 A 
ATOM      7  C   UNL A   1      32.212  24.615  24.504  1.00  0.00     0.103 A 
ATOM      8  C   UNL A   1      31.094  25.012  25.253  1.00  0.00     0.044 A 
ATOM      9  C   UNL A   1      32.560  23.264  24.405  1.00  0.00     0.073 A 
ATOM     10  C   UNL A   1      30.376  24.068  25.974  1.00  0.00     0.043 A 
ATOM     11  Cl  UNL A   1      33.576  22.680  23.133  1.00  0.00    -0.082 Cl
ATOM     12  Cl  UNL A   1      28.986  24.550  26.861  1.00  0.00    -0.084 Cl
ATOM     13  C   UNL A   1      30.822  22.754  26.031  1.00  0.00     0.036 A 
BRANCH   7  14
ATOM     14  S   UNL A   1      33.272  25.895  23.871  1.00  0.00     0.244 S 
ATOM     15  O   UNL A   1      33.192  25.833  22.422  1.00  0.00    -0.207 OA
ATOM     16  O   UNL A   1      34.557  25.793  24.507  1.00  0.00    -0.207 OA
BRANCH  14  17
ATOM     17  N   UNL A   1      32.503  27.327  24.376  1.00  0.00    -0.198 NA
ATOM     18  C   UNL A   1      32.980  27.859  25.671  1.00  0.00     0.124 C 
BRANCH  17  19
ATOM     19  C   UNL A   1      32.046  28.383  23.417  1.00  0.00     0.136 C 
BRANCH  19  20
ATOM     20  C   UNL A   1      30.710  28.181  22.644  1.00  0.00     0.073 C 
ATOM     21  C   UNL A   1      29.581  27.606  23.499  1.00  0.00     0.043 C 
ATOM     22  C   UNL A   1      30.253  29.549  22.103  1.00  0.00     0.043 C 
BRANCH  20  23
ATOM     23  O   UNL A   1      30.904  27.346  21.499  1.00  0.00    -0.389 OA
ATOM     24  H   UNL A   1      30.722  27.855  20.694  1.00  0.00     0.211 HD
ENDBRANCH  20  23
ENDBRANCH  19  20
ENDBRANCH  17  19
ENDBRANCH  14  17
ENDBRANCH   7  14
ENDBRANCH   3   6
ENDBRANCH   1   2
BRANCH   1  25
ATOM     25  C   UNL A   1      35.440  22.204  26.527  1.00  0.00     0.023 C 
BRANCH  25  26
ATOM     26  C   UNL A   1      36.025  21.276  25.467  1.00  0.00     0.023 C 
BRANCH  26  27
ATOM     27  C   UNL A   1      37.472  21.538  25.058  1.00  0.00     0.116 C 
BRANCH  27  28
ATOM     28  N   UNL A   1      38.399  20.488  25.459  1.00  0.00    -0.352 N 
ATOM     29  C   UNL A   1      39.574  20.586  26.175  1.00  0.00     0.251 C 
ATOM     30  H   UNL A   1      38.152  19.578  25.177  1.00  0.00     0.163 HD
ATOM     31  O   UNL A   1      40.279  19.595  26.331  1.00  0.00    -0.269 OA
BRANCH  29  32
ATOM     32  C   UNL A   1      39.998  21.900  26.708  1.00  0.00     0.039 A 
ATOM     33  C   UNL A   1      40.973  21.946  27.706  1.00  0.00     0.014 A 
ATOM     34  C   UNL A   1      39.478  23.083  26.179  1.00  0.00     0.014 A 
ATOM     35  C   UNL A   1      41.505  23.180  28.096  1.00  0.00     0.010 A 
ATOM     36  C   UNL A   1      40.072  24.300  26.502  1.00  0.00     0.010 A 
ATOM     37  C   UNL A   1      41.100  24.363  27.456  1.00  0.00    -0.014 A 
BRANCH  37  38
ATOM     38  C   UNL A   1      41.739  25.674  27.756  1.00  0.00     0.031 A 
ATOM     39  C   UNL A   1      40.970  26.728  28.506  1.00  0.00     0.074 A 
ATOM     40  C   UNL A   1      42.972  25.947  27.282  1.00  0.00     0.049 A 
ATOM     41  N   UNL A   1      41.297  27.970  28.757  1.00  0.00    -0.248 NA
ATOM     42  C   UNL A   1      39.644  26.340  29.009  1.00  0.00     0.031 C 
ATOM     43  C   UNL A   1      43.808  25.023  26.510  1.00  0.00     0.029 A 
ATOM     44  N   UNL A   1      43.736  27.086  27.366  1.00  0.00    -0.354 N 
ATOM     45  C   UNL A   1      40.209  28.517  29.431  1.00  0.00     0.074 A 
ATOM     46  C   UNL A   1      39.192  27.489  29.488  1.00  0.00     0.031 C 
ATOM     47  C   UNL A   1      44.972  25.622  26.215  1.00  0.00     0.029 A 
ATOM     48  C   UNL A   1      44.951  26.990  26.723  1.00  0.00     0.049 A 
ATOM     49  H   UNL A   1      43.443  27.896  27.843  1.00  0.00     0.167 HD
ATOM     50  C   UNL A   1      40.080  29.754  29.974  1.00  0.00     0.034 A 
ATOM     51  C   UNL A   1      45.927  27.903  26.545  1.00  0.00     0.034 A 
ATOM     52  C   UNL A   1      41.109  30.764  29.919  1.00  0.00     0.049 A 
ATOM     53  C   UNL A   1      45.746  29.286  27.125  1.00  0.00     0.074 A 
ATOM     54  C   UNL A   1      41.103  32.031  30.476  1.00  0.00     0.029 A 
ATOM     55  N   UNL A   1      42.325  30.628  29.261  1.00  0.00    -0.354 N 
ATOM     56  N   UNL A   1      44.729  29.774  27.796  1.00  0.00    -0.248 NA
ATOM     57  C   UNL A   1      46.850  30.236  26.932  1.00  0.00     0.031 C 
ATOM     58  C   UNL A   1      42.278  32.685  30.094  1.00  0.00     0.029 A 
ATOM     59  C   UNL A   1      43.061  31.799  29.373  1.00  0.00     0.049 A 
ATOM     60  H   UNL A   1      42.621  29.819  28.785  1.00  0.00     0.167 HD
ATOM     61  C   UNL A   1      45.089  31.075  28.139  1.00  0.00     0.074 A 
ATOM     62  C   UNL A   1      46.419  31.291  27.609  1.00  0.00     0.031 C 
ATOM     63  C   UNL A   1      44.387  32.004  28.838  1.00  0.00     0.034 A 
BRANCH  50  64
ATOM     64  C   UNL A   1      38.769  30.084  30.649  1.00  0.00     0.023 A 
ATOM     65  C   UNL A   1      37.780  30.851  30.007  1.00  0.00     0.031 A 
ATOM     66  C   UNL A   1      38.514  29.651  31.961  1.00  0.00     0.131 A 
ATOM     67  C   UNL A   1      36.623  31.228  30.704  1.00  0.00     0.055 A 
ATOM     68  C   UNL A   1      37.319  29.955  32.619  1.00  0.00     0.041 A 
ATOM     69  F   UNL A   1      39.427  28.935  32.636  1.00  0.00    -0.206 F 
ATOM     70  C   UNL A   1      36.372  30.763  31.996  1.00  0.00     0.022 A 
BRANCH  67  71
ATOM     71  S   UNL A   1      35.526  32.464  29.955  1.00  0.00     0.124 S 
ATOM     72  O   UNL A   1      36.365  33.660  29.989  1.00  0.00    -0.237 OA
ATOM     73  O   UNL A   1      35.273  31.900  28.633  1.00  0.00    -0.237 OA
ATOM     74  O   UNL A   1      34.375  32.491  30.854  1.00  0.00    -0.744 OA
ENDBRANCH  67  71
ENDBRANCH  50  64
BRANCH  51  75
ATOM     75  C   UNL A   1      47.158  27.559  25.773  1.00  0.00     0.023 A 
ATOM     76  C   UNL A   1      47.258  27.853  24.404  1.00  0.00     0.031 A 
ATOM     77  C   UNL A   1      48.233  26.886  26.382  1.00  0.00     0.131 A 
ATOM     78  C   UNL A   1      48.383  27.430  23.677  1.00  0.00     0.055 A 
ATOM     79  C   UNL A   1      49.375  26.521  25.668  1.00  0.00     0.041 A 
ATOM     80  F   UNL A   1      48.191  26.583  27.689  1.00  0.00    -0.206 F 
ATOM     81  C   UNL A   1      49.448  26.780  24.303  1.00  0.00     0.022 A 
BRANCH  78  82
ATOM     82  S   UNL A   1      48.391  27.657  21.877  1.00  0.00     0.124 S 
ATOM     83  O   UNL A   1      49.506  28.580  21.700  1.00  0.00    -0.237 OA
ATOM     84  O   UNL A   1      48.604  26.293  21.402  1.00  0.00    -0.237 OA
ATOM     85  O   UNL A   1      47.068  28.212  21.599  1.00  0.00    -0.744 OA
ENDBRANCH  78  82
ENDBRANCH  51  75
BRANCH  63  86
ATOM     86  C   UNL A   1      45.072  33.319  29.124  1.00  0.00     0.023 A 
ATOM     87  C   UNL A   1      44.961  34.423  28.262  1.00  0.00     0.031 A 
ATOM     88  C   UNL A   1      45.853  33.464  30.286  1.00  0.00     0.131 A 
ATOM     89  C   UNL A   1      45.659  35.606  28.548  1.00  0.00     0.055 A 
ATOM     90  C   UNL A   1      46.492  34.663  30.599  1.00  0.00     0.041 A 
ATOM     91  F   UNL A   1      45.999  32.440  31.143  1.00  0.00    -0.206 F 
ATOM     92  C   UNL A   1      46.408  35.740  29.721  1.00  0.00     0.022 A 
BRANCH  89  93
ATOM     93  S   UNL A   1      45.654  36.942  27.321  1.00  0.00     0.124 S 
ATOM     94  O   UNL A   1      46.279  38.034  28.061  1.00  0.00    -0.237 OA
ATOM     95  O   UNL A   1      46.446  36.373  26.235  1.00  0.00    -0.237 OA
ATOM     96  O   UNL A   1      44.236  37.128  27.021  1.00  0.00    -0.744 OA
ENDBRANCH  89  93
ENDBRANCH  63  86
ENDBRANCH  37  38
ENDBRANCH  29  32
ENDBRANCH  27  28
ENDBRANCH  26  27
ENDBRANCH  25  26
ENDBRANCH   1  25
TORSDOF 19
ENDMDL
MODEL 2
REMARK VINA RESULT:     -11.7      1.721      2.251
REMARK SMILES CN(CC(C)(C)O)S(=O)(=O)c1cc(Cl)cc(C(=O)NCCCCNC(=O)c2ccc(-c3c4nc(c(-c5cc(S(=O)(=O)[O-])ccc5F)c5ccc([nH]5)c(-c5cc(S(=O)(=O)[O-])ccc5F)c5nc(c(-c6cc(S(=O)(=O)[O-])ccc6F)c6ccc3[nH]6)C=C5)C=C4)cc2)c1Cl
REMARK SMILES IDX 20 1 19 2 17 3 18 4 16 6 11 7 12 8 90 9 13 10 91 11 14 12
REMARK SMILES IDX 15 13 8 14 9 15 10 16 2 17 1 18 3 19 4 20 5 21 6 22 7 23
REMARK SMILES IDX 21 25 22 26 23 27 24 28 25 29 26 31 27 32 28 33 89 34 29 35
REMARK SMILES IDX 88 36 30 37 31 38 32 39 82 40 33 41 87 42 81 43 83 44 34 45
REMARK SMILES IDX 86 46 80 47 79 48 35 50 67 51 47 52 66 53 48 54 51 55 65 56
REMARK SMILES IDX 84 57 49 58 50 59 64 61 85 62 52 63 36 64 37 65 45 66 38 67
REMARK SMILES IDX 44 68 46 69 43 70 39 71 40 72 41 73 42 74 68 75 69 76 77 77
REMARK SMILES IDX 70 78 76 79 78 80 75 81 71 82 72 83 73 84 74 85 53 86 54 87
REMARK SMILES IDX 62 88 55 89 61 90 63 91 60 92 56 93 57 94 58 95 59 96
REMARK H PARENT 19 5 7 24 24 30 83 49 51 60
REMARK Flexibility Score: inf
ROOT
ATOM      1  C   UNL A   1      34.061  21.936  24.354  1.00  0.00     0.116 C 
ENDROOT
BRANCH   1   2
ATOM      2  N   UNL A   1      32.720  22.268  24.805  1.00  0.00    -0.352 N 
ATOM      3  C   UNL A   1      31.922  23.340  24.463  1.00  0.00     0.252 C 
ATOM      4  O   UNL A   1      30.778  23.415  24.905  1.00  0.00    -0.269 OA
ATOM      5  H   UNL A   1      32.324  21.636  25.448  1.00  0.00     0.163 HD
BRANCH   3   6
ATOM      6  C   UNL A   1      32.463  24.489  23.695  1.00  0.00     0.061 A 
ATOM      7  C   UNL A   1      33.163  26.777  23.467  1.00  0.00     0.103 A 
ATOM      8  C   UNL A   1      33.027  26.685  22.073  1.00  0.00     0.044 A 
ATOM      9  C   UNL A   1      33.017  25.642  24.273  1.00  0.00     0.073 A 
ATOM     10  C   UNL A   1      32.661  25.479  21.493  1.00  0.00     0.043 A 
ATOM     11  Cl  UNL A   1      33.652  25.585  25.880  1.00  0.00    -0.082 Cl
ATOM     12  Cl  UNL A   1      32.531  25.360  19.785  1.00  0.00    -0.084 Cl
ATOM     13  C   UNL A   1      32.333  24.395  22.298  1.00  0.00     0.036 A 
BRANCH   7  14
ATOM     14  S   UNL A   1      33.315  28.402  24.171  1.00  0.00     0.244 S 
ATOM     15  O   UNL A   1      33.475  29.330  23.065  1.00  0.00    -0.207 OA
ATOM     16  O   UNL A   1      34.310  28.370  25.209  1.00  0.00    -0.207 OA
BRANCH  14  17
ATOM     17  N   UNL A   1      31.785  28.675  24.863  1.00  0.00    -0.198 NA
ATOM     18  C   UNL A   1      31.774  28.708  26.343  1.00  0.00     0.124 C 
BRANCH  17  19
ATOM     19  C   UNL A   1      30.754  29.558  24.229  1.00  0.00     0.136 C 
BRANCH  19  20
ATOM     20  C   UNL A   1      29.940  29.025  23.014  1.00  0.00     0.073 C 
ATOM     21  C   UNL A   1      29.555  27.550  23.127  1.00  0.00     0.043 C 
ATOM     22  C   UNL A   1      28.645  29.851  22.900  1.00  0.00     0.043 C 
BRANCH  20  23
ATOM     23  O   UNL A   1      30.653  29.234  21.792  1.00  0.00    -0.389 OA
ATOM     24  H   UNL A   1      30.041  29.153  21.043  1.00  0.00     0.211 HD
ENDBRANCH  20  23
ENDBRANCH  19  20
ENDBRANCH  17  19
ENDBRANCH  14  17
ENDBRANCH   7  14
ENDBRANCH   3   6
ENDBRANCH   1   2
BRANCH   1  25
ATOM     25  C   UNL A   1      35.194  22.435  25.238  1.00  0.00     0.023 C 
BRANCH  25  26
ATOM     26  C   UNL A   1      36.208  21.384  25.678  1.00  0.00     0.023 C 
BRANCH  26  27
ATOM     27  C   UNL A   1      37.550  21.387  24.949  1.00  0.00     0.116 C 
BRANCH  27  28
ATOM     28  N   UNL A   1      38.464  20.341  25.388  1.00  0.00    -0.352 N 
ATOM     29  C   UNL A   1      39.623  20.448  26.127  1.00  0.00     0.251 C 
ATOM     30  H   UNL A   1      38.218  19.427  25.118  1.00  0.00     0.163 HD
ATOM     31  O   UNL A   1      40.321  19.456  26.315  1.00  0.00    -0.269 OA
BRANCH  29  32
ATOM     32  C   UNL A   1      40.042  21.769  26.644  1.00  0.00     0.039 A 
ATOM     33  C   UNL A   1      41.040  21.833  27.619  1.00  0.00     0.014 A 
ATOM     34  C   UNL A   1      39.494  22.943  26.123  1.00  0.00     0.014 A 
ATOM     35  C   UNL A   1      41.564  23.075  27.991  1.00  0.00     0.010 A 
ATOM     36  C   UNL A   1      40.079  24.169  26.428  1.00  0.00     0.010 A 
ATOM     37  C   UNL A   1      41.128  24.250  27.356  1.00  0.00    -0.014 A 
BRANCH  37  38
ATOM     38  C   UNL A   1      41.756  25.571  27.636  1.00  0.00     0.031 A 
ATOM     39  C   UNL A   1      40.989  26.621  28.393  1.00  0.00     0.074 A 
ATOM     40  C   UNL A   1      42.978  25.856  27.137  1.00  0.00     0.049 A 
ATOM     41  N   UNL A   1      41.304  27.868  28.630  1.00  0.00    -0.248 NA
ATOM     42  C   UNL A   1      39.677  26.220  28.923  1.00  0.00     0.031 C 
ATOM     43  C   UNL A   1      43.810  24.937  26.356  1.00  0.00     0.029 A 
ATOM     44  N   UNL A   1      43.729  27.004  27.200  1.00  0.00    -0.354 N 
ATOM     45  C   UNL A   1      40.222  28.407  29.320  1.00  0.00     0.074 A 
ATOM     46  C   UNL A   1      39.220  27.366  29.403  1.00  0.00     0.031 C 
ATOM     47  C   UNL A   1      44.961  25.547  26.036  1.00  0.00     0.029 A 
ATOM     48  C   UNL A   1      44.932  26.919  26.536  1.00  0.00     0.049 A 
ATOM     49  H   UNL A   1      43.434  27.814  27.677  1.00  0.00     0.167 HD
ATOM     50  C   UNL A   1      40.089  29.645  29.857  1.00  0.00     0.034 A 
ATOM     51  C   UNL A   1      45.894  27.843  26.333  1.00  0.00     0.034 A 
ATOM     52  C   UNL A   1      41.104  30.667  29.777  1.00  0.00     0.049 A 
ATOM     53  C   UNL A   1      45.707  29.226  26.908  1.00  0.00     0.074 A 
ATOM     54  C   UNL A   1      41.092  31.938  30.326  1.00  0.00     0.029 A 
ATOM     55  N   UNL A   1      42.309  30.542  29.097  1.00  0.00    -0.354 N 
ATOM     56  N   UNL A   1      44.696  29.707  27.594  1.00  0.00    -0.248 NA
ATOM     57  C   UNL A   1      46.795  30.189  26.688  1.00  0.00     0.031 C 
ATOM     58  C   UNL A   1      42.252  32.604  29.917  1.00  0.00     0.029 A 
ATOM     59  C   UNL A   1      43.032  31.722  29.188  1.00  0.00     0.049 A 
ATOM     60  H   UNL A   1      42.606  29.733  28.621  1.00  0.00     0.167 HD
ATOM     61  C   UNL A   1      45.046  31.014  27.922  1.00  0.00     0.074 A 
ATOM     62  C   UNL A   1      46.363  31.243  27.366  1.00  0.00     0.031 C 
ATOM     63  C   UNL A   1      44.346  31.939  28.627  1.00  0.00     0.034 A 
BRANCH  50  64
ATOM     64  C   UNL A   1      38.786  29.964  30.553  1.00  0.00     0.023 A 
ATOM     65  C   UNL A   1      37.754  30.667  29.906  1.00  0.00     0.031 A 
ATOM     66  C   UNL A   1      38.582  29.586  31.892  1.00  0.00     0.131 A 
ATOM     67  C   UNL A   1      36.605  31.039  30.618  1.00  0.00     0.055 A 
ATOM     68  C   UNL A   1      37.396  29.881  32.569  1.00  0.00     0.041 A 
ATOM     69  F   UNL A   1      39.537  28.932  32.572  1.00  0.00    -0.206 F 
ATOM     70  C   UNL A   1      36.405  30.627  31.937  1.00  0.00     0.022 A 
BRANCH  67  71
ATOM     71  S   UNL A   1      35.447  32.201  29.844  1.00  0.00     0.124 S 
ATOM     72  O   UNL A   1      34.433  32.344  30.888  1.00  0.00    -0.237 OA
ATOM     73  O   UNL A   1      36.286  33.370  29.606  1.00  0.00    -0.237 OA
ATOM     74  O   UNL A   1      35.001  31.495  28.645  1.00  0.00    -0.744 OA
ENDBRANCH  67  71
ENDBRANCH  50  64
BRANCH  51  75
ATOM     75  C   UNL A   1      47.115  27.508  25.542  1.00  0.00     0.023 A 
ATOM     76  C   UNL A   1      47.214  27.855  24.185  1.00  0.00     0.031 A 
ATOM     77  C   UNL A   1      48.180  26.793  26.117  1.00  0.00     0.131 A 
ATOM     78  C   UNL A   1      48.327  27.442  23.435  1.00  0.00     0.055 A 
ATOM     79  C   UNL A   1      49.313  26.437  25.382  1.00  0.00     0.041 A 
ATOM     80  F   UNL A   1      48.141  26.438  27.411  1.00  0.00    -0.206 F 
ATOM     81  C   UNL A   1      49.384  26.748  24.028  1.00  0.00     0.022 A 
BRANCH  78  82
ATOM     82  S   UNL A   1      48.330  27.740  21.646  1.00  0.00     0.124 S 
ATOM     83  O   UNL A   1      46.966  28.206  21.421  1.00  0.00    -0.237 OA
ATOM     84  O   UNL A   1      49.382  28.742  21.508  1.00  0.00    -0.237 OA
ATOM     85  O   UNL A   1      48.644  26.428  21.083  1.00  0.00    -0.744 OA
ENDBRANCH  78  82
ENDBRANCH  51  75
BRANCH  63  86
ATOM     86  C   UNL A   1      45.020  33.265  28.892  1.00  0.00     0.023 A 
ATOM     87  C   UNL A   1      45.842  33.474  30.013  1.00  0.00     0.031 A 
ATOM     88  C   UNL A   1      44.833  34.337  28.001  1.00  0.00     0.131 A 
ATOM     89  C   UNL A   1      46.404  34.740  30.241  1.00  0.00     0.055 A 
ATOM     90  C   UNL A   1      45.447  35.574  28.197  1.00  0.00     0.041 A 
ATOM     91  F   UNL A   1      44.054  34.196  26.916  1.00  0.00    -0.206 F 
ATOM     92  C   UNL A   1      46.228  35.785  29.330  1.00  0.00     0.022 A 
BRANCH  89  93
ATOM     93  S   UNL A   1      47.295  35.034  31.793  1.00  0.00     0.124 S 
ATOM     94  O   UNL A   1      46.234  34.886  32.784  1.00  0.00    -0.237 OA
ATOM     95  O   UNL A   1      48.304  33.980  31.779  1.00  0.00    -0.237 OA
ATOM     96  O   UNL A   1      47.815  36.391  31.639  1.00  0.00    -0.744 OA
ENDBRANCH  89  93
ENDBRANCH  63  86
ENDBRANCH  37  38
ENDBRANCH  29  32
ENDBRANCH  27  28
ENDBRANCH  26  27
ENDBRANCH  25  26
ENDBRANCH   1  25
TORSDOF 19
ENDMDL
MODEL 3
REMARK VINA RESULT:     -11.6      5.233     10.514
REMARK SMILES CN(CC(C)(C)O)S(=O)(=O)c1cc(Cl)cc(C(=O)NCCCCNC(=O)c2ccc(-c3c4nc(c(-c5cc(S(=O)(=O)[O-])ccc5F)c5ccc([nH]5)c(-c5cc(S(=O)(=O)[O-])ccc5F)c5nc(c(-c6cc(S(=O)(=O)[O-])ccc6F)c6ccc3[nH]6)C=C5)C=C4)cc2)c1Cl
REMARK SMILES IDX 20 1 19 2 17 3 18 4 16 6 11 7 12 8 90 9 13 10 91 11 14 12
REMARK SMILES IDX 15 13 8 14 9 15 10 16 2 17 1 18 3 19 4 20 5 21 6 22 7 23
REMARK SMILES IDX 21 25 22 26 23 27 24 28 25 29 26 31 27 32 28 33 89 34 29 35
REMARK SMILES IDX 88 36 30 37 31 38 32 39 82 40 33 41 87 42 81 43 83 44 34 45
REMARK SMILES IDX 86 46 80 47 79 48 35 50 67 51 47 52 66 53 48 54 51 55 65 56
REMARK SMILES IDX 84 57 49 58 50 59 64 61 85 62 52 63 36 64 37 65 45 66 38 67
REMARK SMILES IDX 44 68 46 69 43 70 39 71 40 72 41 73 42 74 68 75 69 76 77 77
REMARK SMILES IDX 70 78 76 79 78 80 75 81 71 82 72 83 73 84 74 85 53 86 54 87
REMARK SMILES IDX 62 88 55 89 61 90 63 91 60 92 56 93 57 94 58 95 59 96
REMARK H PARENT 19 5 7 24 24 30 83 49 51 60
REMARK Flexibility Score: inf
ROOT
ATOM      1  C   UNL A   1      32.898  25.814  25.276  1.00  0.00     0.116 C 
ENDROOT
BRANCH   1   2
ATOM      2  N   UNL A   1      33.186  25.881  23.853  1.00  0.00    -0.352 N 
ATOM      3  C   UNL A   1      33.659  24.899  23.008  1.00  0.00     0.252 C 
ATOM      4  O   UNL A   1      33.779  25.131  21.808  1.00  0.00    -0.269 OA
ATOM      5  H   UNL A   1      33.019  26.755  23.431  1.00  0.00     0.163 HD
BRANCH   3   6
ATOM      6  C   UNL A   1      34.176  23.611  23.537  1.00  0.00     0.061 A 
ATOM      7  C   UNL A   1      33.913  21.452  24.559  1.00  0.00     0.103 A 
ATOM      8  C   UNL A   1      35.268  21.454  24.924  1.00  0.00     0.044 A 
ATOM      9  C   UNL A   1      33.394  22.464  23.744  1.00  0.00     0.073 A 
ATOM     10  C   UNL A   1      36.083  22.511  24.546  1.00  0.00     0.043 A 
ATOM     11  Cl  UNL A   1      31.917  22.255  22.870  1.00  0.00    -0.082 Cl
ATOM     12  Cl  UNL A   1      37.750  22.493  24.963  1.00  0.00    -0.084 Cl
ATOM     13  C   UNL A   1      35.536  23.610  23.897  1.00  0.00     0.036 A 
BRANCH   7  14
ATOM     14  S   UNL A   1      32.856  20.251  25.334  1.00  0.00     0.244 S 
ATOM     15  O   UNL A   1      31.489  20.703  25.141  1.00  0.00    -0.207 OA
ATOM     16  O   UNL A   1      33.331  20.005  26.669  1.00  0.00    -0.207 OA
BRANCH  14  17
ATOM     17  N   UNL A   1      33.084  18.857  24.386  1.00  0.00    -0.198 NA
ATOM     18  C   UNL A   1      32.486  18.927  23.034  1.00  0.00     0.124 C 
BRANCH  17  19
ATOM     19  C   UNL A   1      34.325  18.021  24.458  1.00  0.00     0.136 C 
BRANCH  19  20
ATOM     20  C   UNL A   1      34.193  16.479  24.623  1.00  0.00     0.073 C 
ATOM     21  C   UNL A   1      35.358  15.836  25.375  1.00  0.00     0.043 C 
ATOM     22  C   UNL A   1      32.898  16.185  25.403  1.00  0.00     0.043 C 
BRANCH  20  23
ATOM     23  O   UNL A   1      34.044  15.841  23.351  1.00  0.00    -0.389 OA
ATOM     24  H   UNL A   1      34.911  15.772  22.921  1.00  0.00     0.211 HD
ENDBRANCH  20  23
ENDBRANCH  19  20
ENDBRANCH  17  19
ENDBRANCH  14  17
ENDBRANCH   7  14
ENDBRANCH   3   6
ENDBRANCH   1   2
BRANCH   1  25
ATOM     25  C   UNL A   1      33.338  27.020  26.093  1.00  0.00     0.023 C 
BRANCH  25  26
ATOM     26  C   UNL A   1      32.431  28.244  26.015  1.00  0.00     0.023 C 
BRANCH  26  27
ATOM     27  C   UNL A   1      33.064  29.525  25.477  1.00  0.00     0.116 C 
BRANCH  27  28
ATOM     28  N   UNL A   1      32.575  30.739  26.116  1.00  0.00    -0.352 N 
ATOM     29  C   UNL A   1      33.148  31.488  27.123  1.00  0.00     0.251 C 
ATOM     30  H   UNL A   1      31.712  31.074  25.781  1.00  0.00     0.163 HD
ATOM     31  O   UNL A   1      32.533  32.433  27.607  1.00  0.00    -0.269 OA
BRANCH  29  32
ATOM     32  C   UNL A   1      34.480  31.113  27.646  1.00  0.00     0.039 A 
ATOM     33  C   UNL A   1      35.447  32.105  27.818  1.00  0.00     0.014 A 
ATOM     34  C   UNL A   1      34.750  29.795  28.024  1.00  0.00     0.014 A 
ATOM     35  C   UNL A   1      36.646  31.796  28.469  1.00  0.00     0.010 A 
ATOM     36  C   UNL A   1      35.903  29.512  28.751  1.00  0.00     0.010 A 
ATOM     37  C   UNL A   1      36.860  30.510  28.992  1.00  0.00    -0.014 A 
BRANCH  37  38
ATOM     38  C   UNL A   1      38.067  30.184  29.802  1.00  0.00     0.031 A 
ATOM     39  C   UNL A   1      39.083  29.208  29.274  1.00  0.00     0.074 A 
ATOM     40  C   UNL A   1      38.205  30.698  31.042  1.00  0.00     0.049 A 
ATOM     41  N   UNL A   1      40.130  28.698  29.870  1.00  0.00    -0.248 NA
ATOM     42  C   UNL A   1      38.870  28.714  27.905  1.00  0.00     0.031 C 
ATOM     43  C   UNL A   1      37.272  31.629  31.683  1.00  0.00     0.029 A 
ATOM     44  N   UNL A   1      39.177  30.502  31.993  1.00  0.00    -0.354 N 
ATOM     45  C   UNL A   1      40.690  27.810  28.956  1.00  0.00     0.074 A 
ATOM     46  C   UNL A   1      39.827  27.806  27.795  1.00  0.00     0.031 C 
ATOM     47  C   UNL A   1      37.729  31.939  32.906  1.00  0.00     0.029 A 
ATOM     48  C   UNL A   1      38.955  31.191  33.165  1.00  0.00     0.049 A 
ATOM     49  H   UNL A   1      39.961  29.923  31.850  1.00  0.00     0.167 HD
ATOM     50  C   UNL A   1      41.831  27.086  29.066  1.00  0.00     0.034 A 
ATOM     51  C   UNL A   1      39.647  31.204  34.323  1.00  0.00     0.034 A 
ATOM     52  C   UNL A   1      42.688  27.111  30.226  1.00  0.00     0.049 A 
ATOM     53  C   UNL A   1      40.894  30.361  34.436  1.00  0.00     0.074 A 
ATOM     54  C   UNL A   1      43.891  26.456  30.424  1.00  0.00     0.029 A 
ATOM     55  N   UNL A   1      42.431  27.822  31.392  1.00  0.00    -0.354 N 
ATOM     56  N   UNL A   1      41.434  29.559  33.546  1.00  0.00    -0.248 NA
ATOM     57  C   UNL A   1      41.631  30.432  35.705  1.00  0.00     0.031 C 
ATOM     58  C   UNL A   1      44.321  26.709  31.730  1.00  0.00     0.029 A 
ATOM     59  C   UNL A   1      43.436  27.595  32.321  1.00  0.00     0.049 A 
ATOM     60  H   UNL A   1      41.648  28.403  31.537  1.00  0.00     0.167 HD
ATOM     61  C   UNL A   1      42.594  29.063  34.136  1.00  0.00     0.074 A 
ATOM     62  C   UNL A   1      42.679  29.662  35.451  1.00  0.00     0.031 C 
ATOM     63  C   UNL A   1      43.510  28.197  33.632  1.00  0.00     0.034 A 
BRANCH  50  64
ATOM     64  C   UNL A   1      42.199  26.188  27.908  1.00  0.00     0.023 A 
ATOM     65  C   UNL A   1      41.683  24.885  27.789  1.00  0.00     0.031 A 
ATOM     66  C   UNL A   1      43.100  26.628  26.922  1.00  0.00     0.131 A 
ATOM     67  C   UNL A   1      42.130  24.044  26.761  1.00  0.00     0.055 A 
ATOM     68  C   UNL A   1      43.472  25.816  25.848  1.00  0.00     0.041 A 
ATOM     69  F   UNL A   1      43.644  27.853  26.990  1.00  0.00    -0.206 F 
ATOM     70  C   UNL A   1      43.001  24.508  25.773  1.00  0.00     0.022 A 
BRANCH  67  71
ATOM     71  S   UNL A   1      41.681  22.287  26.823  1.00  0.00     0.124 S 
ATOM     72  O   UNL A   1      42.651  21.770  27.785  1.00  0.00    -0.237 OA
ATOM     73  O   UNL A   1      40.296  22.332  27.276  1.00  0.00    -0.237 OA
ATOM     74  O   UNL A   1      41.875  21.835  25.447  1.00  0.00    -0.744 OA
ENDBRANCH  67  71
ENDBRANCH  50  64
BRANCH  51  75
ATOM     75  C   UNL A   1      39.179  32.026  35.478  1.00  0.00     0.023 A 
ATOM     76  C   UNL A   1      38.526  31.431  36.570  1.00  0.00     0.031 A 
ATOM     77  C   UNL A   1      39.333  33.423  35.486  1.00  0.00     0.131 A 
ATOM     78  C   UNL A   1      38.006  32.235  37.598  1.00  0.00     0.055 A 
ATOM     79  C   UNL A   1      38.867  34.213  36.539  1.00  0.00     0.041 A 
ATOM     80  F   UNL A   1      39.953  34.044  34.470  1.00  0.00    -0.206 F 
ATOM     81  C   UNL A   1      38.185  33.620  37.596  1.00  0.00     0.022 A 
BRANCH  78  82
ATOM     82  S   UNL A   1      37.003  31.452  38.890  1.00  0.00     0.124 S 
ATOM     83  O   UNL A   1      35.802  32.280  38.876  1.00  0.00    -0.237 OA
ATOM     84  O   UNL A   1      36.853  30.094  38.376  1.00  0.00    -0.237 OA
ATOM     85  O   UNL A   1      37.833  31.575  40.087  1.00  0.00    -0.744 OA
ENDBRANCH  78  82
ENDBRANCH  51  75
BRANCH  63  86
ATOM     86  C   UNL A   1      44.721  27.897  34.483  1.00  0.00     0.023 A 
ATOM     87  C   UNL A   1      44.758  26.810  35.373  1.00  0.00     0.031 A 
ATOM     88  C   UNL A   1      45.860  28.719  34.397  1.00  0.00     0.131 A 
ATOM     89  C   UNL A   1      45.889  26.605  36.179  1.00  0.00     0.055 A 
ATOM     90  C   UNL A   1      47.006  28.472  35.152  1.00  0.00     0.041 A 
ATOM     91  F   UNL A   1      45.879  29.775  33.567  1.00  0.00    -0.206 F 
ATOM     92  C   UNL A   1      47.020  27.417  36.060  1.00  0.00     0.022 A 
BRANCH  89  93
ATOM     93  S   UNL A   1      45.830  25.317  37.455  1.00  0.00     0.124 S 
ATOM     94  O   UNL A   1      44.610  25.661  38.177  1.00  0.00    -0.237 OA
ATOM     95  O   UNL A   1      45.778  24.093  36.662  1.00  0.00    -0.237 OA
ATOM     96  O   UNL A   1      47.071  25.517  38.202  1.00  0.00    -0.744 OA
ENDBRANCH  89  93
ENDBRANCH  63  86
ENDBRANCH  37  38
ENDBRANCH  29  32
ENDBRANCH  27  28
ENDBRANCH  26  27
ENDBRANCH  25  26
ENDBRANCH   1  25
TORSDOF 19
ENDMDL
