MODEL 1
REMARK VINA RESULT:     -11.3      0.000      0.000
REMARK SMILES C[C@H]1CCC[C@H](C(C)(C)C(=O)NCCCCNC(=O)c2ccc(-c3c4nc(c(-c5cc(S(=O)(=O)[O-])ccc5F)c5ccc([nH]5)c(-c5cc(S(=O)(=O)[O-])ccc5F)c5nc(c(-c6cc(S(=O)(=O)[O-])ccc6F)c6ccc3[nH]6)C=C5)C=C4)cc2)C1
REMARK SMILES IDX 15 1 14 2 13 3 12 4 10 5 11 6 7 8 8 9 9 10 6 11 1 12 2 13
REMARK SMILES IDX 3 14 83 15 4 16 5 17 16 18 17 19 18 20 19 22 20 23 21 24
REMARK SMILES IDX 82 25 22 26 81 27 23 28 24 29 25 30 75 31 26 32 80 33 74 34
REMARK SMILES IDX 76 35 27 36 79 37 73 38 72 39 28 41 60 42 40 43 59 44 41 45
REMARK SMILES IDX 44 46 58 47 77 48 42 49 43 50 57 52 78 53 45 54 29 55 30 56
REMARK SMILES IDX 38 57 31 58 37 59 39 60 36 61 32 62 33 63 34 64 35 65 61 66
REMARK SMILES IDX 62 67 70 68 63 69 69 70 71 71 68 72 64 73 65 74 66 75 67 76
REMARK SMILES IDX 46 77 47 78 55 79 48 80 54 81 56 82 53 83 49 84 50 85 51 86
REMARK SMILES IDX 52 87
REMARK H PARENT 12 7 17 21 76 40 44 51
REMARK Flexibility Score: inf
ROOT
ATOM      1  C   UNL A   1      33.536  29.207  23.857  1.00  0.00     0.023 C 
ENDROOT
BRANCH   1   2
ATOM      2  C   UNL A   1      32.507  28.956  22.749  1.00  0.00     0.023 C 
BRANCH   2   3
ATOM      3  C   UNL A   1      31.832  27.587  22.812  1.00  0.00     0.116 C 
BRANCH   3   4
ATOM      4  N   UNL A   1      32.177  26.793  21.655  1.00  0.00    -0.356 N 
ATOM      5  C   UNL A   1      32.736  25.575  21.471  1.00  0.00     0.225 C 
ATOM      6  O   UNL A   1      33.015  25.357  20.293  1.00  0.00    -0.275 OA
ATOM      7  H   UNL A   1      31.956  27.242  20.807  1.00  0.00     0.163 HD
BRANCH   5   8
ATOM      8  C   UNL A   1      32.940  24.537  22.600  1.00  0.00     0.046 C 
ATOM      9  C   UNL A   1      33.223  23.178  21.914  1.00  0.00     0.022 C 
ATOM     10  C   UNL A   1      31.661  24.419  23.459  1.00  0.00     0.022 C 
BRANCH   8  11
ATOM     11  C   UNL A   1      34.151  24.831  23.601  1.00  0.00     0.004 C 
ATOM     12  C   UNL A   1      35.829  21.585  25.005  1.00  0.00     0.007 C 
ATOM     13  C   UNL A   1      34.732  22.635  24.807  1.00  0.00    -0.014 C 
ATOM     14  C   UNL A   1      34.334  23.251  26.158  1.00  0.00     0.003 C 
ATOM     15  C   UNL A   1      35.185  23.705  23.818  1.00  0.00     0.008 C 
ATOM     16  C   UNL A   1      33.476  24.518  26.095  1.00  0.00     0.001 C 
ATOM     17  C   UNL A   1      33.832  25.477  24.964  1.00  0.00     0.005 C 
ENDBRANCH   8  11
ENDBRANCH   5   8
ENDBRANCH   3   4
ENDBRANCH   2   3
ENDBRANCH   1   2
BRANCH   1  18
ATOM     18  C   UNL A   1      32.986  29.145  25.277  1.00  0.00     0.116 C 
BRANCH  18  19
ATOM     19  N   UNL A   1      32.431  30.417  25.714  1.00  0.00    -0.352 N 
ATOM     20  C   UNL A   1      32.828  31.216  26.756  1.00  0.00     0.251 C 
ATOM     21  H   UNL A   1      31.667  30.748  25.191  1.00  0.00     0.163 HD
ATOM     22  O   UNL A   1      32.142  32.184  27.074  1.00  0.00    -0.269 OA
BRANCH  20  23
ATOM     23  C   UNL A   1      34.056  30.882  27.502  1.00  0.00     0.039 A 
ATOM     24  C   UNL A   1      34.984  31.892  27.757  1.00  0.00     0.014 A 
ATOM     25  C   UNL A   1      34.284  29.580  27.960  1.00  0.00     0.014 A 
ATOM     26  C   UNL A   1      36.125  31.606  28.507  1.00  0.00     0.010 A 
ATOM     27  C   UNL A   1      35.377  29.318  28.779  1.00  0.00     0.010 A 
ATOM     28  C   UNL A   1      36.320  30.323  29.043  1.00  0.00    -0.014 A 
BRANCH  28  29
ATOM     29  C   UNL A   1      37.535  30.001  29.835  1.00  0.00     0.031 A 
ATOM     30  C   UNL A   1      38.592  29.105  29.245  1.00  0.00     0.074 A 
ATOM     31  C   UNL A   1      37.670  30.483  31.085  1.00  0.00     0.049 A 
ATOM     32  N   UNL A   1      39.698  28.661  29.784  1.00  0.00    -0.248 NA
ATOM     33  C   UNL A   1      38.355  28.617  27.878  1.00  0.00     0.031 C 
ATOM     34  C   UNL A   1      36.695  31.331  31.774  1.00  0.00     0.029 A 
ATOM     35  N   UNL A   1      38.680  30.329  32.001  1.00  0.00    -0.354 N 
ATOM     36  C   UNL A   1      40.279  27.834  28.828  1.00  0.00     0.074 A 
ATOM     37  C   UNL A   1      39.364  27.778  27.710  1.00  0.00     0.031 C 
ATOM     38  C   UNL A   1      37.170  31.649  32.990  1.00  0.00     0.029 A 
ATOM     39  C   UNL A   1      38.458  30.991  33.187  1.00  0.00     0.049 A 
ATOM     40  H   UNL A   1      39.488  29.795  31.827  1.00  0.00     0.167 HD
ATOM     41  C   UNL A   1      41.479  27.202  28.868  1.00  0.00     0.034 A 
ATOM     42  C   UNL A   1      39.206  31.055  34.307  1.00  0.00     0.034 A 
ATOM     43  C   UNL A   1      42.382  27.279  29.990  1.00  0.00     0.049 A 
ATOM     44  C   UNL A   1      40.527  30.326  34.336  1.00  0.00     0.074 A 
ATOM     45  C   UNL A   1      43.637  26.711  30.127  1.00  0.00     0.029 A 
ATOM     46  N   UNL A   1      42.126  27.962  31.173  1.00  0.00    -0.354 N 
ATOM     47  N   UNL A   1      41.083  29.581  33.407  1.00  0.00    -0.248 NA
ATOM     48  C   UNL A   1      41.329  30.466  35.557  1.00  0.00     0.031 C 
ATOM     49  C   UNL A   1      44.105  26.989  31.416  1.00  0.00     0.029 A 
ATOM     50  C   UNL A   1      43.187  27.809  32.052  1.00  0.00     0.049 A 
ATOM     51  H   UNL A   1      41.309  28.479  31.359  1.00  0.00     0.167 HD
ATOM     52  C   UNL A   1      42.321  29.200  33.919  1.00  0.00     0.074 A 
ATOM     53  C   UNL A   1      42.432  29.811  35.228  1.00  0.00     0.031 C 
ATOM     54  C   UNL A   1      43.283  28.422  33.357  1.00  0.00     0.034 A 
BRANCH  41  55
ATOM     55  C   UNL A   1      41.858  26.356  27.673  1.00  0.00     0.023 A 
ATOM     56  C   UNL A   1      41.497  24.999  27.583  1.00  0.00     0.031 A 
ATOM     57  C   UNL A   1      42.620  26.901  26.626  1.00  0.00     0.131 A 
ATOM     58  C   UNL A   1      41.970  24.217  26.517  1.00  0.00     0.055 A 
ATOM     59  C   UNL A   1      43.009  26.140  25.522  1.00  0.00     0.041 A 
ATOM     60  F   UNL A   1      43.017  28.184  26.664  1.00  0.00    -0.206 F 
ATOM     61  C   UNL A   1      42.699  24.784  25.471  1.00  0.00     0.022 A 
BRANCH  58  62
ATOM     62  S   UNL A   1      41.755  22.417  26.605  1.00  0.00     0.124 S 
ATOM     63  O   UNL A   1      42.149  22.140  27.984  1.00  0.00    -0.237 OA
ATOM     64  O   UNL A   1      40.340  22.251  26.298  1.00  0.00    -0.237 OA
ATOM     65  O   UNL A   1      42.678  21.913  25.588  1.00  0.00    -0.744 OA
ENDBRANCH  58  62
ENDBRANCH  41  55
BRANCH  42  66
ATOM     66  C   UNL A   1      38.735  31.830  35.492  1.00  0.00     0.023 A 
ATOM     67  C   UNL A   1      38.200  31.181  36.616  1.00  0.00     0.031 A 
ATOM     68  C   UNL A   1      38.763  33.236  35.496  1.00  0.00     0.131 A 
ATOM     69  C   UNL A   1      37.663  31.935  37.672  1.00  0.00     0.055 A 
ATOM     70  C   UNL A   1      38.285  33.981  36.575  1.00  0.00     0.041 A 
ATOM     71  F   UNL A   1      39.268  33.908  34.449  1.00  0.00    -0.206 F 
ATOM     72  C   UNL A   1      37.715  33.331  37.666  1.00  0.00     0.022 A 
BRANCH  69  73
ATOM     73  S   UNL A   1      36.802  31.066  39.011  1.00  0.00     0.124 S 
ATOM     74  O   UNL A   1      37.745  31.215  40.114  1.00  0.00    -0.237 OA
ATOM     75  O   UNL A   1      35.562  31.827  39.118  1.00  0.00    -0.237 OA
ATOM     76  O   UNL A   1      36.654  29.707  38.494  1.00  0.00    -0.744 OA
ENDBRANCH  69  73
ENDBRANCH  42  66
BRANCH  54  77
ATOM     77  C   UNL A   1      44.567  28.248  34.135  1.00  0.00     0.023 A 
ATOM     78  C   UNL A   1      44.747  27.204  35.058  1.00  0.00     0.031 A 
ATOM     79  C   UNL A   1      45.619  29.169  33.969  1.00  0.00     0.131 A 
ATOM     80  C   UNL A   1      45.913  27.150  35.836  1.00  0.00     0.055 A 
ATOM     81  C   UNL A   1      46.809  29.065  34.689  1.00  0.00     0.041 A 
ATOM     82  F   UNL A   1      45.506  30.190  33.104  1.00  0.00    -0.206 F 
ATOM     83  C   UNL A   1      46.954  28.063  35.644  1.00  0.00     0.022 A 
BRANCH  80  84
ATOM     84  S   UNL A   1      45.997  25.955  37.197  1.00  0.00     0.124 S 
ATOM     85  O   UNL A   1      46.020  24.682  36.483  1.00  0.00    -0.237 OA
ATOM     86  O   UNL A   1      47.237  26.332  37.867  1.00  0.00    -0.237 OA
ATOM     87  O   UNL A   1      44.777  26.215  37.959  1.00  0.00    -0.744 OA
ENDBRANCH  80  84
ENDBRANCH  54  77
ENDBRANCH  28  29
ENDBRANCH  20  23
ENDBRANCH  18  19
ENDBRANCH   1  18
TORSDOF 15
ENDMDL
MODEL 2
REMARK VINA RESULT:     -11.3      2.298      3.142
REMARK SMILES C[C@H]1CCC[C@H](C(C)(C)C(=O)NCCCCNC(=O)c2ccc(-c3c4nc(c(-c5cc(S(=O)(=O)[O-])ccc5F)c5ccc([nH]5)c(-c5cc(S(=O)(=O)[O-])ccc5F)c5nc(c(-c6cc(S(=O)(=O)[O-])ccc6F)c6ccc3[nH]6)C=C5)C=C4)cc2)C1
REMARK SMILES IDX 15 1 14 2 13 3 12 4 10 5 11 6 7 8 8 9 9 10 6 11 1 12 2 13
REMARK SMILES IDX 3 14 83 15 4 16 5 17 16 18 17 19 18 20 19 22 20 23 21 24
REMARK SMILES IDX 82 25 22 26 81 27 23 28 24 29 25 30 75 31 26 32 80 33 74 34
REMARK SMILES IDX 76 35 27 36 79 37 73 38 72 39 28 41 60 42 40 43 59 44 41 45
REMARK SMILES IDX 44 46 58 47 77 48 42 49 43 50 57 52 78 53 45 54 29 55 30 56
REMARK SMILES IDX 38 57 31 58 37 59 39 60 36 61 32 62 33 63 34 64 35 65 61 66
REMARK SMILES IDX 62 67 70 68 63 69 69 70 71 71 68 72 64 73 65 74 66 75 67 76
REMARK SMILES IDX 46 77 47 78 55 79 48 80 54 81 56 82 53 83 49 84 50 85 51 86
REMARK SMILES IDX 52 87
REMARK H PARENT 12 7 17 21 76 40 44 51
REMARK Flexibility Score: inf
ROOT
ATOM      1  C   UNL A   1      31.504  31.822  26.762  1.00  0.00     0.023 C 
ENDROOT
BRANCH   1   2
ATOM      2  C   UNL A   1      31.689  30.447  26.110  1.00  0.00     0.023 C 
BRANCH   2   3
ATOM      3  C   UNL A   1      33.138  29.965  26.051  1.00  0.00     0.116 C 
BRANCH   3   4
ATOM      4  N   UNL A   1      33.546  29.740  24.683  1.00  0.00    -0.356 N 
ATOM      5  C   UNL A   1      33.459  28.696  23.826  1.00  0.00     0.225 C 
ATOM      6  O   UNL A   1      34.104  28.878  22.795  1.00  0.00    -0.275 OA
ATOM      7  H   UNL A   1      33.988  30.524  24.284  1.00  0.00     0.163 HD
BRANCH   5   8
ATOM      8  C   UNL A   1      32.591  27.441  24.076  1.00  0.00     0.046 C 
ATOM      9  C   UNL A   1      33.211  26.293  23.243  1.00  0.00     0.022 C 
ATOM     10  C   UNL A   1      31.140  27.688  23.605  1.00  0.00     0.022 C 
BRANCH   8  11
ATOM     11  C   UNL A   1      32.512  26.944  25.593  1.00  0.00     0.004 C 
ATOM     12  C   UNL A   1      33.857  23.304  26.107  1.00  0.00     0.007 C 
ATOM     13  C   UNL A   1      32.911  24.403  25.615  1.00  0.00    -0.014 C 
ATOM     14  C   UNL A   1      31.492  24.167  26.156  1.00  0.00     0.003 C 
ATOM     15  C   UNL A   1      33.437  25.779  26.010  1.00  0.00     0.008 C 
ATOM     16  C   UNL A   1      30.510  25.333  26.007  1.00  0.00     0.001 C 
ATOM     17  C   UNL A   1      31.120  26.714  26.215  1.00  0.00     0.005 C 
ENDBRANCH   8  11
ENDBRANCH   5   8
ENDBRANCH   3   4
ENDBRANCH   2   3
ENDBRANCH   1   2
BRANCH   1  18
ATOM     18  C   UNL A   1      32.782  32.466  27.289  1.00  0.00     0.116 C 
BRANCH  18  19
ATOM     19  N   UNL A   1      32.604  33.873  27.608  1.00  0.00    -0.352 N 
ATOM     20  C   UNL A   1      33.244  34.627  28.558  1.00  0.00     0.251 C 
ATOM     21  H   UNL A   1      31.933  34.350  27.069  1.00  0.00     0.163 HD
ATOM     22  O   UNL A   1      32.855  35.769  28.791  1.00  0.00    -0.269 OA
BRANCH  20  23
ATOM     23  C   UNL A   1      34.372  34.044  29.310  1.00  0.00     0.039 A 
ATOM     24  C   UNL A   1      34.102  33.108  30.310  1.00  0.00     0.014 A 
ATOM     25  C   UNL A   1      35.691  34.410  29.021  1.00  0.00     0.014 A 
ATOM     26  C   UNL A   1      35.159  32.508  30.994  1.00  0.00     0.010 A 
ATOM     27  C   UNL A   1      36.743  33.748  29.644  1.00  0.00     0.010 A 
ATOM     28  C   UNL A   1      36.489  32.806  30.652  1.00  0.00    -0.014 A 
BRANCH  28  29
ATOM     29  C   UNL A   1      37.623  32.182  31.379  1.00  0.00     0.031 A 
ATOM     30  C   UNL A   1      38.382  31.047  30.741  1.00  0.00     0.074 A 
ATOM     31  C   UNL A   1      37.946  32.608  32.615  1.00  0.00     0.049 A 
ATOM     32  N   UNL A   1      39.366  30.333  31.223  1.00  0.00    -0.248 NA
ATOM     33  C   UNL A   1      37.952  30.642  29.394  1.00  0.00     0.031 C 
ATOM     34  C   UNL A   1      37.260  33.674  33.348  1.00  0.00     0.029 A 
ATOM     35  N   UNL A   1      38.932  32.197  33.476  1.00  0.00    -0.354 N 
ATOM     36  C   UNL A   1      39.663  29.389  30.245  1.00  0.00     0.074 A 
ATOM     37  C   UNL A   1      38.703  29.574  29.180  1.00  0.00     0.031 C 
ATOM     38  C   UNL A   1      37.867  33.855  34.532  1.00  0.00     0.029 A 
ATOM     39  C   UNL A   1      38.953  32.889  34.665  1.00  0.00     0.049 A 
ATOM     40  H   UNL A   1      39.567  31.475  33.263  1.00  0.00     0.167 HD
ATOM     41  C   UNL A   1      40.662  28.472  30.226  1.00  0.00     0.034 A 
ATOM     42  C   UNL A   1      39.754  32.755  35.741  1.00  0.00     0.034 A 
ATOM     43  C   UNL A   1      41.616  28.311  31.295  1.00  0.00     0.049 A 
ATOM     44  C   UNL A   1      40.845  31.713  35.706  1.00  0.00     0.074 A 
ATOM     45  C   UNL A   1      42.690  27.441  31.370  1.00  0.00     0.029 A 
ATOM     46  N   UNL A   1      41.609  29.032  32.484  1.00  0.00    -0.354 N 
ATOM     47  N   UNL A   1      41.140  30.854  34.755  1.00  0.00    -0.248 NA
ATOM     48  C   UNL A   1      41.722  31.637  36.879  1.00  0.00     0.031 C 
ATOM     49  C   UNL A   1      43.285  27.585  32.628  1.00  0.00     0.029 A 
ATOM     50  C   UNL A   1      42.643  28.610  33.305  1.00  0.00     0.049 A 
ATOM     51  H   UNL A   1      40.963  29.739  32.709  1.00  0.00     0.167 HD
ATOM     52  C   UNL A   1      42.266  30.167  35.202  1.00  0.00     0.074 A 
ATOM     53  C   UNL A   1      42.601  30.725  36.497  1.00  0.00     0.031 C 
ATOM     54  C   UNL A   1      42.965  29.172  34.597  1.00  0.00     0.034 A 
BRANCH  41  55
ATOM     55  C   UNL A   1      40.745  27.562  29.020  1.00  0.00     0.023 A 
ATOM     56  C   UNL A   1      41.695  27.767  28.003  1.00  0.00     0.031 A 
ATOM     57  C   UNL A   1      39.841  26.497  28.866  1.00  0.00     0.131 A 
ATOM     58  C   UNL A   1      41.662  26.977  26.843  1.00  0.00     0.055 A 
ATOM     59  C   UNL A   1      39.874  25.656  27.753  1.00  0.00     0.041 A 
ATOM     60  F   UNL A   1      38.895  26.264  29.791  1.00  0.00    -0.206 F 
ATOM     61  C   UNL A   1      40.778  25.904  26.723  1.00  0.00     0.022 A 
BRANCH  58  62
ATOM     62  S   UNL A   1      42.684  27.476  25.428  1.00  0.00     0.124 S 
ATOM     63  O   UNL A   1      42.632  26.279  24.592  1.00  0.00    -0.237 OA
ATOM     64  O   UNL A   1      41.972  28.642  24.920  1.00  0.00    -0.237 OA
ATOM     65  O   UNL A   1      43.988  27.751  26.028  1.00  0.00    -0.744 OA
ENDBRANCH  58  62
ENDBRANCH  41  55
BRANCH  42  66
ATOM     66  C   UNL A   1      39.563  33.619  36.943  1.00  0.00     0.023 A 
ATOM     67  C   UNL A   1      38.924  33.131  38.093  1.00  0.00     0.031 A 
ATOM     68  C   UNL A   1      39.969  34.965  36.938  1.00  0.00     0.131 A 
ATOM     69  C   UNL A   1      38.658  33.994  39.168  1.00  0.00     0.055 A 
ATOM     70  C   UNL A   1      39.758  35.805  38.033  1.00  0.00     0.041 A 
ATOM     71  F   UNL A   1      40.588  35.485  35.866  1.00  0.00    -0.206 F 
ATOM     72  C   UNL A   1      39.084  35.323  39.153  1.00  0.00     0.022 A 
BRANCH  69  73
ATOM     73  S   UNL A   1      37.657  33.379  40.550  1.00  0.00     0.124 S 
ATOM     74  O   UNL A   1      38.559  32.409  41.161  1.00  0.00    -0.237 OA
ATOM     75  O   UNL A   1      37.411  34.598  41.313  1.00  0.00    -0.237 OA
ATOM     76  O   UNL A   1      36.482  32.810  39.892  1.00  0.00    -0.744 OA
ENDBRANCH  69  73
ENDBRANCH  42  66
BRANCH  54  77
ATOM     77  C   UNL A   1      44.203  28.673  35.305  1.00  0.00     0.023 A 
ATOM     78  C   UNL A   1      44.157  27.634  36.251  1.00  0.00     0.031 A 
ATOM     79  C   UNL A   1      45.450  29.274  35.047  1.00  0.00     0.131 A 
ATOM     80  C   UNL A   1      45.314  27.283  36.961  1.00  0.00     0.055 A 
ATOM     81  C   UNL A   1      46.613  28.866  35.701  1.00  0.00     0.041 A 
ATOM     82  F   UNL A   1      45.558  30.273  34.157  1.00  0.00    -0.206 F 
ATOM     83  C   UNL A   1      46.546  27.879  36.678  1.00  0.00     0.022 A 
BRANCH  80  84
ATOM     84  S   UNL A   1      45.163  26.132  38.354  1.00  0.00     0.124 S 
ATOM     85  O   UNL A   1      44.226  26.832  39.227  1.00  0.00    -0.237 OA
ATOM     86  O   UNL A   1      44.652  24.927  37.709  1.00  0.00    -0.237 OA
ATOM     87  O   UNL A   1      46.528  26.030  38.866  1.00  0.00    -0.744 OA
ENDBRANCH  80  84
ENDBRANCH  54  77
ENDBRANCH  28  29
ENDBRANCH  20  23
ENDBRANCH  18  19
ENDBRANCH   1  18
TORSDOF 15
ENDMDL
MODEL 3
REMARK VINA RESULT:     -11.3      4.921      7.474
REMARK SMILES C[C@H]1CCC[C@H](C(C)(C)C(=O)NCCCCNC(=O)c2ccc(-c3c4nc(c(-c5cc(S(=O)(=O)[O-])ccc5F)c5ccc([nH]5)c(-c5cc(S(=O)(=O)[O-])ccc5F)c5nc(c(-c6cc(S(=O)(=O)[O-])ccc6F)c6ccc3[nH]6)C=C5)C=C4)cc2)C1
REMARK SMILES IDX 15 1 14 2 13 3 12 4 10 5 11 6 7 8 8 9 9 10 6 11 1 12 2 13
REMARK SMILES IDX 3 14 83 15 4 16 5 17 16 18 17 19 18 20 19 22 20 23 21 24
REMARK SMILES IDX 82 25 22 26 81 27 23 28 24 29 25 30 75 31 26 32 80 33 74 34
REMARK SMILES IDX 76 35 27 36 79 37 73 38 72 39 28 41 60 42 40 43 59 44 41 45
REMARK SMILES IDX 44 46 58 47 77 48 42 49 43 50 57 52 78 53 45 54 29 55 30 56
REMARK SMILES IDX 38 57 31 58 37 59 39 60 36 61 32 62 33 63 34 64 35 65 61 66
REMARK SMILES IDX 62 67 70 68 63 69 69 70 71 71 68 72 64 73 65 74 66 75 67 76
REMARK SMILES IDX 46 77 47 78 55 79 48 80 54 81 56 82 53 83 49 84 50 85 51 86
REMARK SMILES IDX 52 87
REMARK H PARENT 12 7 17 21 76 40 44 51
REMARK Flexibility Score: inf
ROOT
ATOM      1  C   UNL A   1      36.826  23.157  24.418  1.00  0.00     0.023 C 
ENDROOT
BRANCH   1   2
ATOM      2  C   UNL A   1      35.788  22.197  23.828  1.00  0.00     0.023 C 
BRANCH   2   3
ATOM      3  C   UNL A   1      34.365  22.753  23.782  1.00  0.00     0.116 C 
BRANCH   3   4
ATOM      4  N   UNL A   1      34.325  23.991  23.037  1.00  0.00    -0.356 N 
ATOM      5  C   UNL A   1      33.764  25.205  23.242  1.00  0.00     0.225 C 
ATOM      6  O   UNL A   1      33.832  25.930  22.250  1.00  0.00    -0.275 OA
ATOM      7  H   UNL A   1      34.818  23.938  22.187  1.00  0.00     0.163 HD
BRANCH   5   8
ATOM      8  C   UNL A   1      33.163  25.664  24.592  1.00  0.00     0.046 C 
ATOM      9  C   UNL A   1      34.246  25.416  25.671  1.00  0.00     0.022 C 
ATOM     10  C   UNL A   1      31.905  24.835  24.930  1.00  0.00     0.022 C 
BRANCH   8  11
ATOM     11  C   UNL A   1      32.746  27.205  24.676  1.00  0.00     0.004 C 
ATOM     12  C   UNL A   1      34.997  29.294  27.103  1.00  0.00     0.007 C 
ATOM     13  C   UNL A   1      33.961  28.244  26.691  1.00  0.00    -0.014 C 
ATOM     14  C   UNL A   1      32.616  28.525  27.379  1.00  0.00     0.003 C 
ATOM     15  C   UNL A   1      33.812  28.205  25.173  1.00  0.00     0.008 C 
ATOM     16  C   UNL A   1      31.408  27.754  26.839  1.00  0.00     0.001 C 
ATOM     17  C   UNL A   1      31.395  27.561  25.327  1.00  0.00     0.005 C 
ENDBRANCH   8  11
ENDBRANCH   5   8
ENDBRANCH   3   4
ENDBRANCH   2   3
ENDBRANCH   1   2
BRANCH   1  18
ATOM     18  C   UNL A   1      37.208  22.886  25.868  1.00  0.00     0.116 C 
BRANCH  18  19
ATOM     19  N   UNL A   1      38.346  21.989  25.985  1.00  0.00    -0.352 N 
ATOM     20  C   UNL A   1      39.637  22.279  26.346  1.00  0.00     0.251 C 
ATOM     21  H   UNL A   1      38.164  21.044  25.777  1.00  0.00     0.163 HD
ATOM     22  O   UNL A   1      40.505  21.416  26.241  1.00  0.00    -0.269 OA
BRANCH  20  23
ATOM     23  C   UNL A   1      39.972  23.634  26.823  1.00  0.00     0.039 A 
ATOM     24  C   UNL A   1      40.280  23.815  28.172  1.00  0.00     0.014 A 
ATOM     25  C   UNL A   1      39.994  24.719  25.940  1.00  0.00     0.014 A 
ATOM     26  C   UNL A   1      40.651  25.080  28.629  1.00  0.00     0.010 A 
ATOM     27  C   UNL A   1      40.447  25.958  26.381  1.00  0.00     0.010 A 
ATOM     28  C   UNL A   1      40.759  26.157  27.734  1.00  0.00    -0.014 A 
BRANCH  28  29
ATOM     29  C   UNL A   1      41.143  27.511  28.208  1.00  0.00     0.031 A 
ATOM     30  C   UNL A   1      42.597  27.906  28.233  1.00  0.00     0.074 A 
ATOM     31  C   UNL A   1      40.198  28.364  28.646  1.00  0.00     0.049 A 
ATOM     32  N   UNL A   1      43.147  29.014  28.657  1.00  0.00    -0.248 NA
ATOM     33  C   UNL A   1      43.560  26.907  27.747  1.00  0.00     0.031 C 
ATOM     34  C   UNL A   1      38.762  28.077  28.703  1.00  0.00     0.029 A 
ATOM     35  N   UNL A   1      40.298  29.644  29.128  1.00  0.00    -0.354 N 
ATOM     36  C   UNL A   1      44.518  28.839  28.499  1.00  0.00     0.074 A 
ATOM     37  C   UNL A   1      44.716  27.491  28.016  1.00  0.00     0.031 C 
ATOM     38  C   UNL A   1      38.115  29.162  29.159  1.00  0.00     0.029 A 
ATOM     39  C   UNL A   1      39.089  30.203  29.473  1.00  0.00     0.049 A 
ATOM     40  H   UNL A   1      41.155  30.120  29.217  1.00  0.00     0.167 HD
ATOM     41  C   UNL A   1      45.519  29.731  28.711  1.00  0.00     0.034 A 
ATOM     42  C   UNL A   1      38.801  31.414  29.989  1.00  0.00     0.034 A 
ATOM     43  C   UNL A   1      45.299  31.076  29.184  1.00  0.00     0.049 A 
ATOM     44  C   UNL A   1      39.932  32.383  30.237  1.00  0.00     0.074 A 
ATOM     45  C   UNL A   1      46.230  32.077  29.401  1.00  0.00     0.029 A 
ATOM     46  N   UNL A   1      44.060  31.609  29.521  1.00  0.00    -0.354 N 
ATOM     47  N   UNL A   1      41.221  32.217  30.044  1.00  0.00    -0.248 NA
ATOM     48  C   UNL A   1      39.565  33.707  30.752  1.00  0.00     0.031 C 
ATOM     49  C   UNL A   1      45.565  33.186  29.936  1.00  0.00     0.029 A 
ATOM     50  C   UNL A   1      44.206  32.914  29.965  1.00  0.00     0.049 A 
ATOM     51  H   UNL A   1      43.203  31.129  29.453  1.00  0.00     0.167 HD
ATOM     52  C   UNL A   1      41.812  33.434  30.374  1.00  0.00     0.074 A 
ATOM     53  C   UNL A   1      40.736  34.323  30.762  1.00  0.00     0.031 C 
ATOM     54  C   UNL A   1      43.124  33.790  30.353  1.00  0.00     0.034 A 
BRANCH  41  55
ATOM     55  C   UNL A   1      46.933  29.261  28.457  1.00  0.00     0.023 A 
ATOM     56  C   UNL A   1      47.407  29.009  27.157  1.00  0.00     0.031 A 
ATOM     57  C   UNL A   1      47.810  29.026  29.530  1.00  0.00     0.131 A 
ATOM     58  C   UNL A   1      48.685  28.458  26.970  1.00  0.00     0.055 A 
ATOM     59  C   UNL A   1      49.113  28.566  29.331  1.00  0.00     0.041 A 
ATOM     60  F   UNL A   1      47.411  29.224  30.797  1.00  0.00    -0.206 F 
ATOM     61  C   UNL A   1      49.552  28.262  28.046  1.00  0.00     0.022 A 
BRANCH  58  62
ATOM     62  S   UNL A   1      49.132  27.852  25.319  1.00  0.00     0.124 S 
ATOM     63  O   UNL A   1      49.264  26.417  25.559  1.00  0.00    -0.237 OA
ATOM     64  O   UNL A   1      47.990  28.263  24.511  1.00  0.00    -0.237 OA
ATOM     65  O   UNL A   1      50.386  28.545  25.028  1.00  0.00    -0.744 OA
ENDBRANCH  58  62
ENDBRANCH  41  55
BRANCH  42  66
ATOM     66  C   UNL A   1      37.392  31.789  30.308  1.00  0.00     0.023 A 
ATOM     67  C   UNL A   1      36.520  32.248  29.309  1.00  0.00     0.031 A 
ATOM     68  C   UNL A   1      36.912  31.743  31.629  1.00  0.00     0.131 A 
ATOM     69  C   UNL A   1      35.235  32.698  29.652  1.00  0.00     0.055 A 
ATOM     70  C   UNL A   1      35.613  32.134  31.957  1.00  0.00     0.041 A 
ATOM     71  F   UNL A   1      37.702  31.308  32.624  1.00  0.00    -0.206 F 
ATOM     72  C   UNL A   1      34.770  32.630  30.967  1.00  0.00     0.022 A 
BRANCH  69  73
ATOM     73  S   UNL A   1      34.212  33.469  28.368  1.00  0.00     0.124 S 
ATOM     74  O   UNL A   1      33.494  32.319  27.831  1.00  0.00    -0.237 OA
ATOM     75  O   UNL A   1      33.419  34.418  29.141  1.00  0.00    -0.237 OA
ATOM     76  O   UNL A   1      35.194  34.070  27.466  1.00  0.00    -0.744 OA
ENDBRANCH  69  73
ENDBRANCH  42  66
BRANCH  54  77
ATOM     77  C   UNL A   1      43.453  35.224  30.696  1.00  0.00     0.023 A 
ATOM     78  C   UNL A   1      43.656  35.648  32.021  1.00  0.00     0.031 A 
ATOM     79  C   UNL A   1      43.532  36.190  29.676  1.00  0.00     0.131 A 
ATOM     80  C   UNL A   1      43.849  37.010  32.298  1.00  0.00     0.055 A 
ATOM     81  C   UNL A   1      43.802  37.531  29.950  1.00  0.00     0.041 A 
ATOM     82  F   UNL A   1      43.345  35.847  28.391  1.00  0.00    -0.206 F 
ATOM     83  C   UNL A   1      43.943  37.951  31.269  1.00  0.00     0.022 A 
BRANCH  80  84
ATOM     84  S   UNL A   1      43.840  37.555  34.027  1.00  0.00     0.124 S 
ATOM     85  O   UNL A   1      42.751  38.526  34.034  1.00  0.00    -0.237 OA
ATOM     86  O   UNL A   1      43.588  36.310  34.745  1.00  0.00    -0.237 OA
ATOM     87  O   UNL A   1      45.175  38.119  34.216  1.00  0.00    -0.744 OA
ENDBRANCH  80  84
ENDBRANCH  54  77
ENDBRANCH  28  29
ENDBRANCH  20  23
ENDBRANCH  18  19
ENDBRANCH   1  18
TORSDOF 15
ENDMDL
