MODEL 1
REMARK VINA RESULT:     -12.0      0.000      0.000
REMARK SMILES [NH3+][C@H](C(=O)NCCCCNC(=O)c1ccc(-c2c3nc(c(-c4cc(S(=O)(=O)[O-])ccc4F)c4ccc([nH]4)c(-c4cc(S(=O)(=O)[O-])ccc4F)c4nc(c(-c5cc(S(=O)(=O)[O-])ccc5F)c5ccc2[nH]5)C=C4)C=C3)cc1)c1cccc(OCc2ccc(F)cc2)c1
REMARK SMILES IDX 7 1 6 2 5 3 3 4 4 5 2 7 1 8 76 12 77 13 90 14 78 15 80 16
REMARK SMILES IDX 79 17 81 18 82 19 83 20 84 21 89 22 85 23 88 24 86 25 87 26
REMARK SMILES IDX 8 27 9 28 10 29 11 30 12 32 13 33 14 34 75 35 15 36 74 37
REMARK SMILES IDX 16 38 17 39 18 40 68 41 19 42 73 43 67 44 69 45 20 46 72 47
REMARK SMILES IDX 66 48 65 49 21 51 53 52 33 53 52 54 34 55 37 56 51 57 70 58
REMARK SMILES IDX 35 59 36 60 50 62 71 63 38 64 22 65 23 66 31 67 24 68 30 69
REMARK SMILES IDX 32 70 29 71 25 72 26 73 27 74 28 75 54 76 55 77 63 78 56 79
REMARK SMILES IDX 62 80 64 81 61 82 57 83 58 84 59 85 60 86 39 87 40 88 48 89
REMARK SMILES IDX 41 90 47 91 49 92 46 93 42 94 43 95 44 96 45 97
REMARK H PARENT 5 6 1 9 1 10 1 11 10 31 69 50 37 61
REMARK Flexibility Score: inf
ROOT
ATOM      1  C   UNL A   1      31.751  30.517  26.463  1.00  0.00     0.023 C 
ENDROOT
BRANCH   1   2
ATOM      2  C   UNL A   1      31.424  30.063  25.048  1.00  0.00     0.116 C 
BRANCH   2   3
ATOM      3  N   UNL A   1      30.263  30.717  24.472  1.00  0.00    -0.351 N 
ATOM      4  C   UNL A   1      29.484  30.372  23.405  1.00  0.00     0.283 C 
ATOM      5  O   UNL A   1      28.449  31.027  23.235  1.00  0.00    -0.268 OA
ATOM      6  H   UNL A   1      29.992  31.547  24.926  1.00  0.00     0.163 HD
BRANCH   4   7
ATOM      7  C   UNL A   1      29.924  29.322  22.358  1.00  0.00     0.302 C 
BRANCH   7   8
ATOM      8  N   UNL A   1      31.068  29.882  21.596  1.00  0.00    -0.343 N 
ATOM      9  H   UNL A   1      31.194  30.863  21.844  1.00  0.00     0.345 HD
ATOM     10  H   UNL A   1      30.880  29.805  20.596  1.00  0.00     0.345 HD
ATOM     11  H   UNL A   1      31.915  29.362  21.824  1.00  0.00     0.345 HD
ENDBRANCH   7   8
BRANCH   7  12
ATOM     12  C   UNL A   1      30.179  27.894  22.818  1.00  0.00     0.023 A 
ATOM     13  C   UNL A   1      29.259  27.143  23.568  1.00  0.00     0.011 A 
ATOM     14  C   UNL A   1      31.344  27.244  22.365  1.00  0.00     0.057 A 
ATOM     15  C   UNL A   1      29.554  25.837  23.962  1.00  0.00     0.004 A 
ATOM     16  C   UNL A   1      31.558  25.890  22.623  1.00  0.00     0.120 A 
ATOM     17  C   UNL A   1      30.706  25.213  23.492  1.00  0.00     0.046 A 
BRANCH  16  18
ATOM     18  O   UNL A   1      32.460  25.094  21.971  1.00  0.00    -0.489 OA
BRANCH  18  19
ATOM     19  C   UNL A   1      32.903  23.894  22.621  1.00  0.00     0.265 C 
BRANCH  19  20
ATOM     20  C   UNL A   1      34.178  23.933  23.464  1.00  0.00    -0.011 A 
ATOM     21  C   UNL A   1      35.257  23.121  23.064  1.00  0.00     0.010 A 
ATOM     22  C   UNL A   1      34.313  24.655  24.662  1.00  0.00     0.010 A 
ATOM     23  C   UNL A   1      36.401  23.001  23.857  1.00  0.00     0.039 A 
ATOM     24  C   UNL A   1      35.439  24.506  25.476  1.00  0.00     0.039 A 
ATOM     25  C   UNL A   1      36.471  23.678  25.068  1.00  0.00     0.123 A 
ATOM     26  F   UNL A   1      37.548  23.527  25.849  1.00  0.00    -0.207 F 
ENDBRANCH  19  20
ENDBRANCH  18  19
ENDBRANCH  16  18
ENDBRANCH   7  12
ENDBRANCH   4   7
ENDBRANCH   2   3
ENDBRANCH   1   2
BRANCH   1  27
ATOM     27  C   UNL A   1      31.624  32.013  26.732  1.00  0.00     0.023 C 
BRANCH  27  28
ATOM     28  C   UNL A   1      32.892  32.721  27.195  1.00  0.00     0.116 C 
BRANCH  28  29
ATOM     29  N   UNL A   1      32.651  34.071  27.675  1.00  0.00    -0.352 N 
ATOM     30  C   UNL A   1      33.234  34.761  28.709  1.00  0.00     0.251 C 
ATOM     31  H   UNL A   1      31.960  34.569  27.180  1.00  0.00     0.163 HD
ATOM     32  O   UNL A   1      32.767  35.857  29.025  1.00  0.00    -0.269 OA
BRANCH  30  33
ATOM     33  C   UNL A   1      34.378  34.198  29.466  1.00  0.00     0.039 A 
ATOM     34  C   UNL A   1      34.111  33.454  30.618  1.00  0.00     0.014 A 
ATOM     35  C   UNL A   1      35.703  34.408  29.074  1.00  0.00     0.014 A 
ATOM     36  C   UNL A   1      35.161  32.868  31.330  1.00  0.00     0.010 A 
ATOM     37  C   UNL A   1      36.744  33.749  29.734  1.00  0.00     0.010 A 
ATOM     38  C   UNL A   1      36.486  32.971  30.872  1.00  0.00    -0.014 A 
BRANCH  38  39
ATOM     39  C   UNL A   1      37.588  32.261  31.579  1.00  0.00     0.031 A 
ATOM     40  C   UNL A   1      38.315  31.114  30.924  1.00  0.00     0.074 A 
ATOM     41  C   UNL A   1      37.928  32.643  32.828  1.00  0.00     0.049 A 
ATOM     42  N   UNL A   1      39.308  30.395  31.383  1.00  0.00    -0.248 NA
ATOM     43  C   UNL A   1      37.845  30.705  29.592  1.00  0.00     0.031 C 
ATOM     44  C   UNL A   1      37.263  33.700  33.595  1.00  0.00     0.029 A 
ATOM     45  N   UNL A   1      38.916  32.198  33.671  1.00  0.00    -0.354 N 
ATOM     46  C   UNL A   1      39.591  29.458  30.394  1.00  0.00     0.074 A 
ATOM     47  C   UNL A   1      38.609  29.650  29.348  1.00  0.00     0.031 C 
ATOM     48  C   UNL A   1      37.886  33.847  34.775  1.00  0.00     0.029 A 
ATOM     49  C   UNL A   1      38.964  32.869  34.873  1.00  0.00     0.049 A 
ATOM     50  H   UNL A   1      39.534  31.468  33.438  1.00  0.00     0.167 HD
ATOM     51  C   UNL A   1      40.594  28.546  30.345  1.00  0.00     0.034 A 
ATOM     52  C   UNL A   1      39.779  32.714  35.935  1.00  0.00     0.034 A 
ATOM     53  C   UNL A   1      41.564  28.359  31.399  1.00  0.00     0.049 A 
ATOM     54  C   UNL A   1      40.875  31.680  35.865  1.00  0.00     0.074 A 
ATOM     55  C   UNL A   1      42.635  27.482  31.440  1.00  0.00     0.029 A 
ATOM     56  N   UNL A   1      41.580  29.055  32.601  1.00  0.00    -0.354 N 
ATOM     57  N   UNL A   1      41.160  30.842  34.895  1.00  0.00    -0.248 NA
ATOM     58  C   UNL A   1      41.769  31.586  37.025  1.00  0.00     0.031 C 
ATOM     59  C   UNL A   1      43.254  27.598  32.689  1.00  0.00     0.029 A 
ATOM     60  C   UNL A   1      42.625  28.608  33.398  1.00  0.00     0.049 A 
ATOM     61  H   UNL A   1      40.942  29.761  32.851  1.00  0.00     0.167 HD
ATOM     62  C   UNL A   1      42.286  30.140  35.320  1.00  0.00     0.074 A 
ATOM     63  C   UNL A   1      42.643  30.680  36.617  1.00  0.00     0.031 C 
ATOM     64  C   UNL A   1      42.962  29.138  34.700  1.00  0.00     0.034 A 
BRANCH  51  65
ATOM     65  C   UNL A   1      40.684  27.676  29.111  1.00  0.00     0.023 A 
ATOM     66  C   UNL A   1      41.631  27.929  28.102  1.00  0.00     0.031 A 
ATOM     67  C   UNL A   1      39.807  26.592  28.930  1.00  0.00     0.131 A 
ATOM     68  C   UNL A   1      41.632  27.158  26.930  1.00  0.00     0.055 A 
ATOM     69  C   UNL A   1      39.870  25.774  27.799  1.00  0.00     0.041 A 
ATOM     70  F   UNL A   1      38.867  26.311  29.845  1.00  0.00    -0.206 F 
ATOM     71  C   UNL A   1      40.778  26.064  26.783  1.00  0.00     0.022 A 
BRANCH  68  72
ATOM     72  S   UNL A   1      42.673  27.693  25.543  1.00  0.00     0.124 S 
ATOM     73  O   UNL A   1      41.937  28.856  25.055  1.00  0.00    -0.237 OA
ATOM     74  O   UNL A   1      43.948  27.970  26.193  1.00  0.00    -0.237 OA
ATOM     75  O   UNL A   1      42.667  26.540  24.646  1.00  0.00    -0.744 OA
ENDBRANCH  68  72
ENDBRANCH  51  65
BRANCH  52  76
ATOM     76  C   UNL A   1      39.590  33.542  37.164  1.00  0.00     0.023 A 
ATOM     77  C   UNL A   1      40.343  34.708  37.383  1.00  0.00     0.031 A 
ATOM     78  C   UNL A   1      38.688  33.145  38.167  1.00  0.00     0.131 A 
ATOM     79  C   UNL A   1      40.226  35.398  38.600  1.00  0.00     0.055 A 
ATOM     80  C   UNL A   1      38.528  33.872  39.347  1.00  0.00     0.041 A 
ATOM     81  F   UNL A   1      37.940  32.041  38.010  1.00  0.00    -0.206 F 
ATOM     82  C   UNL A   1      39.312  34.998  39.577  1.00  0.00     0.022 A 
BRANCH  79  83
ATOM     83  S   UNL A   1      41.365  36.770  38.934  1.00  0.00     0.124 S 
ATOM     84  O   UNL A   1      42.155  36.239  40.037  1.00  0.00    -0.237 OA
ATOM     85  O   UNL A   1      42.057  36.906  37.657  1.00  0.00    -0.237 OA
ATOM     86  O   UNL A   1      40.473  37.876  39.279  1.00  0.00    -0.744 OA
ENDBRANCH  79  83
ENDBRANCH  52  76
BRANCH  64  87
ATOM     87  C   UNL A   1      44.177  28.593  35.413  1.00  0.00     0.023 A 
ATOM     88  C   UNL A   1      44.077  27.546  36.348  1.00  0.00     0.031 A 
ATOM     89  C   UNL A   1      45.446  29.155  35.191  1.00  0.00     0.131 A 
ATOM     90  C   UNL A   1      45.204  27.157  37.088  1.00  0.00     0.055 A 
ATOM     91  C   UNL A   1      46.580  28.711  35.873  1.00  0.00     0.041 A 
ATOM     92  F   UNL A   1      45.605  30.158  34.312  1.00  0.00    -0.206 F 
ATOM     93  C   UNL A   1      46.458  27.720  36.843  1.00  0.00     0.022 A 
BRANCH  90  94
ATOM     94  S   UNL A   1      44.980  26.003  38.469  1.00  0.00     0.124 S 
ATOM     95  O   UNL A   1      44.564  24.785  37.781  1.00  0.00    -0.237 OA
ATOM     96  O   UNL A   1      46.309  25.973  39.069  1.00  0.00    -0.237 OA
ATOM     97  O   UNL A   1      43.946  26.638  39.283  1.00  0.00    -0.744 OA
ENDBRANCH  90  94
ENDBRANCH  64  87
ENDBRANCH  38  39
ENDBRANCH  30  33
ENDBRANCH  28  29
ENDBRANCH  27  28
ENDBRANCH   1  27
TORSDOF 19
ENDMDL
MODEL 2
REMARK VINA RESULT:     -11.9      5.867      9.328
REMARK SMILES [NH3+][C@H](C(=O)NCCCCNC(=O)c1ccc(-c2c3nc(c(-c4cc(S(=O)(=O)[O-])ccc4F)c4ccc([nH]4)c(-c4cc(S(=O)(=O)[O-])ccc4F)c4nc(c(-c5cc(S(=O)(=O)[O-])ccc5F)c5ccc2[nH]5)C=C4)C=C3)cc1)c1cccc(OCc2ccc(F)cc2)c1
REMARK SMILES IDX 7 1 6 2 5 3 3 4 4 5 2 7 1 8 76 12 77 13 90 14 78 15 80 16
REMARK SMILES IDX 79 17 81 18 82 19 83 20 84 21 89 22 85 23 88 24 86 25 87 26
REMARK SMILES IDX 8 27 9 28 10 29 11 30 12 32 13 33 14 34 75 35 15 36 74 37
REMARK SMILES IDX 16 38 17 39 18 40 68 41 19 42 73 43 67 44 69 45 20 46 72 47
REMARK SMILES IDX 66 48 65 49 21 51 53 52 33 53 52 54 34 55 37 56 51 57 70 58
REMARK SMILES IDX 35 59 36 60 50 62 71 63 38 64 22 65 23 66 31 67 24 68 30 69
REMARK SMILES IDX 32 70 29 71 25 72 26 73 27 74 28 75 54 76 55 77 63 78 56 79
REMARK SMILES IDX 62 80 64 81 61 82 57 83 58 84 59 85 60 86 39 87 40 88 48 89
REMARK SMILES IDX 41 90 47 91 49 92 46 93 42 94 43 95 44 96 45 97
REMARK H PARENT 5 6 1 9 1 10 1 11 10 31 69 50 37 61
REMARK Flexibility Score: inf
ROOT
ATOM      1  C   UNL A   1      35.329  22.246  25.996  1.00  0.00     0.023 C 
ENDROOT
BRANCH   1   2
ATOM      2  C   UNL A   1      34.233  21.695  26.896  1.00  0.00     0.116 C 
BRANCH   2   3
ATOM      3  N   UNL A   1      33.521  20.561  26.334  1.00  0.00    -0.351 N 
ATOM      4  C   UNL A   1      32.449  20.512  25.489  1.00  0.00     0.283 C 
ATOM      5  O   UNL A   1      32.149  19.402  25.033  1.00  0.00    -0.268 OA
ATOM      6  H   UNL A   1      33.869  19.682  26.608  1.00  0.00     0.163 HD
BRANCH   4   7
ATOM      7  C   UNL A   1      31.548  21.738  25.217  1.00  0.00     0.302 C 
BRANCH   7   8
ATOM      8  N   UNL A   1      31.002  22.207  26.515  1.00  0.00    -0.343 N 
ATOM      9  H   UNL A   1      31.408  21.657  27.272  1.00  0.00     0.345 HD
ATOM     10  H   UNL A   1      29.988  22.095  26.518  1.00  0.00     0.345 HD
ATOM     11  H   UNL A   1      31.236  23.191  26.646  1.00  0.00     0.345 HD
ENDBRANCH   7   8
BRANCH   7  12
ATOM     12  C   UNL A   1      32.100  22.880  24.375  1.00  0.00     0.023 A 
ATOM     13  C   UNL A   1      32.931  22.691  23.259  1.00  0.00     0.011 A 
ATOM     14  C   UNL A   1      31.657  24.189  24.651  1.00  0.00     0.057 A 
ATOM     15  C   UNL A   1      33.409  23.781  22.530  1.00  0.00     0.004 A 
ATOM     16  C   UNL A   1      32.004  25.254  23.821  1.00  0.00     0.120 A 
ATOM     17  C   UNL A   1      32.947  25.063  22.815  1.00  0.00     0.046 A 
BRANCH  16  18
ATOM     18  O   UNL A   1      31.382  26.472  23.796  1.00  0.00    -0.489 OA
BRANCH  18  19
ATOM     19  C   UNL A   1      29.967  26.510  23.563  1.00  0.00     0.265 C 
BRANCH  19  20
ATOM     20  C   UNL A   1      29.286  27.862  23.342  1.00  0.00    -0.011 A 
ATOM     21  C   UNL A   1      30.083  29.020  23.422  1.00  0.00     0.010 A 
ATOM     22  C   UNL A   1      27.903  28.031  23.156  1.00  0.00     0.010 A 
ATOM     23  C   UNL A   1      29.509  30.293  23.367  1.00  0.00     0.039 A 
ATOM     24  C   UNL A   1      27.324  29.302  23.139  1.00  0.00     0.039 A 
ATOM     25  C   UNL A   1      28.131  30.422  23.249  1.00  0.00     0.123 A 
ATOM     26  F   UNL A   1      27.578  31.641  23.242  1.00  0.00    -0.207 F 
ENDBRANCH  19  20
ENDBRANCH  18  19
ENDBRANCH  16  18
ENDBRANCH   7  12
ENDBRANCH   4   7
ENDBRANCH   2   3
ENDBRANCH   1   2
BRANCH   1  27
ATOM     27  C   UNL A   1      36.122  21.214  25.200  1.00  0.00     0.023 C 
BRANCH  27  28
ATOM     28  C   UNL A   1      37.590  21.542  24.952  1.00  0.00     0.116 C 
BRANCH  28  29
ATOM     29  N   UNL A   1      38.500  20.579  25.548  1.00  0.00    -0.352 N 
ATOM     30  C   UNL A   1      39.634  20.777  26.297  1.00  0.00     0.251 C 
ATOM     31  H   UNL A   1      38.266  19.636  25.391  1.00  0.00     0.163 HD
ATOM     32  O   UNL A   1      40.332  19.802  26.580  1.00  0.00    -0.269 OA
BRANCH  30  33
ATOM     33  C   UNL A   1      40.048  22.134  26.729  1.00  0.00     0.039 A 
ATOM     34  C   UNL A   1      41.059  22.247  27.688  1.00  0.00     0.014 A 
ATOM     35  C   UNL A   1      39.445  23.290  26.225  1.00  0.00     0.014 A 
ATOM     36  C   UNL A   1      41.508  23.510  28.084  1.00  0.00     0.010 A 
ATOM     37  C   UNL A   1      39.955  24.549  26.554  1.00  0.00     0.010 A 
ATOM     38  C   UNL A   1      40.992  24.675  27.489  1.00  0.00    -0.014 A 
BRANCH  38  39
ATOM     39  C   UNL A   1      41.545  26.013  27.843  1.00  0.00     0.031 A 
ATOM     40  C   UNL A   1      42.939  26.407  27.428  1.00  0.00     0.074 A 
ATOM     41  C   UNL A   1      40.790  26.873  28.556  1.00  0.00     0.049 A 
ATOM     42  N   UNL A   1      43.575  27.534  27.632  1.00  0.00    -0.248 NA
ATOM     43  C   UNL A   1      43.731  25.394  26.714  1.00  0.00     0.031 C 
ATOM     44  C   UNL A   1      39.447  26.589  29.070  1.00  0.00     0.029 A 
ATOM     45  N   UNL A   1      41.034  28.160  28.970  1.00  0.00    -0.354 N 
ATOM     46  C   UNL A   1      44.834  27.371  27.063  1.00  0.00     0.074 A 
ATOM     47  C   UNL A   1      44.898  26.008  26.580  1.00  0.00     0.031 C 
ATOM     48  C   UNL A   1      38.973  27.680  29.692  1.00  0.00     0.029 A 
ATOM     49  C   UNL A   1      39.989  28.727  29.665  1.00  0.00     0.049 A 
ATOM     50  H   UNL A   1      41.877  28.634  28.785  1.00  0.00     0.167 HD
ATOM     51  C   UNL A   1      45.832  28.280  26.926  1.00  0.00     0.034 A 
ATOM     52  C   UNL A   1      39.862  29.948  30.222  1.00  0.00     0.034 A 
ATOM     53  C   UNL A   1      45.759  29.636  27.419  1.00  0.00     0.049 A 
ATOM     54  C   UNL A   1      40.993  30.935  30.073  1.00  0.00     0.074 A 
ATOM     55  C   UNL A   1      46.701  30.645  27.310  1.00  0.00     0.029 A 
ATOM     56  N   UNL A   1      44.687  30.174  28.119  1.00  0.00    -0.354 N 
ATOM     57  N   UNL A   1      42.154  30.778  29.480  1.00  0.00    -0.248 NA
ATOM     58  C   UNL A   1      40.785  32.269  30.650  1.00  0.00     0.031 C 
ATOM     59  C   UNL A   1      46.230  31.766  28.001  1.00  0.00     0.029 A 
ATOM     60  C   UNL A   1      44.956  31.489  28.470  1.00  0.00     0.049 A 
ATOM     61  H   UNL A   1      43.857  29.690  28.336  1.00  0.00     0.167 HD
ATOM     62  C   UNL A   1      42.804  32.006  29.592  1.00  0.00     0.074 A 
ATOM     63  C   UNL A   1      41.888  32.896  30.277  1.00  0.00     0.031 C 
ATOM     64  C   UNL A   1      44.045  32.365  29.171  1.00  0.00     0.034 A 
BRANCH  51  65
ATOM     65  C   UNL A   1      47.090  27.830  26.219  1.00  0.00     0.023 A 
ATOM     66  C   UNL A   1      47.268  28.028  24.837  1.00  0.00     0.031 A 
ATOM     67  C   UNL A   1      48.120  27.182  26.925  1.00  0.00     0.131 A 
ATOM     68  C   UNL A   1      48.408  27.522  24.195  1.00  0.00     0.055 A 
ATOM     69  C   UNL A   1      49.292  26.757  26.294  1.00  0.00     0.041 A 
ATOM     70  F   UNL A   1      48.003  26.944  28.240  1.00  0.00    -0.206 F 
ATOM     71  C   UNL A   1      49.435  26.913  24.919  1.00  0.00     0.022 A 
BRANCH  68  72
ATOM     72  S   UNL A   1      48.464  27.549  22.382  1.00  0.00     0.124 S 
ATOM     73  O   UNL A   1      49.631  28.392  22.136  1.00  0.00    -0.237 OA
ATOM     74  O   UNL A   1      48.614  26.137  22.049  1.00  0.00    -0.237 OA
ATOM     75  O   UNL A   1      47.183  28.145  22.008  1.00  0.00    -0.744 OA
ENDBRANCH  68  72
ENDBRANCH  51  65
BRANCH  52  76
ATOM     76  C   UNL A   1      38.629  30.310  30.984  1.00  0.00     0.023 A 
ATOM     77  C   UNL A   1      37.573  31.010  30.378  1.00  0.00     0.031 A 
ATOM     78  C   UNL A   1      38.516  30.008  32.353  1.00  0.00     0.131 A 
ATOM     79  C   UNL A   1      36.482  31.437  31.150  1.00  0.00     0.055 A 
ATOM     80  C   UNL A   1      37.398  30.378  33.102  1.00  0.00     0.041 A 
ATOM     81  F   UNL A   1      39.493  29.337  32.984  1.00  0.00    -0.206 F 
ATOM     82  C   UNL A   1      36.379  31.113  32.504  1.00  0.00     0.022 A 
BRANCH  79  83
ATOM     83  S   UNL A   1      35.245  32.521  30.383  1.00  0.00     0.124 S 
ATOM     84  O   UNL A   1      34.858  31.747  29.211  1.00  0.00    -0.237 OA
ATOM     85  O   UNL A   1      34.244  32.631  31.438  1.00  0.00    -0.237 OA
ATOM     86  O   UNL A   1      35.993  33.746  30.105  1.00  0.00    -0.744 OA
ENDBRANCH  79  83
ENDBRANCH  52  76
BRANCH  64  87
ATOM     87  C   UNL A   1      44.459  33.797  29.417  1.00  0.00     0.023 A 
ATOM     88  C   UNL A   1      44.121  34.828  28.522  1.00  0.00     0.031 A 
ATOM     89  C   UNL A   1      45.242  34.129  30.537  1.00  0.00     0.131 A 
ATOM     90  C   UNL A   1      44.637  36.119  28.713  1.00  0.00     0.055 A 
ATOM     91  C   UNL A   1      45.687  35.432  30.765  1.00  0.00     0.041 A 
ATOM     92  F   UNL A   1      45.599  33.188  31.426  1.00  0.00    -0.206 F 
ATOM     93  C   UNL A   1      45.402  36.432  29.839  1.00  0.00     0.022 A 
BRANCH  90  94
ATOM     94  S   UNL A   1      44.408  37.349  27.400  1.00  0.00     0.124 S 
ATOM     95  O   UNL A   1      43.292  36.783  26.647  1.00  0.00    -0.237 OA
ATOM     96  O   UNL A   1      44.116  38.562  28.156  1.00  0.00    -0.237 OA
ATOM     97  O   UNL A   1      45.691  37.347  26.700  1.00  0.00    -0.744 OA
ENDBRANCH  90  94
ENDBRANCH  64  87
ENDBRANCH  38  39
ENDBRANCH  30  33
ENDBRANCH  28  29
ENDBRANCH  27  28
ENDBRANCH   1  27
TORSDOF 19
ENDMDL
MODEL 3
REMARK VINA RESULT:     -11.9      1.636      1.945
REMARK SMILES [NH3+][C@H](C(=O)NCCCCNC(=O)c1ccc(-c2c3nc(c(-c4cc(S(=O)(=O)[O-])ccc4F)c4ccc([nH]4)c(-c4cc(S(=O)(=O)[O-])ccc4F)c4nc(c(-c5cc(S(=O)(=O)[O-])ccc5F)c5ccc2[nH]5)C=C4)C=C3)cc1)c1cccc(OCc2ccc(F)cc2)c1
REMARK SMILES IDX 7 1 6 2 5 3 3 4 4 5 2 7 1 8 76 12 77 13 90 14 78 15 80 16
REMARK SMILES IDX 79 17 81 18 82 19 83 20 84 21 89 22 85 23 88 24 86 25 87 26
REMARK SMILES IDX 8 27 9 28 10 29 11 30 12 32 13 33 14 34 75 35 15 36 74 37
REMARK SMILES IDX 16 38 17 39 18 40 68 41 19 42 73 43 67 44 69 45 20 46 72 47
REMARK SMILES IDX 66 48 65 49 21 51 53 52 33 53 52 54 34 55 37 56 51 57 70 58
REMARK SMILES IDX 35 59 36 60 50 62 71 63 38 64 22 65 23 66 31 67 24 68 30 69
REMARK SMILES IDX 32 70 29 71 25 72 26 73 27 74 28 75 54 76 55 77 63 78 56 79
REMARK SMILES IDX 62 80 64 81 61 82 57 83 58 84 59 85 60 86 39 87 40 88 48 89
REMARK SMILES IDX 41 90 47 91 49 92 46 93 42 94 43 95 44 96 45 97
REMARK H PARENT 5 6 1 9 1 10 1 11 10 31 69 50 37 61
REMARK Flexibility Score: inf
ROOT
ATOM      1  C   UNL A   1      31.749  30.454  26.515  1.00  0.00     0.023 C 
ENDROOT
BRANCH   1   2
ATOM      2  C   UNL A   1      31.460  30.058  25.075  1.00  0.00     0.116 C 
BRANCH   2   3
ATOM      3  N   UNL A   1      30.330  30.754  24.486  1.00  0.00    -0.351 N 
ATOM      4  C   UNL A   1      29.538  30.428  23.422  1.00  0.00     0.283 C 
ATOM      5  O   UNL A   1      28.533  31.125  23.241  1.00  0.00    -0.268 OA
ATOM      6  H   UNL A   1      30.096  31.602  24.927  1.00  0.00     0.163 HD
BRANCH   4   7
ATOM      7  C   UNL A   1      29.933  29.344  22.393  1.00  0.00     0.302 C 
BRANCH   7   8
ATOM      8  N   UNL A   1      31.104  29.838  21.628  1.00  0.00    -0.343 N 
ATOM      9  H   UNL A   1      31.166  29.339  20.741  1.00  0.00     0.345 HD
ATOM     10  H   UNL A   1      31.955  29.679  22.168  1.00  0.00     0.345 HD
ATOM     11  H   UNL A   1      30.997  30.837  21.450  1.00  0.00     0.345 HD
ENDBRANCH   7   8
BRANCH   7  12
ATOM     12  C   UNL A   1      30.119  27.912  22.875  1.00  0.00     0.023 A 
ATOM     13  C   UNL A   1      29.161  27.215  23.628  1.00  0.00     0.011 A 
ATOM     14  C   UNL A   1      31.256  27.203  22.438  1.00  0.00     0.057 A 
ATOM     15  C   UNL A   1      29.393  25.902  24.042  1.00  0.00     0.004 A 
ATOM     16  C   UNL A   1      31.405  25.844  22.716  1.00  0.00     0.120 A 
ATOM     17  C   UNL A   1      30.518  25.220  23.589  1.00  0.00     0.046 A 
BRANCH  16  18
ATOM     18  O   UNL A   1      32.274  24.999  22.082  1.00  0.00    -0.489 OA
BRANCH  18  19
ATOM     19  C   UNL A   1      33.341  24.420  22.845  1.00  0.00     0.265 C 
BRANCH  19  20
ATOM     20  C   UNL A   1      33.282  22.932  23.194  1.00  0.00    -0.011 A 
ATOM     21  C   UNL A   1      32.324  22.139  22.535  1.00  0.00     0.010 A 
ATOM     22  C   UNL A   1      34.059  22.323  24.195  1.00  0.00     0.010 A 
ATOM     23  C   UNL A   1      32.120  20.805  22.899  1.00  0.00     0.039 A 
ATOM     24  C   UNL A   1      33.830  21.001  24.586  1.00  0.00     0.039 A 
ATOM     25  C   UNL A   1      32.860  20.255  23.938  1.00  0.00     0.123 A 
ATOM     26  F   UNL A   1      32.633  18.991  24.316  1.00  0.00    -0.207 F 
ENDBRANCH  19  20
ENDBRANCH  18  19
ENDBRANCH  16  18
ENDBRANCH   7  12
ENDBRANCH   4   7
ENDBRANCH   2   3
ENDBRANCH   1   2
BRANCH   1  27
ATOM     27  C   UNL A   1      31.566  31.930  26.852  1.00  0.00     0.023 C 
BRANCH  27  28
ATOM     28  C   UNL A   1      32.833  32.698  27.210  1.00  0.00     0.116 C 
BRANCH  28  29
ATOM     29  N   UNL A   1      32.572  34.056  27.656  1.00  0.00    -0.352 N 
ATOM     30  C   UNL A   1      33.152  34.784  28.666  1.00  0.00     0.251 C 
ATOM     31  H   UNL A   1      31.870  34.529  27.154  1.00  0.00     0.163 HD
ATOM     32  O   UNL A   1      32.668  35.879  28.957  1.00  0.00    -0.269 OA
BRANCH  30  33
ATOM     33  C   UNL A   1      34.311  34.261  29.429  1.00  0.00     0.039 A 
ATOM     34  C   UNL A   1      34.065  33.508  30.580  1.00  0.00     0.014 A 
ATOM     35  C   UNL A   1      35.630  34.516  29.043  1.00  0.00     0.014 A 
ATOM     36  C   UNL A   1      35.131  32.958  31.297  1.00  0.00     0.010 A 
ATOM     37  C   UNL A   1      36.690  33.893  29.707  1.00  0.00     0.010 A 
ATOM     38  C   UNL A   1      36.454  33.107  30.844  1.00  0.00    -0.014 A 
BRANCH  38  39
ATOM     39  C   UNL A   1      37.577  32.435  31.557  1.00  0.00     0.031 A 
ATOM     40  C   UNL A   1      38.319  31.288  30.922  1.00  0.00     0.074 A 
ATOM     41  C   UNL A   1      37.922  32.854  32.792  1.00  0.00     0.049 A 
ATOM     42  N   UNL A   1      39.331  30.599  31.387  1.00  0.00    -0.248 NA
ATOM     43  C   UNL A   1      37.845  30.838  29.605  1.00  0.00     0.031 C 
ATOM     44  C   UNL A   1      37.243  33.916  33.541  1.00  0.00     0.029 A 
ATOM     45  N   UNL A   1      38.926  32.449  33.635  1.00  0.00    -0.354 N 
ATOM     46  C   UNL A   1      39.622  29.645  30.418  1.00  0.00     0.074 A 
ATOM     47  C   UNL A   1      38.626  29.793  29.377  1.00  0.00     0.031 C 
ATOM     48  C   UNL A   1      37.874  34.103  34.711  1.00  0.00     0.029 A 
ATOM     49  C   UNL A   1      38.973  33.148  34.821  1.00  0.00     0.049 A 
ATOM     50  H   UNL A   1      39.556  31.725  33.413  1.00  0.00     0.167 HD
ATOM     51  C   UNL A   1      40.643  28.751  30.380  1.00  0.00     0.034 A 
ATOM     52  C   UNL A   1      39.801  33.035  35.878  1.00  0.00     0.034 A 
ATOM     53  C   UNL A   1      41.627  28.608  31.428  1.00  0.00     0.049 A 
ATOM     54  C   UNL A   1      40.916  32.021  35.821  1.00  0.00     0.074 A 
ATOM     55  C   UNL A   1      42.715  27.753  31.478  1.00  0.00     0.029 A 
ATOM     56  N   UNL A   1      41.641  29.333  32.613  1.00  0.00    -0.354 N 
ATOM     57  N   UNL A   1      41.209  31.166  34.868  1.00  0.00    -0.248 NA
ATOM     58  C   UNL A   1      41.824  31.972  36.974  1.00  0.00     0.031 C 
ATOM     59  C   UNL A   1      43.344  27.912  32.717  1.00  0.00     0.029 A 
ATOM     60  C   UNL A   1      42.702  28.926  33.409  1.00  0.00     0.049 A 
ATOM     61  H   UNL A   1      40.991  30.032  32.853  1.00  0.00     0.167 HD
ATOM     62  C   UNL A   1      42.352  30.496  35.298  1.00  0.00     0.074 A 
ATOM     63  C   UNL A   1      42.711  31.074  36.578  1.00  0.00     0.031 C 
ATOM     64  C   UNL A   1      43.042  29.493  34.694  1.00  0.00     0.034 A 
BRANCH  51  65
ATOM     65  C   UNL A   1      40.737  27.855  29.166  1.00  0.00     0.023 A 
ATOM     66  C   UNL A   1      41.644  28.123  28.124  1.00  0.00     0.031 A 
ATOM     67  C   UNL A   1      39.906  26.728  29.037  1.00  0.00     0.131 A 
ATOM     68  C   UNL A   1      41.647  27.322  26.972  1.00  0.00     0.055 A 
ATOM     69  C   UNL A   1      39.975  25.884  27.925  1.00  0.00     0.041 A 
ATOM     70  F   UNL A   1      39.006  26.429  29.986  1.00  0.00    -0.206 F 
ATOM     71  C   UNL A   1      40.839  26.187  26.877  1.00  0.00     0.022 A 
BRANCH  68  72
ATOM     72  S   UNL A   1      42.623  27.866  25.542  1.00  0.00     0.124 S 
ATOM     73  O   UNL A   1      42.649  26.655  24.726  1.00  0.00    -0.237 OA
ATOM     74  O   UNL A   1      41.829  28.972  25.019  1.00  0.00    -0.237 OA
ATOM     75  O   UNL A   1      43.908  28.242  26.127  1.00  0.00    -0.744 OA
ENDBRANCH  68  72
ENDBRANCH  51  65
BRANCH  52  76
ATOM     76  C   UNL A   1      39.609  33.888  37.088  1.00  0.00     0.023 A 
ATOM     77  C   UNL A   1      38.991  33.388  38.247  1.00  0.00     0.031 A 
ATOM     78  C   UNL A   1      39.991  35.242  37.081  1.00  0.00     0.131 A 
ATOM     79  C   UNL A   1      38.720  34.248  39.323  1.00  0.00     0.055 A 
ATOM     80  C   UNL A   1      39.777  36.077  38.179  1.00  0.00     0.041 A 
ATOM     81  F   UNL A   1      40.588  35.774  36.002  1.00  0.00    -0.206 F 
ATOM     82  C   UNL A   1      39.123  35.585  39.303  1.00  0.00     0.022 A 
BRANCH  79  83
ATOM     83  S   UNL A   1      37.733  33.619  40.710  1.00  0.00     0.124 S 
ATOM     84  O   UNL A   1      38.682  32.736  41.374  1.00  0.00    -0.237 OA
ATOM     85  O   UNL A   1      37.393  34.848  41.419  1.00  0.00    -0.237 OA
ATOM     86  O   UNL A   1      36.611  32.951  40.052  1.00  0.00    -0.744 OA
ENDBRANCH  79  83
ENDBRANCH  52  76
BRANCH  64  87
ATOM     87  C   UNL A   1      44.274  28.988  35.408  1.00  0.00     0.023 A 
ATOM     88  C   UNL A   1      44.196  28.006  36.412  1.00  0.00     0.031 A 
ATOM     89  C   UNL A   1      45.539  29.528  35.113  1.00  0.00     0.131 A 
ATOM     90  C   UNL A   1      45.342  27.660  37.144  1.00  0.00     0.055 A 
ATOM     91  C   UNL A   1      46.689  29.122  35.791  1.00  0.00     0.041 A 
ATOM     92  F   UNL A   1      45.677  30.470  34.166  1.00  0.00    -0.206 F 
ATOM     93  C   UNL A   1      46.592  28.198  36.828  1.00  0.00     0.022 A 
BRANCH  90  94
ATOM     94  S   UNL A   1      45.153  26.600  38.604  1.00  0.00     0.124 S 
ATOM     95  O   UNL A   1      45.820  25.374  38.176  1.00  0.00    -0.237 OA
ATOM     96  O   UNL A   1      45.835  27.369  39.638  1.00  0.00    -0.237 OA
ATOM     97  O   UNL A   1      43.704  26.493  38.765  1.00  0.00    -0.744 OA
ENDBRANCH  90  94
ENDBRANCH  64  87
ENDBRANCH  38  39
ENDBRANCH  30  33
ENDBRANCH  28  29
ENDBRANCH  27  28
ENDBRANCH   1  27
TORSDOF 19
ENDMDL
