MODEL 1
REMARK VINA RESULT:     -12.0      0.000      0.000
REMARK SMILES COc1ccc(-c2ccc([C@H](C)[NH+]3CCOCC3)cc2)c(C(=O)NCCCCNC(=O)c2ccc(-c3c4nc(c(-c5cc(S(=O)(=O)[O-])ccc5F)c5ccc([nH]5)c(-c5cc(S(=O)(=O)[O-])ccc5F)c5nc(c(-c6cc(S(=O)(=O)[O-])ccc6F)c6ccc3[nH]6)C=C5)C=C4)cc2)c1
REMARK SMILES IDX 26 1 25 2 24 3 22 4 23 5 21 7 3 8 4 9 95 10 5 11 6 12 2 13
REMARK SMILES IDX 1 14 7 15 8 16 20 17 9 18 19 19 10 20 11 21 12 22 13 23
REMARK SMILES IDX 14 24 18 25 15 27 17 28 16 29 27 30 28 31 29 32 30 33 31 35
REMARK SMILES IDX 32 36 33 37 94 38 34 39 93 40 35 41 36 42 37 43 87 44 38 45
REMARK SMILES IDX 92 46 86 47 88 48 39 49 91 50 85 51 84 52 40 54 72 55 52 56
REMARK SMILES IDX 71 57 53 58 56 59 70 60 89 61 54 62 55 63 69 65 90 66 57 67
REMARK SMILES IDX 41 68 42 69 50 70 43 71 49 72 51 73 48 74 44 75 45 76 46 77
REMARK SMILES IDX 47 78 73 79 74 80 82 81 75 82 81 83 83 84 80 85 76 86 77 87
REMARK SMILES IDX 78 88 79 89 58 90 59 91 67 92 60 93 66 94 68 95 65 96 61 97
REMARK SMILES IDX 62 98 63 99 64 100
REMARK H PARENT 24 6 13 26 29 34 88 53 56 64
REMARK Flexibility Score: inf
ROOT
ATOM      1  C   UNL A   1      36.830  19.915  24.936  1.00  0.00     0.023 C 
ENDROOT
BRANCH   1   2
ATOM      2  C   UNL A   1      36.422  21.371  25.131  1.00  0.00     0.116 C 
BRANCH   2   3
ATOM      3  N   UNL A   1      35.477  21.623  26.207  1.00  0.00    -0.352 N 
ATOM      4  C   UNL A   1      34.158  21.232  26.362  1.00  0.00     0.252 C 
ATOM      5  O   UNL A   1      33.617  21.430  27.446  1.00  0.00    -0.269 OA
ATOM      6  H   UNL A   1      35.835  22.161  26.949  1.00  0.00     0.163 HD
BRANCH   4   7
ATOM      7  C   UNL A   1      33.401  20.606  25.236  1.00  0.00     0.051 A 
ATOM      8  C   UNL A   1      32.724  18.542  24.123  1.00  0.00     0.119 A 
ATOM      9  C   UNL A   1      32.234  19.287  23.058  1.00  0.00     0.047 A 
ATOM     10  C   UNL A   1      33.247  19.207  25.230  1.00  0.00     0.060 A 
ATOM     11  C   UNL A   1      32.259  20.682  23.107  1.00  0.00     0.013 A 
ATOM     12  C   UNL A   1      32.823  21.376  24.200  1.00  0.00    -0.005 A 
BRANCH   8  13
ATOM     13  O   UNL A   1      32.643  17.186  23.976  1.00  0.00    -0.497 OA
ATOM     14  C   UNL A   1      32.997  16.406  25.115  1.00  0.00     0.278 C 
ENDBRANCH   8  13
BRANCH  12  15
ATOM     15  C   UNL A   1      32.705  22.848  24.197  1.00  0.00    -0.018 A 
ATOM     16  C   UNL A   1      31.522  23.451  24.659  1.00  0.00     0.009 A 
ATOM     17  C   UNL A   1      33.715  23.684  23.711  1.00  0.00     0.009 A 
ATOM     18  C   UNL A   1      31.346  24.838  24.621  1.00  0.00     0.010 A 
ATOM     19  C   UNL A   1      33.547  25.078  23.687  1.00  0.00     0.010 A 
ATOM     20  C   UNL A   1      32.354  25.678  24.128  1.00  0.00     0.009 A 
BRANCH  20  21
ATOM     21  C   UNL A   1      32.117  27.193  24.111  1.00  0.00     0.212 C 
ATOM     22  C   UNL A   1      32.004  27.775  22.693  1.00  0.00     0.081 C 
BRANCH  21  23
ATOM     23  N   UNL A   1      32.970  27.931  25.069  1.00  0.00    -0.325 N 
ATOM     24  C   UNL A   1      32.887  27.486  26.472  1.00  0.00     0.291 C 
ATOM     25  C   UNL A   1      32.933  29.405  25.020  1.00  0.00     0.291 C 
ATOM     26  H   UNL A   1      33.878  27.655  24.696  1.00  0.00     0.348 HD
ATOM     27  C   UNL A   1      31.813  28.196  27.322  1.00  0.00     0.221 C 
ATOM     28  C   UNL A   1      31.824  30.045  25.863  1.00  0.00     0.221 C 
ATOM     29  O   UNL A   1      31.912  29.619  27.230  1.00  0.00    -0.370 OA
ENDBRANCH  21  23
ENDBRANCH  20  21
ENDBRANCH  12  15
ENDBRANCH   4   7
ENDBRANCH   2   3
ENDBRANCH   1   2
BRANCH   1  30
ATOM     30  C   UNL A   1      38.318  19.620  24.785  1.00  0.00     0.023 C 
BRANCH  30  31
ATOM     31  C   UNL A   1      39.147  19.586  26.063  1.00  0.00     0.116 C 
BRANCH  31  32
ATOM     32  N   UNL A   1      40.441  18.938  25.915  1.00  0.00    -0.352 N 
ATOM     33  C   UNL A   1      41.712  19.453  26.052  1.00  0.00     0.251 C 
ATOM     34  H   UNL A   1      40.402  17.983  25.680  1.00  0.00     0.163 HD
ATOM     35  O   UNL A   1      42.677  18.735  25.816  1.00  0.00    -0.269 OA
BRANCH  33  36
ATOM     36  C   UNL A   1      41.913  20.873  26.427  1.00  0.00     0.039 A 
ATOM     37  C   UNL A   1      42.275  21.174  27.744  1.00  0.00     0.014 A 
ATOM     38  C   UNL A   1      41.772  21.902  25.494  1.00  0.00     0.014 A 
ATOM     39  C   UNL A   1      42.592  22.491  28.096  1.00  0.00     0.010 A 
ATOM     40  C   UNL A   1      42.166  23.198  25.824  1.00  0.00     0.010 A 
ATOM     41  C   UNL A   1      42.592  23.505  27.125  1.00  0.00    -0.014 A 
BRANCH  41  42
ATOM     42  C   UNL A   1      43.046  24.886  27.445  1.00  0.00     0.031 A 
ATOM     43  C   UNL A   1      42.101  25.862  28.092  1.00  0.00     0.074 A 
ATOM     44  C   UNL A   1      44.280  25.287  27.076  1.00  0.00     0.049 A 
ATOM     45  N   UNL A   1      42.271  27.133  28.352  1.00  0.00    -0.248 NA
ATOM     46  C   UNL A   1      40.776  25.344  28.462  1.00  0.00     0.031 C 
ATOM     47  C   UNL A   1      45.272  24.451  26.396  1.00  0.00     0.029 A 
ATOM     48  N   UNL A   1      44.907  26.501  27.205  1.00  0.00    -0.354 N 
ATOM     49  C   UNL A   1      41.070  27.573  28.900  1.00  0.00     0.074 A 
ATOM     50  C   UNL A   1      40.164  26.443  28.874  1.00  0.00     0.031 C 
ATOM     51  C   UNL A   1      46.385  25.172  26.183  1.00  0.00     0.029 A 
ATOM     52  C   UNL A   1      46.175  26.532  26.670  1.00  0.00     0.049 A 
ATOM     53  H   UNL A   1      44.489  27.279  27.641  1.00  0.00     0.167 HD
ATOM     54  C   UNL A   1      40.759  28.795  29.399  1.00  0.00     0.034 A 
ATOM     55  C   UNL A   1      47.061  27.542  26.567  1.00  0.00     0.034 A 
ATOM     56  C   UNL A   1      41.679  29.906  29.431  1.00  0.00     0.049 A 
ATOM     57  C   UNL A   1      46.694  28.894  27.123  1.00  0.00     0.074 A 
ATOM     58  C   UNL A   1      41.490  31.169  29.967  1.00  0.00     0.029 A 
ATOM     59  N   UNL A   1      42.964  29.893  28.900  1.00  0.00    -0.354 N 
ATOM     60  N   UNL A   1      45.572  29.278  27.688  1.00  0.00    -0.248 NA
ATOM     61  C   UNL A   1      47.717  29.945  27.039  1.00  0.00     0.031 C 
ATOM     62  C   UNL A   1      42.631  31.934  29.704  1.00  0.00     0.029 A 
ATOM     63  C   UNL A   1      43.565  31.130  29.070  1.00  0.00     0.049 A 
ATOM     64  H   UNL A   1      43.385  29.116  28.465  1.00  0.00     0.167 HD
ATOM     65  C   UNL A   1      45.767  30.608  28.050  1.00  0.00     0.074 A 
ATOM     66  C   UNL A   1      47.117  30.953  27.654  1.00  0.00     0.031 C 
ATOM     67  C   UNL A   1      44.909  31.465  28.660  1.00  0.00     0.034 A 
BRANCH  54  68
ATOM     68  C   UNL A   1      39.357  28.990  29.928  1.00  0.00     0.023 A 
ATOM     69  C   UNL A   1      38.349  29.578  29.144  1.00  0.00     0.031 A 
ATOM     70  C   UNL A   1      39.032  28.621  31.245  1.00  0.00     0.131 A 
ATOM     71  C   UNL A   1      37.096  29.862  29.709  1.00  0.00     0.055 A 
ATOM     72  C   UNL A   1      37.757  28.828  31.774  1.00  0.00     0.041 A 
ATOM     73  F   UNL A   1      39.956  28.072  32.050  1.00  0.00    -0.206 F 
ATOM     74  C   UNL A   1      36.784  29.469  31.011  1.00  0.00     0.022 A 
BRANCH  71  75
ATOM     75  S   UNL A   1      35.939  30.896  28.768  1.00  0.00     0.124 S 
ATOM     76  O   UNL A   1      36.854  31.750  28.016  1.00  0.00    -0.237 OA
ATOM     77  O   UNL A   1      35.198  29.911  27.989  1.00  0.00    -0.237 OA
ATOM     78  O   UNL A   1      35.170  31.580  29.805  1.00  0.00    -0.744 OA
ENDBRANCH  71  75
ENDBRANCH  54  68
BRANCH  55  79
ATOM     79  C   UNL A   1      48.378  27.324  25.904  1.00  0.00     0.023 A 
ATOM     80  C   UNL A   1      48.535  27.512  24.522  1.00  0.00     0.031 A 
ATOM     81  C   UNL A   1      49.495  26.890  26.640  1.00  0.00     0.131 A 
ATOM     82  C   UNL A   1      49.764  27.225  23.910  1.00  0.00     0.055 A 
ATOM     83  C   UNL A   1      50.731  26.653  26.036  1.00  0.00     0.041 A 
ATOM     84  F   UNL A   1      49.403  26.702  27.966  1.00  0.00    -0.206 F 
ATOM     85  C   UNL A   1      50.867  26.807  24.660  1.00  0.00     0.022 A 
BRANCH  82  86
ATOM     86  S   UNL A   1      49.884  27.333  22.103  1.00  0.00     0.124 S 
ATOM     87  O   UNL A   1      51.261  26.915  21.871  1.00  0.00    -0.237 OA
ATOM     88  O   UNL A   1      48.848  26.398  21.676  1.00  0.00    -0.237 OA
ATOM     89  O   UNL A   1      49.603  28.740  21.827  1.00  0.00    -0.744 OA
ENDBRANCH  82  86
ENDBRANCH  55  79
BRANCH  67  90
ATOM     90  C   UNL A   1      45.429  32.846  28.973  1.00  0.00     0.023 A 
ATOM     91  C   UNL A   1      45.491  33.855  27.997  1.00  0.00     0.031 A 
ATOM     92  C   UNL A   1      45.882  33.151  30.269  1.00  0.00     0.131 A 
ATOM     93  C   UNL A   1      46.043  35.104  28.316  1.00  0.00     0.055 A 
ATOM     94  C   UNL A   1      46.377  34.414  30.597  1.00  0.00     0.041 A 
ATOM     95  F   UNL A   1      45.848  32.225  31.241  1.00  0.00    -0.206 F 
ATOM     96  C   UNL A   1      46.472  35.395  29.614  1.00  0.00     0.022 A 
BRANCH  93  97
ATOM     97  S   UNL A   1      46.275  36.320  26.991  1.00  0.00     0.124 S 
ATOM     98  O   UNL A   1      45.194  37.265  27.252  1.00  0.00    -0.237 OA
ATOM     99  O   UNL A   1      47.625  36.809  27.248  1.00  0.00    -0.237 OA
ATOM    100  O   UNL A   1      46.125  35.530  25.770  1.00  0.00    -0.744 OA
ENDBRANCH  93  97
ENDBRANCH  67  90
ENDBRANCH  41  42
ENDBRANCH  33  36
ENDBRANCH  31  32
ENDBRANCH  30  31
ENDBRANCH   1  30
TORSDOF 18
ENDMDL
MODEL 2
REMARK VINA RESULT:     -11.9      5.297     10.784
REMARK SMILES COc1ccc(-c2ccc([C@H](C)[NH+]3CCOCC3)cc2)c(C(=O)NCCCCNC(=O)c2ccc(-c3c4nc(c(-c5cc(S(=O)(=O)[O-])ccc5F)c5ccc([nH]5)c(-c5cc(S(=O)(=O)[O-])ccc5F)c5nc(c(-c6cc(S(=O)(=O)[O-])ccc6F)c6ccc3[nH]6)C=C5)C=C4)cc2)c1
REMARK SMILES IDX 26 1 25 2 24 3 22 4 23 5 21 7 3 8 4 9 95 10 5 11 6 12 2 13
REMARK SMILES IDX 1 14 7 15 8 16 20 17 9 18 19 19 10 20 11 21 12 22 13 23
REMARK SMILES IDX 14 24 18 25 15 27 17 28 16 29 27 30 28 31 29 32 30 33 31 35
REMARK SMILES IDX 32 36 33 37 94 38 34 39 93 40 35 41 36 42 37 43 87 44 38 45
REMARK SMILES IDX 92 46 86 47 88 48 39 49 91 50 85 51 84 52 40 54 72 55 52 56
REMARK SMILES IDX 71 57 53 58 56 59 70 60 89 61 54 62 55 63 69 65 90 66 57 67
REMARK SMILES IDX 41 68 42 69 50 70 43 71 49 72 51 73 48 74 44 75 45 76 46 77
REMARK SMILES IDX 47 78 73 79 74 80 82 81 75 82 81 83 83 84 80 85 76 86 77 87
REMARK SMILES IDX 78 88 79 89 58 90 59 91 67 92 60 93 66 94 68 95 65 96 61 97
REMARK SMILES IDX 62 98 63 99 64 100
REMARK H PARENT 24 6 13 26 29 34 88 53 56 64
REMARK Flexibility Score: inf
ROOT
ATOM      1  C   UNL A   1      33.649  28.327  24.627  1.00  0.00     0.023 C 
ENDROOT
BRANCH   1   2
ATOM      2  C   UNL A   1      33.945  28.490  23.141  1.00  0.00     0.116 C 
BRANCH   2   3
ATOM      3  N   UNL A   1      34.058  27.256  22.381  1.00  0.00    -0.352 N 
ATOM      4  C   UNL A   1      33.104  26.310  22.046  1.00  0.00     0.252 C 
ATOM      5  O   UNL A   1      33.414  25.430  21.247  1.00  0.00    -0.269 OA
ATOM      6  H   UNL A   1      34.964  27.060  22.048  1.00  0.00     0.163 HD
BRANCH   4   7
ATOM      7  C   UNL A   1      31.741  26.339  22.655  1.00  0.00     0.051 A 
ATOM      8  C   UNL A   1      29.639  27.555  22.908  1.00  0.00     0.119 A 
ATOM      9  C   UNL A   1      29.255  26.666  23.904  1.00  0.00     0.047 A 
ATOM     10  C   UNL A   1      30.849  27.350  22.249  1.00  0.00     0.060 A 
ATOM     11  C   UNL A   1      30.070  25.579  24.227  1.00  0.00     0.013 A 
ATOM     12  C   UNL A   1      31.319  25.377  23.601  1.00  0.00    -0.005 A 
BRANCH   8  13
ATOM     13  O   UNL A   1      28.764  28.576  22.666  1.00  0.00    -0.497 OA
ATOM     14  C   UNL A   1      29.342  29.855  22.415  1.00  0.00     0.278 C 
ENDBRANCH   8  13
BRANCH  12  15
ATOM     15  C   UNL A   1      32.052  24.142  23.944  1.00  0.00    -0.018 A 
ATOM     16  C   UNL A   1      31.839  22.975  23.188  1.00  0.00     0.009 A 
ATOM     17  C   UNL A   1      32.934  24.063  25.026  1.00  0.00     0.009 A 
ATOM     18  C   UNL A   1      32.469  21.769  23.513  1.00  0.00     0.010 A 
ATOM     19  C   UNL A   1      33.581  22.858  25.344  1.00  0.00     0.010 A 
ATOM     20  C   UNL A   1      33.348  21.687  24.602  1.00  0.00     0.009 A 
BRANCH  20  21
ATOM     21  C   UNL A   1      34.019  20.344  24.915  1.00  0.00     0.212 C 
ATOM     22  C   UNL A   1      35.553  20.396  24.833  1.00  0.00     0.081 C 
BRANCH  21  23
ATOM     23  N   UNL A   1      33.355  19.192  24.265  1.00  0.00    -0.325 N 
ATOM     24  C   UNL A   1      32.252  18.577  25.027  1.00  0.00     0.291 C 
ATOM     25  C   UNL A   1      34.218  18.132  23.711  1.00  0.00     0.291 C 
ATOM     26  H   UNL A   1      32.959  19.686  23.466  1.00  0.00     0.348 HD
ATOM     27  C   UNL A   1      32.670  17.435  25.977  1.00  0.00     0.221 C 
ATOM     28  C   UNL A   1      34.619  17.045  24.714  1.00  0.00     0.221 C 
ATOM     29  O   UNL A   1      33.460  16.447  25.310  1.00  0.00    -0.370 OA
ENDBRANCH  21  23
ENDBRANCH  20  21
ENDBRANCH  12  15
ENDBRANCH   4   7
ENDBRANCH   2   3
ENDBRANCH   1   2
BRANCH   1  30
ATOM     30  C   UNL A   1      32.325  28.880  25.141  1.00  0.00     0.023 C 
BRANCH  30  31
ATOM     31  C   UNL A   1      32.303  29.385  26.579  1.00  0.00     0.116 C 
BRANCH  31  32
ATOM     32  N   UNL A   1      32.164  30.828  26.700  1.00  0.00    -0.352 N 
ATOM     33  C   UNL A   1      33.035  31.764  27.216  1.00  0.00     0.251 C 
ATOM     34  H   UNL A   1      31.315  31.193  26.360  1.00  0.00     0.163 HD
ATOM     35  O   UNL A   1      32.684  32.937  27.279  1.00  0.00    -0.269 OA
BRANCH  33  36
ATOM     36  C   UNL A   1      34.359  31.351  27.740  1.00  0.00     0.039 A 
ATOM     37  C   UNL A   1      35.349  32.326  27.903  1.00  0.00     0.014 A 
ATOM     38  C   UNL A   1      34.624  30.027  28.093  1.00  0.00     0.014 A 
ATOM     39  C   UNL A   1      36.563  31.991  28.511  1.00  0.00     0.010 A 
ATOM     40  C   UNL A   1      35.801  29.712  28.772  1.00  0.00     0.010 A 
ATOM     41  C   UNL A   1      36.778  30.692  28.999  1.00  0.00    -0.014 A 
BRANCH  41  42
ATOM     42  C   UNL A   1      38.009  30.343  29.760  1.00  0.00     0.031 A 
ATOM     43  C   UNL A   1      38.996  29.359  29.192  1.00  0.00     0.074 A 
ATOM     44  C   UNL A   1      38.195  30.845  30.998  1.00  0.00     0.049 A 
ATOM     45  N   UNL A   1      40.067  28.847  29.743  1.00  0.00    -0.248 NA
ATOM     46  C   UNL A   1      38.718  28.860  27.838  1.00  0.00     0.031 C 
ATOM     47  C   UNL A   1      37.286  31.768  31.681  1.00  0.00     0.029 A 
ATOM     48  N   UNL A   1      39.201  30.640  31.910  1.00  0.00    -0.354 N 
ATOM     49  C   UNL A   1      40.582  27.951  28.810  1.00  0.00     0.074 A 
ATOM     50  C   UNL A   1      39.667  27.949  27.688  1.00  0.00     0.031 C 
ATOM     51  C   UNL A   1      37.783  32.060  32.894  1.00  0.00     0.029 A 
ATOM     52  C   UNL A   1      39.022  31.315  33.096  1.00  0.00     0.049 A 
ATOM     53  H   UNL A   1      39.978  30.063  31.732  1.00  0.00     0.167 HD
ATOM     54  C   UNL A   1      41.722  27.219  28.874  1.00  0.00     0.034 A 
ATOM     55  C   UNL A   1      39.760  31.322  34.223  1.00  0.00     0.034 A 
ATOM     56  C   UNL A   1      42.631  27.244  29.994  1.00  0.00     0.049 A 
ATOM     57  C   UNL A   1      41.020  30.496  34.275  1.00  0.00     0.074 A 
ATOM     58  C   UNL A   1      43.842  26.589  30.138  1.00  0.00     0.029 A 
ATOM     59  N   UNL A   1      42.427  27.959  31.169  1.00  0.00    -0.354 N 
ATOM     60  N   UNL A   1      41.521  29.697  33.362  1.00  0.00    -0.248 NA
ATOM     61  C   UNL A   1      41.820  30.584  35.504  1.00  0.00     0.031 C 
ATOM     62  C   UNL A   1      44.338  26.857  31.419  1.00  0.00     0.029 A 
ATOM     63  C   UNL A   1      43.474  27.738  32.050  1.00  0.00     0.049 A 
ATOM     64  H   UNL A   1      41.651  28.537  31.349  1.00  0.00     0.167 HD
ATOM     65  C   UNL A   1      42.709  29.208  33.898  1.00  0.00     0.074 A 
ATOM     66  C   UNL A   1      42.856  29.815  35.205  1.00  0.00     0.031 C 
ATOM     67  C   UNL A   1      43.602  28.341  33.357  1.00  0.00     0.034 A 
BRANCH  54  68
ATOM     68  C   UNL A   1      42.028  26.315  27.702  1.00  0.00     0.023 A 
ATOM     69  C   UNL A   1      41.601  24.976  27.673  1.00  0.00     0.031 A 
ATOM     70  C   UNL A   1      42.792  26.783  26.618  1.00  0.00     0.131 A 
ATOM     71  C   UNL A   1      42.013  24.129  26.633  1.00  0.00     0.055 A 
ATOM     72  C   UNL A   1      43.126  25.958  25.542  1.00  0.00     0.041 A 
ATOM     73  F   UNL A   1      43.245  28.046  26.595  1.00  0.00    -0.206 F 
ATOM     74  C   UNL A   1      42.752  24.617  25.554  1.00  0.00     0.022 A 
BRANCH  71  75
ATOM     75  S   UNL A   1      41.704  22.349  26.794  1.00  0.00     0.124 S 
ATOM     76  O   UNL A   1      40.299  22.329  27.192  1.00  0.00    -0.237 OA
ATOM     77  O   UNL A   1      41.996  21.855  25.455  1.00  0.00    -0.237 OA
ATOM     78  O   UNL A   1      42.644  21.931  27.833  1.00  0.00    -0.744 OA
ENDBRANCH  71  75
ENDBRANCH  54  68
BRANCH  55  79
ATOM     79  C   UNL A   1      39.329  32.125  35.402  1.00  0.00     0.023 A 
ATOM     80  C   UNL A   1      38.622  31.536  36.463  1.00  0.00     0.031 A 
ATOM     81  C   UNL A   1      39.586  33.507  35.469  1.00  0.00     0.131 A 
ATOM     82  C   UNL A   1      38.159  32.330  37.523  1.00  0.00     0.055 A 
ATOM     83  C   UNL A   1      39.167  34.284  36.550  1.00  0.00     0.041 A 
ATOM     84  F   UNL A   1      40.264  34.119  34.486  1.00  0.00    -0.206 F 
ATOM     85  C   UNL A   1      38.437  33.699  37.580  1.00  0.00     0.022 A 
BRANCH  82  86
ATOM     86  S   UNL A   1      37.121  31.561  38.797  1.00  0.00     0.124 S 
ATOM     87  O   UNL A   1      36.878  30.242  38.225  1.00  0.00    -0.237 OA
ATOM     88  O   UNL A   1      37.995  31.605  39.965  1.00  0.00    -0.237 OA
ATOM     89  O   UNL A   1      35.955  32.439  38.861  1.00  0.00    -0.744 OA
ENDBRANCH  82  86
ENDBRANCH  55  79
BRANCH  67  90
ATOM     90  C   UNL A   1      44.838  28.036  34.167  1.00  0.00     0.023 A 
ATOM     91  C   UNL A   1      44.920  26.905  34.997  1.00  0.00     0.031 A 
ATOM     92  C   UNL A   1      45.946  28.901  34.116  1.00  0.00     0.131 A 
ATOM     93  C   UNL A   1      46.064  26.696  35.783  1.00  0.00     0.055 A 
ATOM     94  C   UNL A   1      47.104  28.658  34.856  1.00  0.00     0.041 A 
ATOM     95  F   UNL A   1      45.921  29.997  33.341  1.00  0.00    -0.206 F 
ATOM     96  C   UNL A   1      47.161  27.556  35.705  1.00  0.00     0.022 A 
BRANCH  93  97
ATOM     97  S   UNL A   1      46.064  25.330  36.976  1.00  0.00     0.124 S 
ATOM     98  O   UNL A   1      44.946  25.683  37.843  1.00  0.00    -0.237 OA
ATOM     99  O   UNL A   1      45.864  24.166  36.119  1.00  0.00    -0.237 OA
ATOM    100  O   UNL A   1      47.383  25.419  37.600  1.00  0.00    -0.744 OA
ENDBRANCH  93  97
ENDBRANCH  67  90
ENDBRANCH  41  42
ENDBRANCH  33  36
ENDBRANCH  31  32
ENDBRANCH  30  31
ENDBRANCH   1  30
TORSDOF 18
ENDMDL
MODEL 3
REMARK VINA RESULT:     -11.9      6.102     11.550
REMARK SMILES COc1ccc(-c2ccc([C@H](C)[NH+]3CCOCC3)cc2)c(C(=O)NCCCCNC(=O)c2ccc(-c3c4nc(c(-c5cc(S(=O)(=O)[O-])ccc5F)c5ccc([nH]5)c(-c5cc(S(=O)(=O)[O-])ccc5F)c5nc(c(-c6cc(S(=O)(=O)[O-])ccc6F)c6ccc3[nH]6)C=C5)C=C4)cc2)c1
REMARK SMILES IDX 26 1 25 2 24 3 22 4 23 5 21 7 3 8 4 9 95 10 5 11 6 12 2 13
REMARK SMILES IDX 1 14 7 15 8 16 20 17 9 18 19 19 10 20 11 21 12 22 13 23
REMARK SMILES IDX 14 24 18 25 15 27 17 28 16 29 27 30 28 31 29 32 30 33 31 35
REMARK SMILES IDX 32 36 33 37 94 38 34 39 93 40 35 41 36 42 37 43 87 44 38 45
REMARK SMILES IDX 92 46 86 47 88 48 39 49 91 50 85 51 84 52 40 54 72 55 52 56
REMARK SMILES IDX 71 57 53 58 56 59 70 60 89 61 54 62 55 63 69 65 90 66 57 67
REMARK SMILES IDX 41 68 42 69 50 70 43 71 49 72 51 73 48 74 44 75 45 76 46 77
REMARK SMILES IDX 47 78 73 79 74 80 82 81 75 82 81 83 83 84 80 85 76 86 77 87
REMARK SMILES IDX 78 88 79 89 58 90 59 91 67 92 60 93 66 94 68 95 65 96 61 97
REMARK SMILES IDX 62 98 63 99 64 100
REMARK H PARENT 24 6 13 26 29 34 88 53 56 64
REMARK Flexibility Score: inf
ROOT
ATOM      1  C   UNL A   1      32.423  29.941  27.084  1.00  0.00     0.023 C 
ENDROOT
BRANCH   1   2
ATOM      2  C   UNL A   1      31.706  28.994  26.129  1.00  0.00     0.116 C 
BRANCH   2   3
ATOM      3  N   UNL A   1      32.369  28.761  24.856  1.00  0.00    -0.352 N 
ATOM      4  C   UNL A   1      31.853  28.640  23.577  1.00  0.00     0.252 C 
ATOM      5  O   UNL A   1      32.639  28.611  22.634  1.00  0.00    -0.269 OA
ATOM      6  H   UNL A   1      33.347  28.674  24.913  1.00  0.00     0.163 HD
BRANCH   4   7
ATOM      7  C   UNL A   1      30.382  28.524  23.345  1.00  0.00     0.051 A 
ATOM      8  C   UNL A   1      28.328  29.636  22.635  1.00  0.00     0.119 A 
ATOM      9  C   UNL A   1      27.593  28.548  23.088  1.00  0.00     0.047 A 
ATOM     10  C   UNL A   1      29.718  29.591  22.711  1.00  0.00     0.060 A 
ATOM     11  C   UNL A   1      28.244  27.425  23.599  1.00  0.00     0.013 A 
ATOM     12  C   UNL A   1      29.650  27.375  23.724  1.00  0.00    -0.005 A 
BRANCH   8  13
ATOM     13  O   UNL A   1      27.592  30.678  22.146  1.00  0.00    -0.497 OA
ATOM     14  C   UNL A   1      27.974  31.980  22.583  1.00  0.00     0.278 C 
ENDBRANCH   8  13
BRANCH  12  15
ATOM     15  C   UNL A   1      30.241  26.101  24.181  1.00  0.00    -0.018 A 
ATOM     16  C   UNL A   1      30.676  25.157  23.234  1.00  0.00     0.009 A 
ATOM     17  C   UNL A   1      30.354  25.765  25.533  1.00  0.00     0.009 A 
ATOM     18  C   UNL A   1      31.190  23.916  23.622  1.00  0.00     0.010 A 
ATOM     19  C   UNL A   1      30.885  24.526  25.926  1.00  0.00     0.010 A 
ATOM     20  C   UNL A   1      31.299  23.574  24.977  1.00  0.00     0.009 A 
BRANCH  20  21
ATOM     21  C   UNL A   1      31.872  22.202  25.354  1.00  0.00     0.212 C 
ATOM     22  C   UNL A   1      32.472  22.161  26.768  1.00  0.00     0.081 C 
BRANCH  21  23
ATOM     23  N   UNL A   1      32.672  21.585  24.272  1.00  0.00    -0.325 N 
ATOM     24  C   UNL A   1      32.378  20.169  23.988  1.00  0.00     0.291 C 
ATOM     25  C   UNL A   1      34.133  21.784  24.307  1.00  0.00     0.291 C 
ATOM     26  H   UNL A   1      32.325  22.149  23.497  1.00  0.00     0.348 HD
ATOM     27  C   UNL A   1      33.211  19.152  24.795  1.00  0.00     0.221 C 
ATOM     28  C   UNL A   1      34.898  20.757  25.149  1.00  0.00     0.221 C 
ATOM     29  O   UNL A   1      34.613  19.422  24.710  1.00  0.00    -0.370 OA
ENDBRANCH  21  23
ENDBRANCH  20  21
ENDBRANCH  12  15
ENDBRANCH   4   7
ENDBRANCH   2   3
ENDBRANCH   1   2
BRANCH   1  30
ATOM     30  C   UNL A   1      32.091  31.425  26.979  1.00  0.00     0.023 C 
BRANCH  30  31
ATOM     31  C   UNL A   1      33.217  32.405  27.283  1.00  0.00     0.116 C 
BRANCH  31  32
ATOM     32  N   UNL A   1      32.762  33.725  27.691  1.00  0.00    -0.352 N 
ATOM     33  C   UNL A   1      33.237  34.563  28.677  1.00  0.00     0.251 C 
ATOM     34  H   UNL A   1      31.994  34.075  27.183  1.00  0.00     0.163 HD
ATOM     35  O   UNL A   1      32.655  35.619  28.897  1.00  0.00    -0.269 OA
BRANCH  33  36
ATOM     36  C   UNL A   1      34.405  34.169  29.501  1.00  0.00     0.039 A 
ATOM     37  C   UNL A   1      34.187  33.404  30.651  1.00  0.00     0.014 A 
ATOM     38  C   UNL A   1      35.706  34.523  29.140  1.00  0.00     0.014 A 
ATOM     39  C   UNL A   1      35.276  32.912  31.378  1.00  0.00     0.010 A 
ATOM     40  C   UNL A   1      36.790  33.966  29.817  1.00  0.00     0.010 A 
ATOM     41  C   UNL A   1      36.588  33.145  30.936  1.00  0.00    -0.014 A 
BRANCH  41  42
ATOM     42  C   UNL A   1      37.759  32.528  31.619  1.00  0.00     0.031 A 
ATOM     43  C   UNL A   1      38.518  31.410  30.956  1.00  0.00     0.074 A 
ATOM     44  C   UNL A   1      38.084  32.915  32.869  1.00  0.00     0.049 A 
ATOM     45  N   UNL A   1      39.493  30.676  31.428  1.00  0.00    -0.248 NA
ATOM     46  C   UNL A   1      38.099  31.051  29.594  1.00  0.00     0.031 C 
ATOM     47  C   UNL A   1      37.393  33.951  33.640  1.00  0.00     0.029 A 
ATOM     48  N   UNL A   1      39.067  32.473  33.720  1.00  0.00    -0.354 N 
ATOM     49  C   UNL A   1      39.792  29.755  30.429  1.00  0.00     0.074 A 
ATOM     50  C   UNL A   1      38.851  29.988  29.353  1.00  0.00     0.031 C 
ATOM     51  C   UNL A   1      37.984  34.075  34.840  1.00  0.00     0.029 A 
ATOM     52  C   UNL A   1      39.065  33.101  34.945  1.00  0.00     0.049 A 
ATOM     53  H   UNL A   1      39.714  31.772  33.476  1.00  0.00     0.167 HD
ATOM     54  C   UNL A   1      40.774  28.820  30.401  1.00  0.00     0.034 A 
ATOM     55  C   UNL A   1      39.834  32.905  36.034  1.00  0.00     0.034 A 
ATOM     56  C   UNL A   1      41.715  28.610  31.475  1.00  0.00     0.049 A 
ATOM     57  C   UNL A   1      40.916  31.856  35.984  1.00  0.00     0.074 A 
ATOM     58  C   UNL A   1      42.784  27.733  31.528  1.00  0.00     0.029 A 
ATOM     59  N   UNL A   1      41.696  29.282  32.692  1.00  0.00    -0.354 N 
ATOM     60  N   UNL A   1      41.221  31.031  35.009  1.00  0.00    -0.248 NA
ATOM     61  C   UNL A   1      41.764  31.723  37.175  1.00  0.00     0.031 C 
ATOM     62  C   UNL A   1      43.371  27.829  32.795  1.00  0.00     0.029 A 
ATOM     63  C   UNL A   1      42.715  28.819  33.510  1.00  0.00     0.049 A 
ATOM     64  H   UNL A   1      41.050  29.984  32.938  1.00  0.00     0.167 HD
ATOM     65  C   UNL A   1      42.314  30.298  35.463  1.00  0.00     0.074 A 
ATOM     66  C   UNL A   1      42.624  30.791  36.789  1.00  0.00     0.031 C 
ATOM     67  C   UNL A   1      43.005  29.312  34.837  1.00  0.00     0.034 A 
BRANCH  54  68
ATOM     68  C   UNL A   1      40.858  27.943  29.173  1.00  0.00     0.023 A 
ATOM     69  C   UNL A   1      41.836  28.150  28.185  1.00  0.00     0.031 A 
ATOM     70  C   UNL A   1      39.925  26.912  28.966  1.00  0.00     0.131 A 
ATOM     71  C   UNL A   1      41.805  27.402  26.998  1.00  0.00     0.055 A 
ATOM     72  C   UNL A   1      39.952  26.113  27.821  1.00  0.00     0.041 A 
ATOM     73  F   UNL A   1      38.955  26.675  29.864  1.00  0.00    -0.206 F 
ATOM     74  C   UNL A   1      40.885  26.368  26.819  1.00  0.00     0.022 A 
BRANCH  71  75
ATOM     75  S   UNL A   1      42.881  27.910  25.629  1.00  0.00     0.124 S 
ATOM     76  O   UNL A   1      43.333  26.620  25.115  1.00  0.00    -0.237 OA
ATOM     77  O   UNL A   1      41.969  28.656  24.770  1.00  0.00    -0.237 OA
ATOM     78  O   UNL A   1      43.915  28.709  26.284  1.00  0.00    -0.744 OA
ENDBRANCH  71  75
ENDBRANCH  54  68
BRANCH  55  79
ATOM     79  C   UNL A   1      39.609  33.706  37.270  1.00  0.00     0.023 A 
ATOM     80  C   UNL A   1      40.363  34.860  37.535  1.00  0.00     0.031 A 
ATOM     81  C   UNL A   1      38.657  33.308  38.226  1.00  0.00     0.131 A 
ATOM     82  C   UNL A   1      40.186  35.552  38.743  1.00  0.00     0.055 A 
ATOM     83  C   UNL A   1      38.448  34.027  39.404  1.00  0.00     0.041 A 
ATOM     84  F   UNL A   1      37.903  32.217  38.019  1.00  0.00    -0.206 F 
ATOM     85  C   UNL A   1      39.225  35.150  39.675  1.00  0.00     0.022 A 
BRANCH  82  86
ATOM     86  S   UNL A   1      41.284  36.947  39.116  1.00  0.00     0.124 S 
ATOM     87  O   UNL A   1      42.060  37.051  37.887  1.00  0.00    -0.237 OA
ATOM     88  O   UNL A   1      40.330  38.022  39.367  1.00  0.00    -0.237 OA
ATOM     89  O   UNL A   1      42.027  36.490  40.288  1.00  0.00    -0.744 OA
ENDBRANCH  82  86
ENDBRANCH  55  79
BRANCH  67  90
ATOM     90  C   UNL A   1      44.191  28.734  35.570  1.00  0.00     0.023 A 
ATOM     91  C   UNL A   1      44.060  27.648  36.452  1.00  0.00     0.031 A 
ATOM     92  C   UNL A   1      45.470  29.292  35.392  1.00  0.00     0.131 A 
ATOM     93  C   UNL A   1      45.179  27.186  37.162  1.00  0.00     0.055 A 
ATOM     94  C   UNL A   1      46.589  28.792  36.057  1.00  0.00     0.041 A 
ATOM     95  F   UNL A   1      45.651  30.333  34.563  1.00  0.00    -0.206 F 
ATOM     96  C   UNL A   1      46.445  27.741  36.959  1.00  0.00     0.022 A 
BRANCH  93  97
ATOM     97  S   UNL A   1      44.943  25.905  38.424  1.00  0.00     0.124 S 
ATOM     98  O   UNL A   1      46.235  25.228  38.416  1.00  0.00    -0.237 OA
ATOM     99  O   UNL A   1      44.642  26.692  39.615  1.00  0.00    -0.237 OA
ATOM    100  O   UNL A   1      43.827  25.115  37.906  1.00  0.00    -0.744 OA
ENDBRANCH  93  97
ENDBRANCH  67  90
ENDBRANCH  41  42
ENDBRANCH  33  36
ENDBRANCH  31  32
ENDBRANCH  30  31
ENDBRANCH   1  30
TORSDOF 18
ENDMDL
