MODEL 1
REMARK VINA RESULT:     -12.1      0.000      0.000
REMARK SMILES N#Cc1ccccc1Cn1cccc1C(=O)NCCCCNC(=O)c1ccc(-c2c3nc(c(-c4cc(S(=O)(=O)[O-])ccc4F)c4ccc([nH]4)c(-c4cc(S(=O)(=O)[O-])ccc4F)c4nc(c(-c5cc(S(=O)(=O)[O-])ccc5F)c5ccc2[nH]5)C=C4)C=C3)cc1
REMARK SMILES IDX 19 1 18 2 17 3 15 4 16 5 14 7 10 8 11 9 12 10 13 11 9 12
REMARK SMILES IDX 8 13 3 14 4 15 5 16 7 17 6 18 2 19 1 20 20 21 21 22 22 23
REMARK SMILES IDX 23 24 24 26 25 27 26 28 87 29 27 30 86 31 28 32 29 33 30 34
REMARK SMILES IDX 80 35 31 36 85 37 79 38 81 39 32 40 84 41 78 42 77 43 33 45
REMARK SMILES IDX 65 46 45 47 64 48 46 49 49 50 63 51 82 52 47 53 48 54 62 56
REMARK SMILES IDX 83 57 50 58 34 59 35 60 43 61 36 62 42 63 44 64 41 65 37 66
REMARK SMILES IDX 38 67 39 68 40 69 66 70 67 71 75 72 68 73 74 74 76 75 73 76
REMARK SMILES IDX 69 77 70 78 71 79 72 80 51 81 52 82 60 83 53 84 59 85 61 86
REMARK SMILES IDX 58 87 54 88 55 89 56 90 57 91
REMARK H PARENT 17 6 22 25 81 44 49 55
REMARK Flexibility Score: inf
ROOT
ATOM      1  C   UNL A   1      32.824  29.686  26.962  1.00  0.00     0.023 C 
ENDROOT
BRANCH   1   2
ATOM      2  C   UNL A   1      31.700  30.070  25.995  1.00  0.00     0.116 C 
BRANCH   2   3
ATOM      3  N   UNL A   1      32.144  29.856  24.629  1.00  0.00    -0.351 N 
ATOM      4  C   UNL A   1      31.615  29.297  23.494  1.00  0.00     0.267 C 
ATOM      5  O   UNL A   1      32.419  29.247  22.555  1.00  0.00    -0.268 OA
ATOM      6  H   UNL A   1      33.054  30.198  24.481  1.00  0.00     0.163 HD
BRANCH   4   7
ATOM      7  C   UNL A   1      30.224  28.885  23.285  1.00  0.00     0.107 A 
ATOM      8  N   UNL A   1      29.564  27.659  23.172  1.00  0.00    -0.339 N 
ATOM      9  C   UNL A   1      28.203  27.877  23.140  1.00  0.00     0.086 A 
ATOM     10  C   UNL A   1      27.976  29.216  22.958  1.00  0.00     0.020 A 
ATOM     11  C   UNL A   1      29.233  29.839  23.023  1.00  0.00     0.033 A 
BRANCH   8  12
ATOM     12  C   UNL A   1      30.155  26.323  23.208  1.00  0.00     0.159 C 
BRANCH  12  13
ATOM     13  C   UNL A   1      31.384  26.069  24.066  1.00  0.00    -0.010 A 
ATOM     14  C   UNL A   1      32.690  25.939  23.531  1.00  0.00     0.057 A 
ATOM     15  C   UNL A   1      33.814  25.945  24.375  1.00  0.00     0.020 A 
ATOM     16  C   UNL A   1      33.667  26.023  25.752  1.00  0.00     0.001 A 
ATOM     17  C   UNL A   1      31.268  26.148  25.466  1.00  0.00     0.007 A 
ATOM     18  C   UNL A   1      32.393  26.103  26.297  1.00  0.00     0.000 A 
BRANCH  14  19
ATOM     19  C   UNL A   1      33.008  25.811  22.130  1.00  0.00     0.099 C 
ATOM     20  N   UNL A   1      33.278  25.598  21.033  1.00  0.00    -0.192 NA
ENDBRANCH  14  19
ENDBRANCH  12  13
ENDBRANCH   8  12
ENDBRANCH   4   7
ENDBRANCH   2   3
ENDBRANCH   1   2
BRANCH   1  21
ATOM     21  C   UNL A   1      34.252  29.541  26.454  1.00  0.00     0.023 C 
BRANCH  21  22
ATOM     22  C   UNL A   1      35.267  29.292  27.545  1.00  0.00     0.116 C 
BRANCH  22  23
ATOM     23  N   UNL A   1      35.575  30.500  28.297  1.00  0.00    -0.352 N 
ATOM     24  C   UNL A   1      36.564  30.639  29.244  1.00  0.00     0.251 C 
ATOM     25  H   UNL A   1      35.023  31.293  28.111  1.00  0.00     0.163 HD
ATOM     26  O   UNL A   1      36.472  31.498  30.115  1.00  0.00    -0.269 OA
BRANCH  24  27
ATOM     27  C   UNL A   1      37.734  29.739  29.190  1.00  0.00     0.039 A 
ATOM     28  C   UNL A   1      38.810  30.053  28.361  1.00  0.00     0.014 A 
ATOM     29  C   UNL A   1      37.750  28.578  29.975  1.00  0.00     0.014 A 
ATOM     30  C   UNL A   1      39.927  29.219  28.367  1.00  0.00     0.010 A 
ATOM     31  C   UNL A   1      38.884  27.786  30.034  1.00  0.00     0.010 A 
ATOM     32  C   UNL A   1      39.971  28.096  29.222  1.00  0.00    -0.014 A 
BRANCH  32  33
ATOM     33  C   UNL A   1      41.281  27.428  29.443  1.00  0.00     0.031 A 
ATOM     34  C   UNL A   1      41.413  26.335  28.326  1.00  0.00     0.074 A 
ATOM     35  C   UNL A   1      42.015  27.812  30.552  1.00  0.00     0.049 A 
ATOM     36  N   UNL A   1      41.625  25.061  28.417  1.00  0.00    -0.248 NA
ATOM     37  C   UNL A   1      41.031  26.675  26.913  1.00  0.00     0.031 C 
ATOM     38  C   UNL A   1      41.777  29.043  31.358  1.00  0.00     0.029 A 
ATOM     39  N   UNL A   1      43.119  27.321  31.232  1.00  0.00    -0.354 N 
ATOM     40  C   UNL A   1      41.750  24.546  27.100  1.00  0.00     0.074 A 
ATOM     41  C   UNL A   1      41.146  25.518  26.247  1.00  0.00     0.031 C 
ATOM     42  C   UNL A   1      42.589  29.114  32.446  1.00  0.00     0.029 A 
ATOM     43  C   UNL A   1      43.440  27.942  32.503  1.00  0.00     0.049 A 
ATOM     44  H   UNL A   1      43.660  26.583  30.870  1.00  0.00     0.167 HD
ATOM     45  C   UNL A   1      42.574  23.489  26.805  1.00  0.00     0.034 A 
ATOM     46  C   UNL A   1      44.271  27.484  33.519  1.00  0.00     0.034 A 
ATOM     47  C   UNL A   1      43.209  23.084  28.017  1.00  0.00     0.049 A 
ATOM     48  C   UNL A   1      44.844  26.281  32.900  1.00  0.00     0.074 A 
ATOM     49  C   UNL A   1      42.731  22.535  29.177  1.00  0.00     0.029 A 
ATOM     50  N   UNL A   1      44.433  23.672  28.258  1.00  0.00    -0.354 N 
ATOM     51  N   UNL A   1      45.747  26.283  31.968  1.00  0.00    -0.248 NA
ATOM     52  C   UNL A   1      44.238  24.985  33.234  1.00  0.00     0.031 C 
ATOM     53  C   UNL A   1      43.357  23.346  30.144  1.00  0.00     0.029 A 
ATOM     54  C   UNL A   1      44.460  24.002  29.582  1.00  0.00     0.049 A 
ATOM     55  H   UNL A   1      45.151  23.825  27.601  1.00  0.00     0.167 HD
ATOM     56  C   UNL A   1      45.559  25.058  31.383  1.00  0.00     0.074 A 
ATOM     57  C   UNL A   1      44.890  24.222  32.364  1.00  0.00     0.031 C 
ATOM     58  C   UNL A   1      45.426  24.968  30.035  1.00  0.00     0.034 A 
BRANCH  45  59
ATOM     59  C   UNL A   1      43.225  22.959  25.542  1.00  0.00     0.023 A 
ATOM     60  C   UNL A   1      43.312  21.542  25.461  1.00  0.00     0.031 A 
ATOM     61  C   UNL A   1      44.058  23.676  24.679  1.00  0.00     0.131 A 
ATOM     62  C   UNL A   1      44.337  20.908  24.752  1.00  0.00     0.055 A 
ATOM     63  C   UNL A   1      45.022  23.028  23.884  1.00  0.00     0.041 A 
ATOM     64  F   UNL A   1      44.039  25.014  24.633  1.00  0.00    -0.206 F 
ATOM     65  C   UNL A   1      45.202  21.646  23.958  1.00  0.00     0.022 A 
BRANCH  62  66
ATOM     66  S   UNL A   1      44.633  19.146  25.092  1.00  0.00     0.124 S 
ATOM     67  O   UNL A   1      43.493  18.812  25.937  1.00  0.00    -0.237 OA
ATOM     68  O   UNL A   1      44.621  18.569  23.750  1.00  0.00    -0.237 OA
ATOM     69  O   UNL A   1      45.934  19.144  25.755  1.00  0.00    -0.744 OA
ENDBRANCH  62  66
ENDBRANCH  45  59
BRANCH  46  70
ATOM     70  C   UNL A   1      44.686  27.674  35.014  1.00  0.00     0.023 A 
ATOM     71  C   UNL A   1      44.594  26.777  36.102  1.00  0.00     0.031 A 
ATOM     72  C   UNL A   1      45.308  28.924  35.385  1.00  0.00     0.131 A 
ATOM     73  C   UNL A   1      45.200  27.100  37.374  1.00  0.00     0.055 A 
ATOM     74  C   UNL A   1      45.995  29.181  36.575  1.00  0.00     0.041 A 
ATOM     75  F   UNL A   1      45.261  30.010  34.603  1.00  0.00    -0.206 F 
ATOM     76  C   UNL A   1      45.967  28.251  37.577  1.00  0.00     0.022 A 
BRANCH  73  77
ATOM     77  S   UNL A   1      45.007  26.046  38.858  1.00  0.00     0.124 S 
ATOM     78  O   UNL A   1      43.793  26.585  39.460  1.00  0.00    -0.237 OA
ATOM     79  O   UNL A   1      44.909  24.705  38.292  1.00  0.00    -0.237 OA
ATOM     80  O   UNL A   1      46.232  26.298  39.621  1.00  0.00    -0.744 OA
ENDBRANCH  73  77
ENDBRANCH  46  70
BRANCH  58  81
ATOM     81  C   UNL A   1      46.052  26.095  29.220  1.00  0.00     0.023 A 
ATOM     82  C   UNL A   1      45.214  26.980  28.515  1.00  0.00     0.031 A 
ATOM     83  C   UNL A   1      47.438  26.281  29.040  1.00  0.00     0.131 A 
ATOM     84  C   UNL A   1      45.746  27.981  27.678  1.00  0.00     0.055 A 
ATOM     85  C   UNL A   1      47.972  27.284  28.211  1.00  0.00     0.041 A 
ATOM     86  F   UNL A   1      48.323  25.485  29.646  1.00  0.00    -0.206 F 
ATOM     87  C   UNL A   1      47.123  28.143  27.526  1.00  0.00     0.022 A 
BRANCH  84  88
ATOM     88  S   UNL A   1      44.612  29.086  26.792  1.00  0.00     0.124 S 
ATOM     89  O   UNL A   1      43.663  29.468  27.832  1.00  0.00    -0.237 OA
ATOM     90  O   UNL A   1      45.501  30.141  26.318  1.00  0.00    -0.237 OA
ATOM     91  O   UNL A   1      44.057  28.234  25.739  1.00  0.00    -0.744 OA
ENDBRANCH  84  88
ENDBRANCH  58  81
ENDBRANCH  32  33
ENDBRANCH  24  27
ENDBRANCH  22  23
ENDBRANCH  21  22
ENDBRANCH   1  21
TORSDOF 17
ENDMDL
MODEL 2
REMARK VINA RESULT:     -12.0      5.232     10.694
REMARK SMILES N#Cc1ccccc1Cn1cccc1C(=O)NCCCCNC(=O)c1ccc(-c2c3nc(c(-c4cc(S(=O)(=O)[O-])ccc4F)c4ccc([nH]4)c(-c4cc(S(=O)(=O)[O-])ccc4F)c4nc(c(-c5cc(S(=O)(=O)[O-])ccc5F)c5ccc2[nH]5)C=C4)C=C3)cc1
REMARK SMILES IDX 19 1 18 2 17 3 15 4 16 5 14 7 10 8 11 9 12 10 13 11 9 12
REMARK SMILES IDX 8 13 3 14 4 15 5 16 7 17 6 18 2 19 1 20 20 21 21 22 22 23
REMARK SMILES IDX 23 24 24 26 25 27 26 28 87 29 27 30 86 31 28 32 29 33 30 34
REMARK SMILES IDX 80 35 31 36 85 37 79 38 81 39 32 40 84 41 78 42 77 43 33 45
REMARK SMILES IDX 65 46 45 47 64 48 46 49 49 50 63 51 82 52 47 53 48 54 62 56
REMARK SMILES IDX 83 57 50 58 34 59 35 60 43 61 36 62 42 63 44 64 41 65 37 66
REMARK SMILES IDX 38 67 39 68 40 69 66 70 67 71 75 72 68 73 74 74 76 75 73 76
REMARK SMILES IDX 69 77 70 78 71 79 72 80 51 81 52 82 60 83 53 84 59 85 61 86
REMARK SMILES IDX 58 87 54 88 55 89 56 90 57 91
REMARK H PARENT 17 6 22 25 81 44 49 55
REMARK Flexibility Score: inf
ROOT
ATOM      1  C   UNL A   1      37.590  21.944  25.641  1.00  0.00     0.023 C 
ENDROOT
BRANCH   1   2
ATOM      2  C   UNL A   1      36.496  21.000  25.133  1.00  0.00     0.116 C 
BRANCH   2   3
ATOM      3  N   UNL A   1      35.385  21.000  26.068  1.00  0.00    -0.351 N 
ATOM      4  C   UNL A   1      34.043  20.723  26.009  1.00  0.00     0.267 C 
ATOM      5  O   UNL A   1      33.450  20.959  27.069  1.00  0.00    -0.268 OA
ATOM      6  H   UNL A   1      35.667  21.265  26.973  1.00  0.00     0.163 HD
BRANCH   4   7
ATOM      7  C   UNL A   1      33.324  20.101  24.894  1.00  0.00     0.107 A 
ATOM      8  N   UNL A   1      32.353  20.527  23.985  1.00  0.00    -0.339 N 
ATOM      9  C   UNL A   1      32.154  19.545  23.038  1.00  0.00     0.086 A 
ATOM     10  C   UNL A   1      32.768  18.396  23.461  1.00  0.00     0.020 A 
ATOM     11  C   UNL A   1      33.474  18.735  24.628  1.00  0.00     0.033 A 
BRANCH   8  12
ATOM     12  C   UNL A   1      31.710  21.838  23.919  1.00  0.00     0.159 C 
BRANCH  12  13
ATOM     13  C   UNL A   1      32.535  23.092  24.156  1.00  0.00    -0.010 A 
ATOM     14  C   UNL A   1      32.456  23.860  25.346  1.00  0.00     0.057 A 
ATOM     15  C   UNL A   1      33.403  24.862  25.615  1.00  0.00     0.020 A 
ATOM     16  C   UNL A   1      34.401  25.160  24.700  1.00  0.00     0.001 A 
ATOM     17  C   UNL A   1      33.561  23.416  23.249  1.00  0.00     0.007 A 
ATOM     18  C   UNL A   1      34.466  24.451  23.508  1.00  0.00     0.000 A 
BRANCH  14  19
ATOM     19  C   UNL A   1      31.459  23.700  26.376  1.00  0.00     0.099 C 
ATOM     20  N   UNL A   1      30.714  23.661  27.251  1.00  0.00    -0.192 NA
ENDBRANCH  14  19
ENDBRANCH  12  13
ENDBRANCH   8  12
ENDBRANCH   4   7
ENDBRANCH   2   3
ENDBRANCH   1   2
BRANCH   1  21
ATOM     21  C   UNL A   1      37.446  23.449  25.457  1.00  0.00     0.023 C 
BRANCH  21  22
ATOM     22  C   UNL A   1      38.169  24.265  26.503  1.00  0.00     0.116 C 
BRANCH  22  23
ATOM     23  N   UNL A   1      39.555  23.849  26.665  1.00  0.00    -0.352 N 
ATOM     24  C   UNL A   1      40.631  24.675  26.894  1.00  0.00     0.251 C 
ATOM     25  H   UNL A   1      39.740  22.884  26.605  1.00  0.00     0.163 HD
ATOM     26  O   UNL A   1      41.763  24.321  26.579  1.00  0.00    -0.269 OA
BRANCH  24  27
ATOM     27  C   UNL A   1      40.399  25.990  27.525  1.00  0.00     0.039 A 
ATOM     28  C   UNL A   1      40.254  26.077  28.909  1.00  0.00     0.014 A 
ATOM     29  C   UNL A   1      40.327  27.138  26.724  1.00  0.00     0.014 A 
ATOM     30  C   UNL A   1      40.091  27.334  29.489  1.00  0.00     0.010 A 
ATOM     31  C   UNL A   1      40.233  28.393  27.303  1.00  0.00     0.010 A 
ATOM     32  C   UNL A   1      40.102  28.495  28.685  1.00  0.00    -0.014 A 
BRANCH  32  33
ATOM     33  C   UNL A   1      40.253  29.815  29.352  1.00  0.00     0.031 A 
ATOM     34  C   UNL A   1      38.802  30.323  29.659  1.00  0.00     0.074 A 
ATOM     35  C   UNL A   1      41.534  30.326  29.474  1.00  0.00     0.049 A 
ATOM     36  N   UNL A   1      38.211  31.427  29.331  1.00  0.00    -0.248 NA
ATOM     37  C   UNL A   1      37.789  29.367  30.222  1.00  0.00     0.031 C 
ATOM     38  C   UNL A   1      42.792  29.547  29.296  1.00  0.00     0.029 A 
ATOM     39  N   UNL A   1      42.087  31.554  29.802  1.00  0.00    -0.354 N 
ATOM     40  C   UNL A   1      36.928  31.431  29.939  1.00  0.00     0.074 A 
ATOM     41  C   UNL A   1      36.648  30.068  30.257  1.00  0.00     0.031 C 
ATOM     42  C   UNL A   1      43.901  30.329  29.380  1.00  0.00     0.029 A 
ATOM     43  C   UNL A   1      43.515  31.709  29.601  1.00  0.00     0.049 A 
ATOM     44  H   UNL A   1      41.535  32.289  30.155  1.00  0.00     0.167 HD
ATOM     45  C   UNL A   1      36.325  32.588  30.364  1.00  0.00     0.034 A 
ATOM     46  C   UNL A   1      44.274  32.872  29.553  1.00  0.00     0.034 A 
ATOM     47  C   UNL A   1      37.214  33.669  30.079  1.00  0.00     0.049 A 
ATOM     48  C   UNL A   1      43.269  33.885  29.903  1.00  0.00     0.074 A 
ATOM     49  C   UNL A   1      37.677  34.205  28.908  1.00  0.00     0.029 A 
ATOM     50  N   UNL A   1      38.067  34.008  31.108  1.00  0.00    -0.354 N 
ATOM     51  N   UNL A   1      42.790  34.077  31.093  1.00  0.00    -0.248 NA
ATOM     52  C   UNL A   1      42.631  34.624  28.805  1.00  0.00     0.031 C 
ATOM     53  C   UNL A   1      39.059  34.287  29.169  1.00  0.00     0.029 A 
ATOM     54  C   UNL A   1      39.292  34.231  30.550  1.00  0.00     0.049 A 
ATOM     55  H   UNL A   1      37.837  34.076  32.064  1.00  0.00     0.167 HD
ATOM     56  C   UNL A   1      41.591  34.685  30.826  1.00  0.00     0.074 A 
ATOM     57  C   UNL A   1      41.700  35.267  29.500  1.00  0.00     0.031 C 
ATOM     58  C   UNL A   1      40.454  34.214  31.400  1.00  0.00     0.034 A 
BRANCH  45  59
ATOM     59  C   UNL A   1      35.220  32.921  31.347  1.00  0.00     0.023 A 
ATOM     60  C   UNL A   1      34.338  33.956  30.931  1.00  0.00     0.031 A 
ATOM     61  C   UNL A   1      35.207  32.615  32.710  1.00  0.00     0.131 A 
ATOM     62  C   UNL A   1      33.689  34.784  31.852  1.00  0.00     0.055 A 
ATOM     63  C   UNL A   1      34.468  33.385  33.628  1.00  0.00     0.041 A 
ATOM     64  F   UNL A   1      35.963  31.633  33.218  1.00  0.00    -0.206 F 
ATOM     65  C   UNL A   1      33.750  34.506  33.210  1.00  0.00     0.022 A 
BRANCH  62  66
ATOM     66  S   UNL A   1      32.976  36.338  31.234  1.00  0.00     0.124 S 
ATOM     67  O   UNL A   1      31.735  36.419  31.995  1.00  0.00    -0.237 OA
ATOM     68  O   UNL A   1      34.006  37.311  31.591  1.00  0.00    -0.237 OA
ATOM     69  O   UNL A   1      32.825  36.094  29.802  1.00  0.00    -0.744 OA
ENDBRANCH  62  66
ENDBRANCH  45  59
BRANCH  46  70
ATOM     70  C   UNL A   1      45.659  33.480  29.157  1.00  0.00     0.023 A 
ATOM     71  C   UNL A   1      46.366  33.408  27.937  1.00  0.00     0.031 A 
ATOM     72  C   UNL A   1      46.343  34.289  30.140  1.00  0.00     0.131 A 
ATOM     73  C   UNL A   1      47.562  34.194  27.732  1.00  0.00     0.055 A 
ATOM     74  C   UNL A   1      47.427  35.136  29.898  1.00  0.00     0.041 A 
ATOM     75  F   UNL A   1      46.006  34.282  31.436  1.00  0.00    -0.206 F 
ATOM     76  C   UNL A   1      48.033  35.113  28.673  1.00  0.00     0.022 A 
BRANCH  73  77
ATOM     77  S   UNL A   1      48.595  34.049  26.228  1.00  0.00     0.124 S 
ATOM     78  O   UNL A   1      49.740  34.889  26.562  1.00  0.00    -0.237 OA
ATOM     79  O   UNL A   1      48.847  32.615  26.145  1.00  0.00    -0.237 OA
ATOM     80  O   UNL A   1      47.736  34.581  25.168  1.00  0.00    -0.744 OA
ENDBRANCH  73  77
ENDBRANCH  46  70
BRANCH  58  81
ATOM     81  C   UNL A   1      40.626  33.447  32.707  1.00  0.00     0.023 A 
ATOM     82  C   UNL A   1      40.419  32.055  32.718  1.00  0.00     0.031 A 
ATOM     83  C   UNL A   1      40.900  34.041  33.956  1.00  0.00     0.131 A 
ATOM     84  C   UNL A   1      40.480  31.316  33.917  1.00  0.00     0.055 A 
ATOM     85  C   UNL A   1      40.968  33.307  35.152  1.00  0.00     0.041 A 
ATOM     86  F   UNL A   1      41.094  35.359  34.062  1.00  0.00    -0.206 F 
ATOM     87  C   UNL A   1      40.760  31.934  35.136  1.00  0.00     0.022 A 
BRANCH  84  88
ATOM     88  S   UNL A   1      40.197  29.524  33.866  1.00  0.00     0.124 S 
ATOM     89  O   UNL A   1      41.151  29.081  32.855  1.00  0.00    -0.237 OA
ATOM     90  O   UNL A   1      40.483  29.118  35.237  1.00  0.00    -0.237 OA
ATOM     91  O   UNL A   1      38.791  29.411  33.474  1.00  0.00    -0.744 OA
ENDBRANCH  84  88
ENDBRANCH  58  81
ENDBRANCH  32  33
ENDBRANCH  24  27
ENDBRANCH  22  23
ENDBRANCH  21  22
ENDBRANCH   1  21
TORSDOF 17
ENDMDL
MODEL 3
REMARK VINA RESULT:     -11.3      4.464      9.722
REMARK SMILES N#Cc1ccccc1Cn1cccc1C(=O)NCCCCNC(=O)c1ccc(-c2c3nc(c(-c4cc(S(=O)(=O)[O-])ccc4F)c4ccc([nH]4)c(-c4cc(S(=O)(=O)[O-])ccc4F)c4nc(c(-c5cc(S(=O)(=O)[O-])ccc5F)c5ccc2[nH]5)C=C4)C=C3)cc1
REMARK SMILES IDX 19 1 18 2 17 3 15 4 16 5 14 7 10 8 11 9 12 10 13 11 9 12
REMARK SMILES IDX 8 13 3 14 4 15 5 16 7 17 6 18 2 19 1 20 20 21 21 22 22 23
REMARK SMILES IDX 23 24 24 26 25 27 26 28 87 29 27 30 86 31 28 32 29 33 30 34
REMARK SMILES IDX 80 35 31 36 85 37 79 38 81 39 32 40 84 41 78 42 77 43 33 45
REMARK SMILES IDX 65 46 45 47 64 48 46 49 49 50 63 51 82 52 47 53 48 54 62 56
REMARK SMILES IDX 83 57 50 58 34 59 35 60 43 61 36 62 42 63 44 64 41 65 37 66
REMARK SMILES IDX 38 67 39 68 40 69 66 70 67 71 75 72 68 73 74 74 76 75 73 76
REMARK SMILES IDX 69 77 70 78 71 79 72 80 51 81 52 82 60 83 53 84 59 85 61 86
REMARK SMILES IDX 58 87 54 88 55 89 56 90 57 91
REMARK H PARENT 17 6 22 25 81 44 49 55
REMARK Flexibility Score: inf
ROOT
ATOM      1  C   UNL A   1      31.827  28.495  27.292  1.00  0.00     0.023 C 
ENDROOT
BRANCH   1   2
ATOM      2  C   UNL A   1      31.488  27.279  26.424  1.00  0.00     0.116 C 
BRANCH   2   3
ATOM      3  N   UNL A   1      32.563  26.307  26.514  1.00  0.00    -0.351 N 
ATOM      4  C   UNL A   1      33.330  25.595  25.627  1.00  0.00     0.267 C 
ATOM      5  O   UNL A   1      34.085  24.784  26.176  1.00  0.00    -0.268 OA
ATOM      6  H   UNL A   1      32.802  26.108  27.448  1.00  0.00     0.163 HD
BRANCH   4   7
ATOM      7  C   UNL A   1      33.401  25.791  24.176  1.00  0.00     0.107 A 
ATOM      8  N   UNL A   1      33.414  24.943  23.065  1.00  0.00    -0.339 N 
ATOM      9  C   UNL A   1      33.334  25.700  21.916  1.00  0.00     0.086 A 
ATOM     10  C   UNL A   1      33.540  27.015  22.239  1.00  0.00     0.020 A 
ATOM     11  C   UNL A   1      33.607  27.068  23.642  1.00  0.00     0.033 A 
BRANCH   8  12
ATOM     12  C   UNL A   1      33.385  23.482  23.060  1.00  0.00     0.159 C 
BRANCH  12  13
ATOM     13  C   UNL A   1      34.506  22.707  23.732  1.00  0.00    -0.010 A 
ATOM     14  C   UNL A   1      34.290  21.521  24.479  1.00  0.00     0.057 A 
ATOM     15  C   UNL A   1      35.372  20.716  24.874  1.00  0.00     0.020 A 
ATOM     16  C   UNL A   1      36.677  21.091  24.591  1.00  0.00     0.001 A 
ATOM     17  C   UNL A   1      35.840  23.059  23.458  1.00  0.00     0.007 A 
ATOM     18  C   UNL A   1      36.910  22.274  23.901  1.00  0.00     0.000 A 
BRANCH  14  19
ATOM     19  C   UNL A   1      33.002  21.014  24.885  1.00  0.00     0.099 C 
ATOM     20  N   UNL A   1      31.946  20.719  25.232  1.00  0.00    -0.192 NA
ENDBRANCH  14  19
ENDBRANCH  12  13
ENDBRANCH   8  12
ENDBRANCH   4   7
ENDBRANCH   2   3
ENDBRANCH   1   2
BRANCH   1  21
ATOM     21  C   UNL A   1      31.942  29.876  26.660  1.00  0.00     0.023 C 
BRANCH  21  22
ATOM     22  C   UNL A   1      33.058  30.719  27.231  1.00  0.00     0.116 C 
BRANCH  22  23
ATOM     23  N   UNL A   1      32.727  32.137  27.242  1.00  0.00    -0.352 N 
ATOM     24  C   UNL A   1      33.278  33.095  28.062  1.00  0.00     0.251 C 
ATOM     25  H   UNL A   1      32.044  32.440  26.601  1.00  0.00     0.163 HD
ATOM     26  O   UNL A   1      32.659  34.122  28.318  1.00  0.00    -0.269 OA
BRANCH  24  27
ATOM     27  C   UNL A   1      34.624  32.863  28.625  1.00  0.00     0.039 A 
ATOM     28  C   UNL A   1      34.757  32.270  29.879  1.00  0.00     0.014 A 
ATOM     29  C   UNL A   1      35.756  33.242  27.888  1.00  0.00     0.014 A 
ATOM     30  C   UNL A   1      36.037  32.011  30.366  1.00  0.00     0.010 A 
ATOM     31  C   UNL A   1      37.025  32.924  28.340  1.00  0.00     0.010 A 
ATOM     32  C   UNL A   1      37.171  32.319  29.585  1.00  0.00    -0.014 A 
BRANCH  32  33
ATOM     33  C   UNL A   1      38.482  31.740  29.983  1.00  0.00     0.031 A 
ATOM     34  C   UNL A   1      39.316  32.917  30.596  1.00  0.00     0.074 A 
ATOM     35  C   UNL A   1      38.713  30.411  29.673  1.00  0.00     0.049 A 
ATOM     36  N   UNL A   1      40.488  33.370  30.283  1.00  0.00    -0.248 NA
ATOM     37  C   UNL A   1      38.654  33.872  31.550  1.00  0.00     0.031 C 
ATOM     38  C   UNL A   1      37.669  29.425  29.276  1.00  0.00     0.029 A 
ATOM     39  N   UNL A   1      39.818  29.572  29.653  1.00  0.00    -0.354 N 
ATOM     40  C   UNL A   1      40.822  34.391  31.211  1.00  0.00     0.074 A 
ATOM     41  C   UNL A   1      39.586  34.805  31.791  1.00  0.00     0.031 C 
ATOM     42  C   UNL A   1      38.198  28.219  28.937  1.00  0.00     0.029 A 
ATOM     43  C   UNL A   1      39.642  28.266  29.049  1.00  0.00     0.049 A 
ATOM     44  H   UNL A   1      40.683  29.853  30.031  1.00  0.00     0.167 HD
ATOM     45  C   UNL A   1      42.115  34.621  31.609  1.00  0.00     0.034 A 
ATOM     46  C   UNL A   1      40.606  27.358  28.624  1.00  0.00     0.034 A 
ATOM     47  C   UNL A   1      42.950  33.677  30.937  1.00  0.00     0.049 A 
ATOM     48  C   UNL A   1      41.839  28.014  29.082  1.00  0.00     0.074 A 
ATOM     49  C   UNL A   1      43.267  33.494  29.617  1.00  0.00     0.029 A 
ATOM     50  N   UNL A   1      43.187  32.510  31.632  1.00  0.00    -0.354 N 
ATOM     51  N   UNL A   1      42.235  28.074  30.316  1.00  0.00    -0.248 NA
ATOM     52  C   UNL A   1      42.597  28.805  28.104  1.00  0.00     0.031 C 
ATOM     53  C   UNL A   1      43.072  32.106  29.476  1.00  0.00     0.029 A 
ATOM     54  C   UNL A   1      43.090  31.488  30.733  1.00  0.00     0.049 A 
ATOM     55  H   UNL A   1      43.387  32.429  32.592  1.00  0.00     0.167 HD
ATOM     56  C   UNL A   1      43.060  29.168  30.300  1.00  0.00     0.074 A 
ATOM     57  C   UNL A   1      43.484  29.355  28.924  1.00  0.00     0.031 C 
ATOM     58  C   UNL A   1      42.898  30.148  31.226  1.00  0.00     0.034 A 
BRANCH  45  59
ATOM     59  C   UNL A   1      42.765  35.304  32.797  1.00  0.00     0.023 A 
ATOM     60  C   UNL A   1      42.098  35.111  34.039  1.00  0.00     0.031 A 
ATOM     61  C   UNL A   1      43.671  36.367  32.745  1.00  0.00     0.131 A 
ATOM     62  C   UNL A   1      42.152  36.066  35.058  1.00  0.00     0.055 A 
ATOM     63  C   UNL A   1      43.803  37.270  33.816  1.00  0.00     0.041 A 
ATOM     64  F   UNL A   1      44.390  36.625  31.645  1.00  0.00    -0.206 F 
ATOM     65  C   UNL A   1      43.005  37.155  34.955  1.00  0.00     0.022 A 
BRANCH  62  66
ATOM     66  S   UNL A   1      40.916  35.953  36.386  1.00  0.00     0.124 S 
ATOM     67  O   UNL A   1      41.540  36.743  37.441  1.00  0.00    -0.237 OA
ATOM     68  O   UNL A   1      39.737  36.545  35.759  1.00  0.00    -0.237 OA
ATOM     69  O   UNL A   1      40.825  34.518  36.642  1.00  0.00    -0.744 OA
ENDBRANCH  62  66
ENDBRANCH  45  59
BRANCH  46  70
ATOM     70  C   UNL A   1      40.864  26.068  27.780  1.00  0.00     0.023 A 
ATOM     71  C   UNL A   1      42.036  25.633  27.123  1.00  0.00     0.031 A 
ATOM     72  C   UNL A   1      39.783  25.117  27.660  1.00  0.00     0.131 A 
ATOM     73  C   UNL A   1      42.104  24.313  26.537  1.00  0.00     0.055 A 
ATOM     74  C   UNL A   1      39.891  23.802  27.200  1.00  0.00     0.041 A 
ATOM     75  F   UNL A   1      38.516  25.427  27.964  1.00  0.00    -0.206 F 
ATOM     76  C   UNL A   1      41.071  23.379  26.655  1.00  0.00     0.022 A 
BRANCH  73  77
ATOM     77  S   UNL A   1      43.541  23.736  25.561  1.00  0.00     0.124 S 
ATOM     78  O   UNL A   1      43.946  24.952  24.865  1.00  0.00    -0.237 OA
ATOM     79  O   UNL A   1      44.453  23.243  26.588  1.00  0.00    -0.237 OA
ATOM     80  O   UNL A   1      42.975  22.697  24.698  1.00  0.00    -0.744 OA
ENDBRANCH  73  77
ENDBRANCH  46  70
BRANCH  58  81
ATOM     81  C   UNL A   1      42.232  29.736  32.534  1.00  0.00     0.023 A 
ATOM     82  C   UNL A   1      40.960  30.251  32.848  1.00  0.00     0.031 A 
ATOM     83  C   UNL A   1      42.833  28.929  33.521  1.00  0.00     0.131 A 
ATOM     84  C   UNL A   1      40.342  29.970  34.084  1.00  0.00     0.055 A 
ATOM     85  C   UNL A   1      42.217  28.642  34.752  1.00  0.00     0.041 A 
ATOM     86  F   UNL A   1      44.048  28.405  33.335  1.00  0.00    -0.206 F 
ATOM     87  C   UNL A   1      40.961  29.162  35.037  1.00  0.00     0.022 A 
BRANCH  84  88
ATOM     88  S   UNL A   1      38.703  30.668  34.431  1.00  0.00     0.124 S 
ATOM     89  O   UNL A   1      38.450  30.222  35.796  1.00  0.00    -0.237 OA
ATOM     90  O   UNL A   1      38.924  32.099  34.256  1.00  0.00    -0.237 OA
ATOM     91  O   UNL A   1      37.847  30.052  33.414  1.00  0.00    -0.744 OA
ENDBRANCH  84  88
ENDBRANCH  58  81
ENDBRANCH  32  33
ENDBRANCH  24  27
ENDBRANCH  22  23
ENDBRANCH  21  22
ENDBRANCH   1  21
TORSDOF 17
ENDMDL
