MODEL 1
REMARK VINA RESULT:     -12.5      0.000      0.000
REMARK SMILES Cc1cc2c(c(C)c1Br)C=C(C(=O)NCCCCNC(=O)c1ccc(-c3c4nc(c(-c5cc(S(=O)(=O)[O-])ccc5F)c5ccc([nH]5)c(-c5cc(S(=O)(=O)[O-])ccc5F)c5nc(c(-c6cc(S(=O)(=O)[O-])ccc6F)c6ccc3[nH]6)C=C5)C=C4)cc1)[C@@H](C(F)(F)F)O2
REMARK SMILES IDX 17 1 16 2 15 3 14 4 12 5 13 6 11 8 1 9 2 10 3 11 8 12 4 13
REMARK SMILES IDX 6 14 9 15 5 16 90 17 7 18 10 19 85 20 86 21 87 22 88 23
REMARK SMILES IDX 89 24 18 25 19 26 20 27 21 29 22 30 23 31 84 32 24 33 83 34
REMARK SMILES IDX 25 35 26 36 27 37 77 38 28 39 82 40 76 41 78 42 29 43 81 44
REMARK SMILES IDX 75 45 74 46 30 48 62 49 42 50 61 51 43 52 46 53 60 54 79 55
REMARK SMILES IDX 44 56 45 57 59 59 80 60 47 61 31 62 32 63 40 64 33 65 39 66
REMARK SMILES IDX 41 67 38 68 34 69 35 70 36 71 37 72 63 73 64 74 72 75 65 76
REMARK SMILES IDX 71 77 73 78 70 79 66 80 67 81 68 82 69 83 48 84 49 85 57 86
REMARK SMILES IDX 50 87 56 88 58 89 55 90 51 91 52 92 53 93 54 94
REMARK H PARENT 14 7 19 28 78 47 46 58
REMARK Flexibility Score: inf
ROOT
ATOM      1  C   UNL A   1      32.256  30.879  26.825  1.00  0.00     0.023 C 
ENDROOT
BRANCH   1   2
ATOM      2  C   UNL A   1      32.367  29.408  27.242  1.00  0.00     0.023 C 
BRANCH   2   3
ATOM      3  C   UNL A   1      33.688  28.746  26.858  1.00  0.00     0.116 C 
BRANCH   3   4
ATOM      4  N   UNL A   1      33.976  28.893  25.442  1.00  0.00    -0.352 N 
ATOM      5  C   UNL A   1      33.923  28.117  24.334  1.00  0.00     0.251 C 
ATOM      6  O   UNL A   1      34.288  28.667  23.290  1.00  0.00    -0.270 OA
ATOM      7  H   UNL A   1      34.296  29.800  25.231  1.00  0.00     0.163 HD
BRANCH   5   8
ATOM      8  C   UNL A   1      33.468  26.694  24.291  1.00  0.00     0.067 C 
ATOM      9  C   UNL A   1      32.735  20.226  24.551  1.00  0.00     0.046 C 
ATOM     10  C   UNL A   1      33.241  21.643  24.573  1.00  0.00    -0.033 A 
ATOM     11  C   UNL A   1      32.312  22.676  24.410  1.00  0.00     0.051 A 
ATOM     12  C   UNL A   1      34.600  21.974  24.766  1.00  0.00     0.024 A 
ATOM     13  C   UNL A   1      32.720  24.006  24.422  1.00  0.00     0.128 A 
ATOM     14  C   UNL A   1      35.029  23.327  24.779  1.00  0.00    -0.026 A 
ATOM     15  Br  UNL A   1      35.849  20.546  25.033  1.00  0.00    -0.050 Br
ATOM     16  C   UNL A   1      34.060  24.349  24.612  1.00  0.00     0.021 A 
ATOM     17  O   UNL A   1      31.721  24.927  24.283  1.00  0.00    -0.475 OA
ATOM     18  C   UNL A   1      36.476  23.716  24.979  1.00  0.00     0.046 C 
ATOM     19  C   UNL A   1      34.383  25.780  24.666  1.00  0.00     0.026 C 
ATOM     20  C   UNL A   1      32.116  26.248  23.822  1.00  0.00     0.314 C 
BRANCH  20  21
ATOM     21  C   UNL A   1      31.957  26.321  22.293  1.00  0.00     0.429 C 
ATOM     22  F   UNL A   1      31.344  27.479  21.936  1.00  0.00    -0.167 F 
ATOM     23  F   UNL A   1      33.144  26.300  21.644  1.00  0.00    -0.167 F 
ATOM     24  F   UNL A   1      31.216  25.303  21.798  1.00  0.00    -0.167 F 
ENDBRANCH  20  21
ENDBRANCH   5   8
ENDBRANCH   3   4
ENDBRANCH   2   3
ENDBRANCH   1   2
BRANCH   1  25
ATOM     25  C   UNL A   1      33.314  31.813  27.414  1.00  0.00     0.116 C 
BRANCH  25  26
ATOM     26  N   UNL A   1      32.847  33.178  27.613  1.00  0.00    -0.352 N 
ATOM     27  C   UNL A   1      33.311  34.108  28.512  1.00  0.00     0.251 C 
ATOM     28  H   UNL A   1      32.108  33.470  27.031  1.00  0.00     0.163 HD
ATOM     29  O   UNL A   1      32.758  35.198  28.617  1.00  0.00    -0.269 OA
BRANCH  27  30
ATOM     30  C   UNL A   1      34.451  33.753  29.380  1.00  0.00     0.039 A 
ATOM     31  C   UNL A   1      34.240  32.865  30.438  1.00  0.00     0.014 A 
ATOM     32  C   UNL A   1      35.730  34.240  29.100  1.00  0.00     0.014 A 
ATOM     33  C   UNL A   1      35.333  32.399  31.169  1.00  0.00     0.010 A 
ATOM     34  C   UNL A   1      36.823  33.736  29.797  1.00  0.00     0.010 A 
ATOM     35  C   UNL A   1      36.635  32.798  30.826  1.00  0.00    -0.014 A 
BRANCH  35  36
ATOM     36  C   UNL A   1      37.822  32.235  31.513  1.00  0.00     0.031 A 
ATOM     37  C   UNL A   1      38.620  31.147  30.857  1.00  0.00     0.074 A 
ATOM     38  C   UNL A   1      38.134  32.657  32.754  1.00  0.00     0.049 A 
ATOM     39  N   UNL A   1      39.599  30.431  31.346  1.00  0.00    -0.248 NA
ATOM     40  C   UNL A   1      38.247  30.802  29.477  1.00  0.00     0.031 C 
ATOM     41  C   UNL A   1      37.423  33.698  33.500  1.00  0.00     0.029 A 
ATOM     42  N   UNL A   1      39.126  32.253  33.612  1.00  0.00    -0.354 N 
ATOM     43  C   UNL A   1      39.953  29.541  30.339  1.00  0.00     0.074 A 
ATOM     44  C   UNL A   1      39.054  29.781  29.230  1.00  0.00     0.031 C 
ATOM     45  C   UNL A   1      38.016  33.868  34.691  1.00  0.00     0.029 A 
ATOM     46  C   UNL A   1      39.119  32.920  34.815  1.00  0.00     0.049 A 
ATOM     47  H   UNL A   1      39.781  31.554  33.388  1.00  0.00     0.167 HD
ATOM     48  C   UNL A   1      40.946  28.618  30.337  1.00  0.00     0.034 A 
ATOM     49  C   UNL A   1      39.905  32.774  35.899  1.00  0.00     0.034 A 
ATOM     50  C   UNL A   1      41.841  28.397  31.445  1.00  0.00     0.049 A 
ATOM     51  C   UNL A   1      40.988  31.731  35.882  1.00  0.00     0.074 A 
ATOM     52  C   UNL A   1      42.887  27.494  31.543  1.00  0.00     0.029 A 
ATOM     53  N   UNL A   1      41.800  29.088  32.648  1.00  0.00    -0.354 N 
ATOM     54  N   UNL A   1      41.291  30.875  34.935  1.00  0.00    -0.248 NA
ATOM     55  C   UNL A   1      41.834  31.635  37.079  1.00  0.00     0.031 C 
ATOM     56  C   UNL A   1      43.451  27.613  32.818  1.00  0.00     0.029 A 
ATOM     57  C   UNL A   1      42.794  28.628  33.496  1.00  0.00     0.049 A 
ATOM     58  H   UNL A   1      41.159  29.803  32.867  1.00  0.00     0.167 HD
ATOM     59  C   UNL A   1      42.377  30.150  35.414  1.00  0.00     0.074 A 
ATOM     60  C   UNL A   1      42.677  30.671  36.733  1.00  0.00     0.031 C 
ATOM     61  C   UNL A   1      43.068  29.149  34.814  1.00  0.00     0.034 A 
BRANCH  48  62
ATOM     62  C   UNL A   1      41.091  27.768  29.102  1.00  0.00     0.023 A 
ATOM     63  C   UNL A   1      42.092  28.024  28.149  1.00  0.00     0.031 A 
ATOM     64  C   UNL A   1      40.202  26.705  28.862  1.00  0.00     0.131 A 
ATOM     65  C   UNL A   1      42.142  27.267  26.970  1.00  0.00     0.055 A 
ATOM     66  C   UNL A   1      40.302  25.911  27.718  1.00  0.00     0.041 A 
ATOM     67  F   UNL A   1      39.215  26.431  29.729  1.00  0.00    -0.206 F 
ATOM     68  C   UNL A   1      41.269  26.197  26.758  1.00  0.00     0.022 A 
BRANCH  65  69
ATOM     69  S   UNL A   1      43.300  27.766  25.667  1.00  0.00     0.124 S 
ATOM     70  O   UNL A   1      43.797  29.036  26.190  1.00  0.00    -0.237 OA
ATOM     71  O   UNL A   1      44.255  26.665  25.651  1.00  0.00    -0.237 OA
ATOM     72  O   UNL A   1      42.454  27.875  24.480  1.00  0.00    -0.744 OA
ENDBRANCH  65  69
ENDBRANCH  48  62
BRANCH  49  73
ATOM     73  C   UNL A   1      39.690  33.633  37.093  1.00  0.00     0.023 A 
ATOM     74  C   UNL A   1      39.150  33.098  38.273  1.00  0.00     0.031 A 
ATOM     75  C   UNL A   1      40.031  34.997  37.073  1.00  0.00     0.131 A 
ATOM     76  C   UNL A   1      38.946  33.931  39.383  1.00  0.00     0.055 A 
ATOM     77  C   UNL A   1      39.854  35.813  38.191  1.00  0.00     0.041 A 
ATOM     78  F   UNL A   1      40.565  35.546  35.971  1.00  0.00    -0.206 F 
ATOM     79  C   UNL A   1      39.304  35.282  39.354  1.00  0.00     0.022 A 
BRANCH  76  80
ATOM     80  S   UNL A   1      38.193  33.224  40.875  1.00  0.00     0.124 S 
ATOM     81  O   UNL A   1      38.832  34.007  41.928  1.00  0.00    -0.237 OA
ATOM     82  O   UNL A   1      36.775  33.481  40.653  1.00  0.00    -0.237 OA
ATOM     83  O   UNL A   1      38.583  31.817  40.817  1.00  0.00    -0.744 OA
ENDBRANCH  76  80
ENDBRANCH  49  73
BRANCH  61  84
ATOM     84  C   UNL A   1      44.239  28.578  35.568  1.00  0.00     0.023 A 
ATOM     85  C   UNL A   1      44.075  27.556  36.518  1.00  0.00     0.031 A 
ATOM     86  C   UNL A   1      45.537  29.057  35.318  1.00  0.00     0.131 A 
ATOM     87  C   UNL A   1      45.193  27.069  37.213  1.00  0.00     0.055 A 
ATOM     88  C   UNL A   1      46.649  28.538  35.981  1.00  0.00     0.041 A 
ATOM     89  F   UNL A   1      45.742  30.033  34.419  1.00  0.00    -0.206 F 
ATOM     90  C   UNL A   1      46.479  27.543  36.940  1.00  0.00     0.022 A 
BRANCH  87  91
ATOM     91  S   UNL A   1      44.939  25.834  38.516  1.00  0.00     0.124 S 
ATOM     92  O   UNL A   1      44.136  26.576  39.483  1.00  0.00    -0.237 OA
ATOM     93  O   UNL A   1      44.250  24.762  37.805  1.00  0.00    -0.237 OA
ATOM     94  O   UNL A   1      46.296  25.513  38.954  1.00  0.00    -0.744 OA
ENDBRANCH  87  91
ENDBRANCH  61  84
ENDBRANCH  35  36
ENDBRANCH  27  30
ENDBRANCH  25  26
ENDBRANCH   1  25
TORSDOF 15
ENDMDL
MODEL 2
REMARK VINA RESULT:     -12.3      4.924      8.455
REMARK SMILES Cc1cc2c(c(C)c1Br)C=C(C(=O)NCCCCNC(=O)c1ccc(-c3c4nc(c(-c5cc(S(=O)(=O)[O-])ccc5F)c5ccc([nH]5)c(-c5cc(S(=O)(=O)[O-])ccc5F)c5nc(c(-c6cc(S(=O)(=O)[O-])ccc6F)c6ccc3[nH]6)C=C5)C=C4)cc1)[C@@H](C(F)(F)F)O2
REMARK SMILES IDX 17 1 16 2 15 3 14 4 12 5 13 6 11 8 1 9 2 10 3 11 8 12 4 13
REMARK SMILES IDX 6 14 9 15 5 16 90 17 7 18 10 19 85 20 86 21 87 22 88 23
REMARK SMILES IDX 89 24 18 25 19 26 20 27 21 29 22 30 23 31 84 32 24 33 83 34
REMARK SMILES IDX 25 35 26 36 27 37 77 38 28 39 82 40 76 41 78 42 29 43 81 44
REMARK SMILES IDX 75 45 74 46 30 48 62 49 42 50 61 51 43 52 46 53 60 54 79 55
REMARK SMILES IDX 44 56 45 57 59 59 80 60 47 61 31 62 32 63 40 64 33 65 39 66
REMARK SMILES IDX 41 67 38 68 34 69 35 70 36 71 37 72 63 73 64 74 72 75 65 76
REMARK SMILES IDX 71 77 73 78 70 79 66 80 67 81 68 82 69 83 48 84 49 85 57 86
REMARK SMILES IDX 50 87 56 88 58 89 55 90 51 91 52 92 53 93 54 94
REMARK H PARENT 14 7 19 28 78 47 46 58
REMARK Flexibility Score: inf
ROOT
ATOM      1  C   UNL A   1      35.532  22.225  26.099  1.00  0.00     0.023 C 
ENDROOT
BRANCH   1   2
ATOM      2  C   UNL A   1      34.656  23.473  26.247  1.00  0.00     0.023 C 
BRANCH   2   3
ATOM      3  C   UNL A   1      33.412  23.476  25.363  1.00  0.00     0.116 C 
BRANCH   3   4
ATOM      4  N   UNL A   1      33.705  23.937  24.017  1.00  0.00    -0.352 N 
ATOM      5  C   UNL A   1      33.514  25.063  23.292  1.00  0.00     0.251 C 
ATOM      6  O   UNL A   1      33.929  25.016  22.129  1.00  0.00    -0.270 OA
ATOM      7  H   UNL A   1      34.165  23.244  23.491  1.00  0.00     0.163 HD
BRANCH   5   8
ATOM      8  C   UNL A   1      32.863  26.315  23.785  1.00  0.00     0.067 C 
ATOM      9  C   UNL A   1      31.222  31.992  26.528  1.00  0.00     0.046 C 
ATOM     10  C   UNL A   1      31.898  30.724  26.082  1.00  0.00    -0.033 A 
ATOM     11  C   UNL A   1      31.268  29.951  25.102  1.00  0.00     0.051 A 
ATOM     12  C   UNL A   1      33.142  30.293  26.593  1.00  0.00     0.024 A 
ATOM     13  C   UNL A   1      31.845  28.769  24.649  1.00  0.00     0.128 A 
ATOM     14  C   UNL A   1      33.742  29.089  26.140  1.00  0.00    -0.026 A 
ATOM     15  Br  UNL A   1      34.011  31.390  27.900  1.00  0.00    -0.050 Br
ATOM     16  C   UNL A   1      33.075  28.329  25.145  1.00  0.00     0.021 A 
ATOM     17  O   UNL A   1      31.153  28.115  23.671  1.00  0.00    -0.475 OA
ATOM     18  C   UNL A   1      35.070  28.596  26.668  1.00  0.00     0.046 C 
ATOM     19  C   UNL A   1      33.631  27.101  24.563  1.00  0.00     0.026 C 
ATOM     20  C   UNL A   1      31.441  26.699  23.508  1.00  0.00     0.314 C 
BRANCH  20  21
ATOM     21  C   UNL A   1      30.428  25.878  24.326  1.00  0.00     0.429 C 
ATOM     22  F   UNL A   1      30.846  25.754  25.612  1.00  0.00    -0.167 F 
ATOM     23  F   UNL A   1      29.206  26.456  24.375  1.00  0.00    -0.167 F 
ATOM     24  F   UNL A   1      30.255  24.628  23.837  1.00  0.00    -0.167 F 
ENDBRANCH  20  21
ENDBRANCH   5   8
ENDBRANCH   3   4
ENDBRANCH   2   3
ENDBRANCH   1   2
BRANCH   1  25
ATOM     25  C   UNL A   1      36.880  22.443  25.412  1.00  0.00     0.116 C 
BRANCH  25  26
ATOM     26  N   UNL A   1      37.840  21.374  25.648  1.00  0.00    -0.352 N 
ATOM     27  C   UNL A   1      39.107  21.475  26.171  1.00  0.00     0.251 C 
ATOM     28  H   UNL A   1      37.544  20.467  25.403  1.00  0.00     0.163 HD
ATOM     29  O   UNL A   1      39.831  20.486  26.235  1.00  0.00    -0.269 OA
BRANCH  27  30
ATOM     30  C   UNL A   1      39.594  22.797  26.607  1.00  0.00     0.039 A 
ATOM     31  C   UNL A   1      40.630  22.859  27.541  1.00  0.00     0.014 A 
ATOM     32  C   UNL A   1      39.076  23.964  26.037  1.00  0.00     0.014 A 
ATOM     33  C   UNL A   1      41.207  24.092  27.845  1.00  0.00     0.010 A 
ATOM     34  C   UNL A   1      39.685  25.186  26.304  1.00  0.00     0.010 A 
ATOM     35  C   UNL A   1      40.767  25.257  27.197  1.00  0.00    -0.014 A 
BRANCH  35  36
ATOM     36  C   UNL A   1      41.433  26.563  27.418  1.00  0.00     0.031 A 
ATOM     37  C   UNL A   1      42.814  26.799  26.881  1.00  0.00     0.074 A 
ATOM     38  C   UNL A   1      40.820  27.505  28.162  1.00  0.00     0.049 A 
ATOM     39  N   UNL A   1      43.618  27.810  27.083  1.00  0.00    -0.248 NA
ATOM     40  C   UNL A   1      43.373  25.742  26.025  1.00  0.00     0.031 C 
ATOM     41  C   UNL A   1      39.483  27.384  28.749  1.00  0.00     0.029 A 
ATOM     42  N   UNL A   1      41.245  28.747  28.558  1.00  0.00    -0.354 N 
ATOM     43  C   UNL A   1      44.784  27.508  26.390  1.00  0.00     0.074 A 
ATOM     44  C   UNL A   1      44.595  26.200  25.799  1.00  0.00     0.031 C 
ATOM     45  C   UNL A   1      39.190  28.515  29.409  1.00  0.00     0.029 A 
ATOM     46  C   UNL A   1      40.330  29.422  29.331  1.00  0.00     0.049 A 
ATOM     47  H   UNL A   1      42.122  29.121  28.312  1.00  0.00     0.167 HD
ATOM     48  C   UNL A   1      45.902  28.261  26.250  1.00  0.00     0.034 A 
ATOM     49  C   UNL A   1      40.408  30.630  29.922  1.00  0.00     0.034 A 
ATOM     50  C   UNL A   1      46.073  29.566  26.836  1.00  0.00     0.049 A 
ATOM     51  C   UNL A   1      41.666  31.440  29.769  1.00  0.00     0.074 A 
ATOM     52  C   UNL A   1      47.162  30.417  26.748  1.00  0.00     0.029 A 
ATOM     53  N   UNL A   1      45.126  30.216  27.617  1.00  0.00    -0.354 N 
ATOM     54  N   UNL A   1      42.773  31.129  29.137  1.00  0.00    -0.248 NA
ATOM     55  C   UNL A   1      41.685  32.762  30.409  1.00  0.00     0.031 C 
ATOM     56  C   UNL A   1      46.889  31.560  27.507  1.00  0.00     0.029 A 
ATOM     57  C   UNL A   1      45.607  31.449  28.024  1.00  0.00     0.049 A 
ATOM     58  H   UNL A   1      44.240  29.853  27.847  1.00  0.00     0.167 HD
ATOM     59  C   UNL A   1      43.615  32.226  29.286  1.00  0.00     0.074 A 
ATOM     60  C   UNL A   1      42.887  33.207  30.066  1.00  0.00     0.031 C 
ATOM     61  C   UNL A   1      44.874  32.407  28.814  1.00  0.00     0.034 A 
BRANCH  48  62
ATOM     62  C   UNL A   1      47.032  27.668  25.450  1.00  0.00     0.023 A 
ATOM     63  C   UNL A   1      47.240  28.019  24.104  1.00  0.00     0.031 A 
ATOM     64  C   UNL A   1      47.896  26.723  26.030  1.00  0.00     0.131 A 
ATOM     65  C   UNL A   1      48.248  27.382  23.365  1.00  0.00     0.055 A 
ATOM     66  C   UNL A   1      48.941  26.145  25.307  1.00  0.00     0.041 A 
ATOM     67  F   UNL A   1      47.729  26.337  27.305  1.00  0.00    -0.206 F 
ATOM     68  C   UNL A   1      49.115  26.465  23.963  1.00  0.00     0.022 A 
BRANCH  65  69
ATOM     69  S   UNL A   1      48.344  27.694  21.582  1.00  0.00     0.124 S 
ATOM     70  O   UNL A   1      49.419  28.681  21.516  1.00  0.00    -0.237 OA
ATOM     71  O   UNL A   1      48.655  26.375  21.044  1.00  0.00    -0.237 OA
ATOM     72  O   UNL A   1      47.015  28.204  21.252  1.00  0.00    -0.744 OA
ENDBRANCH  65  69
ENDBRANCH  48  62
BRANCH  49  73
ATOM     73  C   UNL A   1      39.262  31.144  30.717  1.00  0.00     0.023 A 
ATOM     74  C   UNL A   1      39.299  31.129  32.120  1.00  0.00     0.031 A 
ATOM     75  C   UNL A   1      38.119  31.664  30.086  1.00  0.00     0.131 A 
ATOM     76  C   UNL A   1      38.201  31.607  32.849  1.00  0.00     0.055 A 
ATOM     77  C   UNL A   1      37.042  32.167  30.817  1.00  0.00     0.041 A 
ATOM     78  F   UNL A   1      38.047  31.713  28.746  1.00  0.00    -0.206 F 
ATOM     79  C   UNL A   1      37.077  32.136  32.207  1.00  0.00     0.022 A 
BRANCH  76  80
ATOM     80  S   UNL A   1      38.254  31.522  34.661  1.00  0.00     0.124 S 
ATOM     81  O   UNL A   1      38.274  30.081  34.889  1.00  0.00    -0.237 OA
ATOM     82  O   UNL A   1      39.488  32.238  34.965  1.00  0.00    -0.237 OA
ATOM     83  O   UNL A   1      37.028  32.203  35.069  1.00  0.00    -0.744 OA
ENDBRANCH  76  80
ENDBRANCH  49  73
BRANCH  61  84
ATOM     84  C   UNL A   1      45.527  33.733  29.101  1.00  0.00     0.023 A 
ATOM     85  C   UNL A   1      45.356  34.837  28.250  1.00  0.00     0.031 A 
ATOM     86  C   UNL A   1      46.319  33.891  30.252  1.00  0.00     0.131 A 
ATOM     87  C   UNL A   1      46.001  36.048  28.546  1.00  0.00     0.055 A 
ATOM     88  C   UNL A   1      46.923  35.110  30.562  1.00  0.00     0.041 A 
ATOM     89  F   UNL A   1      46.511  32.864  31.095  1.00  0.00    -0.206 F 
ATOM     90  C   UNL A   1      46.771  36.195  29.703  1.00  0.00     0.022 A 
BRANCH  87  91
ATOM     91  S   UNL A   1      45.858  37.421  27.371  1.00  0.00     0.124 S 
ATOM     92  O   UNL A   1      44.478  37.285  26.914  1.00  0.00    -0.237 OA
ATOM     93  O   UNL A   1      46.140  38.583  28.207  1.00  0.00    -0.237 OA
ATOM     94  O   UNL A   1      46.877  37.121  26.366  1.00  0.00    -0.744 OA
ENDBRANCH  87  91
ENDBRANCH  61  84
ENDBRANCH  35  36
ENDBRANCH  27  30
ENDBRANCH  25  26
ENDBRANCH   1  25
TORSDOF 15
ENDMDL
MODEL 3
REMARK VINA RESULT:     -12.2      2.292      3.062
REMARK SMILES Cc1cc2c(c(C)c1Br)C=C(C(=O)NCCCCNC(=O)c1ccc(-c3c4nc(c(-c5cc(S(=O)(=O)[O-])ccc5F)c5ccc([nH]5)c(-c5cc(S(=O)(=O)[O-])ccc5F)c5nc(c(-c6cc(S(=O)(=O)[O-])ccc6F)c6ccc3[nH]6)C=C5)C=C4)cc1)[C@@H](C(F)(F)F)O2
REMARK SMILES IDX 17 1 16 2 15 3 14 4 12 5 13 6 11 8 1 9 2 10 3 11 8 12 4 13
REMARK SMILES IDX 6 14 9 15 5 16 90 17 7 18 10 19 85 20 86 21 87 22 88 23
REMARK SMILES IDX 89 24 18 25 19 26 20 27 21 29 22 30 23 31 84 32 24 33 83 34
REMARK SMILES IDX 25 35 26 36 27 37 77 38 28 39 82 40 76 41 78 42 29 43 81 44
REMARK SMILES IDX 75 45 74 46 30 48 62 49 42 50 61 51 43 52 46 53 60 54 79 55
REMARK SMILES IDX 44 56 45 57 59 59 80 60 47 61 31 62 32 63 40 64 33 65 39 66
REMARK SMILES IDX 41 67 38 68 34 69 35 70 36 71 37 72 63 73 64 74 72 75 65 76
REMARK SMILES IDX 71 77 73 78 70 79 66 80 67 81 68 82 69 83 48 84 49 85 57 86
REMARK SMILES IDX 50 87 56 88 58 89 55 90 51 91 52 92 53 93 54 94
REMARK H PARENT 14 7 19 28 78 47 46 58
REMARK Flexibility Score: inf
ROOT
ATOM      1  C   UNL A   1      32.048  29.291  25.467  1.00  0.00     0.023 C 
ENDROOT
BRANCH   1   2
ATOM      2  C   UNL A   1      33.375  29.034  24.744  1.00  0.00     0.023 C 
BRANCH   2   3
ATOM      3  C   UNL A   1      33.659  27.562  24.459  1.00  0.00     0.116 C 
BRANCH   3   4
ATOM      4  N   UNL A   1      32.829  27.048  23.383  1.00  0.00    -0.352 N 
ATOM      5  C   UNL A   1      32.310  25.854  23.015  1.00  0.00     0.251 C 
ATOM      6  O   UNL A   1      31.642  25.869  21.975  1.00  0.00    -0.270 OA
ATOM      7  H   UNL A   1      32.576  27.760  22.752  1.00  0.00     0.163 HD
BRANCH   5   8
ATOM      8  C   UNL A   1      32.482  24.567  23.754  1.00  0.00     0.067 C 
ATOM      9  C   UNL A   1      33.096  18.396  25.750  1.00  0.00     0.046 C 
ATOM     10  C   UNL A   1      32.883  19.669  24.977  1.00  0.00    -0.033 A 
ATOM     11  C   UNL A   1      33.131  20.883  25.627  1.00  0.00     0.051 A 
ATOM     12  C   UNL A   1      32.462  19.691  23.629  1.00  0.00     0.024 A 
ATOM     13  C   UNL A   1      32.951  22.092  24.963  1.00  0.00     0.128 A 
ATOM     14  C   UNL A   1      32.275  20.919  22.942  1.00  0.00    -0.026 A 
ATOM     15  Br  UNL A   1      32.173  18.017  22.745  1.00  0.00    -0.050 Br
ATOM     16  C   UNL A   1      32.536  22.131  23.630  1.00  0.00     0.021 A 
ATOM     17  O   UNL A   1      33.252  23.209  25.689  1.00  0.00    -0.475 OA
ATOM     18  C   UNL A   1      31.822  20.979  21.501  1.00  0.00     0.046 C 
ATOM     19  C   UNL A   1      32.431  23.452  23.000  1.00  0.00     0.026 C 
ATOM     20  C   UNL A   1      32.653  24.455  25.239  1.00  0.00     0.314 C 
BRANCH  20  21
ATOM     21  C   UNL A   1      31.345  24.698  26.013  1.00  0.00     0.429 C 
ATOM     22  F   UNL A   1      31.419  24.149  27.252  1.00  0.00    -0.167 F 
ATOM     23  F   UNL A   1      31.082  26.013  26.192  1.00  0.00    -0.167 F 
ATOM     24  F   UNL A   1      30.268  24.159  25.397  1.00  0.00    -0.167 F 
ENDBRANCH  20  21
ENDBRANCH   5   8
ENDBRANCH   3   4
ENDBRANCH   2   3
ENDBRANCH   1   2
BRANCH   1  25
ATOM     25  C   UNL A   1      32.166  29.894  26.867  1.00  0.00     0.116 C 
BRANCH  25  26
ATOM     26  N   UNL A   1      32.043  31.345  26.894  1.00  0.00    -0.352 N 
ATOM     27  C   UNL A   1      32.953  32.262  27.362  1.00  0.00     0.251 C 
ATOM     28  H   UNL A   1      31.204  31.713  26.533  1.00  0.00     0.163 HD
ATOM     29  O   UNL A   1      32.670  33.456  27.392  1.00  0.00    -0.269 OA
BRANCH  27  30
ATOM     30  C   UNL A   1      34.252  31.780  27.870  1.00  0.00     0.039 A 
ATOM     31  C   UNL A   1      35.296  32.696  28.023  1.00  0.00     0.014 A 
ATOM     32  C   UNL A   1      34.408  30.447  28.260  1.00  0.00     0.014 A 
ATOM     33  C   UNL A   1      36.476  32.291  28.648  1.00  0.00     0.010 A 
ATOM     34  C   UNL A   1      35.566  30.059  28.926  1.00  0.00     0.010 A 
ATOM     35  C   UNL A   1      36.602  30.982  29.141  1.00  0.00    -0.014 A 
BRANCH  35  36
ATOM     36  C   UNL A   1      37.800  30.557  29.904  1.00  0.00     0.031 A 
ATOM     37  C   UNL A   1      38.802  29.636  29.272  1.00  0.00     0.074 A 
ATOM     38  C   UNL A   1      37.944  30.944  31.187  1.00  0.00     0.049 A 
ATOM     39  N   UNL A   1      39.833  29.041  29.812  1.00  0.00    -0.248 NA
ATOM     40  C   UNL A   1      38.598  29.324  27.849  1.00  0.00     0.031 C 
ATOM     41  C   UNL A   1      37.027  31.826  31.914  1.00  0.00     0.029 A 
ATOM     42  N   UNL A   1      38.911  30.638  32.109  1.00  0.00    -0.354 N 
ATOM     43  C   UNL A   1      40.397  28.273  28.800  1.00  0.00     0.074 A 
ATOM     44  C   UNL A   1      39.565  28.446  27.627  1.00  0.00     0.031 C 
ATOM     45  C   UNL A   1      37.489  32.008  33.160  1.00  0.00     0.029 A 
ATOM     46  C   UNL A   1      38.707  31.223  33.337  1.00  0.00     0.049 A 
ATOM     47  H   UNL A   1      39.679  30.055  31.912  1.00  0.00     0.167 HD
ATOM     48  C   UNL A   1      41.513  27.505  28.844  1.00  0.00     0.034 A 
ATOM     49  C   UNL A   1      39.414  31.127  34.479  1.00  0.00     0.034 A 
ATOM     50  C   UNL A   1      42.338  27.350  30.015  1.00  0.00     0.049 A 
ATOM     51  C   UNL A   1      40.639  30.255  34.510  1.00  0.00     0.074 A 
ATOM     52  C   UNL A   1      43.495  26.604  30.164  1.00  0.00     0.029 A 
ATOM     53  N   UNL A   1      42.097  27.955  31.241  1.00  0.00    -0.354 N 
ATOM     54  N   UNL A   1      41.143  29.510  33.555  1.00  0.00    -0.248 NA
ATOM     55  C   UNL A   1      41.389  30.211  35.772  1.00  0.00     0.031 C 
ATOM     56  C   UNL A   1      43.929  26.726  31.488  1.00  0.00     0.029 A 
ATOM     57  C   UNL A   1      43.076  27.594  32.152  1.00  0.00     0.049 A 
ATOM     58  H   UNL A   1      41.341  28.555  31.435  1.00  0.00     0.167 HD
ATOM     59  C   UNL A   1      42.282  28.922  34.094  1.00  0.00     0.074 A 
ATOM     60  C   UNL A   1      42.392  29.401  35.458  1.00  0.00     0.031 C 
ATOM     61  C   UNL A   1      43.160  28.068  33.512  1.00  0.00     0.034 A 
BRANCH  48  62
ATOM     62  C   UNL A   1      41.883  26.760  27.588  1.00  0.00     0.023 A 
ATOM     63  C   UNL A   1      41.651  25.379  27.460  1.00  0.00     0.031 A 
ATOM     64  C   UNL A   1      42.496  27.431  26.515  1.00  0.00     0.131 A 
ATOM     65  C   UNL A   1      42.087  24.702  26.312  1.00  0.00     0.055 A 
ATOM     66  C   UNL A   1      42.863  26.764  25.346  1.00  0.00     0.041 A 
ATOM     67  F   UNL A   1      42.759  28.746  26.593  1.00  0.00    -0.206 F 
ATOM     68  C   UNL A   1      42.670  25.388  25.243  1.00  0.00     0.022 A 
BRANCH  65  69
ATOM     69  S   UNL A   1      41.973  22.894  26.275  1.00  0.00     0.124 S 
ATOM     70  O   UNL A   1      42.717  22.530  27.479  1.00  0.00    -0.237 OA
ATOM     71  O   UNL A   1      40.534  22.663  26.321  1.00  0.00    -0.237 OA
ATOM     72  O   UNL A   1      42.622  22.535  25.016  1.00  0.00    -0.744 OA
ENDBRANCH  65  69
ENDBRANCH  48  62
BRANCH  49  73
ATOM     73  C   UNL A   1      38.978  31.874  35.688  1.00  0.00     0.023 A 
ATOM     74  C   UNL A   1      38.224  31.241  36.688  1.00  0.00     0.031 A 
ATOM     75  C   UNL A   1      39.317  33.227  35.865  1.00  0.00     0.131 A 
ATOM     76  C   UNL A   1      37.813  31.968  37.814  1.00  0.00     0.055 A 
ATOM     77  C   UNL A   1      38.932  33.937  37.002  1.00  0.00     0.041 A 
ATOM     78  F   UNL A   1      40.050  33.868  34.941  1.00  0.00    -0.206 F 
ATOM     79  C   UNL A   1      38.171  33.309  37.983  1.00  0.00     0.022 A 
BRANCH  76  80
ATOM     80  S   UNL A   1      36.791  31.138  39.062  1.00  0.00     0.124 S 
ATOM     81  O   UNL A   1      36.628  29.812  38.476  1.00  0.00    -0.237 OA
ATOM     82  O   UNL A   1      37.633  31.217  40.250  1.00  0.00    -0.237 OA
ATOM     83  O   UNL A   1      35.580  31.955  39.107  1.00  0.00    -0.744 OA
ENDBRANCH  76  80
ENDBRANCH  49  73
BRANCH  61  84
ATOM     84  C   UNL A   1      44.338  27.629  34.340  1.00  0.00     0.023 A 
ATOM     85  C   UNL A   1      44.296  26.460  35.117  1.00  0.00     0.031 A 
ATOM     86  C   UNL A   1      45.522  28.387  34.336  1.00  0.00     0.131 A 
ATOM     87  C   UNL A   1      45.410  26.100  35.891  1.00  0.00     0.055 A 
ATOM     88  C   UNL A   1      46.641  28.001  35.074  1.00  0.00     0.041 A 
ATOM     89  F   UNL A   1      45.609  29.512  33.608  1.00  0.00    -0.206 F 
ATOM     90  C   UNL A   1      46.586  26.855  35.862  1.00  0.00     0.022 A 
BRANCH  87  91
ATOM     91  S   UNL A   1      45.288  24.651  36.974  1.00  0.00     0.124 S 
ATOM     92  O   UNL A   1      45.208  23.558  36.009  1.00  0.00    -0.237 OA
ATOM     93  O   UNL A   1      46.522  24.729  37.747  1.00  0.00    -0.237 OA
ATOM     94  O   UNL A   1      44.065  24.895  37.737  1.00  0.00    -0.744 OA
ENDBRANCH  87  91
ENDBRANCH  61  84
ENDBRANCH  35  36
ENDBRANCH  27  30
ENDBRANCH  25  26
ENDBRANCH   1  25
TORSDOF 15
ENDMDL
