MODEL 1
REMARK VINA RESULT:     -10.8      0.000      0.000
REMARK SMILES C[C@H](NC(=O)COc1ccc(C(=O)NCCCCNC(=O)c2ccc(-c3c4nc(c(-c5cc(S(=O)(=O)[O-])ccc5F)c5ccc([nH]5)c(-c5cc(S(=O)(=O)[O-])ccc5F)c5nc(c(-c6cc(S(=O)(=O)[O-])ccc6F)c6ccc3[nH]6)C=C5)C=C4)cc2)cc1)C1CC1
REMARK SMILES IDX 15 1 14 2 12 3 13 4 11 6 8 7 9 8 86 9 10 10 85 11 7 12 6 13
REMARK SMILES IDX 4 14 3 15 5 17 2 18 1 19 87 20 88 21 89 22 16 23 17 24 18 25
REMARK SMILES IDX 19 26 20 27 21 29 22 30 23 31 84 32 24 33 83 34 25 35 26 36
REMARK SMILES IDX 27 37 77 38 28 39 82 40 76 41 78 42 29 43 81 44 75 45 74 46
REMARK SMILES IDX 30 48 62 49 42 50 61 51 43 52 46 53 60 54 79 55 44 56 45 57
REMARK SMILES IDX 59 59 80 60 47 61 31 62 32 63 40 64 33 65 39 66 41 67 38 68
REMARK SMILES IDX 34 69 35 70 36 71 37 72 63 73 64 74 72 75 65 76 71 77 73 78
REMARK SMILES IDX 70 79 66 80 67 81 68 82 69 83 48 84 49 85 57 86 50 87 56 88
REMARK SMILES IDX 58 89 55 90 51 91 52 92 53 93 54 94
REMARK H PARENT 14 5 3 16 19 28 78 47 46 58
REMARK Flexibility Score: inf
ROOT
ATOM      1  C   UNL A   1      32.203  29.784  25.518  1.00  0.00     0.116 C 
ENDROOT
BRANCH   1   2
ATOM      2  N   UNL A   1      31.217  30.014  24.475  1.00  0.00    -0.352 N 
ATOM      3  C   UNL A   1      30.872  29.290  23.360  1.00  0.00     0.251 C 
ATOM      4  O   UNL A   1      29.923  29.691  22.685  1.00  0.00    -0.269 OA
ATOM      5  H   UNL A   1      30.699  30.843  24.591  1.00  0.00     0.163 HD
BRANCH   3   6
ATOM      6  C   UNL A   1      31.575  28.045  22.936  1.00  0.00     0.040 A 
ATOM      7  C   UNL A   1      32.776  25.652  22.017  1.00  0.00     0.120 A 
ATOM      8  C   UNL A   1      31.412  25.693  22.309  1.00  0.00     0.047 A 
ATOM      9  C   UNL A   1      33.529  26.803  22.197  1.00  0.00     0.047 A 
ATOM     10  C   UNL A   1      30.820  26.873  22.782  1.00  0.00     0.017 A 
ATOM     11  C   UNL A   1      32.925  27.992  22.603  1.00  0.00     0.017 A 
BRANCH   7  12
ATOM     12  O   UNL A   1      33.236  24.517  21.415  1.00  0.00    -0.484 OA
BRANCH  12  13
ATOM     13  C   UNL A   1      33.643  23.446  22.246  1.00  0.00     0.329 C 
BRANCH  13  14
ATOM     14  C   UNL A   1      32.693  22.728  23.217  1.00  0.00     0.258 C 
ATOM     15  N   UNL A   1      32.624  22.991  24.545  1.00  0.00    -0.350 N 
ATOM     16  H   UNL A   1      31.881  22.509  24.977  1.00  0.00     0.163 HD
ATOM     17  O   UNL A   1      31.932  21.850  22.791  1.00  0.00    -0.271 OA
BRANCH  15  18
ATOM     18  C   UNL A   1      33.371  23.805  25.493  1.00  0.00     0.082 C 
ATOM     19  C   UNL A   1      32.799  25.165  25.852  1.00  0.00     0.031 C 
BRANCH  18  20
ATOM     20  C   UNL A   1      33.856  23.035  26.699  1.00  0.00     0.011 C 
ATOM     21  C   UNL A   1      33.881  21.528  26.751  1.00  0.00     0.006 C 
ATOM     22  C   UNL A   1      35.174  22.291  26.759  1.00  0.00     0.006 C 
ENDBRANCH  18  20
ENDBRANCH  15  18
ENDBRANCH  13  14
ENDBRANCH  12  13
ENDBRANCH   7  12
ENDBRANCH   3   6
ENDBRANCH   1   2
BRANCH   1  23
ATOM     23  C   UNL A   1      31.735  30.356  26.863  1.00  0.00     0.023 C 
BRANCH  23  24
ATOM     24  C   UNL A   1      31.404  31.848  26.828  1.00  0.00     0.023 C 
BRANCH  24  25
ATOM     25  C   UNL A   1      32.629  32.752  26.875  1.00  0.00     0.116 C 
BRANCH  25  26
ATOM     26  N   UNL A   1      32.416  33.980  27.629  1.00  0.00    -0.352 N 
ATOM     27  C   UNL A   1      33.189  34.463  28.663  1.00  0.00     0.251 C 
ATOM     28  H   UNL A   1      31.636  34.523  27.372  1.00  0.00     0.163 HD
ATOM     29  O   UNL A   1      32.851  35.457  29.289  1.00  0.00    -0.269 OA
BRANCH  27  30
ATOM     30  C   UNL A   1      34.404  33.705  29.030  1.00  0.00     0.039 A 
ATOM     31  C   UNL A   1      35.655  34.260  28.760  1.00  0.00     0.014 A 
ATOM     32  C   UNL A   1      34.291  32.509  29.743  1.00  0.00     0.014 A 
ATOM     33  C   UNL A   1      36.800  33.657  29.284  1.00  0.00     0.010 A 
ATOM     34  C   UNL A   1      35.424  31.949  30.320  1.00  0.00     0.010 A 
ATOM     35  C   UNL A   1      36.688  32.525  30.108  1.00  0.00    -0.014 A 
BRANCH  35  36
ATOM     36  C   UNL A   1      37.871  31.924  30.774  1.00  0.00     0.031 A 
ATOM     37  C   UNL A   1      38.673  30.874  30.061  1.00  0.00     0.074 A 
ATOM     38  C   UNL A   1      38.155  32.248  32.051  1.00  0.00     0.049 A 
ATOM     39  N   UNL A   1      39.646  30.125  30.510  1.00  0.00    -0.248 NA
ATOM     40  C   UNL A   1      38.301  30.606  28.664  1.00  0.00     0.031 C 
ATOM     41  C   UNL A   1      37.425  33.227  32.861  1.00  0.00     0.029 A 
ATOM     42  N   UNL A   1      39.124  31.774  32.900  1.00  0.00    -0.354 N 
ATOM     43  C   UNL A   1      39.984  29.276  29.462  1.00  0.00     0.074 A 
ATOM     44  C   UNL A   1      39.075  29.572  28.375  1.00  0.00     0.031 C 
ATOM     45  C   UNL A   1      37.985  33.295  34.080  1.00  0.00     0.029 A 
ATOM     46  C   UNL A   1      39.081  32.334  34.156  1.00  0.00     0.049 A 
ATOM     47  H   UNL A   1      39.788  31.098  32.634  1.00  0.00     0.167 HD
ATOM     48  C   UNL A   1      40.971  28.347  29.409  1.00  0.00     0.034 A 
ATOM     49  C   UNL A   1      39.829  32.087  35.249  1.00  0.00     0.034 A 
ATOM     50  C   UNL A   1      41.884  28.085  30.495  1.00  0.00     0.049 A 
ATOM     51  C   UNL A   1      40.912  31.041  35.171  1.00  0.00     0.074 A 
ATOM     52  C   UNL A   1      42.966  27.223  30.524  1.00  0.00     0.029 A 
ATOM     53  N   UNL A   1      41.815  28.676  31.751  1.00  0.00    -0.354 N 
ATOM     54  N   UNL A   1      41.251  30.277  34.159  1.00  0.00    -0.248 NA
ATOM     55  C   UNL A   1      41.714  30.828  36.382  1.00  0.00     0.031 C 
ATOM     56  C   UNL A   1      43.514  27.251  31.812  1.00  0.00     0.029 A 
ATOM     57  C   UNL A   1      42.816  28.178  32.569  1.00  0.00     0.049 A 
ATOM     58  H   UNL A   1      41.152  29.353  32.019  1.00  0.00     0.167 HD
ATOM     59  C   UNL A   1      42.330  29.519  34.602  1.00  0.00     0.074 A 
ATOM     60  C   UNL A   1      42.585  29.919  35.971  1.00  0.00     0.031 C 
ATOM     61  C   UNL A   1      43.052  28.584  33.934  1.00  0.00     0.034 A 
BRANCH  48  62
ATOM     62  C   UNL A   1      41.082  27.532  28.143  1.00  0.00     0.023 A 
ATOM     63  C   UNL A   1      40.666  26.189  28.088  1.00  0.00     0.031 A 
ATOM     64  C   UNL A   1      41.660  28.088  26.989  1.00  0.00     0.131 A 
ATOM     65  C   UNL A   1      40.918  25.424  26.939  1.00  0.00     0.055 A 
ATOM     66  C   UNL A   1      41.829  27.345  25.817  1.00  0.00     0.041 A 
ATOM     67  F   UNL A   1      42.095  29.358  26.985  1.00  0.00    -0.206 F 
ATOM     68  C   UNL A   1      41.475  26.000  25.794  1.00  0.00     0.022 A 
BRANCH  65  69
ATOM     69  S   UNL A   1      40.661  23.631  27.023  1.00  0.00     0.124 S 
ATOM     70  O   UNL A   1      41.253  23.189  25.763  1.00  0.00    -0.237 OA
ATOM     71  O   UNL A   1      41.387  23.265  28.234  1.00  0.00    -0.237 OA
ATOM     72  O   UNL A   1      39.208  23.497  27.101  1.00  0.00    -0.744 OA
ENDBRANCH  65  69
ENDBRANCH  48  62
BRANCH  49  73
ATOM     73  C   UNL A   1      39.588  32.835  36.514  1.00  0.00     0.023 A 
ATOM     74  C   UNL A   1      38.700  32.337  37.481  1.00  0.00     0.031 A 
ATOM     75  C   UNL A   1      40.210  34.071  36.761  1.00  0.00     0.131 A 
ATOM     76  C   UNL A   1      38.428  33.089  38.633  1.00  0.00     0.055 A 
ATOM     77  C   UNL A   1      39.969  34.796  37.930  1.00  0.00     0.041 A 
ATOM     78  F   UNL A   1      41.073  34.585  35.872  1.00  0.00    -0.206 F 
ATOM     79  C   UNL A   1      39.064  34.311  38.869  1.00  0.00     0.022 A 
BRANCH  76  80
ATOM     80  S   UNL A   1      37.176  32.476  39.794  1.00  0.00     0.124 S 
ATOM     81  O   UNL A   1      36.069  32.161  38.898  1.00  0.00    -0.237 OA
ATOM     82  O   UNL A   1      37.857  31.337  40.400  1.00  0.00    -0.237 OA
ATOM     83  O   UNL A   1      36.954  33.612  40.686  1.00  0.00    -0.744 OA
ENDBRANCH  76  80
ENDBRANCH  49  73
BRANCH  61  84
ATOM     84  C   UNL A   1      44.223  27.976  34.665  1.00  0.00     0.023 A 
ATOM     85  C   UNL A   1      44.071  26.870  35.519  1.00  0.00     0.031 A 
ATOM     86  C   UNL A   1      45.509  28.524  34.509  1.00  0.00     0.131 A 
ATOM     87  C   UNL A   1      45.180  26.376  36.222  1.00  0.00     0.055 A 
ATOM     88  C   UNL A   1      46.617  27.996  35.170  1.00  0.00     0.041 A 
ATOM     89  F   UNL A   1      45.706  29.583  33.707  1.00  0.00    -0.206 F 
ATOM     90  C   UNL A   1      46.455  26.922  36.042  1.00  0.00     0.022 A 
BRANCH  87  91
ATOM     91  S   UNL A   1      44.926  25.053  37.437  1.00  0.00     0.124 S 
ATOM     92  O   UNL A   1      44.123  24.097  36.681  1.00  0.00    -0.237 OA
ATOM     93  O   UNL A   1      46.292  24.639  37.740  1.00  0.00    -0.237 OA
ATOM     94  O   UNL A   1      44.225  25.722  38.532  1.00  0.00    -0.744 OA
ENDBRANCH  87  91
ENDBRANCH  61  84
ENDBRANCH  35  36
ENDBRANCH  27  30
ENDBRANCH  25  26
ENDBRANCH  24  25
ENDBRANCH  23  24
ENDBRANCH   1  23
TORSDOF 19
ENDMDL
MODEL 2
REMARK VINA RESULT:     -10.6      2.180      2.650
REMARK SMILES C[C@H](NC(=O)COc1ccc(C(=O)NCCCCNC(=O)c2ccc(-c3c4nc(c(-c5cc(S(=O)(=O)[O-])ccc5F)c5ccc([nH]5)c(-c5cc(S(=O)(=O)[O-])ccc5F)c5nc(c(-c6cc(S(=O)(=O)[O-])ccc6F)c6ccc3[nH]6)C=C5)C=C4)cc2)cc1)C1CC1
REMARK SMILES IDX 15 1 14 2 12 3 13 4 11 6 8 7 9 8 86 9 10 10 85 11 7 12 6 13
REMARK SMILES IDX 4 14 3 15 5 17 2 18 1 19 87 20 88 21 89 22 16 23 17 24 18 25
REMARK SMILES IDX 19 26 20 27 21 29 22 30 23 31 84 32 24 33 83 34 25 35 26 36
REMARK SMILES IDX 27 37 77 38 28 39 82 40 76 41 78 42 29 43 81 44 75 45 74 46
REMARK SMILES IDX 30 48 62 49 42 50 61 51 43 52 46 53 60 54 79 55 44 56 45 57
REMARK SMILES IDX 59 59 80 60 47 61 31 62 32 63 40 64 33 65 39 66 41 67 38 68
REMARK SMILES IDX 34 69 35 70 36 71 37 72 63 73 64 74 72 75 65 76 71 77 73 78
REMARK SMILES IDX 70 79 66 80 67 81 68 82 69 83 48 84 49 85 57 86 50 87 56 88
REMARK SMILES IDX 58 89 55 90 51 91 52 92 53 93 54 94
REMARK H PARENT 14 5 3 16 19 28 78 47 46 58
REMARK Flexibility Score: inf
ROOT
ATOM      1  C   UNL A   1      31.682  29.929  24.890  1.00  0.00     0.116 C 
ENDROOT
BRANCH   1   2
ATOM      2  N   UNL A   1      30.480  29.941  24.073  1.00  0.00    -0.352 N 
ATOM      3  C   UNL A   1      29.822  28.946  23.392  1.00  0.00     0.251 C 
ATOM      4  O   UNL A   1      28.759  29.234  22.840  1.00  0.00    -0.269 OA
ATOM      5  H   UNL A   1      30.059  30.827  23.994  1.00  0.00     0.163 HD
BRANCH   3   6
ATOM      6  C   UNL A   1      30.319  27.543  23.299  1.00  0.00     0.040 A 
ATOM      7  C   UNL A   1      31.428  24.946  23.108  1.00  0.00     0.120 A 
ATOM      8  C   UNL A   1      31.848  25.960  22.247  1.00  0.00     0.047 A 
ATOM      9  C   UNL A   1      30.450  25.236  24.049  1.00  0.00     0.047 A 
ATOM     10  C   UNL A   1      31.286  27.242  22.328  1.00  0.00     0.017 A 
ATOM     11  C   UNL A   1      29.941  26.528  24.171  1.00  0.00     0.017 A 
BRANCH   7  12
ATOM     12  O   UNL A   1      32.135  23.779  23.066  1.00  0.00    -0.484 OA
BRANCH  12  13
ATOM     13  C   UNL A   1      33.539  23.850  23.228  1.00  0.00     0.329 C 
BRANCH  13  14
ATOM     14  C   UNL A   1      34.212  24.253  24.549  1.00  0.00     0.258 C 
ATOM     15  N   UNL A   1      34.869  23.390  25.362  1.00  0.00    -0.350 N 
ATOM     16  H   UNL A   1      35.326  23.855  26.100  1.00  0.00     0.163 HD
ATOM     17  O   UNL A   1      34.169  25.433  24.922  1.00  0.00    -0.271 OA
BRANCH  15  18
ATOM     18  C   UNL A   1      35.069  21.949  25.417  1.00  0.00     0.082 C 
ATOM     19  C   UNL A   1      33.839  21.065  25.304  1.00  0.00     0.031 C 
BRANCH  18  20
ATOM     20  C   UNL A   1      36.218  21.466  24.562  1.00  0.00     0.011 C 
ATOM     21  C   UNL A   1      37.663  21.697  24.930  1.00  0.00     0.006 C 
ATOM     22  C   UNL A   1      37.113  20.299  24.925  1.00  0.00     0.006 C 
ENDBRANCH  18  20
ENDBRANCH  15  18
ENDBRANCH  13  14
ENDBRANCH  12  13
ENDBRANCH   7  12
ENDBRANCH   3   6
ENDBRANCH   1   2
BRANCH   1  23
ATOM     23  C   UNL A   1      31.540  30.857  26.104  1.00  0.00     0.023 C 
BRANCH  23  24
ATOM     24  C   UNL A   1      32.539  30.579  27.226  1.00  0.00     0.023 C 
BRANCH  24  25
ATOM     25  C   UNL A   1      33.590  31.668  27.399  1.00  0.00     0.116 C 
BRANCH  25  26
ATOM     26  N   UNL A   1      33.026  33.003  27.541  1.00  0.00    -0.352 N 
ATOM     27  C   UNL A   1      33.400  33.970  28.449  1.00  0.00     0.251 C 
ATOM     28  H   UNL A   1      32.298  33.240  26.922  1.00  0.00     0.163 HD
ATOM     29  O   UNL A   1      32.782  35.020  28.541  1.00  0.00    -0.269 OA
BRANCH  27  30
ATOM     30  C   UNL A   1      34.534  33.669  29.350  1.00  0.00     0.039 A 
ATOM     31  C   UNL A   1      34.330  32.810  30.431  1.00  0.00     0.014 A 
ATOM     32  C   UNL A   1      35.812  34.145  29.046  1.00  0.00     0.014 A 
ATOM     33  C   UNL A   1      35.431  32.356  31.160  1.00  0.00     0.010 A 
ATOM     34  C   UNL A   1      36.909  33.639  29.731  1.00  0.00     0.010 A 
ATOM     35  C   UNL A   1      36.731  32.729  30.785  1.00  0.00    -0.014 A 
BRANCH  35  36
ATOM     36  C   UNL A   1      37.929  32.176  31.466  1.00  0.00     0.031 A 
ATOM     37  C   UNL A   1      38.721  31.083  30.808  1.00  0.00     0.074 A 
ATOM     38  C   UNL A   1      38.237  32.583  32.713  1.00  0.00     0.049 A 
ATOM     39  N   UNL A   1      39.705  30.367  31.286  1.00  0.00    -0.248 NA
ATOM     40  C   UNL A   1      38.322  30.723  29.439  1.00  0.00     0.031 C 
ATOM     41  C   UNL A   1      37.520  33.612  33.471  1.00  0.00     0.029 A 
ATOM     42  N   UNL A   1      39.224  32.168  33.572  1.00  0.00    -0.354 N 
ATOM     43  C   UNL A   1      40.025  29.452  30.289  1.00  0.00     0.074 A 
ATOM     44  C   UNL A   1      39.094  29.674  29.203  1.00  0.00     0.031 C 
ATOM     45  C   UNL A   1      38.103  33.760  34.672  1.00  0.00     0.029 A 
ATOM     46  C   UNL A   1      39.203  32.809  34.790  1.00  0.00     0.049 A 
ATOM     47  H   UNL A   1      39.885  31.478  33.338  1.00  0.00     0.167 HD
ATOM     48  C   UNL A   1      41.014  28.524  30.277  1.00  0.00     0.034 A 
ATOM     49  C   UNL A   1      39.973  32.636  35.881  1.00  0.00     0.034 A 
ATOM     50  C   UNL A   1      41.949  28.336  31.360  1.00  0.00     0.049 A 
ATOM     51  C   UNL A   1      41.058  31.589  35.850  1.00  0.00     0.074 A 
ATOM     52  C   UNL A   1      43.035  27.480  31.424  1.00  0.00     0.029 A 
ATOM     53  N   UNL A   1      41.903  29.008  32.575  1.00  0.00    -0.354 N 
ATOM     54  N   UNL A   1      41.380  30.762  34.884  1.00  0.00    -0.248 NA
ATOM     55  C   UNL A   1      41.884  31.458  37.057  1.00  0.00     0.031 C 
ATOM     56  C   UNL A   1      43.608  27.593  32.696  1.00  0.00     0.029 A 
ATOM     57  C   UNL A   1      42.921  28.567  33.404  1.00  0.00     0.049 A 
ATOM     58  H   UNL A   1      41.242  29.698  32.812  1.00  0.00     0.167 HD
ATOM     59  C   UNL A   1      42.470  30.036  35.354  1.00  0.00     0.074 A 
ATOM     60  C   UNL A   1      42.750  30.526  36.689  1.00  0.00     0.031 C 
ATOM     61  C   UNL A   1      43.182  29.061  34.736  1.00  0.00     0.034 A 
BRANCH  48  62
ATOM     62  C   UNL A   1      41.104  27.628  29.065  1.00  0.00     0.023 A 
ATOM     63  C   UNL A   1      42.078  27.824  28.070  1.00  0.00     0.031 A 
ATOM     64  C   UNL A   1      40.170  26.594  28.876  1.00  0.00     0.131 A 
ATOM     65  C   UNL A   1      42.039  27.063  26.891  1.00  0.00     0.055 A 
ATOM     66  C   UNL A   1      40.190  25.782  27.739  1.00  0.00     0.041 A 
ATOM     67  F   UNL A   1      39.205  26.370  29.781  1.00  0.00    -0.206 F 
ATOM     68  C   UNL A   1      41.116  26.027  26.730  1.00  0.00     0.022 A 
BRANCH  65  69
ATOM     69  S   UNL A   1      43.102  27.559  25.509  1.00  0.00     0.124 S 
ATOM     70  O   UNL A   1      43.539  26.264  24.993  1.00  0.00    -0.237 OA
ATOM     71  O   UNL A   1      42.184  28.309  24.659  1.00  0.00    -0.237 OA
ATOM     72  O   UNL A   1      44.149  28.352  26.149  1.00  0.00    -0.744 OA
ENDBRANCH  65  69
ENDBRANCH  48  62
BRANCH  49  73
ATOM     73  C   UNL A   1      39.754  33.465  37.099  1.00  0.00     0.023 A 
ATOM     74  C   UNL A   1      40.523  34.617  37.328  1.00  0.00     0.031 A 
ATOM     75  C   UNL A   1      38.803  33.102  38.067  1.00  0.00     0.131 A 
ATOM     76  C   UNL A   1      40.356  35.345  38.515  1.00  0.00     0.055 A 
ATOM     77  C   UNL A   1      38.609  33.854  39.227  1.00  0.00     0.041 A 
ATOM     78  F   UNL A   1      38.037  32.014  37.891  1.00  0.00    -0.206 F 
ATOM     79  C   UNL A   1      39.397  34.977  39.462  1.00  0.00     0.022 A 
BRANCH  76  80
ATOM     80  S   UNL A   1      41.459  36.748  38.835  1.00  0.00     0.124 S 
ATOM     81  O   UNL A   1      42.086  36.937  37.532  1.00  0.00    -0.237 OA
ATOM     82  O   UNL A   1      40.519  37.783  39.253  1.00  0.00    -0.237 OA
ATOM     83  O   UNL A   1      42.343  36.253  39.888  1.00  0.00    -0.744 OA
ENDBRANCH  76  80
ENDBRANCH  49  73
BRANCH  61  84
ATOM     84  C   UNL A   1      44.370  28.505  35.482  1.00  0.00     0.023 A 
ATOM     85  C   UNL A   1      44.229  27.506  36.460  1.00  0.00     0.031 A 
ATOM     86  C   UNL A   1      45.660  28.994  35.211  1.00  0.00     0.131 A 
ATOM     87  C   UNL A   1      45.356  27.062  37.168  1.00  0.00     0.055 A 
ATOM     88  C   UNL A   1      46.783  28.511  35.881  1.00  0.00     0.041 A 
ATOM     89  F   UNL A   1      45.847  29.950  34.287  1.00  0.00    -0.206 F 
ATOM     90  C   UNL A   1      46.634  27.547  36.875  1.00  0.00     0.022 A 
BRANCH  87  91
ATOM     91  S   UNL A   1      45.123  25.892  38.535  1.00  0.00     0.124 S 
ATOM     92  O   UNL A   1      44.772  24.665  37.827  1.00  0.00    -0.237 OA
ATOM     93  O   UNL A   1      46.431  25.903  39.182  1.00  0.00    -0.237 OA
ATOM     94  O   UNL A   1      44.040  26.487  39.317  1.00  0.00    -0.744 OA
ENDBRANCH  87  91
ENDBRANCH  61  84
ENDBRANCH  35  36
ENDBRANCH  27  30
ENDBRANCH  25  26
ENDBRANCH  24  25
ENDBRANCH  23  24
ENDBRANCH   1  23
TORSDOF 19
ENDMDL
MODEL 3
REMARK VINA RESULT:     -10.5      4.563     10.597
REMARK SMILES C[C@H](NC(=O)COc1ccc(C(=O)NCCCCNC(=O)c2ccc(-c3c4nc(c(-c5cc(S(=O)(=O)[O-])ccc5F)c5ccc([nH]5)c(-c5cc(S(=O)(=O)[O-])ccc5F)c5nc(c(-c6cc(S(=O)(=O)[O-])ccc6F)c6ccc3[nH]6)C=C5)C=C4)cc2)cc1)C1CC1
REMARK SMILES IDX 15 1 14 2 12 3 13 4 11 6 8 7 9 8 86 9 10 10 85 11 7 12 6 13
REMARK SMILES IDX 4 14 3 15 5 17 2 18 1 19 87 20 88 21 89 22 16 23 17 24 18 25
REMARK SMILES IDX 19 26 20 27 21 29 22 30 23 31 84 32 24 33 83 34 25 35 26 36
REMARK SMILES IDX 27 37 77 38 28 39 82 40 76 41 78 42 29 43 81 44 75 45 74 46
REMARK SMILES IDX 30 48 62 49 42 50 61 51 43 52 46 53 60 54 79 55 44 56 45 57
REMARK SMILES IDX 59 59 80 60 47 61 31 62 32 63 40 64 33 65 39 66 41 67 38 68
REMARK SMILES IDX 34 69 35 70 36 71 37 72 63 73 64 74 72 75 65 76 71 77 73 78
REMARK SMILES IDX 70 79 66 80 67 81 68 82 69 83 48 84 49 85 57 86 50 87 56 88
REMARK SMILES IDX 58 89 55 90 51 91 52 92 53 93 54 94
REMARK H PARENT 14 5 3 16 19 28 78 47 46 58
REMARK Flexibility Score: inf
ROOT
ATOM      1  C   UNL A   1      38.028  33.160  29.796  1.00  0.00     0.116 C 
ENDROOT
BRANCH   1   2
ATOM      2  N   UNL A   1      38.479  33.690  31.072  1.00  0.00    -0.352 N 
ATOM      3  C   UNL A   1      39.685  34.207  31.478  1.00  0.00     0.251 C 
ATOM      4  O   UNL A   1      39.758  34.668  32.618  1.00  0.00    -0.269 OA
ATOM      5  H   UNL A   1      37.791  33.678  31.775  1.00  0.00     0.163 HD
BRANCH   3   6
ATOM      6  C   UNL A   1      40.897  34.251  30.610  1.00  0.00     0.040 A 
ATOM      7  C   UNL A   1      43.200  34.155  28.968  1.00  0.00     0.120 A 
ATOM      8  C   UNL A   1      43.109  33.355  30.107  1.00  0.00     0.047 A 
ATOM      9  C   UNL A   1      42.145  35.003  28.666  1.00  0.00     0.047 A 
ATOM     10  C   UNL A   1      41.976  33.415  30.932  1.00  0.00     0.017 A 
ATOM     11  C   UNL A   1      40.992  35.012  29.450  1.00  0.00     0.017 A 
BRANCH   7  12
ATOM     12  O   UNL A   1      44.260  33.919  28.141  1.00  0.00    -0.484 OA
BRANCH  12  13
ATOM     13  C   UNL A   1      44.630  32.574  27.906  1.00  0.00     0.329 C 
BRANCH  13  14
ATOM     14  C   UNL A   1      44.584  31.920  26.517  1.00  0.00     0.258 C 
ATOM     15  N   UNL A   1      43.970  30.742  26.251  1.00  0.00    -0.350 N 
ATOM     16  H   UNL A   1      43.953  30.545  25.286  1.00  0.00     0.163 HD
ATOM     17  O   UNL A   1      45.135  32.481  25.559  1.00  0.00    -0.271 OA
BRANCH  15  18
ATOM     18  C   UNL A   1      43.328  29.695  27.033  1.00  0.00     0.082 C 
ATOM     19  C   UNL A   1      41.978  29.190  26.554  1.00  0.00     0.031 C 
BRANCH  18  20
ATOM     20  C   UNL A   1      44.265  28.578  27.430  1.00  0.00     0.011 C 
ATOM     21  C   UNL A   1      45.678  28.473  26.912  1.00  0.00     0.006 C 
ATOM     22  C   UNL A   1      45.440  28.749  28.369  1.00  0.00     0.006 C 
ENDBRANCH  18  20
ENDBRANCH  15  18
ENDBRANCH  13  14
ENDBRANCH  12  13
ENDBRANCH   7  12
ENDBRANCH   3   6
ENDBRANCH   1   2
BRANCH   1  23
ATOM     23  C   UNL A   1      36.883  34.001  29.216  1.00  0.00     0.023 C 
BRANCH  23  24
ATOM     24  C   UNL A   1      35.586  33.934  30.021  1.00  0.00     0.023 C 
BRANCH  24  25
ATOM     25  C   UNL A   1      35.006  32.531  30.140  1.00  0.00     0.116 C 
BRANCH  25  26
ATOM     26  N   UNL A   1      34.260  32.109  28.964  1.00  0.00    -0.352 N 
ATOM     27  C   UNL A   1      34.584  31.086  28.098  1.00  0.00     0.251 C 
ATOM     28  H   UNL A   1      33.435  32.608  28.764  1.00  0.00     0.163 HD
ATOM     29  O   UNL A   1      33.932  30.890  27.083  1.00  0.00    -0.269 OA
BRANCH  27  30
ATOM     30  C   UNL A   1      35.782  30.275  28.405  1.00  0.00     0.039 A 
ATOM     31  C   UNL A   1      36.910  30.400  27.593  1.00  0.00     0.014 A 
ATOM     32  C   UNL A   1      35.815  29.491  29.560  1.00  0.00     0.014 A 
ATOM     33  C   UNL A   1      38.108  29.803  27.990  1.00  0.00     0.010 A 
ATOM     34  C   UNL A   1      37.024  28.955  29.986  1.00  0.00     0.010 A 
ATOM     35  C   UNL A   1      38.185  29.117  29.213  1.00  0.00    -0.014 A 
BRANCH  35  36
ATOM     36  C   UNL A   1      39.468  28.568  29.721  1.00  0.00     0.031 A 
ATOM     37  C   UNL A   1      40.152  29.228  30.883  1.00  0.00     0.074 A 
ATOM     38  C   UNL A   1      40.062  27.548  29.071  1.00  0.00     0.049 A 
ATOM     39  N   UNL A   1      41.337  29.002  31.388  1.00  0.00    -0.248 NA
ATOM     40  C   UNL A   1      39.415  30.318  31.540  1.00  0.00     0.031 C 
ATOM     41  C   UNL A   1      39.512  26.848  27.907  1.00  0.00     0.029 A 
ATOM     42  N   UNL A   1      41.269  26.931  29.287  1.00  0.00    -0.354 N 
ATOM     43  C   UNL A   1      41.501  29.938  32.402  1.00  0.00     0.074 A 
ATOM     44  C   UNL A   1      40.313  30.766  32.403  1.00  0.00     0.031 C 
ATOM     45  C   UNL A   1      40.370  25.888  27.525  1.00  0.00     0.029 A 
ATOM     46  C   UNL A   1      41.549  25.931  28.384  1.00  0.00     0.049 A 
ATOM     47  H   UNL A   1      41.877  27.180  30.020  1.00  0.00     0.167 HD
ATOM     48  C   UNL A   1      42.540  30.083  33.262  1.00  0.00     0.034 A 
ATOM     49  C   UNL A   1      42.640  25.151  28.254  1.00  0.00     0.034 A 
ATOM     50  C   UNL A   1      43.704  29.230  33.261  1.00  0.00     0.049 A 
ATOM     51  C   UNL A   1      43.789  25.338  29.213  1.00  0.00     0.074 A 
ATOM     52  C   UNL A   1      44.779  29.237  34.133  1.00  0.00     0.029 A 
ATOM     53  N   UNL A   1      43.951  28.223  32.337  1.00  0.00    -0.354 N 
ATOM     54  N   UNL A   1      43.912  26.198  30.197  1.00  0.00    -0.248 NA
ATOM     55  C   UNL A   1      44.943  24.446  29.043  1.00  0.00     0.031 C 
ATOM     56  C   UNL A   1      45.700  28.275  33.701  1.00  0.00     0.029 A 
ATOM     57  C   UNL A   1      45.171  27.621  32.599  1.00  0.00     0.049 A 
ATOM     58  H   UNL A   1      43.345  27.971  31.603  1.00  0.00     0.167 HD
ATOM     59  C   UNL A   1      45.142  25.925  30.786  1.00  0.00     0.074 A 
ATOM     60  C   UNL A   1      45.720  24.820  30.047  1.00  0.00     0.031 C 
ATOM     61  C   UNL A   1      45.736  26.525  31.848  1.00  0.00     0.034 A 
BRANCH  48  62
ATOM     62  C   UNL A   1      42.467  31.226  34.245  1.00  0.00     0.023 A 
ATOM     63  C   UNL A   1      41.520  31.249  35.284  1.00  0.00     0.031 A 
ATOM     64  C   UNL A   1      43.322  32.333  34.111  1.00  0.00     0.131 A 
ATOM     65  C   UNL A   1      41.389  32.392  36.087  1.00  0.00     0.055 A 
ATOM     66  C   UNL A   1      43.244  33.433  34.969  1.00  0.00     0.041 A 
ATOM     67  F   UNL A   1      44.234  32.379  33.127  1.00  0.00    -0.206 F 
ATOM     68  C   UNL A   1      42.260  33.475  35.953  1.00  0.00     0.022 A 
BRANCH  65  69
ATOM     69  S   UNL A   1      39.957  32.508  37.194  1.00  0.00     0.124 S 
ATOM     70  O   UNL A   1      40.592  32.424  38.508  1.00  0.00    -0.237 OA
ATOM     71  O   UNL A   1      39.390  33.805  36.841  1.00  0.00    -0.237 OA
ATOM     72  O   UNL A   1      39.145  31.350  36.828  1.00  0.00    -0.744 OA
ENDBRANCH  65  69
ENDBRANCH  48  62
BRANCH  49  73
ATOM     73  C   UNL A   1      42.709  24.122  27.180  1.00  0.00     0.023 A 
ATOM     74  C   UNL A   1      42.083  22.876  27.342  1.00  0.00     0.031 A 
ATOM     75  C   UNL A   1      43.428  24.351  25.995  1.00  0.00     0.131 A 
ATOM     76  C   UNL A   1      42.219  21.891  26.353  1.00  0.00     0.055 A 
ATOM     77  C   UNL A   1      43.525  23.384  24.993  1.00  0.00     0.041 A 
ATOM     78  F   UNL A   1      44.037  25.530  25.789  1.00  0.00    -0.206 F 
ATOM     79  C   UNL A   1      42.928  22.140  25.175  1.00  0.00     0.022 A 
BRANCH  76  80
ATOM     80  S   UNL A   1      41.509  20.250  26.658  1.00  0.00     0.124 S 
ATOM     81  O   UNL A   1      42.229  19.832  27.854  1.00  0.00    -0.237 OA
ATOM     82  O   UNL A   1      40.094  20.562  26.835  1.00  0.00    -0.237 OA
ATOM     83  O   UNL A   1      41.833  19.508  25.442  1.00  0.00    -0.744 OA
ENDBRANCH  76  80
ENDBRANCH  49  73
BRANCH  61  84
ATOM     84  C   UNL A   1      47.056  25.954  32.305  1.00  0.00     0.023 A 
ATOM     85  C   UNL A   1      48.264  26.275  31.663  1.00  0.00     0.031 A 
ATOM     86  C   UNL A   1      47.096  25.067  33.395  1.00  0.00     0.131 A 
ATOM     87  C   UNL A   1      49.458  25.673  32.088  1.00  0.00     0.055 A 
ATOM     88  C   UNL A   1      48.293  24.513  33.847  1.00  0.00     0.041 A 
ATOM     89  F   UNL A   1      45.969  24.728  34.041  1.00  0.00    -0.206 F 
ATOM     90  C   UNL A   1      49.483  24.806  33.185  1.00  0.00     0.022 A 
BRANCH  87  91
ATOM     91  S   UNL A   1      50.975  25.979  31.141  1.00  0.00     0.124 S 
ATOM     92  O   UNL A   1      50.656  25.372  29.853  1.00  0.00    -0.237 OA
ATOM     93  O   UNL A   1      51.065  27.435  31.155  1.00  0.00    -0.237 OA
ATOM     94  O   UNL A   1      52.007  25.288  31.912  1.00  0.00    -0.744 OA
ENDBRANCH  87  91
ENDBRANCH  61  84
ENDBRANCH  35  36
ENDBRANCH  27  30
ENDBRANCH  25  26
ENDBRANCH  24  25
ENDBRANCH  23  24
ENDBRANCH   1  23
TORSDOF 19
ENDMDL
