MODEL 1
REMARK VINA RESULT:     -12.7      0.000      0.000
REMARK SMILES Cc1cc(C)c2c(c1)C=C(C(=O)NCCCCNC(=O)c1ccc(-c3c4nc(c(-c5cc(S(=O)(=O)[O-])ccc5F)c5ccc([nH]5)c(-c5cc(S(=O)(=O)[O-])ccc5F)c5nc(c(-c6cc(S(=O)(=O)[O-])ccc6F)c6ccc3[nH]6)C=C5)C=C4)cc1)[C@@H](C(F)(F)F)O2
REMARK SMILES IDX 16 1 15 2 14 3 13 4 11 5 12 6 10 8 1 9 2 10 3 11 8 12 4 13
REMARK SMILES IDX 7 14 5 15 6 16 9 17 89 18 84 19 85 20 86 21 87 22 88 23
REMARK SMILES IDX 17 24 18 25 19 26 20 28 21 29 22 30 83 31 23 32 82 33 24 34
REMARK SMILES IDX 25 35 26 36 76 37 27 38 81 39 75 40 77 41 28 42 80 43 74 44
REMARK SMILES IDX 73 45 29 47 61 48 41 49 60 50 42 51 45 52 59 53 78 54 43 55
REMARK SMILES IDX 44 56 58 58 79 59 46 60 30 61 31 62 39 63 32 64 38 65 40 66
REMARK SMILES IDX 37 67 33 68 34 69 35 70 36 71 62 72 63 73 71 74 64 75 70 76
REMARK SMILES IDX 72 77 69 78 65 79 66 80 67 81 68 82 47 83 48 84 56 85 49 86
REMARK SMILES IDX 55 87 57 88 54 89 50 90 51 91 52 92 53 93
REMARK H PARENT 13 7 18 27 77 46 45 57
REMARK Flexibility Score: inf
ROOT
ATOM      1  C   UNL A   1      31.992  28.578  24.424  1.00  0.00     0.023 C 
ENDROOT
BRANCH   1   2
ATOM      2  C   UNL A   1      31.356  27.329  25.040  1.00  0.00     0.023 C 
BRANCH   2   3
ATOM      3  C   UNL A   1      30.937  26.277  24.018  1.00  0.00     0.116 C 
BRANCH   3   4
ATOM      4  N   UNL A   1      31.790  26.295  22.843  1.00  0.00    -0.352 N 
ATOM      5  C   UNL A   1      32.821  25.562  22.361  1.00  0.00     0.251 C 
ATOM      6  O   UNL A   1      33.280  25.946  21.280  1.00  0.00    -0.270 OA
ATOM      7  H   UNL A   1      31.556  27.034  22.237  1.00  0.00     0.163 HD
BRANCH   5   8
ATOM      8  C   UNL A   1      33.416  24.366  23.029  1.00  0.00     0.067 C 
ATOM      9  C   UNL A   1      32.156  18.407  24.092  1.00  0.00     0.044 C 
ATOM     10  C   UNL A   1      32.986  19.658  24.086  1.00  0.00    -0.050 A 
ATOM     11  C   UNL A   1      34.258  19.676  24.672  1.00  0.00     0.010 A 
ATOM     12  C   UNL A   1      32.480  20.828  23.506  1.00  0.00     0.015 A 
ATOM     13  C   UNL A   1      35.033  20.844  24.669  1.00  0.00    -0.008 A 
ATOM     14  C   UNL A   1      33.240  22.002  23.499  1.00  0.00     0.018 A 
ATOM     15  C   UNL A   1      36.400  20.853  25.292  1.00  0.00     0.048 C 
ATOM     16  C   UNL A   1      34.508  22.003  24.083  1.00  0.00     0.130 A 
ATOM     17  C   UNL A   1      32.744  23.213  22.858  1.00  0.00     0.025 C 
ATOM     18  O   UNL A   1      35.310  23.110  24.063  1.00  0.00    -0.475 OA
ATOM     19  C   UNL A   1      34.651  24.392  23.883  1.00  0.00     0.314 C 
BRANCH  19  20
ATOM     20  C   UNL A   1      34.407  25.030  25.263  1.00  0.00     0.429 C 
ATOM     21  F   UNL A   1      35.393  24.678  26.128  1.00  0.00    -0.167 F 
ATOM     22  F   UNL A   1      34.402  26.383  25.220  1.00  0.00    -0.167 F 
ATOM     23  F   UNL A   1      33.233  24.649  25.814  1.00  0.00    -0.167 F 
ENDBRANCH  19  20
ENDBRANCH   5   8
ENDBRANCH   3   4
ENDBRANCH   2   3
ENDBRANCH   1   2
BRANCH   1  24
ATOM     24  C   UNL A   1      32.922  29.364  25.348  1.00  0.00     0.116 C 
BRANCH  24  25
ATOM     25  N   UNL A   1      32.332  30.595  25.853  1.00  0.00    -0.352 N 
ATOM     26  C   UNL A   1      32.776  31.395  26.877  1.00  0.00     0.251 C 
ATOM     27  H   UNL A   1      31.507  30.892  25.403  1.00  0.00     0.163 HD
ATOM     28  O   UNL A   1      32.105  32.352  27.249  1.00  0.00    -0.269 OA
BRANCH  26  29
ATOM     29  C   UNL A   1      34.050  31.061  27.542  1.00  0.00     0.039 A 
ATOM     30  C   UNL A   1      34.958  32.087  27.812  1.00  0.00     0.014 A 
ATOM     31  C   UNL A   1      34.318  29.747  27.937  1.00  0.00     0.014 A 
ATOM     32  C   UNL A   1      36.114  31.804  28.539  1.00  0.00     0.010 A 
ATOM     33  C   UNL A   1      35.441  29.479  28.711  1.00  0.00     0.010 A 
ATOM     34  C   UNL A   1      36.349  30.505  29.017  1.00  0.00    -0.014 A 
BRANCH  34  35
ATOM     35  C   UNL A   1      37.560  30.188  29.809  1.00  0.00     0.031 A 
ATOM     36  C   UNL A   1      38.637  29.335  29.202  1.00  0.00     0.074 A 
ATOM     37  C   UNL A   1      37.668  30.628  31.078  1.00  0.00     0.049 A 
ATOM     38  N   UNL A   1      39.723  28.857  29.752  1.00  0.00    -0.248 NA
ATOM     39  C   UNL A   1      38.453  28.947  27.795  1.00  0.00     0.031 C 
ATOM     40  C   UNL A   1      36.678  31.451  31.777  1.00  0.00     0.029 A 
ATOM     41  N   UNL A   1      38.662  30.445  32.004  1.00  0.00    -0.354 N 
ATOM     42  C   UNL A   1      40.345  28.104  28.763  1.00  0.00     0.074 A 
ATOM     43  C   UNL A   1      39.487  28.146  27.598  1.00  0.00     0.031 C 
ATOM     44  C   UNL A   1      37.131  31.727  33.012  1.00  0.00     0.029 A 
ATOM     45  C   UNL A   1      38.419  31.068  33.205  1.00  0.00     0.049 A 
ATOM     46  H   UNL A   1      39.473  29.916  31.827  1.00  0.00     0.167 HD
ATOM     47  C   UNL A   1      41.535  27.459  28.815  1.00  0.00     0.034 A 
ATOM     48  C   UNL A   1      39.152  31.099  34.336  1.00  0.00     0.034 A 
ATOM     49  C   UNL A   1      42.390  27.444  29.975  1.00  0.00     0.049 A 
ATOM     50  C   UNL A   1      40.455  30.347  34.380  1.00  0.00     0.074 A 
ATOM     51  C   UNL A   1      43.629  26.846  30.125  1.00  0.00     0.029 A 
ATOM     52  N   UNL A   1      42.096  28.062  31.183  1.00  0.00    -0.354 N 
ATOM     53  N   UNL A   1      41.024  29.628  33.441  1.00  0.00    -0.248 NA
ATOM     54  C   UNL A   1      41.211  30.408  35.637  1.00  0.00     0.031 C 
ATOM     55  C   UNL A   1      44.062  27.065  31.438  1.00  0.00     0.029 A 
ATOM     56  C   UNL A   1      43.120  27.843  32.090  1.00  0.00     0.049 A 
ATOM     57  H   UNL A   1      41.279  28.579  31.367  1.00  0.00     0.167 HD
ATOM     58  C   UNL A   1      42.210  29.155  33.993  1.00  0.00     0.074 A 
ATOM     59  C   UNL A   1      42.282  29.685  35.340  1.00  0.00     0.031 C 
ATOM     60  C   UNL A   1      43.155  28.356  33.437  1.00  0.00     0.034 A 
BRANCH  47  61
ATOM     61  C   UNL A   1      41.962  26.706  27.583  1.00  0.00     0.023 A 
ATOM     62  C   UNL A   1      41.795  25.313  27.483  1.00  0.00     0.031 A 
ATOM     63  C   UNL A   1      42.565  27.380  26.508  1.00  0.00     0.131 A 
ATOM     64  C   UNL A   1      42.284  24.632  26.360  1.00  0.00     0.055 A 
ATOM     65  C   UNL A   1      42.986  26.704  25.362  1.00  0.00     0.041 A 
ATOM     66  F   UNL A   1      42.765  28.706  26.561  1.00  0.00    -0.206 F 
ATOM     67  C   UNL A   1      42.857  25.320  25.289  1.00  0.00     0.022 A 
BRANCH  64  68
ATOM     68  S   UNL A   1      42.250  22.819  26.363  1.00  0.00     0.124 S 
ATOM     69  O   UNL A   1      43.234  22.510  27.397  1.00  0.00    -0.237 OA
ATOM     70  O   UNL A   1      40.862  22.525  26.696  1.00  0.00    -0.237 OA
ATOM     71  O   UNL A   1      42.652  22.467  25.002  1.00  0.00    -0.744 OA
ENDBRANCH  64  68
ENDBRANCH  47  61
BRANCH  48  72
ATOM     72  C   UNL A   1      38.668  31.857  35.521  1.00  0.00     0.023 A 
ATOM     73  C   UNL A   1      38.087  31.190  36.611  1.00  0.00     0.031 A 
ATOM     74  C   UNL A   1      38.772  33.257  35.576  1.00  0.00     0.131 A 
ATOM     75  C   UNL A   1      37.606  31.928  37.703  1.00  0.00     0.055 A 
ATOM     76  C   UNL A   1      38.322  33.984  36.680  1.00  0.00     0.041 A 
ATOM     77  F   UNL A   1      39.331  33.937  34.562  1.00  0.00    -0.206 F 
ATOM     78  C   UNL A   1      37.729  33.319  37.749  1.00  0.00     0.022 A 
BRANCH  75  79
ATOM     79  S   UNL A   1      36.794  31.043  39.062  1.00  0.00     0.124 S 
ATOM     80  O   UNL A   1      36.654  29.703  38.503  1.00  0.00    -0.237 OA
ATOM     81  O   UNL A   1      37.764  31.190  40.143  1.00  0.00    -0.237 OA
ATOM     82  O   UNL A   1      35.546  31.779  39.248  1.00  0.00    -0.744 OA
ENDBRANCH  75  79
ENDBRANCH  48  72
BRANCH  60  83
ATOM     83  C   UNL A   1      44.347  28.015  34.291  1.00  0.00     0.023 A 
ATOM     84  C   UNL A   1      44.372  26.849  35.075  1.00  0.00     0.031 A 
ATOM     85  C   UNL A   1      45.471  28.858  34.310  1.00  0.00     0.131 A 
ATOM     86  C   UNL A   1      45.488  26.575  35.878  1.00  0.00     0.055 A 
ATOM     87  C   UNL A   1      46.598  28.556  35.074  1.00  0.00     0.041 A 
ATOM     88  F   UNL A   1      45.494  29.982  33.577  1.00  0.00    -0.206 F 
ATOM     89  C   UNL A   1      46.608  27.412  35.870  1.00  0.00     0.022 A 
BRANCH  86  90
ATOM     90  S   UNL A   1      45.440  25.131  36.973  1.00  0.00     0.124 S 
ATOM     91  O   UNL A   1      45.449  25.753  38.293  1.00  0.00    -0.237 OA
ATOM     92  O   UNL A   1      44.193  24.481  36.583  1.00  0.00    -0.237 OA
ATOM     93  O   UNL A   1      46.655  24.396  36.626  1.00  0.00    -0.744 OA
ENDBRANCH  86  90
ENDBRANCH  60  83
ENDBRANCH  34  35
ENDBRANCH  26  29
ENDBRANCH  24  25
ENDBRANCH   1  24
TORSDOF 15
ENDMDL
MODEL 2
REMARK VINA RESULT:     -12.6      5.139     10.225
REMARK SMILES Cc1cc(C)c2c(c1)C=C(C(=O)NCCCCNC(=O)c1ccc(-c3c4nc(c(-c5cc(S(=O)(=O)[O-])ccc5F)c5ccc([nH]5)c(-c5cc(S(=O)(=O)[O-])ccc5F)c5nc(c(-c6cc(S(=O)(=O)[O-])ccc6F)c6ccc3[nH]6)C=C5)C=C4)cc1)[C@@H](C(F)(F)F)O2
REMARK SMILES IDX 16 1 15 2 14 3 13 4 11 5 12 6 10 8 1 9 2 10 3 11 8 12 4 13
REMARK SMILES IDX 7 14 5 15 6 16 9 17 89 18 84 19 85 20 86 21 87 22 88 23
REMARK SMILES IDX 17 24 18 25 19 26 20 28 21 29 22 30 83 31 23 32 82 33 24 34
REMARK SMILES IDX 25 35 26 36 76 37 27 38 81 39 75 40 77 41 28 42 80 43 74 44
REMARK SMILES IDX 73 45 29 47 61 48 41 49 60 50 42 51 45 52 59 53 78 54 43 55
REMARK SMILES IDX 44 56 58 58 79 59 46 60 30 61 31 62 39 63 32 64 38 65 40 66
REMARK SMILES IDX 37 67 33 68 34 69 35 70 36 71 62 72 63 73 71 74 64 75 70 76
REMARK SMILES IDX 72 77 69 78 65 79 66 80 67 81 68 82 47 83 48 84 56 85 49 86
REMARK SMILES IDX 55 87 57 88 54 89 50 90 51 91 52 92 53 93
REMARK H PARENT 13 7 18 27 77 46 45 57
REMARK Flexibility Score: inf
ROOT
ATOM      1  C   UNL A   1      34.645  21.925  26.806  1.00  0.00     0.023 C 
ENDROOT
BRANCH   1   2
ATOM      2  C   UNL A   1      33.699  20.911  26.156  1.00  0.00     0.023 C 
BRANCH   2   3
ATOM      3  C   UNL A   1      32.570  21.543  25.349  1.00  0.00     0.116 C 
BRANCH   3   4
ATOM      4  N   UNL A   1      31.567  22.150  26.206  1.00  0.00    -0.352 N 
ATOM      5  C   UNL A   1      31.099  23.396  26.449  1.00  0.00     0.251 C 
ATOM      6  O   UNL A   1      30.205  23.468  27.299  1.00  0.00    -0.270 OA
ATOM      7  H   UNL A   1      31.105  21.476  26.756  1.00  0.00     0.163 HD
BRANCH   5   8
ATOM      8  C   UNL A   1      31.576  24.642  25.778  1.00  0.00     0.067 C 
ATOM      9  C   UNL A   1      32.005  30.723  26.815  1.00  0.00     0.044 C 
ATOM     10  C   UNL A   1      32.224  29.435  26.077  1.00  0.00    -0.050 A 
ATOM     11  C   UNL A   1      32.858  29.423  24.828  1.00  0.00     0.010 A 
ATOM     12  C   UNL A   1      31.773  28.229  26.629  1.00  0.00     0.015 A 
ATOM     13  C   UNL A   1      33.062  28.221  24.137  1.00  0.00    -0.008 A 
ATOM     14  C   UNL A   1      31.965  27.022  25.949  1.00  0.00     0.018 A 
ATOM     15  C   UNL A   1      33.752  28.217  22.803  1.00  0.00     0.048 C 
ATOM     16  C   UNL A   1      32.605  27.027  24.708  1.00  0.00     0.130 A 
ATOM     17  C   UNL A   1      31.543  25.756  26.534  1.00  0.00     0.025 C 
ATOM     18  O   UNL A   1      32.858  25.871  24.023  1.00  0.00    -0.475 OA
ATOM     19  C   UNL A   1      32.031  24.722  24.349  1.00  0.00     0.314 C 
BRANCH  19  20
ATOM     20  C   UNL A   1      30.864  24.642  23.348  1.00  0.00     0.429 C 
ATOM     21  F   UNL A   1      31.248  25.118  22.136  1.00  0.00    -0.167 F 
ATOM     22  F   UNL A   1      30.438  23.374  23.143  1.00  0.00    -0.167 F 
ATOM     23  F   UNL A   1      29.788  25.360  23.741  1.00  0.00    -0.167 F 
ENDBRANCH  19  20
ENDBRANCH   5   8
ENDBRANCH   3   4
ENDBRANCH   2   3
ENDBRANCH   1   2
BRANCH   1  24
ATOM     24  C   UNL A   1      35.832  22.358  25.946  1.00  0.00     0.116 C 
BRANCH  24  25
ATOM     25  N   UNL A   1      36.743  21.269  25.627  1.00  0.00    -0.352 N 
ATOM     26  C   UNL A   1      38.116  21.264  25.681  1.00  0.00     0.251 C 
ATOM     27  H   UNL A   1      36.322  20.428  25.336  1.00  0.00     0.163 HD
ATOM     28  O   UNL A   1      38.746  20.291  25.280  1.00  0.00    -0.269 OA
BRANCH  26  29
ATOM     29  C   UNL A   1      38.815  22.459  26.190  1.00  0.00     0.039 A 
ATOM     30  C   UNL A   1      39.950  22.288  26.984  1.00  0.00     0.014 A 
ATOM     31  C   UNL A   1      38.374  23.739  25.839  1.00  0.00     0.014 A 
ATOM     32  C   UNL A   1      40.684  23.407  27.378  1.00  0.00     0.010 A 
ATOM     33  C   UNL A   1      39.139  24.847  26.184  1.00  0.00     0.010 A 
ATOM     34  C   UNL A   1      40.300  24.690  26.957  1.00  0.00    -0.014 A 
BRANCH  34  35
ATOM     35  C   UNL A   1      41.078  25.889  27.347  1.00  0.00     0.031 A 
ATOM     36  C   UNL A   1      40.443  26.927  28.228  1.00  0.00     0.074 A 
ATOM     37  C   UNL A   1      42.328  26.061  26.877  1.00  0.00     0.049 A 
ATOM     38  N   UNL A   1      40.907  28.090  28.602  1.00  0.00    -0.248 NA
ATOM     39  C   UNL A   1      39.095  26.624  28.733  1.00  0.00     0.031 C 
ATOM     40  C   UNL A   1      43.042  25.127  26.002  1.00  0.00     0.029 A 
ATOM     41  N   UNL A   1      43.222  27.084  27.070  1.00  0.00    -0.354 N 
ATOM     42  C   UNL A   1      39.905  28.663  29.377  1.00  0.00     0.074 A 
ATOM     43  C   UNL A   1      38.789  27.741  29.373  1.00  0.00     0.031 C 
ATOM     44  C   UNL A   1      44.274  25.606  25.761  1.00  0.00     0.029 A 
ATOM     45  C   UNL A   1      44.422  26.896  26.428  1.00  0.00     0.049 A 
ATOM     46  H   UNL A   1      43.022  27.877  27.616  1.00  0.00     0.167 HD
ATOM     47  C   UNL A   1      39.924  29.839  30.050  1.00  0.00     0.034 A 
ATOM     48  C   UNL A   1      45.517  27.681  26.378  1.00  0.00     0.034 A 
ATOM     49  C   UNL A   1      41.051  30.737  30.063  1.00  0.00     0.049 A 
ATOM     50  C   UNL A   1      45.502  28.998  27.108  1.00  0.00     0.074 A 
ATOM     51  C   UNL A   1      41.187  31.939  30.736  1.00  0.00     0.029 A 
ATOM     52  N   UNL A   1      42.239  30.528  29.375  1.00  0.00    -0.354 N 
ATOM     53  N   UNL A   1      44.542  29.533  27.825  1.00  0.00    -0.248 NA
ATOM     54  C   UNL A   1      46.717  29.817  27.016  1.00  0.00     0.031 C 
ATOM     55  C   UNL A   1      42.439  32.476  30.418  1.00  0.00     0.029 A 
ATOM     56  C   UNL A   1      43.105  31.586  29.591  1.00  0.00     0.049 A 
ATOM     57  H   UNL A   1      42.435  29.741  28.817  1.00  0.00     0.167 HD
ATOM     58  C   UNL A   1      45.040  30.750  28.276  1.00  0.00     0.074 A 
ATOM     59  C   UNL A   1      46.392  30.862  27.764  1.00  0.00     0.031 C 
ATOM     60  C   UNL A   1      44.436  31.690  29.045  1.00  0.00     0.034 A 
BRANCH  47  61
ATOM     61  C   UNL A   1      38.680  30.216  30.808  1.00  0.00     0.023 A 
ATOM     62  C   UNL A   1      37.644  30.944  30.196  1.00  0.00     0.031 A 
ATOM     63  C   UNL A   1      38.536  29.868  32.162  1.00  0.00     0.131 A 
ATOM     64  C   UNL A   1      36.539  31.356  30.955  1.00  0.00     0.055 A 
ATOM     65  C   UNL A   1      37.400  30.222  32.892  1.00  0.00     0.041 A 
ATOM     66  F   UNL A   1      39.504  29.191  32.799  1.00  0.00    -0.206 F 
ATOM     67  C   UNL A   1      36.399  30.980  32.292  1.00  0.00     0.022 A 
BRANCH  64  68
ATOM     68  S   UNL A   1      35.334  32.476  30.194  1.00  0.00     0.124 S 
ATOM     69  O   UNL A   1      34.867  31.678  29.063  1.00  0.00    -0.237 OA
ATOM     70  O   UNL A   1      34.370  32.686  31.268  1.00  0.00    -0.237 OA
ATOM     71  O   UNL A   1      36.132  33.648  29.837  1.00  0.00    -0.744 OA
ENDBRANCH  64  68
ENDBRANCH  47  61
BRANCH  48  72
ATOM     72  C   UNL A   1      46.712  27.252  25.604  1.00  0.00     0.023 A 
ATOM     73  C   UNL A   1      46.945  27.746  24.311  1.00  0.00     0.031 A 
ATOM     74  C   UNL A   1      47.631  26.334  26.141  1.00  0.00     0.131 A 
ATOM     75  C   UNL A   1      48.060  27.301  23.586  1.00  0.00     0.055 A 
ATOM     76  C   UNL A   1      48.757  25.919  25.428  1.00  0.00     0.041 A 
ATOM     77  F   UNL A   1      47.454  25.843  27.378  1.00  0.00    -0.206 F 
ATOM     78  C   UNL A   1      48.973  26.399  24.139  1.00  0.00     0.022 A 
BRANCH  75  79
ATOM     79  S   UNL A   1      48.294  27.903  21.891  1.00  0.00     0.124 S 
ATOM     80  O   UNL A   1      47.158  28.804  21.737  1.00  0.00    -0.237 OA
ATOM     81  O   UNL A   1      49.608  28.533  21.970  1.00  0.00    -0.237 OA
ATOM     82  O   UNL A   1      48.241  26.684  21.087  1.00  0.00    -0.744 OA
ENDBRANCH  75  79
ENDBRANCH  48  72
BRANCH  60  83
ATOM     83  C   UNL A   1      45.242  32.918  29.378  1.00  0.00     0.023 A 
ATOM     84  C   UNL A   1      45.176  34.072  28.579  1.00  0.00     0.031 A 
ATOM     85  C   UNL A   1      46.071  32.936  30.512  1.00  0.00     0.131 A 
ATOM     86  C   UNL A   1      45.959  35.188  28.905  1.00  0.00     0.055 A 
ATOM     87  C   UNL A   1      46.812  34.067  30.858  1.00  0.00     0.041 A 
ATOM     88  F   UNL A   1      46.166  31.858  31.307  1.00  0.00    -0.206 F 
ATOM     89  C   UNL A   1      46.764  35.199  30.048  1.00  0.00     0.022 A 
BRANCH  86  90
ATOM     90  S   UNL A   1      45.948  36.615  27.786  1.00  0.00     0.124 S 
ATOM     91  O   UNL A   1      45.519  37.691  28.674  1.00  0.00    -0.237 OA
ATOM     92  O   UNL A   1      47.335  36.674  27.337  1.00  0.00    -0.237 OA
ATOM     93  O   UNL A   1      44.981  36.237  26.757  1.00  0.00    -0.744 OA
ENDBRANCH  86  90
ENDBRANCH  60  83
ENDBRANCH  34  35
ENDBRANCH  26  29
ENDBRANCH  24  25
ENDBRANCH   1  24
TORSDOF 15
ENDMDL
MODEL 3
REMARK VINA RESULT:     -12.5      1.353      2.171
REMARK SMILES Cc1cc(C)c2c(c1)C=C(C(=O)NCCCCNC(=O)c1ccc(-c3c4nc(c(-c5cc(S(=O)(=O)[O-])ccc5F)c5ccc([nH]5)c(-c5cc(S(=O)(=O)[O-])ccc5F)c5nc(c(-c6cc(S(=O)(=O)[O-])ccc6F)c6ccc3[nH]6)C=C5)C=C4)cc1)[C@@H](C(F)(F)F)O2
REMARK SMILES IDX 16 1 15 2 14 3 13 4 11 5 12 6 10 8 1 9 2 10 3 11 8 12 4 13
REMARK SMILES IDX 7 14 5 15 6 16 9 17 89 18 84 19 85 20 86 21 87 22 88 23
REMARK SMILES IDX 17 24 18 25 19 26 20 28 21 29 22 30 83 31 23 32 82 33 24 34
REMARK SMILES IDX 25 35 26 36 76 37 27 38 81 39 75 40 77 41 28 42 80 43 74 44
REMARK SMILES IDX 73 45 29 47 61 48 41 49 60 50 42 51 45 52 59 53 78 54 43 55
REMARK SMILES IDX 44 56 58 58 79 59 46 60 30 61 31 62 39 63 32 64 38 65 40 66
REMARK SMILES IDX 37 67 33 68 34 69 35 70 36 71 62 72 63 73 71 74 64 75 70 76
REMARK SMILES IDX 72 77 69 78 65 79 66 80 67 81 68 82 47 83 48 84 56 85 49 86
REMARK SMILES IDX 55 87 57 88 54 89 50 90 51 91 52 92 53 93
REMARK H PARENT 13 7 18 27 77 46 45 57
REMARK Flexibility Score: inf
ROOT
ATOM      1  C   UNL A   1      33.287  28.333  23.723  1.00  0.00     0.023 C 
ENDROOT
BRANCH   1   2
ATOM      2  C   UNL A   1      31.825  28.517  23.306  1.00  0.00     0.023 C 
BRANCH   2   3
ATOM      3  C   UNL A   1      31.024  27.220  23.261  1.00  0.00     0.116 C 
BRANCH   3   4
ATOM      4  N   UNL A   1      30.500  26.863  24.568  1.00  0.00    -0.352 N 
ATOM      5  C   UNL A   1      30.714  25.891  25.485  1.00  0.00     0.251 C 
ATOM      6  O   UNL A   1      30.014  25.962  26.501  1.00  0.00    -0.270 OA
ATOM      7  H   UNL A   1      29.807  27.495  24.864  1.00  0.00     0.163 HD
BRANCH   5   8
ATOM      8  C   UNL A   1      31.704  24.781  25.351  1.00  0.00     0.067 C 
ATOM      9  C   UNL A   1      37.781  23.755  25.855  1.00  0.00     0.044 C 
ATOM     10  C   UNL A   1      36.335  23.395  25.672  1.00  0.00    -0.050 A 
ATOM     11  C   UNL A   1      35.955  22.074  25.403  1.00  0.00     0.010 A 
ATOM     12  C   UNL A   1      35.352  24.389  25.752  1.00  0.00     0.015 A 
ATOM     13  C   UNL A   1      34.606  21.736  25.230  1.00  0.00    -0.008 A 
ATOM     14  C   UNL A   1      34.002  24.068  25.577  1.00  0.00     0.018 A 
ATOM     15  C   UNL A   1      34.206  20.315  24.951  1.00  0.00     0.048 C 
ATOM     16  C   UNL A   1      33.639  22.745  25.315  1.00  0.00     0.130 A 
ATOM     17  C   UNL A   1      32.967  25.085  25.704  1.00  0.00     0.025 C 
ATOM     18  O   UNL A   1      32.332  22.370  25.182  1.00  0.00    -0.475 OA
ATOM     19  C   UNL A   1      31.384  23.412  24.822  1.00  0.00     0.314 C 
BRANCH  19  20
ATOM     20  C   UNL A   1      31.175  23.397  23.297  1.00  0.00     0.429 C 
ATOM     21  F   UNL A   1      32.042  24.250  22.693  1.00  0.00    -0.167 F 
ATOM     22  F   UNL A   1      31.398  22.178  22.752  1.00  0.00    -0.167 F 
ATOM     23  F   UNL A   1      29.927  23.769  22.937  1.00  0.00    -0.167 F 
ENDBRANCH  19  20
ENDBRANCH   5   8
ENDBRANCH   3   4
ENDBRANCH   2   3
ENDBRANCH   1   2
BRANCH   1  24
ATOM     24  C   UNL A   1      33.666  28.943  25.072  1.00  0.00     0.116 C 
BRANCH  24  25
ATOM     25  N   UNL A   1      32.833  30.074  25.451  1.00  0.00    -0.352 N 
ATOM     26  C   UNL A   1      32.954  30.891  26.548  1.00  0.00     0.251 C 
ATOM     27  H   UNL A   1      32.087  30.281  24.842  1.00  0.00     0.163 HD
ATOM     28  O   UNL A   1      32.104  31.745  26.779  1.00  0.00    -0.269 OA
BRANCH  26  29
ATOM     29  C   UNL A   1      34.097  30.697  27.460  1.00  0.00     0.039 A 
ATOM     30  C   UNL A   1      34.262  29.457  28.080  1.00  0.00     0.014 A 
ATOM     31  C   UNL A   1      35.025  31.724  27.657  1.00  0.00     0.014 A 
ATOM     32  C   UNL A   1      35.398  29.225  28.855  1.00  0.00     0.010 A 
ATOM     33  C   UNL A   1      36.184  31.472  28.382  1.00  0.00     0.010 A 
ATOM     34  C   UNL A   1      36.380  30.220  28.988  1.00  0.00    -0.014 A 
BRANCH  34  35
ATOM     35  C   UNL A   1      37.604  29.987  29.788  1.00  0.00     0.031 A 
ATOM     36  C   UNL A   1      38.724  29.174  29.204  1.00  0.00     0.074 A 
ATOM     37  C   UNL A   1      37.688  30.465  31.045  1.00  0.00     0.049 A 
ATOM     38  N   UNL A   1      39.832  28.768  29.767  1.00  0.00    -0.248 NA
ATOM     39  C   UNL A   1      38.562  28.741  27.808  1.00  0.00     0.031 C 
ATOM     40  C   UNL A   1      36.655  31.254  31.722  1.00  0.00     0.029 A 
ATOM     41  N   UNL A   1      38.688  30.358  31.976  1.00  0.00    -0.354 N 
ATOM     42  C   UNL A   1      40.494  28.022  28.799  1.00  0.00     0.074 A 
ATOM     43  C   UNL A   1      39.637  27.989  27.633  1.00  0.00     0.031 C 
ATOM     44  C   UNL A   1      37.091  31.585  32.949  1.00  0.00     0.029 A 
ATOM     45  C   UNL A   1      38.411  30.999  33.160  1.00  0.00     0.049 A 
ATOM     46  H   UNL A   1      39.525  29.867  31.814  1.00  0.00     0.167 HD
ATOM     47  C   UNL A   1      41.715  27.440  28.868  1.00  0.00     0.034 A 
ATOM     48  C   UNL A   1      39.139  31.097  34.290  1.00  0.00     0.034 A 
ATOM     49  C   UNL A   1      42.568  27.499  30.028  1.00  0.00     0.049 A 
ATOM     50  C   UNL A   1      40.479  30.414  34.354  1.00  0.00     0.074 A 
ATOM     51  C   UNL A   1      43.835  26.970  30.194  1.00  0.00     0.029 A 
ATOM     52  N   UNL A   1      42.240  28.133  31.219  1.00  0.00    -0.354 N 
ATOM     53  N   UNL A   1      41.086  29.701  33.435  1.00  0.00    -0.248 NA
ATOM     54  C   UNL A   1      41.229  30.547  35.610  1.00  0.00     0.031 C 
ATOM     55  C   UNL A   1      44.254  27.245  31.501  1.00  0.00     0.029 A 
ATOM     56  C   UNL A   1      43.272  27.991  32.132  1.00  0.00     0.049 A 
ATOM     57  H   UNL A   1      41.398  28.612  31.390  1.00  0.00     0.167 HD
ATOM     58  C   UNL A   1      42.293  29.304  34.000  1.00  0.00     0.074 A 
ATOM     59  C   UNL A   1      42.336  29.872  35.333  1.00  0.00     0.031 C 
ATOM     60  C   UNL A   1      43.279  28.540  33.466  1.00  0.00     0.034 A 
BRANCH  47  61
ATOM     61  C   UNL A   1      42.182  26.678  27.656  1.00  0.00     0.023 A 
ATOM     62  C   UNL A   1      41.937  25.300  27.520  1.00  0.00     0.031 A 
ATOM     63  C   UNL A   1      42.901  27.327  26.639  1.00  0.00     0.131 A 
ATOM     64  C   UNL A   1      42.463  24.603  26.423  1.00  0.00     0.055 A 
ATOM     65  C   UNL A   1      43.361  26.640  25.514  1.00  0.00     0.041 A 
ATOM     66  F   UNL A   1      43.179  28.637  26.728  1.00  0.00    -0.206 F 
ATOM     67  C   UNL A   1      43.153  25.268  25.407  1.00  0.00     0.022 A 
BRANCH  64  68
ATOM     68  S   UNL A   1      42.317  22.797  26.392  1.00  0.00     0.124 S 
ATOM     69  O   UNL A   1      42.653  22.501  25.002  1.00  0.00    -0.237 OA
ATOM     70  O   UNL A   1      43.296  22.379  27.388  1.00  0.00    -0.237 OA
ATOM     71  O   UNL A   1      40.921  22.560  26.755  1.00  0.00    -0.744 OA
ENDBRANCH  64  68
ENDBRANCH  47  61
BRANCH  48  72
ATOM     72  C   UNL A   1      38.616  31.860  35.455  1.00  0.00     0.023 A 
ATOM     73  C   UNL A   1      38.071  31.193  36.563  1.00  0.00     0.031 A 
ATOM     74  C   UNL A   1      38.643  33.265  35.471  1.00  0.00     0.131 A 
ATOM     75  C   UNL A   1      37.551  31.934  37.635  1.00  0.00     0.055 A 
ATOM     76  C   UNL A   1      38.155  33.996  36.555  1.00  0.00     0.041 A 
ATOM     77  F   UNL A   1      39.165  33.945  34.438  1.00  0.00    -0.206 F 
ATOM     78  C   UNL A   1      37.599  33.330  37.643  1.00  0.00     0.022 A 
BRANCH  75  79
ATOM     79  S   UNL A   1      36.788  31.045  39.019  1.00  0.00     0.124 S 
ATOM     80  O   UNL A   1      36.656  29.699  38.471  1.00  0.00    -0.237 OA
ATOM     81  O   UNL A   1      37.782  31.213  40.075  1.00  0.00    -0.237 OA
ATOM     82  O   UNL A   1      35.533  31.761  39.232  1.00  0.00    -0.744 OA
ENDBRANCH  75  79
ENDBRANCH  48  72
BRANCH  60  83
ATOM     83  C   UNL A   1      44.485  28.283  34.329  1.00  0.00     0.023 A 
ATOM     84  C   UNL A   1      44.566  27.146  35.149  1.00  0.00     0.031 A 
ATOM     85  C   UNL A   1      45.568  29.179  34.319  1.00  0.00     0.131 A 
ATOM     86  C   UNL A   1      45.693  26.950  35.959  1.00  0.00     0.055 A 
ATOM     87  C   UNL A   1      46.709  28.955  35.091  1.00  0.00     0.041 A 
ATOM     88  F   UNL A   1      45.539  30.279  33.551  1.00  0.00    -0.206 F 
ATOM     89  C   UNL A   1      46.772  27.839  35.924  1.00  0.00     0.022 A 
BRANCH  86  90
ATOM     90  S   UNL A   1      45.713  25.541  37.099  1.00  0.00     0.124 S 
ATOM     91  O   UNL A   1      46.009  24.430  36.199  1.00  0.00    -0.237 OA
ATOM     92  O   UNL A   1      46.773  25.904  38.032  1.00  0.00    -0.237 OA
ATOM     93  O   UNL A   1      44.365  25.538  37.665  1.00  0.00    -0.744 OA
ENDBRANCH  86  90
ENDBRANCH  60  83
ENDBRANCH  34  35
ENDBRANCH  26  29
ENDBRANCH  24  25
ENDBRANCH   1  24
TORSDOF 15
ENDMDL
