MODEL 1
REMARK VINA RESULT:     -10.5      0.000      0.000
REMARK SMILES CCCN(CC)c1ccnc(C(=O)NCCCCNC(=O)c2ccc(-c3c4nc(c(-c5cc(S(=O)(=O)[O-])ccc5F)c5ccc([nH]5)c(-c5cc(S(=O)(=O)[O-])ccc5F)c5nc(c(-c6cc(S(=O)(=O)[O-])ccc6F)c6ccc3[nH]6)C=C5)C=C4)cc2)c1
REMARK SMILES IDX 16 1 15 2 14 3 12 4 13 5 11 7 7 8 8 9 85 10 9 11 10 12 4 13
REMARK SMILES IDX 3 14 2 15 1 16 5 17 6 18 17 19 18 20 19 21 20 22 21 24 22 25
REMARK SMILES IDX 23 26 84 27 24 28 83 29 25 30 26 31 27 32 77 33 28 34 82 35
REMARK SMILES IDX 76 36 78 37 29 38 81 39 75 40 74 41 30 43 62 44 42 45 61 46
REMARK SMILES IDX 43 47 46 48 60 49 79 50 44 51 45 52 59 54 80 55 47 56 31 57
REMARK SMILES IDX 32 58 40 59 33 60 39 61 41 62 38 63 34 64 35 65 36 66 37 67
REMARK SMILES IDX 63 68 64 69 72 70 65 71 71 72 73 73 70 74 66 75 67 76 68 77
REMARK SMILES IDX 69 78 48 79 49 80 57 81 50 82 56 83 58 84 55 85 51 86 52 87
REMARK SMILES IDX 53 88 54 89
REMARK H PARENT 14 6 19 23 78 42 46 53
REMARK Flexibility Score: inf
ROOT
ATOM      1  C   UNL A   1      31.593  30.832  25.608  1.00  0.00     0.023 C 
ENDROOT
BRANCH   1   2
ATOM      2  C   UNL A   1      31.960  29.462  25.033  1.00  0.00     0.116 C 
BRANCH   2   3
ATOM      3  N   UNL A   1      31.314  29.262  23.751  1.00  0.00    -0.351 N 
ATOM      4  C   UNL A   1      30.851  28.116  23.139  1.00  0.00     0.269 C 
ATOM      5  O   UNL A   1      30.316  28.237  22.036  1.00  0.00    -0.268 OA
ATOM      6  H   UNL A   1      31.184  30.085  23.228  1.00  0.00     0.163 HD
BRANCH   4   7
ATOM      7  C   UNL A   1      30.936  26.765  23.790  1.00  0.00     0.130 A 
ATOM      8  C   UNL A   1      31.909  24.586  24.073  1.00  0.00     0.040 A 
ATOM      9  C   UNL A   1      31.092  24.423  25.188  1.00  0.00     0.046 A 
ATOM     10  C   UNL A   1      31.786  25.764  23.337  1.00  0.00     0.060 A 
ATOM     11  C   UNL A   1      30.206  25.431  25.524  1.00  0.00     0.114 A 
ATOM     12  N   UNL A   1      30.121  26.601  24.864  1.00  0.00    -0.251 NA
BRANCH   8  13
ATOM     13  N   UNL A   1      32.850  23.633  23.737  1.00  0.00    -0.372 N 
BRANCH  13  14
ATOM     14  C   UNL A   1      34.182  24.021  23.276  1.00  0.00     0.116 C 
BRANCH  14  15
ATOM     15  C   UNL A   1      35.282  23.307  24.066  1.00  0.00     0.018 C 
ATOM     16  C   UNL A   1      36.486  22.957  23.202  1.00  0.00     0.006 C 
ENDBRANCH  14  15
ENDBRANCH  13  14
BRANCH  13  17
ATOM     17  C   UNL A   1      32.508  22.217  23.865  1.00  0.00     0.113 C 
ATOM     18  C   UNL A   1      32.161  21.601  22.517  1.00  0.00     0.027 C 
ENDBRANCH  13  17
ENDBRANCH   8  13
ENDBRANCH   4   7
ENDBRANCH   2   3
ENDBRANCH   1   2
BRANCH   1  19
ATOM     19  C   UNL A   1      32.044  31.032  27.057  1.00  0.00     0.023 C 
BRANCH  19  20
ATOM     20  C   UNL A   1      33.186  32.030  27.228  1.00  0.00     0.116 C 
BRANCH  20  21
ATOM     21  N   UNL A   1      32.725  33.385  27.490  1.00  0.00    -0.352 N 
ATOM     22  C   UNL A   1      33.192  34.268  28.435  1.00  0.00     0.251 C 
ATOM     23  H   UNL A   1      31.990  33.709  26.920  1.00  0.00     0.163 HD
ATOM     24  O   UNL A   1      32.628  35.344  28.608  1.00  0.00    -0.269 OA
BRANCH  22  25
ATOM     25  C   UNL A   1      34.349  33.875  29.265  1.00  0.00     0.039 A 
ATOM     26  C   UNL A   1      34.142  33.033  30.361  1.00  0.00     0.014 A 
ATOM     27  C   UNL A   1      35.639  34.288  28.920  1.00  0.00     0.014 A 
ATOM     28  C   UNL A   1      35.241  32.548  31.073  1.00  0.00     0.010 A 
ATOM     29  C   UNL A   1      36.734  33.750  29.589  1.00  0.00     0.010 A 
ATOM     30  C   UNL A   1      36.546  32.874  30.670  1.00  0.00    -0.014 A 
BRANCH  30  31
ATOM     31  C   UNL A   1      37.735  32.328  31.372  1.00  0.00     0.031 A 
ATOM     32  C   UNL A   1      38.512  31.202  30.750  1.00  0.00     0.074 A 
ATOM     33  C   UNL A   1      38.062  32.784  32.598  1.00  0.00     0.049 A 
ATOM     34  N   UNL A   1      39.492  30.493  31.248  1.00  0.00    -0.248 NA
ATOM     35  C   UNL A   1      38.103  30.795  29.396  1.00  0.00     0.031 C 
ATOM     36  C   UNL A   1      37.360  33.848  33.319  1.00  0.00     0.029 A 
ATOM     37  N   UNL A   1      39.055  32.399  33.462  1.00  0.00    -0.354 N 
ATOM     38  C   UNL A   1      39.802  29.543  30.280  1.00  0.00     0.074 A 
ATOM     39  C   UNL A   1      38.864  29.733  29.193  1.00  0.00     0.031 C 
ATOM     40  C   UNL A   1      37.955  34.039  34.508  1.00  0.00     0.029 A 
ATOM     41  C   UNL A   1      39.049  33.084  34.655  1.00  0.00     0.049 A 
ATOM     42  H   UNL A   1      39.712  31.697  33.248  1.00  0.00     0.167 HD
ATOM     43  C   UNL A   1      40.789  28.613  30.290  1.00  0.00     0.034 A 
ATOM     44  C   UNL A   1      39.826  32.945  35.747  1.00  0.00     0.034 A 
ATOM     45  C   UNL A   1      41.727  28.453  31.375  1.00  0.00     0.049 A 
ATOM     46  C   UNL A   1      40.916  31.902  35.739  1.00  0.00     0.074 A 
ATOM     47  C   UNL A   1      42.795  27.578  31.472  1.00  0.00     0.029 A 
ATOM     48  N   UNL A   1      41.706  29.186  32.556  1.00  0.00    -0.354 N 
ATOM     49  N   UNL A   1      41.219  31.033  34.802  1.00  0.00    -0.248 NA
ATOM     50  C   UNL A   1      41.772  31.828  36.930  1.00  0.00     0.031 C 
ATOM     51  C   UNL A   1      43.385  27.744  32.729  1.00  0.00     0.029 A 
ATOM     52  C   UNL A   1      42.731  28.770  33.392  1.00  0.00     0.049 A 
ATOM     53  H   UNL A   1      41.059  29.897  32.767  1.00  0.00     0.167 HD
ATOM     54  C   UNL A   1      42.326  30.336  35.277  1.00  0.00     0.074 A 
ATOM     55  C   UNL A   1      42.638  30.888  36.580  1.00  0.00     0.031 C 
ATOM     56  C   UNL A   1      43.027  29.334  34.688  1.00  0.00     0.034 A 
BRANCH  43  57
ATOM     57  C   UNL A   1      40.878  27.688  29.100  1.00  0.00     0.023 A 
ATOM     58  C   UNL A   1      41.826  27.887  28.081  1.00  0.00     0.031 A 
ATOM     59  C   UNL A   1      39.974  26.620  28.957  1.00  0.00     0.131 A 
ATOM     60  C   UNL A   1      41.794  27.090  26.928  1.00  0.00     0.055 A 
ATOM     61  C   UNL A   1      40.004  25.775  27.846  1.00  0.00     0.041 A 
ATOM     62  F   UNL A   1      39.033  26.392  29.886  1.00  0.00    -0.206 F 
ATOM     63  C   UNL A   1      40.906  26.018  26.814  1.00  0.00     0.022 A 
BRANCH  60  64
ATOM     64  S   UNL A   1      42.824  27.573  25.515  1.00  0.00     0.124 S 
ATOM     65  O   UNL A   1      42.074  28.708  24.980  1.00  0.00    -0.237 OA
ATOM     66  O   UNL A   1      44.099  27.891  26.147  1.00  0.00    -0.237 OA
ATOM     67  O   UNL A   1      42.825  26.382  24.669  1.00  0.00    -0.744 OA
ENDBRANCH  60  64
ENDBRANCH  43  57
BRANCH  44  68
ATOM     68  C   UNL A   1      39.607  33.805  36.944  1.00  0.00     0.023 A 
ATOM     69  C   UNL A   1      38.994  33.293  38.098  1.00  0.00     0.031 A 
ATOM     70  C   UNL A   1      39.972  35.163  36.939  1.00  0.00     0.131 A 
ATOM     71  C   UNL A   1      38.720  34.142  39.182  1.00  0.00     0.055 A 
ATOM     72  C   UNL A   1      39.742  35.993  38.038  1.00  0.00     0.041 A 
ATOM     73  F   UNL A   1      40.570  35.701  35.864  1.00  0.00    -0.206 F 
ATOM     74  C   UNL A   1      39.100  35.485  39.164  1.00  0.00     0.022 A 
BRANCH  71  75
ATOM     75  S   UNL A   1      37.786  33.480  40.589  1.00  0.00     0.124 S 
ATOM     76  O   UNL A   1      38.686  32.445  41.083  1.00  0.00    -0.237 OA
ATOM     77  O   UNL A   1      37.636  34.660  41.434  1.00  0.00    -0.237 OA
ATOM     78  O   UNL A   1      36.550  32.993  39.978  1.00  0.00    -0.744 OA
ENDBRANCH  71  75
ENDBRANCH  44  68
BRANCH  56  79
ATOM     79  C   UNL A   1      44.239  28.819  35.423  1.00  0.00     0.023 A 
ATOM     80  C   UNL A   1      44.149  27.789  36.376  1.00  0.00     0.031 A 
ATOM     81  C   UNL A   1      45.504  29.373  35.161  1.00  0.00     0.131 A 
ATOM     82  C   UNL A   1      45.298  27.377  37.066  1.00  0.00     0.055 A 
ATOM     83  C   UNL A   1      46.653  28.921  35.812  1.00  0.00     0.041 A 
ATOM     84  F   UNL A   1      45.645  30.359  34.261  1.00  0.00    -0.206 F 
ATOM     85  C   UNL A   1      46.551  27.926  36.779  1.00  0.00     0.022 A 
BRANCH  82  86
ATOM     86  S   UNL A   1      45.125  26.160  38.400  1.00  0.00     0.124 S 
ATOM     87  O   UNL A   1      44.978  24.913  37.654  1.00  0.00    -0.237 OA
ATOM     88  O   UNL A   1      46.375  26.320  39.134  1.00  0.00    -0.237 OA
ATOM     89  O   UNL A   1      43.927  26.600  39.113  1.00  0.00    -0.744 OA
ENDBRANCH  82  86
ENDBRANCH  56  79
ENDBRANCH  30  31
ENDBRANCH  22  25
ENDBRANCH  20  21
ENDBRANCH  19  20
ENDBRANCH   1  19
TORSDOF 18
ENDMDL
MODEL 2
REMARK VINA RESULT:     -10.5      2.680      8.509
REMARK SMILES CCCN(CC)c1ccnc(C(=O)NCCCCNC(=O)c2ccc(-c3c4nc(c(-c5cc(S(=O)(=O)[O-])ccc5F)c5ccc([nH]5)c(-c5cc(S(=O)(=O)[O-])ccc5F)c5nc(c(-c6cc(S(=O)(=O)[O-])ccc6F)c6ccc3[nH]6)C=C5)C=C4)cc2)c1
REMARK SMILES IDX 16 1 15 2 14 3 12 4 13 5 11 7 7 8 8 9 85 10 9 11 10 12 4 13
REMARK SMILES IDX 3 14 2 15 1 16 5 17 6 18 17 19 18 20 19 21 20 22 21 24 22 25
REMARK SMILES IDX 23 26 84 27 24 28 83 29 25 30 26 31 27 32 77 33 28 34 82 35
REMARK SMILES IDX 76 36 78 37 29 38 81 39 75 40 74 41 30 43 62 44 42 45 61 46
REMARK SMILES IDX 43 47 46 48 60 49 79 50 44 51 45 52 59 54 80 55 47 56 31 57
REMARK SMILES IDX 32 58 40 59 33 60 39 61 41 62 38 63 34 64 35 65 36 66 37 67
REMARK SMILES IDX 63 68 64 69 72 70 65 71 71 72 73 73 70 74 66 75 67 76 68 77
REMARK SMILES IDX 69 78 48 79 49 80 57 81 50 82 56 83 58 84 55 85 51 86 52 87
REMARK SMILES IDX 53 88 54 89
REMARK H PARENT 14 6 19 23 78 42 46 53
REMARK Flexibility Score: inf
ROOT
ATOM      1  C   UNL A   1      33.339  28.290  24.087  1.00  0.00     0.023 C 
ENDROOT
BRANCH   1   2
ATOM      2  C   UNL A   1      32.354  27.175  23.729  1.00  0.00     0.116 C 
BRANCH   2   3
ATOM      3  N   UNL A   1      32.573  26.723  22.369  1.00  0.00    -0.351 N 
ATOM      4  C   UNL A   1      33.095  25.544  21.879  1.00  0.00     0.269 C 
ATOM      5  O   UNL A   1      33.151  25.411  20.656  1.00  0.00    -0.268 OA
ATOM      6  H   UNL A   1      32.303  27.368  21.677  1.00  0.00     0.163 HD
BRANCH   4   7
ATOM      7  C   UNL A   1      33.540  24.425  22.778  1.00  0.00     0.130 A 
ATOM      8  C   UNL A   1      33.127  22.524  24.190  1.00  0.00     0.040 A 
ATOM      9  C   UNL A   1      34.504  22.327  24.237  1.00  0.00     0.046 A 
ATOM     10  C   UNL A   1      32.648  23.627  23.484  1.00  0.00     0.060 A 
ATOM     11  C   UNL A   1      35.334  23.218  23.581  1.00  0.00     0.114 A 
ATOM     12  N   UNL A   1      34.885  24.248  22.840  1.00  0.00    -0.251 NA
BRANCH   8  13
ATOM     13  N   UNL A   1      32.260  21.626  24.779  1.00  0.00    -0.372 N 
BRANCH  13  14
ATOM     14  C   UNL A   1      32.412  20.188  24.571  1.00  0.00     0.116 C 
BRANCH  14  15
ATOM     15  C   UNL A   1      32.170  19.800  23.108  1.00  0.00     0.018 C 
ATOM     16  C   UNL A   1      32.431  18.323  22.847  1.00  0.00     0.006 C 
ENDBRANCH  14  15
ENDBRANCH  13  14
BRANCH  13  17
ATOM     17  C   UNL A   1      31.188  22.128  25.639  1.00  0.00     0.113 C 
ATOM     18  C   UNL A   1      31.743  22.893  26.832  1.00  0.00     0.027 C 
ENDBRANCH  13  17
ENDBRANCH   8  13
ENDBRANCH   4   7
ENDBRANCH   2   3
ENDBRANCH   1   2
BRANCH   1  19
ATOM     19  C   UNL A   1      32.703  29.446  24.863  1.00  0.00     0.023 C 
BRANCH  19  20
ATOM     20  C   UNL A   1      33.300  29.676  26.249  1.00  0.00     0.116 C 
BRANCH  20  21
ATOM     21  N   UNL A   1      33.124  31.039  26.727  1.00  0.00    -0.352 N 
ATOM     22  C   UNL A   1      33.935  31.745  27.583  1.00  0.00     0.251 C 
ATOM     23  H   UNL A   1      32.326  31.514  26.397  1.00  0.00     0.163 HD
ATOM     24  O   UNL A   1      33.598  32.856  27.981  1.00  0.00    -0.269 OA
BRANCH  22  25
ATOM     25  C   UNL A   1      35.191  31.122  28.048  1.00  0.00     0.039 A 
ATOM     26  C   UNL A   1      36.374  31.864  28.000  1.00  0.00     0.014 A 
ATOM     27  C   UNL A   1      35.183  29.833  28.587  1.00  0.00     0.014 A 
ATOM     28  C   UNL A   1      37.541  31.337  28.558  1.00  0.00     0.010 A 
ATOM     29  C   UNL A   1      36.330  29.338  29.202  1.00  0.00     0.010 A 
ATOM     30  C   UNL A   1      37.518  30.086  29.196  1.00  0.00    -0.014 A 
BRANCH  30  31
ATOM     31  C   UNL A   1      38.728  29.524  29.848  1.00  0.00     0.031 A 
ATOM     32  C   UNL A   1      39.156  30.045  31.191  1.00  0.00     0.074 A 
ATOM     33  C   UNL A   1      39.482  28.614  29.198  1.00  0.00     0.049 A 
ATOM     34  N   UNL A   1      40.244  29.793  31.872  1.00  0.00    -0.248 NA
ATOM     35  C   UNL A   1      38.252  31.009  31.836  1.00  0.00     0.031 C 
ATOM     36  C   UNL A   1      39.187  28.061  27.875  1.00  0.00     0.029 A 
ATOM     37  N   UNL A   1      40.660  28.009  29.555  1.00  0.00    -0.354 N 
ATOM     38  C   UNL A   1      40.168  30.584  33.014  1.00  0.00     0.074 A 
ATOM     39  C   UNL A   1      38.953  31.365  32.900  1.00  0.00     0.031 C 
ATOM     40  C   UNL A   1      40.151  27.188  27.540  1.00  0.00     0.029 A 
ATOM     41  C   UNL A   1      41.154  27.151  28.600  1.00  0.00     0.049 A 
ATOM     42  H   UNL A   1      41.110  28.172  30.416  1.00  0.00     0.167 HD
ATOM     43  C   UNL A   1      41.020  30.637  34.067  1.00  0.00     0.034 A 
ATOM     44  C   UNL A   1      42.293  26.431  28.575  1.00  0.00     0.034 A 
ATOM     45  C   UNL A   1      42.215  29.836  34.171  1.00  0.00     0.049 A 
ATOM     46  C   UNL A   1      43.229  26.509  29.755  1.00  0.00     0.074 A 
ATOM     47  C   UNL A   1      43.125  29.773  35.211  1.00  0.00     0.029 A 
ATOM     48  N   UNL A   1      42.668  28.956  33.194  1.00  0.00    -0.354 N 
ATOM     49  N   UNL A   1      43.126  27.235  30.844  1.00  0.00    -0.248 NA
ATOM     50  C   UNL A   1      44.429  25.663  29.706  1.00  0.00     0.031 C 
ATOM     51  C   UNL A   1      44.154  28.899  34.842  1.00  0.00     0.029 A 
ATOM     52  C   UNL A   1      43.852  28.362  33.601  1.00  0.00     0.049 A 
ATOM     53  H   UNL A   1      42.213  28.781  32.339  1.00  0.00     0.167 HD
ATOM     54  C   UNL A   1      44.230  26.903  31.626  1.00  0.00     0.074 A 
ATOM     55  C   UNL A   1      44.980  25.911  30.885  1.00  0.00     0.031 C 
ATOM     56  C   UNL A   1      44.587  27.372  32.849  1.00  0.00     0.034 A 
BRANCH  43  57
ATOM     57  C   UNL A   1      40.694  31.615  35.170  1.00  0.00     0.023 A 
ATOM     58  C   UNL A   1      39.675  31.360  36.104  1.00  0.00     0.031 A 
ATOM     59  C   UNL A   1      41.378  32.841  35.263  1.00  0.00     0.131 A 
ATOM     60  C   UNL A   1      39.311  32.347  37.032  1.00  0.00     0.055 A 
ATOM     61  C   UNL A   1      41.069  33.784  36.245  1.00  0.00     0.041 A 
ATOM     62  F   UNL A   1      42.347  33.151  34.387  1.00  0.00    -0.206 F 
ATOM     63  C   UNL A   1      40.017  33.547  37.126  1.00  0.00     0.022 A 
BRANCH  60  64
ATOM     64  S   UNL A   1      37.801  32.100  38.007  1.00  0.00     0.124 S 
ATOM     65  O   UNL A   1      37.451  30.723  37.663  1.00  0.00    -0.237 OA
ATOM     66  O   UNL A   1      38.265  32.319  39.371  1.00  0.00    -0.237 OA
ATOM     67  O   UNL A   1      36.888  33.115  37.486  1.00  0.00    -0.744 OA
ENDBRANCH  60  64
ENDBRANCH  43  57
BRANCH  44  68
ATOM     68  C   UNL A   1      42.623  25.579  27.398  1.00  0.00     0.023 A 
ATOM     69  C   UNL A   1      42.170  24.252  27.319  1.00  0.00     0.031 A 
ATOM     70  C   UNL A   1      43.429  26.064  26.353  1.00  0.00     0.131 A 
ATOM     71  C   UNL A   1      42.564  23.441  26.243  1.00  0.00     0.055 A 
ATOM     72  C   UNL A   1      43.778  25.269  25.261  1.00  0.00     0.041 A 
ATOM     73  F   UNL A   1      43.880  27.328  26.376  1.00  0.00    -0.206 F 
ATOM     74  C   UNL A   1      43.355  23.944  25.208  1.00  0.00     0.022 A 
BRANCH  71  75
ATOM     75  S   UNL A   1      42.089  21.690  26.257  1.00  0.00     0.124 S 
ATOM     76  O   UNL A   1      40.669  21.764  25.937  1.00  0.00    -0.237 OA
ATOM     77  O   UNL A   1      42.954  21.135  25.220  1.00  0.00    -0.237 OA
ATOM     78  O   UNL A   1      42.402  21.264  27.620  1.00  0.00    -0.744 OA
ENDBRANCH  71  75
ENDBRANCH  44  68
BRANCH  56  79
ATOM     79  C   UNL A   1      45.810  26.764  33.486  1.00  0.00     0.023 A 
ATOM     80  C   UNL A   1      45.750  25.564  34.217  1.00  0.00     0.031 A 
ATOM     81  C   UNL A   1      47.057  27.400  33.355  1.00  0.00     0.131 A 
ATOM     82  C   UNL A   1      46.908  25.063  34.830  1.00  0.00     0.055 A 
ATOM     83  C   UNL A   1      48.216  26.867  33.921  1.00  0.00     0.041 A 
ATOM     84  F   UNL A   1      47.170  28.547  32.668  1.00  0.00    -0.206 F 
ATOM     85  C   UNL A   1      48.143  25.699  34.673  1.00  0.00     0.022 A 
BRANCH  82  86
ATOM     86  S   UNL A   1      46.768  23.603  35.897  1.00  0.00     0.124 S 
ATOM     87  O   UNL A   1      45.321  23.434  35.990  1.00  0.00    -0.237 OA
ATOM     88  O   UNL A   1      47.481  22.587  35.131  1.00  0.00    -0.237 OA
ATOM     89  O   UNL A   1      47.424  24.019  37.135  1.00  0.00    -0.744 OA
ENDBRANCH  82  86
ENDBRANCH  56  79
ENDBRANCH  30  31
ENDBRANCH  22  25
ENDBRANCH  20  21
ENDBRANCH  19  20
ENDBRANCH   1  19
TORSDOF 18
ENDMDL
MODEL 3
REMARK VINA RESULT:     -10.3      1.634      2.092
REMARK SMILES CCCN(CC)c1ccnc(C(=O)NCCCCNC(=O)c2ccc(-c3c4nc(c(-c5cc(S(=O)(=O)[O-])ccc5F)c5ccc([nH]5)c(-c5cc(S(=O)(=O)[O-])ccc5F)c5nc(c(-c6cc(S(=O)(=O)[O-])ccc6F)c6ccc3[nH]6)C=C5)C=C4)cc2)c1
REMARK SMILES IDX 16 1 15 2 14 3 12 4 13 5 11 7 7 8 8 9 85 10 9 11 10 12 4 13
REMARK SMILES IDX 3 14 2 15 1 16 5 17 6 18 17 19 18 20 19 21 20 22 21 24 22 25
REMARK SMILES IDX 23 26 84 27 24 28 83 29 25 30 26 31 27 32 77 33 28 34 82 35
REMARK SMILES IDX 76 36 78 37 29 38 81 39 75 40 74 41 30 43 62 44 42 45 61 46
REMARK SMILES IDX 43 47 46 48 60 49 79 50 44 51 45 52 59 54 80 55 47 56 31 57
REMARK SMILES IDX 32 58 40 59 33 60 39 61 41 62 38 63 34 64 35 65 36 66 37 67
REMARK SMILES IDX 63 68 64 69 72 70 65 71 71 72 73 73 70 74 66 75 67 76 68 77
REMARK SMILES IDX 69 78 48 79 49 80 57 81 50 82 56 83 58 84 55 85 51 86 52 87
REMARK SMILES IDX 53 88 54 89
REMARK H PARENT 14 6 19 23 78 42 46 53
REMARK Flexibility Score: inf
ROOT
ATOM      1  C   UNL A   1      31.442  30.101  26.148  1.00  0.00     0.023 C 
ENDROOT
BRANCH   1   2
ATOM      2  C   UNL A   1      31.647  29.700  24.685  1.00  0.00     0.116 C 
BRANCH   2   3
ATOM      3  N   UNL A   1      30.384  29.320  24.083  1.00  0.00    -0.351 N 
ATOM      4  C   UNL A   1      29.989  28.152  23.466  1.00  0.00     0.269 C 
ATOM      5  O   UNL A   1      28.830  28.089  23.053  1.00  0.00    -0.268 OA
ATOM      6  H   UNL A   1      29.689  30.016  24.122  1.00  0.00     0.163 HD
BRANCH   4   7
ATOM      7  C   UNL A   1      30.900  26.964  23.332  1.00  0.00     0.130 A 
ATOM      8  C   UNL A   1      31.991  25.000  24.185  1.00  0.00     0.040 A 
ATOM      9  C   UNL A   1      32.430  24.745  22.889  1.00  0.00     0.046 A 
ATOM     10  C   UNL A   1      31.253  26.161  24.409  1.00  0.00     0.060 A 
ATOM     11  C   UNL A   1      32.112  25.640  21.883  1.00  0.00     0.114 A 
ATOM     12  N   UNL A   1      31.345  26.730  22.070  1.00  0.00    -0.251 NA
BRANCH   8  13
ATOM     13  N   UNL A   1      32.234  24.104  25.206  1.00  0.00    -0.372 N 
BRANCH  13  14
ATOM     14  C   UNL A   1      33.212  23.030  25.048  1.00  0.00     0.116 C 
BRANCH  14  15
ATOM     15  C   UNL A   1      34.459  23.272  25.903  1.00  0.00     0.018 C 
ATOM     16  C   UNL A   1      35.225  24.517  25.478  1.00  0.00     0.006 C 
ENDBRANCH  14  15
ENDBRANCH  13  14
BRANCH  13  17
ATOM     17  C   UNL A   1      31.511  24.249  26.470  1.00  0.00     0.113 C 
ATOM     18  C   UNL A   1      30.400  23.217  26.600  1.00  0.00     0.027 C 
ENDBRANCH  13  17
ENDBRANCH   8  13
ENDBRANCH   4   7
ENDBRANCH   2   3
ENDBRANCH   1   2
BRANCH   1  19
ATOM     19  C   UNL A   1      31.363  31.614  26.364  1.00  0.00     0.023 C 
BRANCH  19  20
ATOM     20  C   UNL A   1      32.648  32.241  26.897  1.00  0.00     0.116 C 
BRANCH  20  21
ATOM     21  N   UNL A   1      32.448  33.575  27.445  1.00  0.00    -0.352 N 
ATOM     22  C   UNL A   1      33.209  34.221  28.390  1.00  0.00     0.251 C 
ATOM     23  H   UNL A   1      31.675  34.074  27.096  1.00  0.00     0.163 HD
ATOM     24  O   UNL A   1      32.852  35.308  28.834  1.00  0.00    -0.269 OA
BRANCH  22  25
ATOM     25  C   UNL A   1      34.431  33.561  28.893  1.00  0.00     0.039 A 
ATOM     26  C   UNL A   1      35.665  34.192  28.711  1.00  0.00     0.014 A 
ATOM     27  C   UNL A   1      34.347  32.357  29.595  1.00  0.00     0.014 A 
ATOM     28  C   UNL A   1      36.809  33.646  29.295  1.00  0.00     0.010 A 
ATOM     29  C   UNL A   1      35.476  31.852  30.232  1.00  0.00     0.010 A 
ATOM     30  C   UNL A   1      36.717  32.493  30.091  1.00  0.00    -0.014 A 
BRANCH  30  31
ATOM     31  C   UNL A   1      37.906  31.921  30.772  1.00  0.00     0.031 A 
ATOM     32  C   UNL A   1      38.731  30.876  30.073  1.00  0.00     0.074 A 
ATOM     33  C   UNL A   1      38.191  32.275  32.042  1.00  0.00     0.049 A 
ATOM     34  N   UNL A   1      39.720  30.154  30.532  1.00  0.00    -0.248 NA
ATOM     35  C   UNL A   1      38.365  30.580  28.679  1.00  0.00     0.031 C 
ATOM     36  C   UNL A   1      37.441  33.251  32.835  1.00  0.00     0.029 A 
ATOM     37  N   UNL A   1      39.176  31.842  32.893  1.00  0.00    -0.354 N 
ATOM     38  C   UNL A   1      40.080  29.303  29.492  1.00  0.00     0.074 A 
ATOM     39  C   UNL A   1      39.162  29.562  28.403  1.00  0.00     0.031 C 
ATOM     40  C   UNL A   1      38.002  33.352  34.052  1.00  0.00     0.029 A 
ATOM     41  C   UNL A   1      39.122  32.418  34.142  1.00  0.00     0.049 A 
ATOM     42  H   UNL A   1      39.858  31.182  32.635  1.00  0.00     0.167 HD
ATOM     43  C   UNL A   1      41.095  28.404  29.445  1.00  0.00     0.034 A 
ATOM     44  C   UNL A   1      39.877  32.206  35.236  1.00  0.00     0.034 A 
ATOM     45  C   UNL A   1      42.012  28.175  30.535  1.00  0.00     0.049 A 
ATOM     46  C   UNL A   1      40.997  31.198  35.164  1.00  0.00     0.074 A 
ATOM     47  C   UNL A   1      43.103  27.325  30.581  1.00  0.00     0.029 A 
ATOM     48  N   UNL A   1      41.942  28.799  31.775  1.00  0.00    -0.354 N 
ATOM     49  N   UNL A   1      41.348  30.425  34.162  1.00  0.00    -0.248 NA
ATOM     50  C   UNL A   1      41.828  31.042  36.365  1.00  0.00     0.031 C 
ATOM     51  C   UNL A   1      43.660  27.395  31.864  1.00  0.00     0.029 A 
ATOM     52  C   UNL A   1      42.960  28.339  32.597  1.00  0.00     0.049 A 
ATOM     53  H   UNL A   1      41.269  29.470  32.032  1.00  0.00     0.167 HD
ATOM     54  C   UNL A   1      42.465  29.719  34.602  1.00  0.00     0.074 A 
ATOM     55  C   UNL A   1      42.730  30.162  35.956  1.00  0.00     0.031 C 
ATOM     56  C   UNL A   1      43.209  28.793  33.945  1.00  0.00     0.034 A 
BRANCH  43  57
ATOM     57  C   UNL A   1      41.239  27.592  28.181  1.00  0.00     0.023 A 
ATOM     58  C   UNL A   1      40.874  26.235  28.130  1.00  0.00     0.031 A 
ATOM     59  C   UNL A   1      41.792  28.166  27.022  1.00  0.00     0.131 A 
ATOM     60  C   UNL A   1      41.145  25.478  26.981  1.00  0.00     0.055 A 
ATOM     61  C   UNL A   1      41.979  27.428  25.852  1.00  0.00     0.041 A 
ATOM     62  F   UNL A   1      42.180  29.452  27.015  1.00  0.00    -0.206 F 
ATOM     63  C   UNL A   1      41.671  26.070  25.832  1.00  0.00     0.022 A 
BRANCH  60  64
ATOM     64  S   UNL A   1      40.944  23.677  27.067  1.00  0.00     0.124 S 
ATOM     65  O   UNL A   1      39.496  23.536  26.929  1.00  0.00    -0.237 OA
ATOM     66  O   UNL A   1      41.741  23.215  25.937  1.00  0.00    -0.237 OA
ATOM     67  O   UNL A   1      41.473  23.336  28.385  1.00  0.00    -0.744 OA
ENDBRANCH  60  64
ENDBRANCH  43  57
BRANCH  44  68
ATOM     68  C   UNL A   1      39.605  32.949  36.499  1.00  0.00     0.023 A 
ATOM     69  C   UNL A   1      38.753  32.417  37.480  1.00  0.00     0.031 A 
ATOM     70  C   UNL A   1      40.161  34.221  36.726  1.00  0.00     0.131 A 
ATOM     71  C   UNL A   1      38.444  33.172  38.622  1.00  0.00     0.055 A 
ATOM     72  C   UNL A   1      39.888  34.947  37.887  1.00  0.00     0.041 A 
ATOM     73  F   UNL A   1      40.988  34.771  35.824  1.00  0.00    -0.206 F 
ATOM     74  C   UNL A   1      39.014  34.429  38.837  1.00  0.00     0.022 A 
BRANCH  71  75
ATOM     75  S   UNL A   1      37.218  32.518  39.789  1.00  0.00     0.124 S 
ATOM     76  O   UNL A   1      37.033  33.648  40.691  1.00  0.00    -0.237 OA
ATOM     77  O   UNL A   1      36.097  32.209  38.906  1.00  0.00    -0.237 OA
ATOM     78  O   UNL A   1      37.888  31.357  40.370  1.00  0.00    -0.744 OA
ENDBRANCH  71  75
ENDBRANCH  44  68
BRANCH  56  79
ATOM     79  C   UNL A   1      44.419  28.250  34.662  1.00  0.00     0.023 A 
ATOM     80  C   UNL A   1      44.348  27.107  35.478  1.00  0.00     0.031 A 
ATOM     81  C   UNL A   1      45.662  28.892  34.523  1.00  0.00     0.131 A 
ATOM     82  C   UNL A   1      45.492  26.668  36.160  1.00  0.00     0.055 A 
ATOM     83  C   UNL A   1      46.808  28.418  35.162  1.00  0.00     0.041 A 
ATOM     84  F   UNL A   1      45.784  29.987  33.757  1.00  0.00    -0.206 F 
ATOM     85  C   UNL A   1      46.724  27.306  35.996  1.00  0.00     0.022 A 
BRANCH  82  86
ATOM     86  S   UNL A   1      45.334  25.288  37.328  1.00  0.00     0.124 S 
ATOM     87  O   UNL A   1      43.913  25.332  37.660  1.00  0.00    -0.237 OA
ATOM     88  O   UNL A   1      45.767  24.149  36.525  1.00  0.00    -0.237 OA
ATOM     89  O   UNL A   1      46.237  25.655  38.417  1.00  0.00    -0.744 OA
ENDBRANCH  82  86
ENDBRANCH  56  79
ENDBRANCH  30  31
ENDBRANCH  22  25
ENDBRANCH  20  21
ENDBRANCH  19  20
ENDBRANCH   1  19
TORSDOF 18
ENDMDL
