MODEL 1
REMARK VINA RESULT:     -11.5      0.000      0.000
REMARK SMILES O=C(C[C@H]1CN(C(=O)c2sccc2Br)CCO1)NCCCCNC(=O)c1ccc(-c2c3nc(c(-c4cc(S(=O)(=O)[O-])ccc4F)c4ccc([nH]4)c(-c4cc(S(=O)(=O)[O-])ccc4F)c4nc(c(-c5cc(S(=O)(=O)[O-])ccc5F)c5ccc2[nH]5)C=C4)C=C3)cc1
REMARK SMILES IDX 20 1 19 2 18 3 1 4 2 5 3 7 4 8 5 9 17 10 6 11 16 12 15 13
REMARK SMILES IDX 7 14 8 15 9 16 10 17 13 18 11 19 12 20 14 21 21 22 22 23
REMARK SMILES IDX 23 24 24 25 25 27 26 28 27 29 88 30 28 31 87 32 29 33 30 34
REMARK SMILES IDX 31 35 81 36 32 37 86 38 80 39 82 40 33 41 85 42 79 43 78 44
REMARK SMILES IDX 34 46 66 47 46 48 65 49 47 50 50 51 64 52 83 53 48 54 49 55
REMARK SMILES IDX 63 57 84 58 51 59 35 60 36 61 44 62 37 63 43 64 45 65 42 66
REMARK SMILES IDX 38 67 39 68 40 69 41 70 67 71 68 72 76 73 69 74 75 75 77 76
REMARK SMILES IDX 74 77 70 78 71 79 72 80 73 81 52 82 53 83 61 84 54 85 60 86
REMARK SMILES IDX 62 87 59 88 55 89 56 90 57 91 58 92
REMARK H PARENT 18 6 23 26 82 45 50 56
REMARK Flexibility Score: inf
ROOT
ATOM      1  C   UNL A   1      31.370  30.696  25.675  1.00  0.00     0.023 C 
ENDROOT
BRANCH   1   2
ATOM      2  C   UNL A   1      32.656  29.873  25.725  1.00  0.00     0.116 C 
BRANCH   2   3
ATOM      3  N   UNL A   1      32.442  28.453  25.545  1.00  0.00    -0.356 N 
ATOM      4  O   UNL A   1      34.391  27.840  26.565  1.00  0.00    -0.275 OA
ATOM      5  C   UNL A   1      33.320  27.528  26.046  1.00  0.00     0.222 C 
ATOM      6  H   UNL A   1      31.647  28.145  25.053  1.00  0.00     0.163 HD
BRANCH   5   7
ATOM      7  C   UNL A   1      32.947  26.069  25.884  1.00  0.00     0.133 C 
BRANCH   7   8
ATOM      8  C   UNL A   1      31.464  25.673  25.858  1.00  0.00     0.147 C 
ATOM      9  C   UNL A   1      31.082  24.989  24.518  1.00  0.00     0.152 C 
ATOM     10  O   UNL A   1      31.039  24.879  26.982  1.00  0.00    -0.374 OA
ATOM     11  N   UNL A   1      31.541  23.594  24.502  1.00  0.00    -0.333 N 
ATOM     12  C   UNL A   1      31.529  23.527  26.946  1.00  0.00     0.182 C 
ATOM     13  C   UNL A   1      31.105  22.820  25.661  1.00  0.00     0.148 C 
BRANCH  11  14
ATOM     14  C   UNL A   1      32.424  23.021  23.586  1.00  0.00     0.265 C 
ATOM     15  O   UNL A   1      32.526  23.463  22.442  1.00  0.00    -0.268 OA
BRANCH  14  16
ATOM     16  C   UNL A   1      33.228  21.907  24.033  1.00  0.00     0.106 A 
ATOM     17  S   UNL A   1      32.576  20.321  23.949  1.00  0.00    -0.137 S 
ATOM     18  C   UNL A   1      34.457  21.903  24.651  1.00  0.00     0.041 A 
ATOM     19  C   UNL A   1      33.954  19.648  24.708  1.00  0.00     0.067 A 
ATOM     20  C   UNL A   1      34.893  20.605  25.025  1.00  0.00     0.028 A 
ATOM     21  Br  UNL A   1      35.528  23.417  25.006  1.00  0.00    -0.049 Br
ENDBRANCH  14  16
ENDBRANCH  11  14
ENDBRANCH   7   8
ENDBRANCH   5   7
ENDBRANCH   2   3
ENDBRANCH   1   2
BRANCH   1  22
ATOM     22  C   UNL A   1      31.300  31.853  26.677  1.00  0.00     0.023 C 
BRANCH  22  23
ATOM     23  C   UNL A   1      32.634  32.511  27.023  1.00  0.00     0.116 C 
BRANCH  23  24
ATOM     24  N   UNL A   1      32.489  33.854  27.558  1.00  0.00    -0.352 N 
ATOM     25  C   UNL A   1      33.222  34.485  28.533  1.00  0.00     0.251 C 
ATOM     26  H   UNL A   1      31.761  34.388  27.166  1.00  0.00     0.163 HD
ATOM     27  O   UNL A   1      32.880  35.599  28.920  1.00  0.00    -0.269 OA
BRANCH  25  28
ATOM     28  C   UNL A   1      34.391  33.814  29.144  1.00  0.00     0.039 A 
ATOM     29  C   UNL A   1      35.669  34.309  28.861  1.00  0.00     0.014 A 
ATOM     30  C   UNL A   1      34.243  32.704  29.981  1.00  0.00     0.014 A 
ATOM     31  C   UNL A   1      36.789  33.739  29.471  1.00  0.00     0.010 A 
ATOM     32  C   UNL A   1      35.357  32.165  30.625  1.00  0.00     0.010 A 
ATOM     33  C   UNL A   1      36.638  32.682  30.381  1.00  0.00    -0.014 A 
BRANCH  33  34
ATOM     34  C   UNL A   1      37.806  32.113  31.099  1.00  0.00     0.031 A 
ATOM     35  C   UNL A   1      38.596  30.990  30.486  1.00  0.00     0.074 A 
ATOM     36  C   UNL A   1      38.106  32.554  32.335  1.00  0.00     0.049 A 
ATOM     37  N   UNL A   1      39.576  30.292  30.997  1.00  0.00    -0.248 NA
ATOM     38  C   UNL A   1      38.207  30.584  29.128  1.00  0.00     0.031 C 
ATOM     39  C   UNL A   1      37.389  33.610  33.053  1.00  0.00     0.029 A 
ATOM     40  N   UNL A   1      39.080  32.157  33.215  1.00  0.00    -0.354 N 
ATOM     41  C   UNL A   1      39.911  29.346  30.034  1.00  0.00     0.074 A 
ATOM     42  C   UNL A   1      39.000  29.543  28.923  1.00  0.00     0.031 C 
ATOM     43  C   UNL A   1      37.951  33.778  34.262  1.00  0.00     0.029 A 
ATOM     44  C   UNL A   1      39.044  32.824  34.416  1.00  0.00     0.049 A 
ATOM     45  H   UNL A   1      39.742  31.458  33.006  1.00  0.00     0.167 HD
ATOM     46  C   UNL A   1      40.891  28.409  30.070  1.00  0.00     0.034 A 
ATOM     47  C   UNL A   1      39.798  32.674  35.522  1.00  0.00     0.034 A 
ATOM     48  C   UNL A   1      41.807  28.239  31.171  1.00  0.00     0.049 A 
ATOM     49  C   UNL A   1      40.891  31.641  35.532  1.00  0.00     0.074 A 
ATOM     50  C   UNL A   1      42.877  27.367  31.279  1.00  0.00     0.029 A 
ATOM     51  N   UNL A   1      41.759  28.955  32.359  1.00  0.00    -0.354 N 
ATOM     52  N   UNL A   1      41.217  30.778  34.599  1.00  0.00    -0.248 NA
ATOM     53  C   UNL A   1      41.722  31.569  36.741  1.00  0.00     0.031 C 
ATOM     54  C   UNL A   1      43.449  27.526  32.547  1.00  0.00     0.029 A 
ATOM     55  C   UNL A   1      42.766  28.532  33.213  1.00  0.00     0.049 A 
ATOM     56  H   UNL A   1      41.106  29.662  32.565  1.00  0.00     0.167 HD
ATOM     57  C   UNL A   1      42.306  30.073  35.102  1.00  0.00     0.074 A 
ATOM     58  C   UNL A   1      42.583  30.616  36.417  1.00  0.00     0.031 C 
ATOM     59  C   UNL A   1      43.017  29.072  34.526  1.00  0.00     0.034 A 
BRANCH  46  60
ATOM     60  C   UNL A   1      40.991  27.478  28.888  1.00  0.00     0.023 A 
ATOM     61  C   UNL A   1      41.992  27.629  27.913  1.00  0.00     0.031 A 
ATOM     62  C   UNL A   1      40.045  26.455  28.711  1.00  0.00     0.131 A 
ATOM     63  C   UNL A   1      41.979  26.821  26.767  1.00  0.00     0.055 A 
ATOM     64  C   UNL A   1      40.081  25.604  27.603  1.00  0.00     0.041 A 
ATOM     65  F   UNL A   1      39.055  26.277  29.601  1.00  0.00    -0.206 F 
ATOM     66  C   UNL A   1      41.043  25.795  26.615  1.00  0.00     0.022 A 
BRANCH  63  67
ATOM     67  S   UNL A   1      43.120  27.217  25.415  1.00  0.00     0.124 S 
ATOM     68  O   UNL A   1      44.237  27.817  26.140  1.00  0.00    -0.237 OA
ATOM     69  O   UNL A   1      43.372  25.909  24.820  1.00  0.00    -0.237 OA
ATOM     70  O   UNL A   1      42.355  28.144  24.582  1.00  0.00    -0.744 OA
ENDBRANCH  63  67
ENDBRANCH  46  60
BRANCH  47  71
ATOM     71  C   UNL A   1      39.539  33.512  36.723  1.00  0.00     0.023 A 
ATOM     72  C   UNL A   1      38.862  32.988  37.833  1.00  0.00     0.031 A 
ATOM     73  C   UNL A   1      39.945  34.856  36.763  1.00  0.00     0.131 A 
ATOM     74  C   UNL A   1      38.578  33.817  38.929  1.00  0.00     0.055 A 
ATOM     75  C   UNL A   1      39.689  35.668  37.868  1.00  0.00     0.041 A 
ATOM     76  F   UNL A   1      40.607  35.396  35.726  1.00  0.00    -0.206 F 
ATOM     77  C   UNL A   1      38.993  35.151  38.957  1.00  0.00     0.022 A 
BRANCH  74  78
ATOM     78  S   UNL A   1      37.610  33.136  40.301  1.00  0.00     0.124 S 
ATOM     79  O   UNL A   1      38.418  31.989  40.699  1.00  0.00    -0.237 OA
ATOM     80  O   UNL A   1      37.582  34.257  41.236  1.00  0.00    -0.237 OA
ATOM     81  O   UNL A   1      36.326  32.812  39.683  1.00  0.00    -0.744 OA
ENDBRANCH  74  78
ENDBRANCH  47  71
BRANCH  59  82
ATOM     82  C   UNL A   1      44.185  28.537  35.310  1.00  0.00     0.023 A 
ATOM     83  C   UNL A   1      44.025  27.517  36.261  1.00  0.00     0.031 A 
ATOM     84  C   UNL A   1      45.467  29.078  35.119  1.00  0.00     0.131 A 
ATOM     85  C   UNL A   1      45.126  27.095  37.021  1.00  0.00     0.055 A 
ATOM     86  C   UNL A   1      46.567  28.628  35.850  1.00  0.00     0.041 A 
ATOM     87  F   UNL A   1      45.668  30.058  34.224  1.00  0.00    -0.206 F 
ATOM     88  C   UNL A   1      46.398  27.637  36.814  1.00  0.00     0.022 A 
BRANCH  85  89
ATOM     89  S   UNL A   1      44.863  25.870  38.331  1.00  0.00     0.124 S 
ATOM     90  O   UNL A   1      44.285  24.752  37.592  1.00  0.00    -0.237 OA
ATOM     91  O   UNL A   1      46.214  25.666  38.845  1.00  0.00    -0.237 OA
ATOM     92  O   UNL A   1      43.949  26.543  39.252  1.00  0.00    -0.744 OA
ENDBRANCH  85  89
ENDBRANCH  59  82
ENDBRANCH  33  34
ENDBRANCH  25  28
ENDBRANCH  23  24
ENDBRANCH  22  23
ENDBRANCH   1  22
TORSDOF 17
ENDMDL
MODEL 2
REMARK VINA RESULT:     -11.3      1.294      2.106
REMARK SMILES O=C(C[C@H]1CN(C(=O)c2sccc2Br)CCO1)NCCCCNC(=O)c1ccc(-c2c3nc(c(-c4cc(S(=O)(=O)[O-])ccc4F)c4ccc([nH]4)c(-c4cc(S(=O)(=O)[O-])ccc4F)c4nc(c(-c5cc(S(=O)(=O)[O-])ccc5F)c5ccc2[nH]5)C=C4)C=C3)cc1
REMARK SMILES IDX 20 1 19 2 18 3 1 4 2 5 3 7 4 8 5 9 17 10 6 11 16 12 15 13
REMARK SMILES IDX 7 14 8 15 9 16 10 17 13 18 11 19 12 20 14 21 21 22 22 23
REMARK SMILES IDX 23 24 24 25 25 27 26 28 27 29 88 30 28 31 87 32 29 33 30 34
REMARK SMILES IDX 31 35 81 36 32 37 86 38 80 39 82 40 33 41 85 42 79 43 78 44
REMARK SMILES IDX 34 46 66 47 46 48 65 49 47 50 50 51 64 52 83 53 48 54 49 55
REMARK SMILES IDX 63 57 84 58 51 59 35 60 36 61 44 62 37 63 43 64 45 65 42 66
REMARK SMILES IDX 38 67 39 68 40 69 41 70 67 71 68 72 76 73 69 74 75 75 77 76
REMARK SMILES IDX 74 77 70 78 71 79 72 80 73 81 52 82 53 83 61 84 54 85 60 86
REMARK SMILES IDX 62 87 59 88 55 89 56 90 57 91 58 92
REMARK H PARENT 18 6 23 26 82 45 50 56
REMARK Flexibility Score: inf
ROOT
ATOM      1  C   UNL A   1      31.496  30.583  26.038  1.00  0.00     0.023 C 
ENDROOT
BRANCH   1   2
ATOM      2  C   UNL A   1      32.220  29.607  26.964  1.00  0.00     0.116 C 
BRANCH   2   3
ATOM      3  N   UNL A   1      33.017  28.625  26.260  1.00  0.00    -0.356 N 
ATOM      4  O   UNL A   1      31.862  26.830  27.072  1.00  0.00    -0.275 OA
ATOM      5  C   UNL A   1      32.728  27.287  26.326  1.00  0.00     0.222 C 
ATOM      6  H   UNL A   1      33.785  28.925  25.721  1.00  0.00     0.163 HD
BRANCH   5   7
ATOM      7  C   UNL A   1      33.568  26.360  25.473  1.00  0.00     0.133 C 
BRANCH   7   8
ATOM      8  C   UNL A   1      33.763  24.903  25.918  1.00  0.00     0.147 C 
ATOM      9  C   UNL A   1      32.453  24.084  25.771  1.00  0.00     0.152 C 
ATOM     10  O   UNL A   1      34.867  24.229  25.285  1.00  0.00    -0.374 OA
ATOM     11  N   UNL A   1      32.231  23.713  24.367  1.00  0.00    -0.333 N 
ATOM     12  C   UNL A   1      34.624  23.905  23.904  1.00  0.00     0.182 C 
ATOM     13  C   UNL A   1      33.374  23.045  23.750  1.00  0.00     0.148 C 
BRANCH  11  14
ATOM     14  C   UNL A   1      31.129  24.053  23.584  1.00  0.00     0.265 C 
ATOM     15  O   UNL A   1      30.397  23.186  23.108  1.00  0.00    -0.268 OA
BRANCH  14  16
ATOM     16  C   UNL A   1      30.863  25.457  23.368  1.00  0.00     0.106 A 
ATOM     17  S   UNL A   1      29.623  26.220  24.277  1.00  0.00    -0.137 S 
ATOM     18  C   UNL A   1      31.387  26.316  22.430  1.00  0.00     0.041 A 
ATOM     19  C   UNL A   1      29.824  27.694  23.430  1.00  0.00     0.067 A 
ATOM     20  C   UNL A   1      30.810  27.613  22.472  1.00  0.00     0.028 A 
ATOM     21  Br  UNL A   1      32.738  25.904  21.178  1.00  0.00    -0.049 Br
ENDBRANCH  14  16
ENDBRANCH  11  14
ENDBRANCH   7   8
ENDBRANCH   5   7
ENDBRANCH   2   3
ENDBRANCH   1   2
BRANCH   1  22
ATOM     22  C   UNL A   1      31.446  32.031  26.533  1.00  0.00     0.023 C 
BRANCH  22  23
ATOM     23  C   UNL A   1      32.732  32.562  27.161  1.00  0.00     0.116 C 
BRANCH  23  24
ATOM     24  N   UNL A   1      32.598  33.906  27.695  1.00  0.00    -0.352 N 
ATOM     25  C   UNL A   1      33.332  34.530  28.673  1.00  0.00     0.251 C 
ATOM     26  H   UNL A   1      31.877  34.447  27.299  1.00  0.00     0.163 HD
ATOM     27  O   UNL A   1      32.999  35.648  29.058  1.00  0.00    -0.269 OA
BRANCH  25  28
ATOM     28  C   UNL A   1      34.492  33.848  29.290  1.00  0.00     0.039 A 
ATOM     29  C   UNL A   1      35.779  34.266  28.936  1.00  0.00     0.014 A 
ATOM     30  C   UNL A   1      34.325  32.802  30.202  1.00  0.00     0.014 A 
ATOM     31  C   UNL A   1      36.894  33.687  29.546  1.00  0.00     0.010 A 
ATOM     32  C   UNL A   1      35.436  32.256  30.845  1.00  0.00     0.010 A 
ATOM     33  C   UNL A   1      36.729  32.699  30.528  1.00  0.00    -0.014 A 
BRANCH  33  34
ATOM     34  C   UNL A   1      37.895  32.125  31.245  1.00  0.00     0.031 A 
ATOM     35  C   UNL A   1      38.712  31.036  30.608  1.00  0.00     0.074 A 
ATOM     36  C   UNL A   1      38.170  32.530  32.500  1.00  0.00     0.049 A 
ATOM     37  N   UNL A   1      39.697  30.337  31.112  1.00  0.00    -0.248 NA
ATOM     38  C   UNL A   1      38.351  30.668  29.232  1.00  0.00     0.031 C 
ATOM     39  C   UNL A   1      37.424  33.551  33.241  1.00  0.00     0.029 A 
ATOM     40  N   UNL A   1      39.136  32.119  33.382  1.00  0.00    -0.354 N 
ATOM     41  C   UNL A   1      40.061  29.429  30.124  1.00  0.00     0.074 A 
ATOM     42  C   UNL A   1      39.164  29.647  29.006  1.00  0.00     0.031 C 
ATOM     43  C   UNL A   1      37.965  33.688  34.463  1.00  0.00     0.029 A 
ATOM     44  C   UNL A   1      39.071  32.746  34.603  1.00  0.00     0.049 A 
ATOM     45  H   UNL A   1      39.813  31.439  33.160  1.00  0.00     0.167 HD
ATOM     46  C   UNL A   1      41.056  28.506  30.145  1.00  0.00     0.034 A 
ATOM     47  C   UNL A   1      39.811  32.573  35.715  1.00  0.00     0.034 A 
ATOM     48  C   UNL A   1      41.957  28.315  31.254  1.00  0.00     0.049 A 
ATOM     49  C   UNL A   1      40.920  31.557  35.709  1.00  0.00     0.074 A 
ATOM     50  C   UNL A   1      43.040  27.457  31.350  1.00  0.00     0.029 A 
ATOM     51  N   UNL A   1      41.880  28.991  32.464  1.00  0.00    -0.354 N 
ATOM     52  N   UNL A   1      41.274  30.730  34.753  1.00  0.00    -0.248 NA
ATOM     53  C   UNL A   1      41.733  31.459  36.927  1.00  0.00     0.031 C 
ATOM     54  C   UNL A   1      43.590  27.583  32.632  1.00  0.00     0.029 A 
ATOM     55  C   UNL A   1      42.881  28.556  33.319  1.00  0.00     0.049 A 
ATOM     56  H   UNL A   1      41.212  29.680  32.683  1.00  0.00     0.167 HD
ATOM     57  C   UNL A   1      42.367  30.027  35.250  1.00  0.00     0.074 A 
ATOM     58  C   UNL A   1      42.615  30.531  36.586  1.00  0.00     0.031 C 
ATOM     59  C   UNL A   1      43.104  29.057  34.653  1.00  0.00     0.034 A 
BRANCH  46  60
ATOM     60  C   UNL A   1      41.189  27.617  28.935  1.00  0.00     0.023 A 
ATOM     61  C   UNL A   1      42.206  27.811  27.985  1.00  0.00     0.031 A 
ATOM     62  C   UNL A   1      40.258  26.589  28.705  1.00  0.00     0.131 A 
ATOM     63  C   UNL A   1      42.225  27.041  26.813  1.00  0.00     0.055 A 
ATOM     64  C   UNL A   1      40.325  25.777  27.571  1.00  0.00     0.041 A 
ATOM     65  F   UNL A   1      39.254  26.371  29.570  1.00  0.00    -0.206 F 
ATOM     66  C   UNL A   1      41.304  26.011  26.609  1.00  0.00     0.022 A 
BRANCH  63  67
ATOM     67  S   UNL A   1      43.386  27.494  25.497  1.00  0.00     0.124 S 
ATOM     68  O   UNL A   1      44.249  26.316  25.448  1.00  0.00    -0.237 OA
ATOM     69  O   UNL A   1      42.505  27.690  24.351  1.00  0.00    -0.237 OA
ATOM     70  O   UNL A   1      44.025  28.707  26.006  1.00  0.00    -0.744 OA
ENDBRANCH  63  67
ENDBRANCH  46  60
BRANCH  47  71
ATOM     71  C   UNL A   1      39.520  33.366  36.938  1.00  0.00     0.023 A 
ATOM     72  C   UNL A   1      38.743  32.831  37.975  1.00  0.00     0.031 A 
ATOM     73  C   UNL A   1      39.996  34.681  37.072  1.00  0.00     0.131 A 
ATOM     74  C   UNL A   1      38.434  33.622  39.092  1.00  0.00     0.055 A 
ATOM     75  C   UNL A   1      39.713  35.453  38.199  1.00  0.00     0.041 A 
ATOM     76  F   UNL A   1      40.754  35.229  36.109  1.00  0.00    -0.206 F 
ATOM     77  C   UNL A   1      38.919  34.927  39.215  1.00  0.00     0.022 A 
BRANCH  74  78
ATOM     78  S   UNL A   1      37.341  32.935  40.364  1.00  0.00     0.124 S 
ATOM     79  O   UNL A   1      36.115  32.699  39.610  1.00  0.00    -0.237 OA
ATOM     80  O   UNL A   1      38.076  31.747  40.783  1.00  0.00    -0.237 OA
ATOM     81  O   UNL A   1      37.266  34.002  41.360  1.00  0.00    -0.744 OA
ENDBRANCH  74  78
ENDBRANCH  47  71
BRANCH  59  82
ATOM     82  C   UNL A   1      44.268  28.515  35.437  1.00  0.00     0.023 A 
ATOM     83  C   UNL A   1      44.101  27.496  36.389  1.00  0.00     0.031 A 
ATOM     84  C   UNL A   1      45.553  29.048  35.246  1.00  0.00     0.131 A 
ATOM     85  C   UNL A   1      45.200  27.068  37.149  1.00  0.00     0.055 A 
ATOM     86  C   UNL A   1      46.650  28.591  35.977  1.00  0.00     0.041 A 
ATOM     87  F   UNL A   1      45.760  30.026  34.350  1.00  0.00    -0.206 F 
ATOM     88  C   UNL A   1      46.475  27.602  36.942  1.00  0.00     0.022 A 
BRANCH  85  89
ATOM     89  S   UNL A   1      44.930  25.846  38.460  1.00  0.00     0.124 S 
ATOM     90  O   UNL A   1      44.391  24.713  37.714  1.00  0.00    -0.237 OA
ATOM     91  O   UNL A   1      46.271  25.671  39.007  1.00  0.00    -0.237 OA
ATOM     92  O   UNL A   1      43.980  26.506  39.355  1.00  0.00    -0.744 OA
ENDBRANCH  85  89
ENDBRANCH  59  82
ENDBRANCH  33  34
ENDBRANCH  25  28
ENDBRANCH  23  24
ENDBRANCH  22  23
ENDBRANCH   1  22
TORSDOF 17
ENDMDL
MODEL 3
REMARK VINA RESULT:     -11.2      5.698     11.629
REMARK SMILES O=C(C[C@H]1CN(C(=O)c2sccc2Br)CCO1)NCCCCNC(=O)c1ccc(-c2c3nc(c(-c4cc(S(=O)(=O)[O-])ccc4F)c4ccc([nH]4)c(-c4cc(S(=O)(=O)[O-])ccc4F)c4nc(c(-c5cc(S(=O)(=O)[O-])ccc5F)c5ccc2[nH]5)C=C4)C=C3)cc1
REMARK SMILES IDX 20 1 19 2 18 3 1 4 2 5 3 7 4 8 5 9 17 10 6 11 16 12 15 13
REMARK SMILES IDX 7 14 8 15 9 16 10 17 13 18 11 19 12 20 14 21 21 22 22 23
REMARK SMILES IDX 23 24 24 25 25 27 26 28 27 29 88 30 28 31 87 32 29 33 30 34
REMARK SMILES IDX 31 35 81 36 32 37 86 38 80 39 82 40 33 41 85 42 79 43 78 44
REMARK SMILES IDX 34 46 66 47 46 48 65 49 47 50 50 51 64 52 83 53 48 54 49 55
REMARK SMILES IDX 63 57 84 58 51 59 35 60 36 61 44 62 37 63 43 64 45 65 42 66
REMARK SMILES IDX 38 67 39 68 40 69 41 70 67 71 68 72 76 73 69 74 75 75 77 76
REMARK SMILES IDX 74 77 70 78 71 79 72 80 73 81 52 82 53 83 61 84 54 85 60 86
REMARK SMILES IDX 62 87 59 88 55 89 56 90 57 91 58 92
REMARK H PARENT 18 6 23 26 82 45 50 56
REMARK Flexibility Score: inf
ROOT
ATOM      1  C   UNL A   1      36.572  21.135  25.089  1.00  0.00     0.023 C 
ENDROOT
BRANCH   1   2
ATOM      2  C   UNL A   1      35.246  20.380  25.002  1.00  0.00     0.116 C 
BRANCH   2   3
ATOM      3  N   UNL A   1      34.120  21.225  24.666  1.00  0.00    -0.356 N 
ATOM      4  O   UNL A   1      33.557  21.658  26.838  1.00  0.00    -0.275 OA
ATOM      5  C   UNL A   1      33.386  21.859  25.636  1.00  0.00     0.222 C 
ATOM      6  H   UNL A   1      33.876  21.349  23.721  1.00  0.00     0.163 HD
BRANCH   5   7
ATOM      7  C   UNL A   1      32.293  22.795  25.167  1.00  0.00     0.133 C 
BRANCH   7   8
ATOM      8  C   UNL A   1      31.863  22.768  23.693  1.00  0.00     0.147 C 
ATOM      9  C   UNL A   1      30.654  23.707  23.437  1.00  0.00     0.152 C 
ATOM     10  O   UNL A   1      32.927  23.028  22.757  1.00  0.00    -0.374 OA
ATOM     11  N   UNL A   1      31.094  25.107  23.370  1.00  0.00    -0.333 N 
ATOM     12  C   UNL A   1      33.349  24.403  22.738  1.00  0.00     0.182 C 
ATOM     13  C   UNL A   1      32.182  25.335  22.422  1.00  0.00     0.148 C 
BRANCH  11  14
ATOM     14  C   UNL A   1      30.670  26.150  24.192  1.00  0.00     0.265 C 
ATOM     15  O   UNL A   1      29.536  26.162  24.669  1.00  0.00    -0.268 OA
BRANCH  14  16
ATOM     16  C   UNL A   1      31.614  27.205  24.483  1.00  0.00     0.106 A 
ATOM     17  S   UNL A   1      32.852  26.921  25.638  1.00  0.00    -0.137 S 
ATOM     18  C   UNL A   1      31.633  28.511  24.051  1.00  0.00     0.041 A 
ATOM     19  C   UNL A   1      33.415  28.533  25.523  1.00  0.00     0.067 A 
ATOM     20  C   UNL A   1      32.679  29.279  24.628  1.00  0.00     0.028 A 
ATOM     21  Br  UNL A   1      30.435  29.291  22.818  1.00  0.00    -0.049 Br
ENDBRANCH  14  16
ENDBRANCH  11  14
ENDBRANCH   7   8
ENDBRANCH   5   7
ENDBRANCH   2   3
ENDBRANCH   1   2
BRANCH   1  22
ATOM     22  C   UNL A   1      37.822  20.274  24.887  1.00  0.00     0.023 C 
BRANCH  22  23
ATOM     23  C   UNL A   1      39.004  20.598  25.799  1.00  0.00     0.116 C 
BRANCH  23  24
ATOM     24  N   UNL A   1      39.975  19.521  25.883  1.00  0.00    -0.352 N 
ATOM     25  C   UNL A   1      41.325  19.585  26.128  1.00  0.00     0.251 C 
ATOM     26  H   UNL A   1      39.615  18.616  25.743  1.00  0.00     0.163 HD
ATOM     27  O   UNL A   1      42.000  18.562  26.062  1.00  0.00    -0.269 OA
BRANCH  25  28
ATOM     28  C   UNL A   1      41.971  20.882  26.431  1.00  0.00     0.039 A 
ATOM     29  C   UNL A   1      42.292  21.733  25.368  1.00  0.00     0.014 A 
ATOM     30  C   UNL A   1      42.267  21.263  27.743  1.00  0.00     0.014 A 
ATOM     31  C   UNL A   1      42.844  22.990  25.623  1.00  0.00     0.010 A 
ATOM     32  C   UNL A   1      42.775  22.536  28.000  1.00  0.00     0.010 A 
ATOM     33  C   UNL A   1      43.061  23.413  26.943  1.00  0.00    -0.014 A 
BRANCH  33  34
ATOM     34  C   UNL A   1      43.574  24.775  27.239  1.00  0.00     0.031 A 
ATOM     35  C   UNL A   1      42.645  25.834  27.764  1.00  0.00     0.074 A 
ATOM     36  C   UNL A   1      44.856  25.077  26.962  1.00  0.00     0.049 A 
ATOM     37  N   UNL A   1      42.876  27.103  27.983  1.00  0.00    -0.248 NA
ATOM     38  C   UNL A   1      41.268  25.411  28.053  1.00  0.00     0.031 C 
ATOM     39  C   UNL A   1      45.845  24.146  26.412  1.00  0.00     0.029 A 
ATOM     40  N   UNL A   1      45.544  26.257  27.086  1.00  0.00    -0.354 N 
ATOM     41  C   UNL A   1      41.667  27.639  28.414  1.00  0.00     0.074 A 
ATOM     42  C   UNL A   1      40.700  26.559  28.390  1.00  0.00     0.031 C 
ATOM     43  C   UNL A   1      47.012  24.791  26.250  1.00  0.00     0.029 A 
ATOM     44  C   UNL A   1      46.847  26.184  26.654  1.00  0.00     0.049 A 
ATOM     45  H   UNL A   1      45.143  27.079  27.450  1.00  0.00     0.167 HD
ATOM     46  C   UNL A   1      41.393  28.910  28.801  1.00  0.00     0.034 A 
ATOM     47  C   UNL A   1      47.797  27.135  26.578  1.00  0.00     0.034 A 
ATOM     48  C   UNL A   1      42.369  29.970  28.844  1.00  0.00     0.049 A 
ATOM     49  C   UNL A   1      47.476  28.533  27.030  1.00  0.00     0.074 A 
ATOM     50  C   UNL A   1      42.213  31.273  29.285  1.00  0.00     0.029 A 
ATOM     51  N   UNL A   1      43.688  29.850  28.428  1.00  0.00    -0.354 N 
ATOM     52  N   UNL A   1      46.337  29.015  27.468  1.00  0.00    -0.248 NA
ATOM     53  C   UNL A   1      48.571  29.510  26.986  1.00  0.00     0.031 C 
ATOM     54  C   UNL A   1      43.423  31.952  29.096  1.00  0.00     0.029 A 
ATOM     55  C   UNL A   1      44.350  31.059  28.581  1.00  0.00     0.049 A 
ATOM     56  H   UNL A   1      44.095  29.026  28.075  1.00  0.00     0.167 HD
ATOM     57  C   UNL A   1      46.586  30.350  27.771  1.00  0.00     0.074 A 
ATOM     58  C   UNL A   1      47.982  30.593  27.471  1.00  0.00     0.031 C 
ATOM     59  C   UNL A   1      45.737  31.288  28.261  1.00  0.00     0.034 A 
BRANCH  46  60
ATOM     60  C   UNL A   1      39.966  29.218  29.178  1.00  0.00     0.023 A 
ATOM     61  C   UNL A   1      39.555  29.285  30.519  1.00  0.00     0.031 A 
ATOM     62  C   UNL A   1      38.995  29.401  28.179  1.00  0.00     0.131 A 
ATOM     63  C   UNL A   1      38.196  29.453  30.827  1.00  0.00     0.055 A 
ATOM     64  C   UNL A   1      37.655  29.642  28.492  1.00  0.00     0.041 A 
ATOM     65  F   UNL A   1      39.327  29.329  26.880  1.00  0.00    -0.206 F 
ATOM     66  C   UNL A   1      37.246  29.653  29.823  1.00  0.00     0.022 A 
BRANCH  63  67
ATOM     67  S   UNL A   1      37.670  29.270  32.552  1.00  0.00     0.124 S 
ATOM     68  O   UNL A   1      36.311  29.804  32.502  1.00  0.00    -0.237 OA
ATOM     69  O   UNL A   1      37.785  27.832  32.767  1.00  0.00    -0.237 OA
ATOM     70  O   UNL A   1      38.628  30.090  33.292  1.00  0.00    -0.744 OA
ENDBRANCH  63  67
ENDBRANCH  46  60
BRANCH  47  71
ATOM     71  C   UNL A   1      49.143  26.806  26.037  1.00  0.00     0.023 A 
ATOM     72  C   UNL A   1      49.528  27.232  24.758  1.00  0.00     0.031 A 
ATOM     73  C   UNL A   1      50.051  26.040  26.786  1.00  0.00     0.131 A 
ATOM     74  C   UNL A   1      50.781  26.858  24.248  1.00  0.00     0.055 A 
ATOM     75  C   UNL A   1      51.308  25.697  26.288  1.00  0.00     0.041 A 
ATOM     76  F   UNL A   1      49.728  25.621  28.021  1.00  0.00    -0.206 F 
ATOM     77  C   UNL A   1      51.676  26.099  25.007  1.00  0.00     0.022 A 
BRANCH  74  78
ATOM     78  S   UNL A   1      51.204  27.336  22.552  1.00  0.00     0.124 S 
ATOM     79  O   UNL A   1      52.533  26.754  22.400  1.00  0.00    -0.237 OA
ATOM     80  O   UNL A   1      50.135  26.705  21.786  1.00  0.00    -0.237 OA
ATOM     81  O   UNL A   1      51.161  28.796  22.591  1.00  0.00    -0.744 OA
ENDBRANCH  74  78
ENDBRANCH  47  71
BRANCH  59  82
ATOM     82  C   UNL A   1      46.321  32.648  28.534  1.00  0.00     0.023 A 
ATOM     83  C   UNL A   1      46.468  33.602  27.515  1.00  0.00     0.031 A 
ATOM     84  C   UNL A   1      46.759  32.978  29.827  1.00  0.00     0.131 A 
ATOM     85  C   UNL A   1      47.082  34.832  27.796  1.00  0.00     0.055 A 
ATOM     86  C   UNL A   1      47.333  34.218  30.110  1.00  0.00     0.041 A 
ATOM     87  F   UNL A   1      46.642  32.097  30.833  1.00  0.00    -0.206 F 
ATOM     88  C   UNL A   1      47.505  35.150  29.090  1.00  0.00     0.022 A 
BRANCH  85  89
ATOM     89  S   UNL A   1      47.377  35.990  26.433  1.00  0.00     0.124 S 
ATOM     90  O   UNL A   1      46.048  36.554  26.219  1.00  0.00    -0.237 OA
ATOM     91  O   UNL A   1      48.370  36.896  27.002  1.00  0.00    -0.237 OA
ATOM     92  O   UNL A   1      47.869  35.134  25.355  1.00  0.00    -0.744 OA
ENDBRANCH  85  89
ENDBRANCH  59  82
ENDBRANCH  33  34
ENDBRANCH  25  28
ENDBRANCH  23  24
ENDBRANCH  22  23
ENDBRANCH   1  22
TORSDOF 17
ENDMDL
