MODEL 1
REMARK VINA RESULT:     -13.5      0.000      0.000
REMARK SMILES Cc1cc2c(=O)c3ccccc3oc2c(C(=O)NCCCCNC(=O)c2ccc(-c3c4nc(c(-c5cc(S(=O)(=O)[O-])ccc5F)c5ccc([nH]5)c(-c5cc(S(=O)(=O)[O-])ccc5F)c5nc(c(-c6cc(S(=O)(=O)[O-])ccc6F)c6ccc3[nH]6)C=C5)C=C4)cc2)c1C
REMARK SMILES IDX 22 1 21 2 20 3 19 4 18 5 16 6 17 7 15 9 1 10 2 11 3 12 89 13
REMARK SMILES IDX 4 14 90 15 5 16 14 17 6 18 7 19 13 20 8 21 12 22 9 23 11 24
REMARK SMILES IDX 10 25 23 26 24 27 25 29 26 30 27 31 88 32 28 33 87 34 29 35
REMARK SMILES IDX 30 36 31 37 81 38 32 39 86 40 80 41 82 42 33 43 85 44 79 45
REMARK SMILES IDX 78 46 34 48 66 49 46 50 65 51 47 52 50 53 64 54 83 55 48 56
REMARK SMILES IDX 49 57 63 59 84 60 51 61 35 62 36 63 44 64 37 65 43 66 45 67
REMARK SMILES IDX 42 68 38 69 39 70 40 71 41 72 67 73 68 74 76 75 69 76 75 77
REMARK SMILES IDX 77 78 74 79 70 80 71 81 72 82 73 83 52 84 53 85 61 86 54 87
REMARK SMILES IDX 60 88 62 89 59 90 55 91 56 92 57 93 58 94
REMARK H PARENT 18 8 23 28 82 47 50 58
REMARK Flexibility Score: inf
ROOT
ATOM      1  C   UNL A   1      37.350  22.153  24.904  1.00  0.00     0.116 C 
ENDROOT
BRANCH   1   2
ATOM      2  C   UNL A   1      35.877  21.791  24.923  1.00  0.00     0.023 C 
BRANCH   2   3
ATOM      3  C   UNL A   1      35.297  21.588  26.317  1.00  0.00     0.023 C 
BRANCH   3   4
ATOM      4  C   UNL A   1      34.964  22.863  27.112  1.00  0.00     0.116 C 
BRANCH   4   5
ATOM      5  N   UNL A   1      33.526  22.974  27.272  1.00  0.00    -0.352 N 
ATOM      6  C   UNL A   1      32.427  23.139  26.472  1.00  0.00     0.255 C 
ATOM      7  O   UNL A   1      31.419  23.481  27.106  1.00  0.00    -0.269 OA
ATOM      8  H   UNL A   1      33.269  22.911  28.220  1.00  0.00     0.163 HD
BRANCH   6   9
ATOM      9  C   UNL A   1      32.281  22.946  24.977  1.00  0.00     0.086 A 
ATOM     10  C   UNL A   1      32.065  20.435  22.027  1.00  0.00     0.044 C 
ATOM     11  C   UNL A   1      32.221  21.702  22.836  1.00  0.00    -0.046 A 
ATOM     12  C   UNL A   1      32.492  22.876  22.137  1.00  0.00     0.019 A 
ATOM     13  C   UNL A   1      32.180  21.713  24.263  1.00  0.00    -0.032 A 
ATOM     14  C   UNL A   1      32.637  24.074  22.821  1.00  0.00     0.066 A 
ATOM     15  C   UNL A   1      32.091  20.378  24.932  1.00  0.00     0.045 C 
ATOM     16  C   UNL A   1      33.028  25.278  22.071  1.00  0.00     0.200 A 
ATOM     17  C   UNL A   1      32.480  24.135  24.209  1.00  0.00     0.151 A 
ATOM     18  O   UNL A   1      33.197  25.256  20.858  1.00  0.00    -0.288 OA
ATOM     19  C   UNL A   1      33.241  26.500  22.845  1.00  0.00     0.065 A 
ATOM     20  O   UNL A   1      32.503  25.354  24.865  1.00  0.00    -0.455 OA
ATOM     21  C   UNL A   1      33.719  27.665  22.236  1.00  0.00     0.016 A 
ATOM     22  C   UNL A   1      32.956  26.469  24.204  1.00  0.00     0.138 A 
ATOM     23  C   UNL A   1      33.899  28.816  23.001  1.00  0.00     0.001 A 
ATOM     24  C   UNL A   1      33.131  27.624  24.965  1.00  0.00     0.048 A 
ATOM     25  C   UNL A   1      33.601  28.797  24.364  1.00  0.00     0.004 A 
ENDBRANCH   6   9
ENDBRANCH   4   5
ENDBRANCH   3   4
ENDBRANCH   2   3
ENDBRANCH   1   2
BRANCH   1  26
ATOM     26  N   UNL A   1      38.252  21.025  25.117  1.00  0.00    -0.352 N 
ATOM     27  C   UNL A   1      39.354  20.978  25.954  1.00  0.00     0.251 C 
ATOM     28  H   UNL A   1      38.055  20.206  24.608  1.00  0.00     0.163 HD
ATOM     29  O   UNL A   1      40.061  19.987  26.011  1.00  0.00    -0.269 OA
BRANCH  27  30
ATOM     30  C   UNL A   1      39.678  22.203  26.717  1.00  0.00     0.039 A 
ATOM     31  C   UNL A   1      39.081  23.410  26.358  1.00  0.00     0.014 A 
ATOM     32  C   UNL A   1      40.718  22.168  27.648  1.00  0.00     0.014 A 
ATOM     33  C   UNL A   1      39.679  24.597  26.751  1.00  0.00     0.010 A 
ATOM     34  C   UNL A   1      41.244  23.369  28.130  1.00  0.00     0.010 A 
ATOM     35  C   UNL A   1      40.780  24.594  27.626  1.00  0.00    -0.014 A 
BRANCH  35  36
ATOM     36  C   UNL A   1      41.429  25.888  27.970  1.00  0.00     0.031 A 
ATOM     37  C   UNL A   1      42.793  26.245  27.440  1.00  0.00     0.074 A 
ATOM     38  C   UNL A   1      40.733  26.784  28.696  1.00  0.00     0.049 A 
ATOM     39  N   UNL A   1      43.465  27.357  27.590  1.00  0.00    -0.248 NA
ATOM     40  C   UNL A   1      43.499  25.227  26.646  1.00  0.00     0.031 C 
ATOM     41  C   UNL A   1      39.400  26.545  29.253  1.00  0.00     0.029 A 
ATOM     42  N   UNL A   1      41.017  28.077  29.055  1.00  0.00    -0.354 N 
ATOM     43  C   UNL A   1      44.678  27.166  26.937  1.00  0.00     0.074 A 
ATOM     44  C   UNL A   1      44.662  25.820  26.410  1.00  0.00     0.031 C 
ATOM     45  C   UNL A   1      38.948  27.676  29.807  1.00  0.00     0.029 A 
ATOM     46  C   UNL A   1      39.989  28.698  29.726  1.00  0.00     0.049 A 
ATOM     47  H   UNL A   1      41.873  28.518  28.852  1.00  0.00     0.167 HD
ATOM     48  C   UNL A   1      45.702  28.040  26.780  1.00  0.00     0.034 A 
ATOM     49  C   UNL A   1      39.890  29.945  30.229  1.00  0.00     0.034 A 
ATOM     50  C   UNL A   1      45.689  29.391  27.281  1.00  0.00     0.049 A 
ATOM     51  C   UNL A   1      41.045  30.891  30.050  1.00  0.00     0.074 A 
ATOM     52  C   UNL A   1      46.665  30.362  27.144  1.00  0.00     0.029 A 
ATOM     53  N   UNL A   1      44.654  29.967  28.003  1.00  0.00    -0.354 N 
ATOM     54  N   UNL A   1      42.171  30.700  29.404  1.00  0.00    -0.248 NA
ATOM     55  C   UNL A   1      40.925  32.216  30.671  1.00  0.00     0.031 C 
ATOM     56  C   UNL A   1      46.244  31.506  27.824  1.00  0.00     0.029 A 
ATOM     57  C   UNL A   1      44.979  31.272  28.339  1.00  0.00     0.049 A 
ATOM     58  H   UNL A   1      43.812  29.516  28.241  1.00  0.00     0.167 HD
ATOM     59  C   UNL A   1      42.896  31.880  29.542  1.00  0.00     0.074 A 
ATOM     60  C   UNL A   1      42.061  32.792  30.298  1.00  0.00     0.031 C 
ATOM     61  C   UNL A   1      44.142  32.173  29.094  1.00  0.00     0.034 A 
BRANCH  48  62
ATOM     62  C   UNL A   1      46.933  27.588  26.030  1.00  0.00     0.023 A 
ATOM     63  C   UNL A   1      47.078  27.895  24.664  1.00  0.00     0.031 A 
ATOM     64  C   UNL A   1      47.891  26.752  26.630  1.00  0.00     0.131 A 
ATOM     65  C   UNL A   1      48.141  27.346  23.935  1.00  0.00     0.055 A 
ATOM     66  C   UNL A   1      48.967  26.235  25.906  1.00  0.00     0.041 A 
ATOM     67  F   UNL A   1      47.797  26.430  27.931  1.00  0.00    -0.206 F 
ATOM     68  C   UNL A   1      49.088  26.522  24.550  1.00  0.00     0.022 A 
BRANCH  65  69
ATOM     69  S   UNL A   1      48.303  27.631  22.151  1.00  0.00     0.124 S 
ATOM     70  O   UNL A   1      47.028  28.268  21.833  1.00  0.00    -0.237 OA
ATOM     71  O   UNL A   1      49.471  28.506  22.086  1.00  0.00    -0.237 OA
ATOM     72  O   UNL A   1      48.485  26.293  21.597  1.00  0.00    -0.744 OA
ENDBRANCH  65  69
ENDBRANCH  48  62
BRANCH  49  73
ATOM     73  C   UNL A   1      38.624  30.350  30.906  1.00  0.00     0.023 A 
ATOM     74  C   UNL A   1      37.564  30.915  30.173  1.00  0.00     0.031 A 
ATOM     75  C   UNL A   1      38.513  30.309  32.305  1.00  0.00     0.131 A 
ATOM     76  C   UNL A   1      36.486  31.502  30.846  1.00  0.00     0.055 A 
ATOM     77  C   UNL A   1      37.397  30.822  32.968  1.00  0.00     0.041 A 
ATOM     78  F   UNL A   1      39.503  29.790  33.047  1.00  0.00    -0.206 F 
ATOM     79  C   UNL A   1      36.388  31.445  32.239  1.00  0.00     0.022 A 
BRANCH  76  80
ATOM     80  S   UNL A   1      35.270  32.505  29.947  1.00  0.00     0.124 S 
ATOM     81  O   UNL A   1      34.280  32.781  30.981  1.00  0.00    -0.237 OA
ATOM     82  O   UNL A   1      36.079  33.648  29.526  1.00  0.00    -0.237 OA
ATOM     83  O   UNL A   1      34.833  31.628  28.865  1.00  0.00    -0.744 OA
ENDBRANCH  76  80
ENDBRANCH  49  73
BRANCH  61  84
ATOM     84  C   UNL A   1      44.717  33.529  29.421  1.00  0.00     0.023 A 
ATOM     85  C   UNL A   1      44.670  34.566  28.472  1.00  0.00     0.031 A 
ATOM     86  C   UNL A   1      45.429  33.746  30.613  1.00  0.00     0.131 A 
ATOM     87  C   UNL A   1      45.356  35.763  28.716  1.00  0.00     0.055 A 
ATOM     88  C   UNL A   1      46.076  34.955  30.870  1.00  0.00     0.041 A 
ATOM     89  F   UNL A   1      45.506  32.782  31.545  1.00  0.00    -0.206 F 
ATOM     90  C   UNL A   1      46.053  35.965  29.912  1.00  0.00     0.022 A 
BRANCH  87  91
ATOM     91  S   UNL A   1      45.439  37.068  27.458  1.00  0.00     0.124 S 
ATOM     92  O   UNL A   1      46.038  36.359  26.329  1.00  0.00    -0.237 OA
ATOM     93  O   UNL A   1      44.034  37.428  27.294  1.00  0.00    -0.237 OA
ATOM     94  O   UNL A   1      46.282  38.091  28.067  1.00  0.00    -0.744 OA
ENDBRANCH  87  91
ENDBRANCH  61  84
ENDBRANCH  35  36
ENDBRANCH  27  30
ENDBRANCH   1  26
TORSDOF 14
ENDMDL
MODEL 2
REMARK VINA RESULT:     -13.4      0.365      7.431
REMARK SMILES Cc1cc2c(=O)c3ccccc3oc2c(C(=O)NCCCCNC(=O)c2ccc(-c3c4nc(c(-c5cc(S(=O)(=O)[O-])ccc5F)c5ccc([nH]5)c(-c5cc(S(=O)(=O)[O-])ccc5F)c5nc(c(-c6cc(S(=O)(=O)[O-])ccc6F)c6ccc3[nH]6)C=C5)C=C4)cc2)c1C
REMARK SMILES IDX 22 1 21 2 20 3 19 4 18 5 16 6 17 7 15 9 1 10 2 11 3 12 89 13
REMARK SMILES IDX 4 14 90 15 5 16 14 17 6 18 7 19 13 20 8 21 12 22 9 23 11 24
REMARK SMILES IDX 10 25 23 26 24 27 25 29 26 30 27 31 88 32 28 33 87 34 29 35
REMARK SMILES IDX 30 36 31 37 81 38 32 39 86 40 80 41 82 42 33 43 85 44 79 45
REMARK SMILES IDX 78 46 34 48 66 49 46 50 65 51 47 52 50 53 64 54 83 55 48 56
REMARK SMILES IDX 49 57 63 59 84 60 51 61 35 62 36 63 44 64 37 65 43 66 45 67
REMARK SMILES IDX 42 68 38 69 39 70 40 71 41 72 67 73 68 74 76 75 69 76 75 77
REMARK SMILES IDX 77 78 74 79 70 80 71 81 72 82 73 83 52 84 53 85 61 86 54 87
REMARK SMILES IDX 60 88 62 89 59 90 55 91 56 92 57 93 58 94
REMARK H PARENT 18 8 23 28 82 47 50 58
REMARK Flexibility Score: inf
ROOT
ATOM      1  C   UNL A   1      37.276  22.028  24.953  1.00  0.00     0.116 C 
ENDROOT
BRANCH   1   2
ATOM      2  C   UNL A   1      35.847  21.743  25.377  1.00  0.00     0.023 C 
BRANCH   2   3
ATOM      3  C   UNL A   1      35.281  22.737  26.384  1.00  0.00     0.023 C 
BRANCH   3   4
ATOM      4  C   UNL A   1      34.475  22.143  27.553  1.00  0.00     0.116 C 
BRANCH   4   5
ATOM      5  N   UNL A   1      33.140  22.711  27.560  1.00  0.00    -0.352 N 
ATOM      6  C   UNL A   1      32.231  23.176  26.648  1.00  0.00     0.255 C 
ATOM      7  O   UNL A   1      31.332  23.850  27.168  1.00  0.00    -0.269 OA
ATOM      8  H   UNL A   1      32.789  22.780  28.478  1.00  0.00     0.163 HD
BRANCH   6   9
ATOM      9  C   UNL A   1      32.172  22.965  25.149  1.00  0.00     0.086 A 
ATOM     10  C   UNL A   1      32.145  20.420  22.221  1.00  0.00     0.044 C 
ATOM     11  C   UNL A   1      32.243  21.697  23.023  1.00  0.00    -0.046 A 
ATOM     12  C   UNL A   1      32.541  22.866  22.327  1.00  0.00     0.019 A 
ATOM     13  C   UNL A   1      32.122  21.724  24.445  1.00  0.00    -0.032 A 
ATOM     14  C   UNL A   1      32.637  24.074  23.004  1.00  0.00     0.066 A 
ATOM     15  C   UNL A   1      32.008  20.395  25.124  1.00  0.00     0.045 C 
ATOM     16  C   UNL A   1      33.058  25.273  22.263  1.00  0.00     0.200 A 
ATOM     17  C   UNL A   1      32.402  24.148  24.380  1.00  0.00     0.151 A 
ATOM     18  O   UNL A   1      33.295  25.239  21.062  1.00  0.00    -0.288 OA
ATOM     19  C   UNL A   1      33.216  26.505  23.034  1.00  0.00     0.065 A 
ATOM     20  O   UNL A   1      32.377  25.375  25.022  1.00  0.00    -0.455 OA
ATOM     21  C   UNL A   1      33.716  27.668  22.439  1.00  0.00     0.016 A 
ATOM     22  C   UNL A   1      32.856  26.486  24.376  1.00  0.00     0.138 A 
ATOM     23  C   UNL A   1      33.842  28.829  23.200  1.00  0.00     0.001 A 
ATOM     24  C   UNL A   1      32.977  27.652  25.132  1.00  0.00     0.048 A 
ATOM     25  C   UNL A   1      33.469  28.822  24.544  1.00  0.00     0.004 A 
ENDBRANCH   6   9
ENDBRANCH   4   5
ENDBRANCH   3   4
ENDBRANCH   2   3
ENDBRANCH   1   2
BRANCH   1  26
ATOM     26  N   UNL A   1      38.218  20.951  25.242  1.00  0.00    -0.352 N 
ATOM     27  C   UNL A   1      39.334  21.010  26.057  1.00  0.00     0.251 C 
ATOM     28  H   UNL A   1      38.038  20.086  24.808  1.00  0.00     0.163 HD
ATOM     29  O   UNL A   1      40.074  20.050  26.183  1.00  0.00    -0.269 OA
BRANCH  27  30
ATOM     30  C   UNL A   1      39.632  22.305  26.707  1.00  0.00     0.039 A 
ATOM     31  C   UNL A   1      38.970  23.454  26.276  1.00  0.00     0.014 A 
ATOM     32  C   UNL A   1      40.705  22.388  27.596  1.00  0.00     0.014 A 
ATOM     33  C   UNL A   1      39.530  24.692  26.549  1.00  0.00     0.010 A 
ATOM     34  C   UNL A   1      41.195  23.645  27.960  1.00  0.00     0.010 A 
ATOM     35  C   UNL A   1      40.660  24.804  27.379  1.00  0.00    -0.014 A 
BRANCH  35  36
ATOM     36  C   UNL A   1      41.264  26.148  27.593  1.00  0.00     0.031 A 
ATOM     37  C   UNL A   1      40.575  27.190  28.434  1.00  0.00     0.074 A 
ATOM     38  C   UNL A   1      42.492  26.389  27.094  1.00  0.00     0.049 A 
ATOM     39  N   UNL A   1      40.999  28.381  28.773  1.00  0.00    -0.248 NA
ATOM     40  C   UNL A   1      39.239  26.864  28.959  1.00  0.00     0.031 C 
ATOM     41  C   UNL A   1      43.253  25.446  26.272  1.00  0.00     0.029 A 
ATOM     42  N   UNL A   1      43.332  27.464  27.232  1.00  0.00    -0.354 N 
ATOM     43  C   UNL A   1      39.978  28.955  29.524  1.00  0.00     0.074 A 
ATOM     44  C   UNL A   1      38.901  27.992  29.570  1.00  0.00     0.031 C 
ATOM     45  C   UNL A   1      44.474  25.946  26.051  1.00  0.00     0.029 A 
ATOM     46  C   UNL A   1      44.558  27.281  26.637  1.00  0.00     0.049 A 
ATOM     47  H   UNL A   1      43.081  28.286  27.711  1.00  0.00     0.167 HD
ATOM     48  C   UNL A   1      39.951  30.166  30.130  1.00  0.00     0.034 A 
ATOM     49  C   UNL A   1      45.632  28.092  26.562  1.00  0.00     0.034 A 
ATOM     50  C   UNL A   1      41.048  31.102  30.105  1.00  0.00     0.049 A 
ATOM     51  C   UNL A   1      45.572  29.436  27.235  1.00  0.00     0.074 A 
ATOM     52  C   UNL A   1      41.127  32.340  30.716  1.00  0.00     0.029 A 
ATOM     53  N   UNL A   1      42.253  30.905  29.447  1.00  0.00    -0.354 N 
ATOM     54  N   UNL A   1      44.608  29.948  27.963  1.00  0.00    -0.248 NA
ATOM     55  C   UNL A   1      46.735  30.317  27.071  1.00  0.00     0.031 C 
ATOM     56  C   UNL A   1      42.357  32.913  30.387  1.00  0.00     0.029 A 
ATOM     57  C   UNL A   1      43.072  32.009  29.618  1.00  0.00     0.049 A 
ATOM     58  H   UNL A   1      42.492  30.099  28.935  1.00  0.00     0.167 HD
ATOM     59  C   UNL A   1      45.047  31.212  28.345  1.00  0.00     0.074 A 
ATOM     60  C   UNL A   1      46.381  31.369  27.800  1.00  0.00     0.031 C 
ATOM     61  C   UNL A   1      44.399  32.158  29.069  1.00  0.00     0.034 A 
BRANCH  48  62
ATOM     62  C   UNL A   1      38.709  30.571  30.887  1.00  0.00     0.023 A 
ATOM     63  C   UNL A   1      37.653  31.215  30.215  1.00  0.00     0.031 A 
ATOM     64  C   UNL A   1      38.626  30.439  32.285  1.00  0.00     0.131 A 
ATOM     65  C   UNL A   1      36.572  31.727  30.945  1.00  0.00     0.055 A 
ATOM     66  C   UNL A   1      37.531  30.922  33.003  1.00  0.00     0.041 A 
ATOM     67  F   UNL A   1      39.609  29.832  32.972  1.00  0.00    -0.206 F 
ATOM     68  C   UNL A   1      36.503  31.579  32.334  1.00  0.00     0.022 A 
BRANCH  65  69
ATOM     69  S   UNL A   1      35.243  32.655  30.130  1.00  0.00     0.124 S 
ATOM     70  O   UNL A   1      34.296  32.843  31.227  1.00  0.00    -0.237 OA
ATOM     71  O   UNL A   1      35.937  33.863  29.692  1.00  0.00    -0.237 OA
ATOM     72  O   UNL A   1      34.793  31.764  29.066  1.00  0.00    -0.744 OA
ENDBRANCH  65  69
ENDBRANCH  48  62
BRANCH  49  73
ATOM     73  C   UNL A   1      46.852  27.610  25.851  1.00  0.00     0.023 A 
ATOM     74  C   UNL A   1      47.123  28.015  24.531  1.00  0.00     0.031 A 
ATOM     75  C   UNL A   1      47.679  26.632  26.426  1.00  0.00     0.131 A 
ATOM     76  C   UNL A   1      48.133  27.378  23.800  1.00  0.00     0.055 A 
ATOM     77  C   UNL A   1      48.737  26.058  25.720  1.00  0.00     0.041 A 
ATOM     78  F   UNL A   1      47.452  26.205  27.678  1.00  0.00    -0.206 F 
ATOM     79  C   UNL A   1      48.952  26.413  24.391  1.00  0.00     0.022 A 
BRANCH  76  80
ATOM     80  S   UNL A   1      48.298  27.658  22.014  1.00  0.00     0.124 S 
ATOM     81  O   UNL A   1      49.448  28.553  21.952  1.00  0.00    -0.237 OA
ATOM     82  O   UNL A   1      48.525  26.302  21.519  1.00  0.00    -0.237 OA
ATOM     83  O   UNL A   1      47.016  28.245  21.638  1.00  0.00    -0.744 OA
ENDBRANCH  76  80
ENDBRANCH  49  73
BRANCH  61  84
ATOM     84  C   UNL A   1      45.094  33.475  29.307  1.00  0.00     0.023 A 
ATOM     85  C   UNL A   1      45.089  34.470  28.312  1.00  0.00     0.031 A 
ATOM     86  C   UNL A   1      45.874  33.685  30.457  1.00  0.00     0.131 A 
ATOM     87  C   UNL A   1      45.879  35.616  28.471  1.00  0.00     0.055 A 
ATOM     88  C   UNL A   1      46.627  34.847  30.630  1.00  0.00     0.041 A 
ATOM     89  F   UNL A   1      45.915  32.760  31.430  1.00  0.00    -0.206 F 
ATOM     90  C   UNL A   1      46.642  35.812  29.627  1.00  0.00     0.022 A 
BRANCH  87  91
ATOM     91  S   UNL A   1      46.011  36.852  27.150  1.00  0.00     0.124 S 
ATOM     92  O   UNL A   1      46.284  36.017  25.982  1.00  0.00    -0.237 OA
ATOM     93  O   UNL A   1      44.690  37.475  27.177  1.00  0.00    -0.237 OA
ATOM     94  O   UNL A   1      47.115  37.706  27.575  1.00  0.00    -0.744 OA
ENDBRANCH  87  91
ENDBRANCH  61  84
ENDBRANCH  35  36
ENDBRANCH  27  30
ENDBRANCH   1  26
TORSDOF 14
ENDMDL
MODEL 3
REMARK VINA RESULT:     -13.4      5.652     10.713
REMARK SMILES Cc1cc2c(=O)c3ccccc3oc2c(C(=O)NCCCCNC(=O)c2ccc(-c3c4nc(c(-c5cc(S(=O)(=O)[O-])ccc5F)c5ccc([nH]5)c(-c5cc(S(=O)(=O)[O-])ccc5F)c5nc(c(-c6cc(S(=O)(=O)[O-])ccc6F)c6ccc3[nH]6)C=C5)C=C4)cc2)c1C
REMARK SMILES IDX 22 1 21 2 20 3 19 4 18 5 16 6 17 7 15 9 1 10 2 11 3 12 89 13
REMARK SMILES IDX 4 14 90 15 5 16 14 17 6 18 7 19 13 20 8 21 12 22 9 23 11 24
REMARK SMILES IDX 10 25 23 26 24 27 25 29 26 30 27 31 88 32 28 33 87 34 29 35
REMARK SMILES IDX 30 36 31 37 81 38 32 39 86 40 80 41 82 42 33 43 85 44 79 45
REMARK SMILES IDX 78 46 34 48 66 49 46 50 65 51 47 52 50 53 64 54 83 55 48 56
REMARK SMILES IDX 49 57 63 59 84 60 51 61 35 62 36 63 44 64 37 65 43 66 45 67
REMARK SMILES IDX 42 68 38 69 39 70 40 71 41 72 67 73 68 74 76 75 69 76 75 77
REMARK SMILES IDX 77 78 74 79 70 80 71 81 72 82 73 83 52 84 53 85 61 86 54 87
REMARK SMILES IDX 60 88 62 89 59 90 55 91 56 92 57 93 58 94
REMARK H PARENT 18 8 23 28 82 47 50 58
REMARK Flexibility Score: inf
ROOT
ATOM      1  C   UNL A   1      33.553  31.773  27.654  1.00  0.00     0.116 C 
ENDROOT
BRANCH   1   2
ATOM      2  C   UNL A   1      32.755  30.687  26.956  1.00  0.00     0.023 C 
BRANCH   2   3
ATOM      3  C   UNL A   1      33.158  29.268  27.337  1.00  0.00     0.023 C 
BRANCH   3   4
ATOM      4  C   UNL A   1      34.316  28.647  26.535  1.00  0.00     0.116 C 
BRANCH   4   5
ATOM      5  N   UNL A   1      34.168  28.978  25.131  1.00  0.00    -0.352 N 
ATOM      6  C   UNL A   1      33.472  28.513  24.047  1.00  0.00     0.255 C 
ATOM      7  O   UNL A   1      33.909  28.946  22.973  1.00  0.00    -0.269 OA
ATOM      8  H   UNL A   1      34.722  29.756  24.889  1.00  0.00     0.163 HD
BRANCH   6   9
ATOM      9  C   UNL A   1      32.270  27.592  23.994  1.00  0.00     0.086 A 
ATOM     10  C   UNL A   1      28.416  27.287  23.672  1.00  0.00     0.044 C 
ATOM     11  C   UNL A   1      29.872  26.977  23.933  1.00  0.00    -0.046 A 
ATOM     12  C   UNL A   1      30.178  25.706  24.412  1.00  0.00     0.019 A 
ATOM     13  C   UNL A   1      30.904  27.952  23.784  1.00  0.00    -0.032 A 
ATOM     14  C   UNL A   1      31.497  25.356  24.663  1.00  0.00     0.066 A 
ATOM     15  C   UNL A   1      30.458  29.344  23.465  1.00  0.00     0.045 C 
ATOM     16  C   UNL A   1      31.781  24.045  25.269  1.00  0.00     0.200 A 
ATOM     17  C   UNL A   1      32.539  26.251  24.409  1.00  0.00     0.151 A 
ATOM     18  O   UNL A   1      30.890  23.246  25.527  1.00  0.00    -0.288 OA
ATOM     19  C   UNL A   1      33.179  23.752  25.584  1.00  0.00     0.065 A 
ATOM     20  O   UNL A   1      33.858  25.849  24.545  1.00  0.00    -0.455 OA
ATOM     21  C   UNL A   1      33.535  22.580  26.259  1.00  0.00     0.016 A 
ATOM     22  C   UNL A   1      34.143  24.673  25.193  1.00  0.00     0.138 A 
ATOM     23  C   UNL A   1      34.877  22.325  26.532  1.00  0.00     0.001 A 
ATOM     24  C   UNL A   1      35.486  24.411  25.461  1.00  0.00     0.048 A 
ATOM     25  C   UNL A   1      35.853  23.238  26.129  1.00  0.00     0.004 A 
ENDBRANCH   6   9
ENDBRANCH   4   5
ENDBRANCH   3   4
ENDBRANCH   2   3
ENDBRANCH   1   2
BRANCH   1  26
ATOM     26  N   UNL A   1      32.908  33.082  27.669  1.00  0.00    -0.352 N 
ATOM     27  C   UNL A   1      33.243  34.173  28.452  1.00  0.00     0.251 C 
ATOM     28  H   UNL A   1      32.151  33.203  27.052  1.00  0.00     0.163 HD
ATOM     29  O   UNL A   1      32.595  35.204  28.406  1.00  0.00    -0.269 OA
BRANCH  27  30
ATOM     30  C   UNL A   1      34.369  34.010  29.397  1.00  0.00     0.039 A 
ATOM     31  C   UNL A   1      35.648  34.405  29.010  1.00  0.00     0.014 A 
ATOM     32  C   UNL A   1      34.168  33.287  30.574  1.00  0.00     0.014 A 
ATOM     33  C   UNL A   1      36.743  33.875  29.675  1.00  0.00     0.010 A 
ATOM     34  C   UNL A   1      35.276  32.851  31.306  1.00  0.00     0.010 A 
ATOM     35  C   UNL A   1      36.573  33.076  30.820  1.00  0.00    -0.014 A 
BRANCH  35  36
ATOM     36  C   UNL A   1      37.774  32.478  31.464  1.00  0.00     0.031 A 
ATOM     37  C   UNL A   1      38.214  32.897  32.842  1.00  0.00     0.074 A 
ATOM     38  C   UNL A   1      38.416  31.479  30.826  1.00  0.00     0.049 A 
ATOM     39  N   UNL A   1      39.194  32.425  33.568  1.00  0.00    -0.248 NA
ATOM     40  C   UNL A   1      37.467  33.987  33.490  1.00  0.00     0.031 C 
ATOM     41  C   UNL A   1      38.069  30.989  29.492  1.00  0.00     0.029 A 
ATOM     42  N   UNL A   1      39.454  30.673  31.219  1.00  0.00    -0.354 N 
ATOM     43  C   UNL A   1      39.201  33.173  34.741  1.00  0.00     0.074 A 
ATOM     44  C   UNL A   1      38.142  34.150  34.620  1.00  0.00     0.031 C 
ATOM     45  C   UNL A   1      38.819  29.916  29.211  1.00  0.00     0.029 A 
ATOM     46  C   UNL A   1      39.761  29.692  30.304  1.00  0.00     0.049 A 
ATOM     47  H   UNL A   1      39.931  30.784  32.072  1.00  0.00     0.167 HD
ATOM     48  C   UNL A   1      40.007  33.045  35.823  1.00  0.00     0.034 A 
ATOM     49  C   UNL A   1      40.698  28.724  30.332  1.00  0.00     0.034 A 
ATOM     50  C   UNL A   1      41.035  32.042  35.944  1.00  0.00     0.049 A 
ATOM     51  C   UNL A   1      41.586  28.609  31.539  1.00  0.00     0.074 A 
ATOM     52  C   UNL A   1      41.881  31.812  37.014  1.00  0.00     0.029 A 
ATOM     53  N   UNL A   1      41.354  31.102  34.975  1.00  0.00    -0.354 N 
ATOM     54  N   UNL A   1      41.557  29.309  32.650  1.00  0.00    -0.248 NA
ATOM     55  C   UNL A   1      42.639  27.586  31.501  1.00  0.00     0.031 C 
ATOM     56  C   UNL A   1      42.744  30.768  36.674  1.00  0.00     0.029 A 
ATOM     57  C   UNL A   1      42.400  30.306  35.414  1.00  0.00     0.049 A 
ATOM     58  H   UNL A   1      40.904  31.012  34.105  1.00  0.00     0.167 HD
ATOM     59  C   UNL A   1      42.587  28.811  33.442  1.00  0.00     0.074 A 
ATOM     60  C   UNL A   1      43.193  27.725  32.699  1.00  0.00     0.031 C 
ATOM     61  C   UNL A   1      42.999  29.227  34.666  1.00  0.00     0.034 A 
BRANCH  48  62
ATOM     62  C   UNL A   1      39.822  33.995  36.982  1.00  0.00     0.023 A 
ATOM     63  C   UNL A   1      39.216  33.546  38.171  1.00  0.00     0.031 A 
ATOM     64  C   UNL A   1      40.125  35.362  36.865  1.00  0.00     0.131 A 
ATOM     65  C   UNL A   1      38.907  34.462  39.184  1.00  0.00     0.055 A 
ATOM     66  C   UNL A   1      39.845  36.266  37.892  1.00  0.00     0.041 A 
ATOM     67  F   UNL A   1      40.705  35.840  35.750  1.00  0.00    -0.206 F 
ATOM     68  C   UNL A   1      39.223  35.819  39.052  1.00  0.00     0.022 A 
BRANCH  65  69
ATOM     69  S   UNL A   1      38.031  33.944  40.686  1.00  0.00     0.124 S 
ATOM     70  O   UNL A   1      37.685  35.230  41.288  1.00  0.00    -0.237 OA
ATOM     71  O   UNL A   1      36.906  33.189  40.139  1.00  0.00    -0.237 OA
ATOM     72  O   UNL A   1      39.021  33.161  41.418  1.00  0.00    -0.744 OA
ENDBRANCH  65  69
ENDBRANCH  48  62
BRANCH  49  73
ATOM     73  C   UNL A   1      40.790  27.778  29.181  1.00  0.00     0.023 A 
ATOM     74  C   UNL A   1      41.739  27.974  28.162  1.00  0.00     0.031 A 
ATOM     75  C   UNL A   1      39.843  26.755  29.015  1.00  0.00     0.131 A 
ATOM     76  C   UNL A   1      41.661  27.224  26.982  1.00  0.00     0.055 A 
ATOM     77  C   UNL A   1      39.819  25.955  27.872  1.00  0.00     0.041 A 
ATOM     78  F   UNL A   1      38.910  26.537  29.955  1.00  0.00    -0.206 F 
ATOM     79  C   UNL A   1      40.717  26.205  26.837  1.00  0.00     0.022 A 
BRANCH  76  80
ATOM     80  S   UNL A   1      42.667  27.666  25.537  1.00  0.00     0.124 S 
ATOM     81  O   UNL A   1      42.556  26.468  24.713  1.00  0.00    -0.237 OA
ATOM     82  O   UNL A   1      41.966  28.846  25.035  1.00  0.00    -0.237 OA
ATOM     83  O   UNL A   1      43.986  27.928  26.103  1.00  0.00    -0.744 OA
ENDBRANCH  76  80
ENDBRANCH  49  73
BRANCH  61  84
ATOM     84  C   UNL A   1      44.182  28.533  35.293  1.00  0.00     0.023 A 
ATOM     85  C   UNL A   1      43.985  27.521  36.251  1.00  0.00     0.031 A 
ATOM     86  C   UNL A   1      45.495  28.970  35.044  1.00  0.00     0.131 A 
ATOM     87  C   UNL A   1      45.083  27.005  36.953  1.00  0.00     0.055 A 
ATOM     88  C   UNL A   1      46.589  28.424  35.716  1.00  0.00     0.041 A 
ATOM     89  F   UNL A   1      45.730  29.938  34.144  1.00  0.00    -0.206 F 
ATOM     90  C   UNL A   1      46.383  27.447  36.685  1.00  0.00     0.022 A 
BRANCH  87  91
ATOM     91  S   UNL A   1      44.856  25.805  38.294  1.00  0.00     0.124 S 
ATOM     92  O   UNL A   1      44.089  24.753  37.629  1.00  0.00    -0.237 OA
ATOM     93  O   UNL A   1      46.234  25.454  38.630  1.00  0.00    -0.237 OA
ATOM     94  O   UNL A   1      44.131  26.551  39.317  1.00  0.00    -0.744 OA
ENDBRANCH  87  91
ENDBRANCH  61  84
ENDBRANCH  35  36
ENDBRANCH  27  30
ENDBRANCH   1  26
TORSDOF 14
ENDMDL
