MODEL 1
REMARK VINA RESULT:     -11.8      0.000      0.000
REMARK SMILES CCC[C@@]1(C(=O)NCCCCNC(=O)c2ccc(-c3c4nc(c(-c5cc(S(=O)(=O)[O-])ccc5F)c5ccc([nH]5)c(-c5cc(S(=O)(=O)[O-])ccc5F)c5nc(c(-c6cc(S(=O)(=O)[O-])ccc6F)c6ccc3[nH]6)C=C5)C=C4)cc2)CCCN(C(=O)C[C@H]2CCCCO2)C1
REMARK SMILES IDX 9 1 8 2 7 3 5 4 6 5 4 7 78 8 91 9 79 10 81 11 80 12 3 13
REMARK SMILES IDX 2 14 1 15 82 16 83 17 84 18 85 19 86 20 90 21 87 22 89 23
REMARK SMILES IDX 88 24 10 25 11 26 12 27 13 28 14 30 15 31 16 32 77 33 17 34
REMARK SMILES IDX 76 35 18 36 19 37 20 38 70 39 21 40 75 41 69 42 71 43 22 44
REMARK SMILES IDX 74 45 68 46 67 47 23 49 55 50 35 51 54 52 36 53 39 54 53 55
REMARK SMILES IDX 72 56 37 57 38 58 52 60 73 61 40 62 24 63 25 64 33 65 26 66
REMARK SMILES IDX 32 67 34 68 31 69 27 70 28 71 29 72 30 73 56 74 57 75 65 76
REMARK SMILES IDX 58 77 64 78 66 79 63 80 59 81 60 82 61 83 62 84 41 85 42 86
REMARK SMILES IDX 50 87 43 88 49 89 51 90 48 91 44 92 45 93 46 94 47 95
REMARK H PARENT 7 6 12 29 71 48 39 59
REMARK Flexibility Score: inf
ROOT
ATOM      1  C   UNL A   1      36.677  20.963  25.346  1.00  0.00     0.023 C 
ENDROOT
BRANCH   1   2
ATOM      2  C   UNL A   1      36.270  22.396  25.658  1.00  0.00     0.116 C 
BRANCH   2   3
ATOM      3  N   UNL A   1      35.451  22.579  26.840  1.00  0.00    -0.356 N 
ATOM      4  C   UNL A   1      34.146  22.963  26.969  1.00  0.00     0.228 C 
ATOM      5  O   UNL A   1      33.618  22.651  28.047  1.00  0.00    -0.274 OA
ATOM      6  H   UNL A   1      35.912  22.396  27.690  1.00  0.00     0.163 HD
BRANCH   4   7
ATOM      7  C   UNL A   1      33.383  23.910  25.987  1.00  0.00     0.067 C 
ATOM      8  C   UNL A   1      32.031  24.354  26.650  1.00  0.00     0.020 C 
ATOM      9  C   UNL A   1      32.948  23.329  24.614  1.00  0.00     0.136 C 
ATOM     10  C   UNL A   1      30.980  23.233  26.718  1.00  0.00     0.023 C 
ATOM     11  N   UNL A   1      32.030  22.203  24.768  1.00  0.00    -0.342 N 
ATOM     12  C   UNL A   1      30.759  22.560  25.372  1.00  0.00     0.119 C 
BRANCH   7  13
ATOM     13  C   UNL A   1      34.349  25.121  25.733  1.00  0.00     0.018 C 
BRANCH  13  14
ATOM     14  C   UNL A   1      33.755  26.535  25.614  1.00  0.00    -0.002 C 
ATOM     15  C   UNL A   1      33.626  27.086  24.203  1.00  0.00     0.004 C 
ENDBRANCH  13  14
ENDBRANCH   7  13
BRANCH  11  16
ATOM     16  C   UNL A   1      32.397  20.948  24.325  1.00  0.00     0.225 C 
ATOM     17  O   UNL A   1      32.182  20.602  23.157  1.00  0.00    -0.275 OA
BRANCH  16  18
ATOM     18  C   UNL A   1      33.039  19.946  25.273  1.00  0.00     0.132 C 
BRANCH  18  19
ATOM     19  C   UNL A   1      32.978  18.466  24.878  1.00  0.00     0.127 C 
ATOM     20  C   UNL A   1      34.310  18.001  24.272  1.00  0.00     0.033 C 
ATOM     21  O   UNL A   1      32.684  17.634  26.002  1.00  0.00    -0.378 OA
ATOM     22  C   UNL A   1      34.223  16.535  23.855  1.00  0.00     0.005 C 
ATOM     23  C   UNL A   1      32.461  16.273  25.620  1.00  0.00     0.160 C 
ATOM     24  C   UNL A   1      33.713  15.671  25.004  1.00  0.00     0.029 C 
ENDBRANCH  18  19
ENDBRANCH  16  18
ENDBRANCH  11  16
ENDBRANCH   4   7
ENDBRANCH   2   3
ENDBRANCH   1   2
BRANCH   1  25
ATOM     25  C   UNL A   1      38.128  20.740  24.940  1.00  0.00     0.023 C 
BRANCH  25  26
ATOM     26  C   UNL A   1      39.155  20.698  26.069  1.00  0.00     0.116 C 
BRANCH  26  27
ATOM     27  N   UNL A   1      40.093  19.586  25.994  1.00  0.00    -0.352 N 
ATOM     28  C   UNL A   1      41.466  19.598  26.106  1.00  0.00     0.251 C 
ATOM     29  H   UNL A   1      39.689  18.701  25.843  1.00  0.00     0.163 HD
ATOM     30  O   UNL A   1      42.108  18.562  25.946  1.00  0.00    -0.269 OA
BRANCH  28  31
ATOM     31  C   UNL A   1      42.174  20.871  26.375  1.00  0.00     0.039 A 
ATOM     32  C   UNL A   1      42.481  21.717  25.307  1.00  0.00     0.014 A 
ATOM     33  C   UNL A   1      42.502  21.245  27.681  1.00  0.00     0.014 A 
ATOM     34  C   UNL A   1      43.033  22.977  25.556  1.00  0.00     0.010 A 
ATOM     35  C   UNL A   1      42.974  22.531  27.933  1.00  0.00     0.010 A 
ATOM     36  C   UNL A   1      43.242  23.413  26.875  1.00  0.00    -0.014 A 
BRANCH  36  37
ATOM     37  C   UNL A   1      43.744  24.782  27.169  1.00  0.00     0.031 A 
ATOM     38  C   UNL A   1      42.810  25.820  27.732  1.00  0.00     0.074 A 
ATOM     39  C   UNL A   1      45.015  25.114  26.862  1.00  0.00     0.049 A 
ATOM     40  N   UNL A   1      43.025  27.089  27.972  1.00  0.00    -0.248 NA
ATOM     41  C   UNL A   1      41.439  25.376  28.030  1.00  0.00     0.031 C 
ATOM     42  C   UNL A   1      46.004  24.214  26.265  1.00  0.00     0.029 A 
ATOM     43  N   UNL A   1      45.692  26.301  26.999  1.00  0.00    -0.354 N 
ATOM     44  C   UNL A   1      41.813  27.599  28.428  1.00  0.00     0.074 A 
ATOM     45  C   UNL A   1      40.854  26.515  28.368  1.00  0.00     0.031 C 
ATOM     46  C   UNL A   1      47.163  24.873  26.110  1.00  0.00     0.029 A 
ATOM     47  C   UNL A   1      46.994  26.252  26.557  1.00  0.00     0.049 A 
ATOM     48  H   UNL A   1      45.282  27.113  27.378  1.00  0.00     0.167 HD
ATOM     49  C   UNL A   1      41.531  28.846  28.881  1.00  0.00     0.034 A 
ATOM     50  C   UNL A   1      47.941  27.210  26.511  1.00  0.00     0.034 A 
ATOM     51  C   UNL A   1      42.504  29.910  28.954  1.00  0.00     0.049 A 
ATOM     52  C   UNL A   1      47.608  28.589  27.024  1.00  0.00     0.074 A 
ATOM     53  C   UNL A   1      42.342  31.195  29.444  1.00  0.00     0.029 A 
ATOM     54  N   UNL A   1      43.822  29.814  28.523  1.00  0.00    -0.354 N 
ATOM     55  N   UNL A   1      46.471  29.042  27.499  1.00  0.00    -0.248 NA
ATOM     56  C   UNL A   1      48.691  29.580  27.008  1.00  0.00     0.031 C 
ATOM     57  C   UNL A   1      43.542  31.892  29.256  1.00  0.00     0.029 A 
ATOM     58  C   UNL A   1      44.476  31.022  28.715  1.00  0.00     0.049 A 
ATOM     59  H   UNL A   1      44.230  29.007  28.136  1.00  0.00     0.167 HD
ATOM     60  C   UNL A   1      46.715  30.361  27.870  1.00  0.00     0.074 A 
ATOM     61  C   UNL A   1      48.109  30.624  27.576  1.00  0.00     0.031 C 
ATOM     62  C   UNL A   1      45.866  31.271  28.412  1.00  0.00     0.034 A 
BRANCH  49  63
ATOM     63  C   UNL A   1      40.108  29.122  29.308  1.00  0.00     0.023 A 
ATOM     64  C   UNL A   1      39.736  29.137  30.664  1.00  0.00     0.031 A 
ATOM     65  C   UNL A   1      39.102  29.333  28.348  1.00  0.00     0.131 A 
ATOM     66  C   UNL A   1      38.384  29.268  31.018  1.00  0.00     0.055 A 
ATOM     67  C   UNL A   1      37.771  29.551  28.712  1.00  0.00     0.041 A 
ATOM     68  F   UNL A   1      39.392  29.311  27.037  1.00  0.00    -0.206 F 
ATOM     69  C   UNL A   1      37.403  29.502  30.053  1.00  0.00     0.022 A 
BRANCH  66  70
ATOM     70  S   UNL A   1      37.911  28.973  32.744  1.00  0.00     0.124 S 
ATOM     71  O   UNL A   1      39.053  29.534  33.462  1.00  0.00    -0.237 OA
ATOM     72  O   UNL A   1      36.658  29.710  32.859  1.00  0.00    -0.237 OA
ATOM     73  O   UNL A   1      37.789  27.519  32.822  1.00  0.00    -0.744 OA
ENDBRANCH  66  70
ENDBRANCH  49  63
BRANCH  50  74
ATOM     74  C   UNL A   1      49.296  26.911  25.965  1.00  0.00     0.023 A 
ATOM     75  C   UNL A   1      49.677  27.357  24.690  1.00  0.00     0.031 A 
ATOM     76  C   UNL A   1      50.216  26.135  26.693  1.00  0.00     0.131 A 
ATOM     77  C   UNL A   1      50.922  26.985  24.160  1.00  0.00     0.055 A 
ATOM     78  C   UNL A   1      51.473  25.809  26.183  1.00  0.00     0.041 A 
ATOM     79  F   UNL A   1      49.905  25.689  27.920  1.00  0.00    -0.206 F 
ATOM     80  C   UNL A   1      51.827  26.224  24.902  1.00  0.00     0.022 A 
BRANCH  77  81
ATOM     81  S   UNL A   1      51.308  27.442  22.447  1.00  0.00     0.124 S 
ATOM     82  O   UNL A   1      51.146  28.890  22.481  1.00  0.00    -0.237 OA
ATOM     83  O   UNL A   1      52.675  26.951  22.304  1.00  0.00    -0.237 OA
ATOM     84  O   UNL A   1      50.305  26.719  21.667  1.00  0.00    -0.744 OA
ENDBRANCH  77  81
ENDBRANCH  50  74
BRANCH  62  85
ATOM     85  C   UNL A   1      46.443  32.620  28.769  1.00  0.00     0.023 A 
ATOM     86  C   UNL A   1      46.490  33.676  27.842  1.00  0.00     0.031 A 
ATOM     87  C   UNL A   1      46.972  32.841  30.053  1.00  0.00     0.131 A 
ATOM     88  C   UNL A   1      47.105  34.887  28.195  1.00  0.00     0.055 A 
ATOM     89  C   UNL A   1      47.529  34.067  30.417  1.00  0.00     0.041 A 
ATOM     90  F   UNL A   1      46.954  31.866  30.976  1.00  0.00    -0.206 F 
ATOM     91  C   UNL A   1      47.611  35.094  29.481  1.00  0.00     0.022 A 
BRANCH  88  92
ATOM     92  S   UNL A   1      47.322  36.159  26.919  1.00  0.00     0.124 S 
ATOM     93  O   UNL A   1      46.107  36.005  26.126  1.00  0.00    -0.237 OA
ATOM     94  O   UNL A   1      47.416  37.381  27.712  1.00  0.00    -0.237 OA
ATOM     95  O   UNL A   1      48.557  35.762  26.245  1.00  0.00    -0.744 OA
ENDBRANCH  88  92
ENDBRANCH  62  85
ENDBRANCH  36  37
ENDBRANCH  28  31
ENDBRANCH  26  27
ENDBRANCH  25  26
ENDBRANCH   1  25
TORSDOF 19
ENDMDL
MODEL 2
REMARK VINA RESULT:     -11.1      1.811      2.055
REMARK SMILES CCC[C@@]1(C(=O)NCCCCNC(=O)c2ccc(-c3c4nc(c(-c5cc(S(=O)(=O)[O-])ccc5F)c5ccc([nH]5)c(-c5cc(S(=O)(=O)[O-])ccc5F)c5nc(c(-c6cc(S(=O)(=O)[O-])ccc6F)c6ccc3[nH]6)C=C5)C=C4)cc2)CCCN(C(=O)C[C@H]2CCCCO2)C1
REMARK SMILES IDX 9 1 8 2 7 3 5 4 6 5 4 7 78 8 91 9 79 10 81 11 80 12 3 13
REMARK SMILES IDX 2 14 1 15 82 16 83 17 84 18 85 19 86 20 90 21 87 22 89 23
REMARK SMILES IDX 88 24 10 25 11 26 12 27 13 28 14 30 15 31 16 32 77 33 17 34
REMARK SMILES IDX 76 35 18 36 19 37 20 38 70 39 21 40 75 41 69 42 71 43 22 44
REMARK SMILES IDX 74 45 68 46 67 47 23 49 55 50 35 51 54 52 36 53 39 54 53 55
REMARK SMILES IDX 72 56 37 57 38 58 52 60 73 61 40 62 24 63 25 64 33 65 26 66
REMARK SMILES IDX 32 67 34 68 31 69 27 70 28 71 29 72 30 73 56 74 57 75 65 76
REMARK SMILES IDX 58 77 64 78 66 79 63 80 59 81 60 82 61 83 62 84 41 85 42 86
REMARK SMILES IDX 50 87 43 88 49 89 51 90 48 91 44 92 45 93 46 94 47 95
REMARK H PARENT 7 6 12 29 71 48 39 59
REMARK Flexibility Score: inf
ROOT
ATOM      1  C   UNL A   1      36.933  20.531  25.118  1.00  0.00     0.023 C 
ENDROOT
BRANCH   1   2
ATOM      2  C   UNL A   1      35.759  21.500  25.107  1.00  0.00     0.116 C 
BRANCH   2   3
ATOM      3  N   UNL A   1      35.419  22.098  26.382  1.00  0.00    -0.356 N 
ATOM      4  C   UNL A   1      34.334  22.839  26.758  1.00  0.00     0.228 C 
ATOM      5  O   UNL A   1      34.127  22.871  27.981  1.00  0.00    -0.274 OA
ATOM      6  H   UNL A   1      36.079  21.944  27.096  1.00  0.00     0.163 HD
BRANCH   4   7
ATOM      7  C   UNL A   1      33.511  23.775  25.816  1.00  0.00     0.067 C 
ATOM      8  C   UNL A   1      32.251  24.302  26.590  1.00  0.00     0.020 C 
ATOM      9  C   UNL A   1      32.917  23.157  24.520  1.00  0.00     0.136 C 
ATOM     10  C   UNL A   1      31.171  23.230  26.813  1.00  0.00     0.023 C 
ATOM     11  N   UNL A   1      31.978  22.078  24.816  1.00  0.00    -0.342 N 
ATOM     12  C   UNL A   1      30.790  22.511  25.527  1.00  0.00     0.119 C 
BRANCH   7  13
ATOM     13  C   UNL A   1      34.490  24.933  25.412  1.00  0.00     0.018 C 
BRANCH  13  14
ATOM     14  C   UNL A   1      33.999  26.019  24.438  1.00  0.00    -0.002 C 
ATOM     15  C   UNL A   1      33.657  27.364  25.059  1.00  0.00     0.004 C 
ENDBRANCH  13  14
ENDBRANCH   7  13
BRANCH  11  16
ATOM     16  C   UNL A   1      32.251  20.791  24.395  1.00  0.00     0.225 C 
ATOM     17  O   UNL A   1      32.154  20.482  23.202  1.00  0.00    -0.275 OA
BRANCH  16  18
ATOM     18  C   UNL A   1      32.641  19.713  25.395  1.00  0.00     0.132 C 
BRANCH  18  19
ATOM     19  C   UNL A   1      32.786  18.282  24.865  1.00  0.00     0.127 C 
ATOM     20  C   UNL A   1      34.188  18.049  24.283  1.00  0.00     0.033 C 
ATOM     21  O   UNL A   1      32.562  17.315  25.893  1.00  0.00    -0.378 OA
ATOM     22  C   UNL A   1      34.307  16.630  23.731  1.00  0.00     0.005 C 
ATOM     23  C   UNL A   1      32.531  15.980  25.379  1.00  0.00     0.160 C 
ATOM     24  C   UNL A   1      33.872  15.602  24.771  1.00  0.00     0.029 C 
ENDBRANCH  18  19
ENDBRANCH  16  18
ENDBRANCH  11  16
ENDBRANCH   4   7
ENDBRANCH   2   3
ENDBRANCH   1   2
BRANCH   1  25
ATOM     25  C   UNL A   1      38.325  21.148  25.070  1.00  0.00     0.023 C 
BRANCH  25  26
ATOM     26  C   UNL A   1      39.227  20.894  26.275  1.00  0.00     0.116 C 
BRANCH  26  27
ATOM     27  N   UNL A   1      40.152  19.779  26.117  1.00  0.00    -0.352 N 
ATOM     28  C   UNL A   1      41.529  19.785  26.130  1.00  0.00     0.251 C 
ATOM     29  H   UNL A   1      39.733  18.899  25.983  1.00  0.00     0.163 HD
ATOM     30  O   UNL A   1      42.152  18.748  25.909  1.00  0.00    -0.269 OA
BRANCH  28  31
ATOM     31  C   UNL A   1      42.261  21.050  26.367  1.00  0.00     0.039 A 
ATOM     32  C   UNL A   1      42.533  21.890  25.284  1.00  0.00     0.014 A 
ATOM     33  C   UNL A   1      42.645  21.425  27.656  1.00  0.00     0.014 A 
ATOM     34  C   UNL A   1      43.109  23.145  25.506  1.00  0.00     0.010 A 
ATOM     35  C   UNL A   1      43.141  22.706  27.885  1.00  0.00     0.010 A 
ATOM     36  C   UNL A   1      43.375  23.583  26.814  1.00  0.00    -0.014 A 
BRANCH  36  37
ATOM     37  C   UNL A   1      43.903  24.947  27.083  1.00  0.00     0.031 A 
ATOM     38  C   UNL A   1      43.003  25.997  27.679  1.00  0.00     0.074 A 
ATOM     39  C   UNL A   1      45.164  25.264  26.725  1.00  0.00     0.049 A 
ATOM     40  N   UNL A   1      43.241  27.264  27.906  1.00  0.00    -0.248 NA
ATOM     41  C   UNL A   1      41.641  25.569  28.033  1.00  0.00     0.031 C 
ATOM     42  C   UNL A   1      46.119  24.352  26.091  1.00  0.00     0.029 A 
ATOM     43  N   UNL A   1      45.859  26.444  26.830  1.00  0.00    -0.354 N 
ATOM     44  C   UNL A   1      42.055  27.789  28.408  1.00  0.00     0.074 A 
ATOM     45  C   UNL A   1      41.083  26.715  28.390  1.00  0.00     0.031 C 
ATOM     46  C   UNL A   1      47.278  24.997  25.888  1.00  0.00     0.029 A 
ATOM     47  C   UNL A   1      47.142  26.379  26.337  1.00  0.00     0.049 A 
ATOM     48  H   UNL A   1      45.474  27.261  27.222  1.00  0.00     0.167 HD
ATOM     49  C   UNL A   1      41.805  29.040  28.867  1.00  0.00     0.034 A 
ATOM     50  C   UNL A   1      48.097  27.327  26.249  1.00  0.00     0.034 A 
ATOM     51  C   UNL A   1      42.791  30.094  28.898  1.00  0.00     0.049 A 
ATOM     52  C   UNL A   1      47.799  28.711  26.770  1.00  0.00     0.074 A 
ATOM     53  C   UNL A   1      42.663  31.382  29.389  1.00  0.00     0.029 A 
ATOM     54  N   UNL A   1      44.089  29.982  28.414  1.00  0.00    -0.354 N 
ATOM     55  N   UNL A   1      46.687  29.178  27.288  1.00  0.00    -0.248 NA
ATOM     56  C   UNL A   1      48.892  29.690  26.707  1.00  0.00     0.031 C 
ATOM     57  C   UNL A   1      43.861  32.065  29.151  1.00  0.00     0.029 A 
ATOM     58  C   UNL A   1      44.764  31.183  28.577  1.00  0.00     0.049 A 
ATOM     59  H   UNL A   1      44.473  29.169  28.015  1.00  0.00     0.167 HD
ATOM     60  C   UNL A   1      46.960  30.496  27.645  1.00  0.00     0.074 A 
ATOM     61  C   UNL A   1      48.343  30.743  27.295  1.00  0.00     0.031 C 
ATOM     62  C   UNL A   1      46.142  31.416  28.217  1.00  0.00     0.034 A 
BRANCH  49  63
ATOM     63  C   UNL A   1      40.403  29.333  29.350  1.00  0.00     0.023 A 
ATOM     64  C   UNL A   1      40.085  29.355  30.719  1.00  0.00     0.031 A 
ATOM     65  C   UNL A   1      39.362  29.553  28.430  1.00  0.00     0.131 A 
ATOM     66  C   UNL A   1      38.750  29.502  31.127  1.00  0.00     0.055 A 
ATOM     67  C   UNL A   1      38.049  29.787  28.846  1.00  0.00     0.041 A 
ATOM     68  F   UNL A   1      39.599  29.525  27.109  1.00  0.00    -0.206 F 
ATOM     69  C   UNL A   1      37.734  29.745  30.201  1.00  0.00     0.022 A 
BRANCH  66  70
ATOM     70  S   UNL A   1      38.342  29.216  32.871  1.00  0.00     0.124 S 
ATOM     71  O   UNL A   1      39.434  28.340  33.288  1.00  0.00    -0.237 OA
ATOM     72  O   UNL A   1      38.357  30.564  33.425  1.00  0.00    -0.237 OA
ATOM     73  O   UNL A   1      37.029  28.578  32.815  1.00  0.00    -0.744 OA
ENDBRANCH  66  70
ENDBRANCH  49  63
BRANCH  50  74
ATOM     74  C   UNL A   1      49.426  27.011  25.650  1.00  0.00     0.023 A 
ATOM     75  C   UNL A   1      50.525  26.688  26.461  1.00  0.00     0.031 A 
ATOM     76  C   UNL A   1      49.626  27.070  24.260  1.00  0.00     0.131 A 
ATOM     77  C   UNL A   1      51.787  26.484  25.882  1.00  0.00     0.055 A 
ATOM     78  C   UNL A   1      50.872  26.818  23.683  1.00  0.00     0.041 A 
ATOM     79  F   UNL A   1      48.607  27.367  23.439  1.00  0.00    -0.206 F 
ATOM     80  C   UNL A   1      51.965  26.535  24.497  1.00  0.00     0.022 A 
BRANCH  77  81
ATOM     81  S   UNL A   1      53.214  26.234  26.973  1.00  0.00     0.124 S 
ATOM     82  O   UNL A   1      52.579  26.173  28.284  1.00  0.00    -0.237 OA
ATOM     83  O   UNL A   1      53.765  24.981  26.468  1.00  0.00    -0.237 OA
ATOM     84  O   UNL A   1      54.038  27.416  26.733  1.00  0.00    -0.744 OA
ENDBRANCH  77  81
ENDBRANCH  50  74
BRANCH  62  85
ATOM     85  C   UNL A   1      46.749  32.760  28.546  1.00  0.00     0.023 A 
ATOM     86  C   UNL A   1      47.348  33.018  29.791  1.00  0.00     0.031 A 
ATOM     87  C   UNL A   1      46.707  33.801  27.602  1.00  0.00     0.131 A 
ATOM     88  C   UNL A   1      47.830  34.304  30.080  1.00  0.00     0.055 A 
ATOM     89  C   UNL A   1      47.241  35.061  27.873  1.00  0.00     0.041 A 
ATOM     90  F   UNL A   1      46.145  33.609  26.397  1.00  0.00    -0.206 F 
ATOM     91  C   UNL A   1      47.794  35.322  29.123  1.00  0.00     0.022 A 
BRANCH  88  92
ATOM     92  S   UNL A   1      48.420  34.658  31.759  1.00  0.00     0.124 S 
ATOM     93  O   UNL A   1      49.850  34.850  31.544  1.00  0.00    -0.237 OA
ATOM     94  O   UNL A   1      47.661  35.854  32.110  1.00  0.00    -0.237 OA
ATOM     95  O   UNL A   1      48.061  33.455  32.509  1.00  0.00    -0.744 OA
ENDBRANCH  88  92
ENDBRANCH  62  85
ENDBRANCH  36  37
ENDBRANCH  28  31
ENDBRANCH  26  27
ENDBRANCH  25  26
ENDBRANCH   1  25
TORSDOF 19
ENDMDL
MODEL 3
REMARK VINA RESULT:     -11.1      6.285     11.885
REMARK SMILES CCC[C@@]1(C(=O)NCCCCNC(=O)c2ccc(-c3c4nc(c(-c5cc(S(=O)(=O)[O-])ccc5F)c5ccc([nH]5)c(-c5cc(S(=O)(=O)[O-])ccc5F)c5nc(c(-c6cc(S(=O)(=O)[O-])ccc6F)c6ccc3[nH]6)C=C5)C=C4)cc2)CCCN(C(=O)C[C@H]2CCCCO2)C1
REMARK SMILES IDX 9 1 8 2 7 3 5 4 6 5 4 7 78 8 91 9 79 10 81 11 80 12 3 13
REMARK SMILES IDX 2 14 1 15 82 16 83 17 84 18 85 19 86 20 90 21 87 22 89 23
REMARK SMILES IDX 88 24 10 25 11 26 12 27 13 28 14 30 15 31 16 32 77 33 17 34
REMARK SMILES IDX 76 35 18 36 19 37 20 38 70 39 21 40 75 41 69 42 71 43 22 44
REMARK SMILES IDX 74 45 68 46 67 47 23 49 55 50 35 51 54 52 36 53 39 54 53 55
REMARK SMILES IDX 72 56 37 57 38 58 52 60 73 61 40 62 24 63 25 64 33 65 26 66
REMARK SMILES IDX 32 67 34 68 31 69 27 70 28 71 29 72 30 73 56 74 57 75 65 76
REMARK SMILES IDX 58 77 64 78 66 79 63 80 59 81 60 82 61 83 62 84 41 85 42 86
REMARK SMILES IDX 50 87 43 88 49 89 51 90 48 91 44 92 45 93 46 94 47 95
REMARK H PARENT 7 6 12 29 71 48 39 59
REMARK Flexibility Score: inf
ROOT
ATOM      1  C   UNL A   1      32.197  30.278  27.031  1.00  0.00     0.023 C 
ENDROOT
BRANCH   1   2
ATOM      2  C   UNL A   1      32.591  28.922  26.462  1.00  0.00     0.116 C 
BRANCH   2   3
ATOM      3  N   UNL A   1      33.468  28.950  25.309  1.00  0.00    -0.356 N 
ATOM      4  C   UNL A   1      33.588  28.084  24.258  1.00  0.00     0.228 C 
ATOM      5  O   UNL A   1      34.126  28.564  23.249  1.00  0.00    -0.274 OA
ATOM      6  H   UNL A   1      34.080  29.721  25.277  1.00  0.00     0.163 HD
BRANCH   4   7
ATOM      7  C   UNL A   1      33.302  26.549  24.319  1.00  0.00     0.067 C 
ATOM      8  C   UNL A   1      33.794  25.883  22.984  1.00  0.00     0.020 C 
ATOM      9  C   UNL A   1      31.822  26.092  24.436  1.00  0.00     0.136 C 
ATOM     10  C   UNL A   1      32.910  26.212  21.769  1.00  0.00     0.023 C 
ATOM     11  N   UNL A   1      31.027  26.531  23.291  1.00  0.00    -0.342 N 
ATOM     12  C   UNL A   1      31.436  25.941  22.031  1.00  0.00     0.119 C 
BRANCH   7  13
ATOM     13  C   UNL A   1      34.087  26.023  25.572  1.00  0.00     0.018 C 
BRANCH  13  14
ATOM     14  C   UNL A   1      34.966  24.768  25.427  1.00  0.00    -0.002 C 
ATOM     15  C   UNL A   1      34.518  23.547  26.214  1.00  0.00     0.004 C 
ENDBRANCH  13  14
ENDBRANCH   7  13
BRANCH  11  16
ATOM     16  C   UNL A   1      29.976  27.407  23.478  1.00  0.00     0.225 C 
ATOM     17  O   UNL A   1      28.814  26.991  23.561  1.00  0.00    -0.275 OA
BRANCH  16  18
ATOM     18  C   UNL A   1      30.217  28.907  23.546  1.00  0.00     0.132 C 
BRANCH  18  19
ATOM     19  C   UNL A   1      29.120  29.822  22.989  1.00  0.00     0.127 C 
ATOM     20  C   UNL A   1      29.165  31.205  23.653  1.00  0.00     0.033 C 
ATOM     21  O   UNL A   1      29.251  29.999  21.577  1.00  0.00    -0.378 OA
ATOM     22  C   UNL A   1      28.047  32.094  23.111  1.00  0.00     0.005 C 
ATOM     23  C   UNL A   1      28.142  30.713  21.020  1.00  0.00     0.160 C 
ATOM     24  C   UNL A   1      28.064  32.121  21.586  1.00  0.00     0.029 C 
ENDBRANCH  18  19
ENDBRANCH  16  18
ENDBRANCH  11  16
ENDBRANCH   4   7
ENDBRANCH   2   3
ENDBRANCH   1   2
BRANCH   1  25
ATOM     25  C   UNL A   1      33.297  31.069  27.729  1.00  0.00     0.023 C 
BRANCH  25  26
ATOM     26  C   UNL A   1      33.718  32.380  27.072  1.00  0.00     0.116 C 
BRANCH  26  27
ATOM     27  N   UNL A   1      33.089  33.569  27.632  1.00  0.00    -0.352 N 
ATOM     28  C   UNL A   1      33.404  34.259  28.782  1.00  0.00     0.251 C 
ATOM     29  H   UNL A   1      32.331  33.929  27.116  1.00  0.00     0.163 HD
ATOM     30  O   UNL A   1      32.713  35.211  29.140  1.00  0.00    -0.269 OA
BRANCH  28  31
ATOM     31  C   UNL A   1      34.553  33.827  29.611  1.00  0.00     0.039 A 
ATOM     32  C   UNL A   1      34.329  32.954  30.678  1.00  0.00     0.014 A 
ATOM     33  C   UNL A   1      35.850  34.253  29.315  1.00  0.00     0.014 A 
ATOM     34  C   UNL A   1      35.416  32.437  31.391  1.00  0.00     0.010 A 
ATOM     35  C   UNL A   1      36.934  33.674  29.971  1.00  0.00     0.010 A 
ATOM     36  C   UNL A   1      36.731  32.757  31.013  1.00  0.00    -0.014 A 
BRANCH  36  37
ATOM     37  C   UNL A   1      37.904  32.150  31.697  1.00  0.00     0.031 A 
ATOM     38  C   UNL A   1      38.699  31.073  31.010  1.00  0.00     0.074 A 
ATOM     39  C   UNL A   1      38.208  32.512  32.961  1.00  0.00     0.049 A 
ATOM     40  N   UNL A   1      39.695  30.356  31.466  1.00  0.00    -0.248 NA
ATOM     41  C   UNL A   1      38.295  30.733  29.637  1.00  0.00     0.031 C 
ATOM     42  C   UNL A   1      37.483  33.506  33.755  1.00  0.00     0.029 A 
ATOM     43  N   UNL A   1      39.200  32.078  33.805  1.00  0.00    -0.354 N 
ATOM     44  C   UNL A   1      40.022  29.468  30.446  1.00  0.00     0.074 A 
ATOM     45  C   UNL A   1      39.074  29.695  29.375  1.00  0.00     0.031 C 
ATOM     46  C   UNL A   1      38.067  33.623  34.957  1.00  0.00     0.029 A 
ATOM     47  C   UNL A   1      39.184  32.685  35.040  1.00  0.00     0.049 A 
ATOM     48  H   UNL A   1      39.862  31.394  33.551  1.00  0.00     0.167 HD
ATOM     49  C   UNL A   1      41.033  28.566  30.395  1.00  0.00     0.034 A 
ATOM     50  C   UNL A   1      39.973  32.503  36.118  1.00  0.00     0.034 A 
ATOM     51  C   UNL A   1      41.983  28.365  31.464  1.00  0.00     0.049 A 
ATOM     52  C   UNL A   1      41.095  31.498  36.037  1.00  0.00     0.074 A 
ATOM     53  C   UNL A   1      43.077  27.518  31.498  1.00  0.00     0.029 A 
ATOM     54  N   UNL A   1      41.951  29.020  32.689  1.00  0.00    -0.354 N 
ATOM     55  N   UNL A   1      41.421  30.701  35.047  1.00  0.00    -0.248 NA
ATOM     56  C   UNL A   1      41.963  31.381  37.216  1.00  0.00     0.031 C 
ATOM     57  C   UNL A   1      43.671  27.617  32.762  1.00  0.00     0.029 A 
ATOM     58  C   UNL A   1      42.991  28.579  33.493  1.00  0.00     0.049 A 
ATOM     59  H   UNL A   1      41.285  29.697  32.948  1.00  0.00     0.167 HD
ATOM     60  C   UNL A   1      42.555  30.014  35.472  1.00  0.00     0.074 A 
ATOM     61  C   UNL A   1      42.860  30.500  36.802  1.00  0.00     0.031 C 
ATOM     62  C   UNL A   1      43.281  29.070  34.820  1.00  0.00     0.034 A 
BRANCH  49  63
ATOM     63  C   UNL A   1      41.142  27.718  29.149  1.00  0.00     0.023 A 
ATOM     64  C   UNL A   1      42.144  27.944  28.189  1.00  0.00     0.031 A 
ATOM     65  C   UNL A   1      40.208  26.698  28.895  1.00  0.00     0.131 A 
ATOM     66  C   UNL A   1      42.138  27.223  26.984  1.00  0.00     0.055 A 
ATOM     67  C   UNL A   1      40.260  25.924  27.733  1.00  0.00     0.041 A 
ATOM     68  F   UNL A   1      39.216  26.447  29.764  1.00  0.00    -0.206 F 
ATOM     69  C   UNL A   1      41.218  26.197  26.761  1.00  0.00     0.022 A 
BRANCH  66  70
ATOM     70  S   UNL A   1      43.249  27.755  25.653  1.00  0.00     0.124 S 
ATOM     71  O   UNL A   1      43.916  28.901  26.267  1.00  0.00    -0.237 OA
ATOM     72  O   UNL A   1      44.076  26.573  25.440  1.00  0.00    -0.237 OA
ATOM     73  O   UNL A   1      42.339  28.086  24.559  1.00  0.00    -0.744 OA
ENDBRANCH  66  70
ENDBRANCH  49  63
BRANCH  50  74
ATOM     74  C   UNL A   1      39.742  33.285  37.367  1.00  0.00     0.023 A 
ATOM     75  C   UNL A   1      40.555  34.382  37.693  1.00  0.00     0.031 A 
ATOM     76  C   UNL A   1      38.732  32.919  38.274  1.00  0.00     0.131 A 
ATOM     77  C   UNL A   1      40.378  35.045  38.917  1.00  0.00     0.055 A 
ATOM     78  C   UNL A   1      38.526  33.613  39.468  1.00  0.00     0.041 A 
ATOM     79  F   UNL A   1      37.922  31.883  38.006  1.00  0.00    -0.206 F 
ATOM     80  C   UNL A   1      39.361  34.675  39.801  1.00  0.00     0.022 A 
BRANCH  77  81
ATOM     81  S   UNL A   1      41.552  36.349  39.377  1.00  0.00     0.124 S 
ATOM     82  O   UNL A   1      41.160  37.431  38.483  1.00  0.00    -0.237 OA
ATOM     83  O   UNL A   1      41.251  36.542  40.791  1.00  0.00    -0.237 OA
ATOM     84  O   UNL A   1      42.855  35.747  39.097  1.00  0.00    -0.744 OA
ENDBRANCH  77  81
ENDBRANCH  50  74
BRANCH  62  85
ATOM     85  C   UNL A   1      44.510  28.545  35.523  1.00  0.00     0.023 A 
ATOM     86  C   UNL A   1      44.433  27.530  36.493  1.00  0.00     0.031 A 
ATOM     87  C   UNL A   1      45.774  29.085  35.228  1.00  0.00     0.131 A 
ATOM     88  C   UNL A   1      45.591  27.128  37.174  1.00  0.00     0.055 A 
ATOM     89  C   UNL A   1      46.931  28.639  35.867  1.00  0.00     0.041 A 
ATOM     90  F   UNL A   1      45.904  30.057  34.310  1.00  0.00    -0.206 F 
ATOM     91  C   UNL A   1      46.842  27.664  36.856  1.00  0.00     0.022 A 
BRANCH  88  92
ATOM     92  S   UNL A   1      45.431  25.958  38.552  1.00  0.00     0.124 S 
ATOM     93  O   UNL A   1      44.121  26.305  39.095  1.00  0.00    -0.237 OA
ATOM     94  O   UNL A   1      45.519  24.667  37.876  1.00  0.00    -0.237 OA
ATOM     95  O   UNL A   1      46.566  26.284  39.413  1.00  0.00    -0.744 OA
ENDBRANCH  88  92
ENDBRANCH  62  85
ENDBRANCH  36  37
ENDBRANCH  28  31
ENDBRANCH  26  27
ENDBRANCH  25  26
ENDBRANCH   1  25
TORSDOF 19
ENDMDL
