MODEL 1
REMARK VINA RESULT:     -11.5      0.000      0.000
REMARK SMILES CC(C)(C)OC(=O)N1CC[C@@H]2CO[C@@H](CC(=O)NCCCCNC(=O)c3ccc(-c4c5nc(c(-c6cc(S(=O)(=O)[O-])ccc6F)c6ccc([nH]6)c(-c6cc(S(=O)(=O)[O-])ccc6F)c6nc(c(-c7cc(S(=O)(=O)[O-])ccc7F)c7ccc4[nH]7)C=C6)C=C5)cc3)[C@@H]2C1
REMARK SMILES IDX 20 1 19 2 18 3 16 4 17 5 15 7 14 8 8 9 9 10 90 11 10 12
REMARK SMILES IDX 89 13 11 14 12 15 13 16 6 17 7 18 5 19 2 20 1 21 3 22 4 23
REMARK SMILES IDX 21 24 22 25 23 26 24 27 25 29 26 30 27 31 88 32 28 33 87 34
REMARK SMILES IDX 29 35 30 36 31 37 81 38 32 39 86 40 80 41 82 42 33 43 85 44
REMARK SMILES IDX 79 45 78 46 34 48 66 49 46 50 65 51 47 52 50 53 64 54 83 55
REMARK SMILES IDX 48 56 49 57 63 59 84 60 51 61 35 62 36 63 44 64 37 65 43 66
REMARK SMILES IDX 45 67 42 68 38 69 39 70 40 71 41 72 67 73 68 74 76 75 69 76
REMARK SMILES IDX 75 77 77 78 74 79 70 80 71 81 72 82 73 83 52 84 53 85 61 86
REMARK SMILES IDX 54 87 60 88 62 89 59 90 55 91 56 92 57 93 58 94
REMARK H PARENT 18 6 23 28 82 47 50 58
REMARK Flexibility Score: inf
ROOT
ATOM      1  C   UNL A   1      37.145  21.124  24.769  1.00  0.00     0.023 C 
ENDROOT
BRANCH   1   2
ATOM      2  C   UNL A   1      35.829  21.068  25.550  1.00  0.00     0.116 C 
BRANCH   2   3
ATOM      3  N   UNL A   1      34.868  20.151  24.964  1.00  0.00    -0.356 N 
ATOM      4  C   UNL A   1      33.510  20.131  25.081  1.00  0.00     0.222 C 
ATOM      5  O   UNL A   1      32.880  19.213  24.553  1.00  0.00    -0.275 OA
ATOM      6  H   UNL A   1      35.252  19.441  24.401  1.00  0.00     0.163 HD
BRANCH   4   7
ATOM      7  C   UNL A   1      32.782  21.252  25.792  1.00  0.00     0.132 C 
BRANCH   7   8
ATOM      8  C   UNL A   1      32.294  22.414  24.918  1.00  0.00     0.132 C 
ATOM      9  N   UNL A   1      32.239  26.189  24.759  1.00  0.00    -0.308 N 
ATOM     10  C   UNL A   1      33.510  26.309  24.065  1.00  0.00     0.123 C 
ATOM     11  C   UNL A   1      31.689  24.846  24.893  1.00  0.00     0.129 C 
ATOM     12  C   UNL A   1      34.559  25.399  24.691  1.00  0.00     0.028 C 
ATOM     13  C   UNL A   1      32.695  23.805  25.416  1.00  0.00     0.044 C 
ATOM     14  C   UNL A   1      34.083  23.957  24.807  1.00  0.00     0.024 C 
ATOM     15  C   UNL A   1      33.956  23.231  23.478  1.00  0.00     0.164 C 
ATOM     16  O   UNL A   1      32.832  22.349  23.592  1.00  0.00    -0.377 OA
BRANCH   9  17
ATOM     17  C   UNL A   1      31.458  27.324  24.905  1.00  0.00     0.410 C 
ATOM     18  O   UNL A   1      30.248  27.335  24.711  1.00  0.00    -0.224 OA
BRANCH  17  19
ATOM     19  O   UNL A   1      32.191  28.415  25.241  1.00  0.00    -0.444 OA
BRANCH  19  20
ATOM     20  C   UNL A   1      32.417  28.775  26.631  1.00  0.00     0.106 C 
ATOM     21  C   UNL A   1      32.019  30.256  26.722  1.00  0.00     0.056 C 
ATOM     22  C   UNL A   1      33.905  28.630  26.950  1.00  0.00     0.056 C 
ATOM     23  C   UNL A   1      31.546  27.992  27.625  1.00  0.00     0.056 C 
ENDBRANCH  19  20
ENDBRANCH  17  19
ENDBRANCH   9  17
ENDBRANCH   7   8
ENDBRANCH   4   7
ENDBRANCH   2   3
ENDBRANCH   1   2
BRANCH   1  24
ATOM     24  C   UNL A   1      38.128  19.990  25.061  1.00  0.00     0.023 C 
BRANCH  24  25
ATOM     25  C   UNL A   1      39.357  20.392  25.864  1.00  0.00     0.116 C 
BRANCH  25  26
ATOM     26  N   UNL A   1      40.323  19.312  25.992  1.00  0.00    -0.352 N 
ATOM     27  C   UNL A   1      41.678  19.373  26.206  1.00  0.00     0.251 C 
ATOM     28  H   UNL A   1      39.951  18.404  25.911  1.00  0.00     0.163 HD
ATOM     29  O   UNL A   1      42.349  18.347  26.133  1.00  0.00    -0.269 OA
BRANCH  27  30
ATOM     30  C   UNL A   1      42.328  20.672  26.488  1.00  0.00     0.039 A 
ATOM     31  C   UNL A   1      42.808  21.432  25.419  1.00  0.00     0.014 A 
ATOM     32  C   UNL A   1      42.456  21.144  27.798  1.00  0.00     0.014 A 
ATOM     33  C   UNL A   1      43.355  22.696  25.657  1.00  0.00     0.010 A 
ATOM     34  C   UNL A   1      42.936  22.431  28.026  1.00  0.00     0.010 A 
ATOM     35  C   UNL A   1      43.389  23.220  26.959  1.00  0.00    -0.014 A 
BRANCH  35  36
ATOM     36  C   UNL A   1      43.896  24.590  27.225  1.00  0.00     0.031 A 
ATOM     37  C   UNL A   1      42.959  25.658  27.720  1.00  0.00     0.074 A 
ATOM     38  C   UNL A   1      45.179  24.892  26.947  1.00  0.00     0.049 A 
ATOM     39  N   UNL A   1      43.182  26.931  27.920  1.00  0.00    -0.248 NA
ATOM     40  C   UNL A   1      41.576  25.238  27.993  1.00  0.00     0.031 C 
ATOM     41  C   UNL A   1      46.169  23.956  26.411  1.00  0.00     0.029 A 
ATOM     42  N   UNL A   1      45.866  26.074  27.058  1.00  0.00    -0.354 N 
ATOM     43  C   UNL A   1      41.967  27.469  28.331  1.00  0.00     0.074 A 
ATOM     44  C   UNL A   1      40.999  26.393  28.284  1.00  0.00     0.031 C 
ATOM     45  C   UNL A   1      47.339  24.597  26.251  1.00  0.00     0.029 A 
ATOM     46  C   UNL A   1      47.172  25.995  26.635  1.00  0.00     0.049 A 
ATOM     47  H   UNL A   1      45.462  26.901  27.407  1.00  0.00     0.167 HD
ATOM     48  C   UNL A   1      41.690  28.735  28.732  1.00  0.00     0.034 A 
ATOM     49  C   UNL A   1      48.125  26.944  26.554  1.00  0.00     0.034 A 
ATOM     50  C   UNL A   1      42.671  29.794  28.777  1.00  0.00     0.049 A 
ATOM     51  C   UNL A   1      47.799  28.344  27.002  1.00  0.00     0.074 A 
ATOM     52  C   UNL A   1      42.514  31.099  29.209  1.00  0.00     0.029 A 
ATOM     53  N   UNL A   1      43.993  29.671  28.366  1.00  0.00    -0.354 N 
ATOM     54  N   UNL A   1      46.657  28.829  27.432  1.00  0.00    -0.248 NA
ATOM     55  C   UNL A   1      48.895  29.321  26.965  1.00  0.00     0.031 C 
ATOM     56  C   UNL A   1      43.723  31.778  29.009  1.00  0.00     0.029 A 
ATOM     57  C   UNL A   1      44.655  30.880  28.514  1.00  0.00     0.049 A 
ATOM     58  H   UNL A   1      44.400  28.844  28.021  1.00  0.00     0.167 HD
ATOM     59  C   UNL A   1      46.903  30.164  27.736  1.00  0.00     0.074 A 
ATOM     60  C   UNL A   1      48.305  30.401  27.457  1.00  0.00     0.031 C 
ATOM     61  C   UNL A   1      46.049  31.107  28.210  1.00  0.00     0.034 A 
BRANCH  48  62
ATOM     62  C   UNL A   1      40.263  29.034  29.128  1.00  0.00     0.023 A 
ATOM     63  C   UNL A   1      39.867  29.062  30.478  1.00  0.00     0.031 A 
ATOM     64  C   UNL A   1      39.275  29.236  28.150  1.00  0.00     0.131 A 
ATOM     65  C   UNL A   1      38.510  29.193  30.808  1.00  0.00     0.055 A 
ATOM     66  C   UNL A   1      37.937  29.455  28.489  1.00  0.00     0.041 A 
ATOM     67  F   UNL A   1      39.587  29.202  26.845  1.00  0.00    -0.206 F 
ATOM     68  C   UNL A   1      37.545  29.415  29.824  1.00  0.00     0.022 A 
BRANCH  65  69
ATOM     69  S   UNL A   1      38.008  28.903  32.527  1.00  0.00     0.124 S 
ATOM     70  O   UNL A   1      38.164  27.454  32.638  1.00  0.00    -0.237 OA
ATOM     71  O   UNL A   1      38.965  29.708  33.276  1.00  0.00    -0.237 OA
ATOM     72  O   UNL A   1      36.626  29.378  32.566  1.00  0.00    -0.744 OA
ENDBRANCH  65  69
ENDBRANCH  48  62
BRANCH  49  73
ATOM     73  C   UNL A   1      49.471  26.606  26.016  1.00  0.00     0.023 A 
ATOM     74  C   UNL A   1      49.870  27.031  24.741  1.00  0.00     0.031 A 
ATOM     75  C   UNL A   1      50.374  25.836  26.771  1.00  0.00     0.131 A 
ATOM     76  C   UNL A   1      51.126  26.655  24.241  1.00  0.00     0.055 A 
ATOM     77  C   UNL A   1      51.639  25.500  26.287  1.00  0.00     0.041 A 
ATOM     78  F   UNL A   1      50.043  25.415  28.003  1.00  0.00    -0.206 F 
ATOM     79  C   UNL A   1      52.017  25.901  25.009  1.00  0.00     0.022 A 
BRANCH  76  80
ATOM     80  S   UNL A   1      51.561  27.120  22.543  1.00  0.00     0.124 S 
ATOM     81  O   UNL A   1      51.849  28.543  22.688  1.00  0.00    -0.237 OA
ATOM     82  O   UNL A   1      52.708  26.258  22.276  1.00  0.00    -0.237 OA
ATOM     83  O   UNL A   1      50.356  26.801  21.782  1.00  0.00    -0.744 OA
ENDBRANCH  76  80
ENDBRANCH  49  73
BRANCH  61  84
ATOM     84  C   UNL A   1      46.628  32.473  28.481  1.00  0.00     0.023 A 
ATOM     85  C   UNL A   1      46.715  33.451  27.476  1.00  0.00     0.031 A 
ATOM     86  C   UNL A   1      47.113  32.791  29.761  1.00  0.00     0.131 A 
ATOM     87  C   UNL A   1      47.325  34.684  27.753  1.00  0.00     0.055 A 
ATOM     88  C   UNL A   1      47.670  34.039  30.046  1.00  0.00     0.041 A 
ATOM     89  F   UNL A   1      47.056  31.893  30.758  1.00  0.00    -0.206 F 
ATOM     90  C   UNL A   1      47.790  34.989  29.034  1.00  0.00     0.022 A 
BRANCH  87  91
ATOM     91  S   UNL A   1      47.580  35.856  26.392  1.00  0.00     0.124 S 
ATOM     92  O   UNL A   1      48.642  36.706  26.918  1.00  0.00    -0.237 OA
ATOM     93  O   UNL A   1      47.953  34.977  25.288  1.00  0.00    -0.237 OA
ATOM     94  O   UNL A   1      46.278  36.505  26.250  1.00  0.00    -0.744 OA
ENDBRANCH  87  91
ENDBRANCH  61  84
ENDBRANCH  35  36
ENDBRANCH  27  30
ENDBRANCH  25  26
ENDBRANCH  24  25
ENDBRANCH   1  24
TORSDOF 18
ENDMDL
MODEL 2
REMARK VINA RESULT:     -11.1      1.713      2.168
REMARK SMILES CC(C)(C)OC(=O)N1CC[C@@H]2CO[C@@H](CC(=O)NCCCCNC(=O)c3ccc(-c4c5nc(c(-c6cc(S(=O)(=O)[O-])ccc6F)c6ccc([nH]6)c(-c6cc(S(=O)(=O)[O-])ccc6F)c6nc(c(-c7cc(S(=O)(=O)[O-])ccc7F)c7ccc4[nH]7)C=C6)C=C5)cc3)[C@@H]2C1
REMARK SMILES IDX 20 1 19 2 18 3 16 4 17 5 15 7 14 8 8 9 9 10 90 11 10 12
REMARK SMILES IDX 89 13 11 14 12 15 13 16 6 17 7 18 5 19 2 20 1 21 3 22 4 23
REMARK SMILES IDX 21 24 22 25 23 26 24 27 25 29 26 30 27 31 88 32 28 33 87 34
REMARK SMILES IDX 29 35 30 36 31 37 81 38 32 39 86 40 80 41 82 42 33 43 85 44
REMARK SMILES IDX 79 45 78 46 34 48 66 49 46 50 65 51 47 52 50 53 64 54 83 55
REMARK SMILES IDX 48 56 49 57 63 59 84 60 51 61 35 62 36 63 44 64 37 65 43 66
REMARK SMILES IDX 45 67 42 68 38 69 39 70 40 71 41 72 67 73 68 74 76 75 69 76
REMARK SMILES IDX 75 77 77 78 74 79 70 80 71 81 72 82 73 83 52 84 53 85 61 86
REMARK SMILES IDX 54 87 60 88 62 89 59 90 55 91 56 92 57 93 58 94
REMARK H PARENT 18 6 23 28 82 47 50 58
REMARK Flexibility Score: inf
ROOT
ATOM      1  C   UNL A   1      36.395  20.030  24.805  1.00  0.00     0.023 C 
ENDROOT
BRANCH   1   2
ATOM      2  C   UNL A   1      36.163  21.451  25.328  1.00  0.00     0.116 C 
BRANCH   2   3
ATOM      3  N   UNL A   1      35.386  21.477  26.554  1.00  0.00    -0.356 N 
ATOM      4  C   UNL A   1      34.058  21.731  26.731  1.00  0.00     0.222 C 
ATOM      5  O   UNL A   1      33.607  21.774  27.877  1.00  0.00    -0.275 OA
ATOM      6  H   UNL A   1      35.890  21.284  27.377  1.00  0.00     0.163 HD
BRANCH   4   7
ATOM      7  C   UNL A   1      33.140  21.893  25.538  1.00  0.00     0.132 C 
BRANCH   7   8
ATOM      8  C   UNL A   1      32.330  23.194  25.468  1.00  0.00     0.132 C 
ATOM      9  N   UNL A   1      32.442  26.686  24.028  1.00  0.00    -0.308 N 
ATOM     10  C   UNL A   1      31.819  26.327  22.765  1.00  0.00     0.123 C 
ATOM     11  C   UNL A   1      32.453  25.665  25.069  1.00  0.00     0.129 C 
ATOM     12  C   UNL A   1      32.427  25.047  22.205  1.00  0.00     0.028 C 
ATOM     13  C   UNL A   1      32.947  24.287  24.591  1.00  0.00     0.044 C 
ATOM     14  C   UNL A   1      32.415  23.906  23.214  1.00  0.00     0.024 C 
ATOM     15  C   UNL A   1      31.033  23.355  23.520  1.00  0.00     0.164 C 
ATOM     16  O   UNL A   1      31.030  22.985  24.904  1.00  0.00    -0.377 OA
BRANCH   9  17
ATOM     17  C   UNL A   1      32.633  28.028  24.311  1.00  0.00     0.410 C 
ATOM     18  O   UNL A   1      33.482  28.717  23.755  1.00  0.00    -0.224 OA
BRANCH  17  19
ATOM     19  O   UNL A   1      31.809  28.472  25.293  1.00  0.00    -0.444 OA
BRANCH  19  20
ATOM     20  C   UNL A   1      32.328  28.883  26.586  1.00  0.00     0.106 C 
ATOM     21  C   UNL A   1      31.416  28.193  27.612  1.00  0.00     0.056 C 
ATOM     22  C   UNL A   1      32.187  30.399  26.723  1.00  0.00     0.056 C 
ATOM     23  C   UNL A   1      33.769  28.422  26.853  1.00  0.00     0.056 C 
ENDBRANCH  19  20
ENDBRANCH  17  19
ENDBRANCH   9  17
ENDBRANCH   7   8
ENDBRANCH   4   7
ENDBRANCH   2   3
ENDBRANCH   1   2
BRANCH   1  24
ATOM     24  C   UNL A   1      37.859  19.622  24.646  1.00  0.00     0.023 C 
BRANCH  24  25
ATOM     25  C   UNL A   1      38.788  20.108  25.750  1.00  0.00     0.116 C 
BRANCH  25  26
ATOM     26  N   UNL A   1      39.947  19.248  25.928  1.00  0.00    -0.352 N 
ATOM     27  C   UNL A   1      41.242  19.582  26.243  1.00  0.00     0.251 C 
ATOM     28  H   UNL A   1      39.780  18.286  25.803  1.00  0.00     0.163 HD
ATOM     29  O   UNL A   1      42.116  18.720  26.201  1.00  0.00    -0.269 OA
BRANCH  27  30
ATOM     30  C   UNL A   1      41.584  20.976  26.597  1.00  0.00     0.039 A 
ATOM     31  C   UNL A   1      42.230  21.225  27.811  1.00  0.00     0.014 A 
ATOM     32  C   UNL A   1      41.280  22.035  25.736  1.00  0.00     0.014 A 
ATOM     33  C   UNL A   1      42.631  22.524  28.130  1.00  0.00     0.010 A 
ATOM     34  C   UNL A   1      41.742  23.316  26.023  1.00  0.00     0.010 A 
ATOM     35  C   UNL A   1      42.423  23.573  27.221  1.00  0.00    -0.014 A 
BRANCH  35  36
ATOM     36  C   UNL A   1      42.909  24.948  27.507  1.00  0.00     0.031 A 
ATOM     37  C   UNL A   1      41.995  25.949  28.160  1.00  0.00     0.074 A 
ATOM     38  C   UNL A   1      44.142  25.316  27.109  1.00  0.00     0.049 A 
ATOM     39  N   UNL A   1      42.195  27.219  28.405  1.00  0.00    -0.248 NA
ATOM     40  C   UNL A   1      40.667  25.460  28.556  1.00  0.00     0.031 C 
ATOM     41  C   UNL A   1      45.099  24.449  26.418  1.00  0.00     0.029 A 
ATOM     42  N   UNL A   1      44.796  26.517  27.211  1.00  0.00    -0.354 N 
ATOM     43  C   UNL A   1      41.014  27.685  28.974  1.00  0.00     0.074 A 
ATOM     44  C   UNL A   1      40.085  26.574  28.972  1.00  0.00     0.031 C 
ATOM     45  C   UNL A   1      46.221  25.145  26.168  1.00  0.00     0.029 A 
ATOM     46  C   UNL A   1      46.049  26.513  26.646  1.00  0.00     0.049 A 
ATOM     47  H   UNL A   1      44.404  27.307  27.648  1.00  0.00     0.167 HD
ATOM     48  C   UNL A   1      40.740  28.916  29.473  1.00  0.00     0.034 A 
ATOM     49  C   UNL A   1      46.953  27.503  26.515  1.00  0.00     0.034 A 
ATOM     50  C   UNL A   1      41.682  30.010  29.470  1.00  0.00     0.049 A 
ATOM     51  C   UNL A   1      46.631  28.864  27.073  1.00  0.00     0.074 A 
ATOM     52  C   UNL A   1      41.528  31.285  29.988  1.00  0.00     0.029 A 
ATOM     53  N   UNL A   1      42.954  29.962  28.912  1.00  0.00    -0.354 N 
ATOM     54  N   UNL A   1      45.527  29.279  27.650  1.00  0.00    -0.248 NA
ATOM     55  C   UNL A   1      47.681  29.885  26.972  1.00  0.00     0.031 C 
ATOM     56  C   UNL A   1      42.683  32.021  29.697  1.00  0.00     0.029 A 
ATOM     57  C   UNL A   1      43.585  31.189  29.055  1.00  0.00     0.049 A 
ATOM     58  H   UNL A   1      43.349  29.171  28.479  1.00  0.00     0.167 HD
ATOM     59  C   UNL A   1      45.758  30.605  28.000  1.00  0.00     0.074 A 
ATOM     60  C   UNL A   1      47.111  30.914  27.584  1.00  0.00     0.031 C 
ATOM     61  C   UNL A   1      44.929  31.488  28.615  1.00  0.00     0.034 A 
BRANCH  48  62
ATOM     62  C   UNL A   1      39.356  29.136  30.037  1.00  0.00     0.023 A 
ATOM     63  C   UNL A   1      38.398  29.907  29.353  1.00  0.00     0.031 A 
ATOM     64  C   UNL A   1      39.004  28.619  31.296  1.00  0.00     0.131 A 
ATOM     65  C   UNL A   1      37.177  30.217  29.969  1.00  0.00     0.055 A 
ATOM     66  C   UNL A   1      37.751  28.858  31.866  1.00  0.00     0.041 A 
ATOM     67  F   UNL A   1      39.880  27.892  32.005  1.00  0.00    -0.206 F 
ATOM     68  C   UNL A   1      36.836  29.677  31.210  1.00  0.00     0.022 A 
BRANCH  65  69
ATOM     69  S   UNL A   1      36.114  31.468  29.197  1.00  0.00     0.124 S 
ATOM     70  O   UNL A   1      37.082  32.511  28.863  1.00  0.00    -0.237 OA
ATOM     71  O   UNL A   1      35.540  30.743  28.070  1.00  0.00    -0.237 OA
ATOM     72  O   UNL A   1      35.172  31.820  30.258  1.00  0.00    -0.744 OA
ENDBRANCH  65  69
ENDBRANCH  48  62
BRANCH  49  73
ATOM     73  C   UNL A   1      48.243  27.248  25.817  1.00  0.00     0.023 A 
ATOM     74  C   UNL A   1      48.355  27.389  24.426  1.00  0.00     0.031 A 
ATOM     75  C   UNL A   1      49.382  26.843  26.536  1.00  0.00     0.131 A 
ATOM     76  C   UNL A   1      49.571  27.094  23.790  1.00  0.00     0.055 A 
ATOM     77  C   UNL A   1      50.601  26.592  25.905  1.00  0.00     0.041 A 
ATOM     78  F   UNL A   1      49.329  26.706  27.871  1.00  0.00    -0.206 F 
ATOM     79  C   UNL A   1      50.697  26.706  24.521  1.00  0.00     0.022 A 
BRANCH  76  80
ATOM     80  S   UNL A   1      49.646  27.171  21.980  1.00  0.00     0.124 S 
ATOM     81  O   UNL A   1      48.673  26.154  21.597  1.00  0.00    -0.237 OA
ATOM     82  O   UNL A   1      49.264  28.555  21.719  1.00  0.00    -0.237 OA
ATOM     83  O   UNL A   1      51.040  26.847  21.682  1.00  0.00    -0.744 OA
ENDBRANCH  76  80
ENDBRANCH  49  73
BRANCH  61  84
ATOM     84  C   UNL A   1      45.486  32.860  28.897  1.00  0.00     0.023 A 
ATOM     85  C   UNL A   1      45.419  33.894  27.948  1.00  0.00     0.031 A 
ATOM     86  C   UNL A   1      46.108  33.128  30.129  1.00  0.00     0.131 A 
ATOM     87  C   UNL A   1      46.013  35.135  28.226  1.00  0.00     0.055 A 
ATOM     88  C   UNL A   1      46.650  34.382  30.420  1.00  0.00     0.041 A 
ATOM     89  F   UNL A   1      46.202  32.175  31.070  1.00  0.00    -0.206 F 
ATOM     90  C   UNL A   1      46.614  35.389  29.460  1.00  0.00     0.022 A 
BRANCH  87  91
ATOM     91  S   UNL A   1      46.062  36.390  26.916  1.00  0.00     0.124 S 
ATOM     92  O   UNL A   1      46.996  37.367  27.466  1.00  0.00    -0.237 OA
ATOM     93  O   UNL A   1      46.539  35.625  25.769  1.00  0.00    -0.237 OA
ATOM     94  O   UNL A   1      44.675  36.842  26.822  1.00  0.00    -0.744 OA
ENDBRANCH  87  91
ENDBRANCH  61  84
ENDBRANCH  35  36
ENDBRANCH  27  30
ENDBRANCH  25  26
ENDBRANCH  24  25
ENDBRANCH   1  24
TORSDOF 18
ENDMDL
MODEL 3
REMARK VINA RESULT:     -11.1      3.001      8.413
REMARK SMILES CC(C)(C)OC(=O)N1CC[C@@H]2CO[C@@H](CC(=O)NCCCCNC(=O)c3ccc(-c4c5nc(c(-c6cc(S(=O)(=O)[O-])ccc6F)c6ccc([nH]6)c(-c6cc(S(=O)(=O)[O-])ccc6F)c6nc(c(-c7cc(S(=O)(=O)[O-])ccc7F)c7ccc4[nH]7)C=C6)C=C5)cc3)[C@@H]2C1
REMARK SMILES IDX 20 1 19 2 18 3 16 4 17 5 15 7 14 8 8 9 9 10 90 11 10 12
REMARK SMILES IDX 89 13 11 14 12 15 13 16 6 17 7 18 5 19 2 20 1 21 3 22 4 23
REMARK SMILES IDX 21 24 22 25 23 26 24 27 25 29 26 30 27 31 88 32 28 33 87 34
REMARK SMILES IDX 29 35 30 36 31 37 81 38 32 39 86 40 80 41 82 42 33 43 85 44
REMARK SMILES IDX 79 45 78 46 34 48 66 49 46 50 65 51 47 52 50 53 64 54 83 55
REMARK SMILES IDX 48 56 49 57 63 59 84 60 51 61 35 62 36 63 44 64 37 65 43 66
REMARK SMILES IDX 45 67 42 68 38 69 39 70 40 71 41 72 67 73 68 74 76 75 69 76
REMARK SMILES IDX 75 77 77 78 74 79 70 80 71 81 72 82 73 83 52 84 53 85 61 86
REMARK SMILES IDX 54 87 60 88 62 89 59 90 55 91 56 92 57 93 58 94
REMARK H PARENT 18 6 23 28 82 47 50 58
REMARK Flexibility Score: inf
ROOT
ATOM      1  C   UNL A   1      35.943  20.871  24.818  1.00  0.00     0.023 C 
ENDROOT
BRANCH   1   2
ATOM      2  C   UNL A   1      35.008  21.166  25.994  1.00  0.00     0.116 C 
BRANCH   2   3
ATOM      3  N   UNL A   1      33.951  20.181  26.132  1.00  0.00    -0.356 N 
ATOM      4  C   UNL A   1      33.003  19.797  25.231  1.00  0.00     0.222 C 
ATOM      5  O   UNL A   1      32.145  18.984  25.579  1.00  0.00    -0.275 OA
ATOM      6  H   UNL A   1      33.913  19.724  27.003  1.00  0.00     0.163 HD
BRANCH   4   7
ATOM      7  C   UNL A   1      33.044  20.309  23.806  1.00  0.00     0.132 C 
BRANCH   7   8
ATOM      8  C   UNL A   1      32.122  21.489  23.476  1.00  0.00     0.132 C 
ATOM      9  N   UNL A   1      31.503  25.110  24.364  1.00  0.00    -0.308 N 
ATOM     10  C   UNL A   1      32.412  25.647  23.365  1.00  0.00     0.123 C 
ATOM     11  C   UNL A   1      31.225  23.681  24.298  1.00  0.00     0.129 C 
ATOM     12  C   UNL A   1      33.728  24.881  23.361  1.00  0.00     0.028 C 
ATOM     13  C   UNL A   1      32.483  22.801  24.178  1.00  0.00     0.044 C 
ATOM     14  C   UNL A   1      33.526  23.377  23.228  1.00  0.00     0.024 C 
ATOM     15  C   UNL A   1      33.030  22.930  21.862  1.00  0.00     0.164 C 
ATOM     16  O   UNL A   1      32.153  21.819  22.082  1.00  0.00    -0.377 OA
BRANCH   9  17
ATOM     17  C   UNL A   1      30.681  25.990  25.047  1.00  0.00     0.410 C 
ATOM     18  O   UNL A   1      29.613  26.395  24.601  1.00  0.00    -0.224 OA
BRANCH  17  19
ATOM     19  O   UNL A   1      31.212  26.378  26.234  1.00  0.00    -0.444 OA
BRANCH  19  20
ATOM     20  C   UNL A   1      31.856  27.672  26.386  1.00  0.00     0.106 C 
ATOM     21  C   UNL A   1      33.361  27.364  26.380  1.00  0.00     0.056 C 
ATOM     22  C   UNL A   1      31.467  28.269  27.740  1.00  0.00     0.056 C 
ATOM     23  C   UNL A   1      31.570  28.648  25.235  1.00  0.00     0.056 C 
ENDBRANCH  19  20
ENDBRANCH  17  19
ENDBRANCH   9  17
ENDBRANCH   7   8
ENDBRANCH   4   7
ENDBRANCH   2   3
ENDBRANCH   1   2
BRANCH   1  24
ATOM     24  C   UNL A   1      36.917  21.993  24.458  1.00  0.00     0.023 C 
BRANCH  24  25
ATOM     25  C   UNL A   1      37.685  22.582  25.633  1.00  0.00     0.116 C 
BRANCH  25  26
ATOM     26  N   UNL A   1      38.814  21.759  26.036  1.00  0.00    -0.352 N 
ATOM     27  C   UNL A   1      40.010  22.132  26.598  1.00  0.00     0.251 C 
ATOM     28  H   UNL A   1      38.705  20.792  25.883  1.00  0.00     0.163 HD
ATOM     29  O   UNL A   1      40.903  21.299  26.730  1.00  0.00    -0.269 OA
BRANCH  27  30
ATOM     30  C   UNL A   1      40.232  23.536  27.010  1.00  0.00     0.039 A 
ATOM     31  C   UNL A   1      40.636  23.798  28.321  1.00  0.00     0.014 A 
ATOM     32  C   UNL A   1      40.051  24.589  26.109  1.00  0.00     0.014 A 
ATOM     33  C   UNL A   1      40.925  25.108  28.709  1.00  0.00     0.010 A 
ATOM     34  C   UNL A   1      40.406  25.884  26.476  1.00  0.00     0.010 A 
ATOM     35  C   UNL A   1      40.848  26.156  27.779  1.00  0.00    -0.014 A 
BRANCH  35  36
ATOM     36  C   UNL A   1      41.224  27.545  28.149  1.00  0.00     0.031 A 
ATOM     37  C   UNL A   1      42.669  27.962  28.142  1.00  0.00     0.074 A 
ATOM     38  C   UNL A   1      40.273  28.404  28.566  1.00  0.00     0.049 A 
ATOM     39  N   UNL A   1      43.208  29.092  28.522  1.00  0.00    -0.248 NA
ATOM     40  C   UNL A   1      43.636  26.958  27.676  1.00  0.00     0.031 C 
ATOM     41  C   UNL A   1      38.845  28.098  28.668  1.00  0.00     0.029 A 
ATOM     42  N   UNL A   1      40.366  29.702  28.998  1.00  0.00    -0.354 N 
ATOM     43  C   UNL A   1      44.580  28.932  28.353  1.00  0.00     0.074 A 
ATOM     44  C   UNL A   1      44.787  27.572  27.900  1.00  0.00     0.031 C 
ATOM     45  C   UNL A   1      38.195  29.181  29.123  1.00  0.00     0.029 A 
ATOM     46  C   UNL A   1      39.161  30.244  29.381  1.00  0.00     0.049 A 
ATOM     47  H   UNL A   1      41.215  30.199  29.032  1.00  0.00     0.167 HD
ATOM     48  C   UNL A   1      45.570  29.841  28.535  1.00  0.00     0.034 A 
ATOM     49  C   UNL A   1      38.869  31.455  29.892  1.00  0.00     0.034 A 
ATOM     50  C   UNL A   1      45.343  31.195  28.982  1.00  0.00     0.049 A 
ATOM     51  C   UNL A   1      39.981  32.451  30.089  1.00  0.00     0.074 A 
ATOM     52  C   UNL A   1      46.264  32.214  29.156  1.00  0.00     0.029 A 
ATOM     53  N   UNL A   1      44.105  31.718  29.334  1.00  0.00    -0.354 N 
ATOM     54  N   UNL A   1      41.269  32.302  29.882  1.00  0.00    -0.248 NA
ATOM     55  C   UNL A   1      39.598  33.782  30.577  1.00  0.00     0.031 C 
ATOM     56  C   UNL A   1      45.592  33.333  29.664  1.00  0.00     0.029 A 
ATOM     57  C   UNL A   1      44.241  33.036  29.745  1.00  0.00     0.049 A 
ATOM     58  H   UNL A   1      43.254  31.225  29.296  1.00  0.00     0.167 HD
ATOM     59  C   UNL A   1      41.848  33.527  30.195  1.00  0.00     0.074 A 
ATOM     60  C   UNL A   1      40.766  34.408  30.588  1.00  0.00     0.031 C 
ATOM     61  C   UNL A   1      43.155  33.895  30.156  1.00  0.00     0.034 A 
BRANCH  48  62
ATOM     62  C   UNL A   1      46.984  29.379  28.269  1.00  0.00     0.023 A 
ATOM     63  C   UNL A   1      47.417  29.049  26.971  1.00  0.00     0.031 A 
ATOM     64  C   UNL A   1      47.894  29.212  29.327  1.00  0.00     0.131 A 
ATOM     65  C   UNL A   1      48.685  28.483  26.778  1.00  0.00     0.055 A 
ATOM     66  C   UNL A   1      49.189  28.729  29.114  1.00  0.00     0.041 A 
ATOM     67  F   UNL A   1      47.535  29.491  30.589  1.00  0.00    -0.206 F 
ATOM     68  C   UNL A   1      49.584  28.343  27.837  1.00  0.00     0.022 A 
BRANCH  65  69
ATOM     69  S   UNL A   1      49.076  27.779  25.152  1.00  0.00     0.124 S 
ATOM     70  O   UNL A   1      49.139  26.351  25.457  1.00  0.00    -0.237 OA
ATOM     71  O   UNL A   1      47.945  28.211  24.340  1.00  0.00    -0.237 OA
ATOM     72  O   UNL A   1      50.360  28.392  24.813  1.00  0.00    -0.744 OA
ENDBRANCH  65  69
ENDBRANCH  48  62
BRANCH  49  73
ATOM     73  C   UNL A   1      37.468  31.790  30.266  1.00  0.00     0.023 A 
ATOM     74  C   UNL A   1      36.563  32.286  29.317  1.00  0.00     0.031 A 
ATOM     75  C   UNL A   1      37.019  31.631  31.589  1.00  0.00     0.131 A 
ATOM     76  C   UNL A   1      35.263  32.640  29.710  1.00  0.00     0.055 A 
ATOM     77  C   UNL A   1      35.713  31.943  31.967  1.00  0.00     0.041 A 
ATOM     78  F   UNL A   1      37.845  31.147  32.532  1.00  0.00    -0.206 F 
ATOM     79  C   UNL A   1      34.828  32.462  31.026  1.00  0.00     0.022 A 
BRANCH  76  80
ATOM     80  S   UNL A   1      34.157  33.390  28.483  1.00  0.00     0.124 S 
ATOM     81  O   UNL A   1      33.307  34.229  29.321  1.00  0.00    -0.237 OA
ATOM     82  O   UNL A   1      35.098  34.093  27.617  1.00  0.00    -0.237 OA
ATOM     83  O   UNL A   1      33.494  32.240  27.874  1.00  0.00    -0.744 OA
ENDBRANCH  76  80
ENDBRANCH  49  73
BRANCH  61  84
ATOM     84  C   UNL A   1      43.470  35.323  30.522  1.00  0.00     0.023 A 
ATOM     85  C   UNL A   1      43.437  36.354  29.567  1.00  0.00     0.031 A 
ATOM     86  C   UNL A   1      43.825  35.651  31.842  1.00  0.00     0.131 A 
ATOM     87  C   UNL A   1      43.806  37.657  29.935  1.00  0.00     0.055 A 
ATOM     88  C   UNL A   1      44.139  36.960  32.214  1.00  0.00     0.041 A 
ATOM     89  F   UNL A   1      43.875  34.705  32.792  1.00  0.00    -0.206 F 
ATOM     90  C   UNL A   1      44.143  37.969  31.254  1.00  0.00     0.022 A 
BRANCH  87  91
ATOM     91  S   UNL A   1      43.922  38.927  28.644  1.00  0.00     0.124 S 
ATOM     92  O   UNL A   1      42.752  39.753  28.925  1.00  0.00    -0.237 OA
ATOM     93  O   UNL A   1      45.218  39.538  28.922  1.00  0.00    -0.237 OA
ATOM     94  O   UNL A   1      43.855  38.160  27.402  1.00  0.00    -0.744 OA
ENDBRANCH  87  91
ENDBRANCH  61  84
ENDBRANCH  35  36
ENDBRANCH  27  30
ENDBRANCH  25  26
ENDBRANCH  24  25
ENDBRANCH   1  24
TORSDOF 18
ENDMDL
