MODEL 1
REMARK VINA RESULT:     -11.1      0.000      0.000
REMARK SMILES O=C(NCCCCNC(=O)[C@H]1CS[C@H](c2cc(F)ccc2F)[NH2+]1)c1ccc(-c2c3nc(c(-c4cc(S(=O)(=O)[O-])ccc4F)c4ccc([nH]4)c(-c4cc(S(=O)(=O)[O-])ccc4F)c4nc(c(-c5cc(S(=O)(=O)[O-])ccc5F)c5ccc2[nH]5)C=C4)C=C3)cc1
REMARK SMILES IDX 4 1 3 2 1 3 2 4 24 6 25 7 86 8 26 9 85 10 27 11 28 12 29 13
REMARK SMILES IDX 79 14 30 15 84 16 78 17 80 18 31 19 83 20 77 21 76 22 32 24
REMARK SMILES IDX 64 25 44 26 63 27 45 28 48 29 62 30 81 31 46 32 47 33 61 35
REMARK SMILES IDX 82 36 49 37 33 38 34 39 42 40 35 41 41 42 43 43 40 44 36 45
REMARK SMILES IDX 37 46 38 47 39 48 65 49 66 50 74 51 67 52 73 53 75 54 72 55
REMARK SMILES IDX 68 56 69 57 70 58 71 59 50 60 51 61 59 62 52 63 58 64 60 65
REMARK SMILES IDX 57 66 53 67 54 68 55 69 56 70 5 71 6 72 7 73 8 74 9 75 10 77
REMARK SMILES IDX 11 78 12 79 23 80 13 81 14 82 15 85 16 86 21 87 17 88 20 89
REMARK SMILES IDX 22 90 18 91 19 92
REMARK H PARENT 3 5 80 23 48 34 8 76 23 83 23 84
REMARK Flexibility Score: inf
ROOT
ATOM      1  C   UNL A   1      34.290  33.397  28.889  1.00  0.00     0.116 C 
ENDROOT
BRANCH   1   2
ATOM      2  N   UNL A   1      33.813  32.332  28.015  1.00  0.00    -0.352 N 
ATOM      3  O   UNL A   1      33.936  30.390  26.866  1.00  0.00    -0.269 OA
ATOM      4  C   UNL A   1      34.430  31.143  27.702  1.00  0.00     0.251 C 
ATOM      5  H   UNL A   1      32.936  32.483  27.595  1.00  0.00     0.163 HD
BRANCH   4   6
ATOM      6  C   UNL A   1      35.714  30.802  28.352  1.00  0.00     0.039 A 
ATOM      7  C   UNL A   1      36.888  31.462  27.985  1.00  0.00     0.014 A 
ATOM      8  C   UNL A   1      35.751  29.772  29.296  1.00  0.00     0.014 A 
ATOM      9  C   UNL A   1      38.113  30.983  28.431  1.00  0.00     0.010 A 
ATOM     10  C   UNL A   1      36.980  29.350  29.812  1.00  0.00     0.010 A 
ATOM     11  C   UNL A   1      38.175  29.920  29.347  1.00  0.00    -0.014 A 
BRANCH  11  12
ATOM     12  C   UNL A   1      39.506  29.435  29.800  1.00  0.00     0.031 A 
ATOM     13  C   UNL A   1      40.187  30.048  30.994  1.00  0.00     0.074 A 
ATOM     14  C   UNL A   1      40.068  28.394  29.157  1.00  0.00     0.049 A 
ATOM     15  N   UNL A   1      41.324  29.718  31.555  1.00  0.00    -0.248 NA
ATOM     16  C   UNL A   1      39.513  31.187  31.633  1.00  0.00     0.031 C 
ATOM     17  C   UNL A   1      39.499  27.724  27.984  1.00  0.00     0.029 A 
ATOM     18  N   UNL A   1      41.219  27.695  29.412  1.00  0.00    -0.354 N 
ATOM     19  C   UNL A   1      41.515  30.622  32.596  1.00  0.00     0.074 A 
ATOM     20  C   UNL A   1      40.388  31.532  32.567  1.00  0.00     0.031 C 
ATOM     21  C   UNL A   1      40.271  26.677  27.659  1.00  0.00     0.029 A 
ATOM     22  C   UNL A   1      41.420  26.637  28.556  1.00  0.00     0.049 A 
ATOM     23  H   UNL A   1      41.843  27.927  30.137  1.00  0.00     0.167 HD
ATOM     24  C   UNL A   1      42.532  30.681  33.493  1.00  0.00     0.034 A 
ATOM     25  C   UNL A   1      42.420  25.737  28.494  1.00  0.00     0.034 A 
ATOM     26  C   UNL A   1      43.639  29.753  33.516  1.00  0.00     0.049 A 
ATOM     27  C   UNL A   1      43.534  25.825  29.500  1.00  0.00     0.074 A 
ATOM     28  C   UNL A   1      44.704  29.700  34.399  1.00  0.00     0.029 A 
ATOM     29  N   UNL A   1      43.825  28.712  32.614  1.00  0.00    -0.354 N 
ATOM     30  N   UNL A   1      43.693  26.680  30.483  1.00  0.00    -0.248 NA
ATOM     31  C   UNL A   1      44.599  24.822  29.389  1.00  0.00     0.031 C 
ATOM     32  C   UNL A   1      45.562  28.670  33.996  1.00  0.00     0.029 A 
ATOM     33  C   UNL A   1      44.998  28.031  32.903  1.00  0.00     0.049 A 
ATOM     34  H   UNL A   1      43.212  28.490  31.875  1.00  0.00     0.167 HD
ATOM     35  C   UNL A   1      44.871  26.306  31.121  1.00  0.00     0.074 A 
ATOM     36  C   UNL A   1      45.366  25.135  30.424  1.00  0.00     0.031 C 
ATOM     37  C   UNL A   1      45.488  26.877  32.187  1.00  0.00     0.034 A 
BRANCH  24  38
ATOM     38  C   UNL A   1      42.517  31.819  34.487  1.00  0.00     0.023 A 
ATOM     39  C   UNL A   1      41.988  31.672  35.782  1.00  0.00     0.031 A 
ATOM     40  C   UNL A   1      43.022  33.082  34.123  1.00  0.00     0.131 A 
ATOM     41  C   UNL A   1      41.910  32.783  36.638  1.00  0.00     0.055 A 
ATOM     42  C   UNL A   1      43.011  34.163  35.006  1.00  0.00     0.041 A 
ATOM     43  F   UNL A   1      43.523  33.289  32.896  1.00  0.00    -0.206 F 
ATOM     44  C   UNL A   1      42.439  34.023  36.267  1.00  0.00     0.022 A 
BRANCH  41  45
ATOM     45  S   UNL A   1      40.980  32.622  38.187  1.00  0.00     0.124 S 
ATOM     46  O   UNL A   1      40.864  34.015  38.611  1.00  0.00    -0.237 OA
ATOM     47  O   UNL A   1      39.745  31.982  37.749  1.00  0.00    -0.237 OA
ATOM     48  O   UNL A   1      41.848  31.795  39.024  1.00  0.00    -0.744 OA
ENDBRANCH  41  45
ENDBRANCH  24  38
BRANCH  25  49
ATOM     49  C   UNL A   1      42.419  24.690  27.436  1.00  0.00     0.023 A 
ATOM     50  C   UNL A   1      41.622  23.542  27.552  1.00  0.00     0.031 A 
ATOM     51  C   UNL A   1      43.232  24.819  26.295  1.00  0.00     0.131 A 
ATOM     52  C   UNL A   1      41.680  22.549  26.564  1.00  0.00     0.055 A 
ATOM     53  C   UNL A   1      43.249  23.852  25.290  1.00  0.00     0.041 A 
ATOM     54  F   UNL A   1      44.007  25.903  26.132  1.00  0.00    -0.206 F 
ATOM     55  C   UNL A   1      42.478  22.702  25.426  1.00  0.00     0.022 A 
BRANCH  52  56
ATOM     56  S   UNL A   1      40.744  21.016  26.816  1.00  0.00     0.124 S 
ATOM     57  O   UNL A   1      39.444  21.366  26.258  1.00  0.00    -0.237 OA
ATOM     58  O   UNL A   1      41.533  20.052  26.054  1.00  0.00    -0.237 OA
ATOM     59  O   UNL A   1      40.774  20.834  28.266  1.00  0.00    -0.744 OA
ENDBRANCH  52  56
ENDBRANCH  25  49
BRANCH  37  60
ATOM     60  C   UNL A   1      46.748  26.206  32.674  1.00  0.00     0.023 A 
ATOM     61  C   UNL A   1      48.007  26.521  32.133  1.00  0.00     0.031 A 
ATOM     62  C   UNL A   1      46.680  25.209  33.662  1.00  0.00     0.131 A 
ATOM     63  C   UNL A   1      49.140  25.797  32.534  1.00  0.00     0.055 A 
ATOM     64  C   UNL A   1      47.820  24.534  34.100  1.00  0.00     0.041 A 
ATOM     65  F   UNL A   1      45.504  24.870  34.211  1.00  0.00    -0.206 F 
ATOM     66  C   UNL A   1      49.056  24.815  33.525  1.00  0.00     0.022 A 
BRANCH  63  67
ATOM     67  S   UNL A   1      50.708  26.084  31.668  1.00  0.00     0.124 S 
ATOM     68  O   UNL A   1      50.285  26.899  30.535  1.00  0.00    -0.237 OA
ATOM     69  O   UNL A   1      51.504  26.766  32.684  1.00  0.00    -0.237 OA
ATOM     70  O   UNL A   1      51.162  24.737  31.327  1.00  0.00    -0.744 OA
ENDBRANCH  63  67
ENDBRANCH  37  60
ENDBRANCH  11  12
ENDBRANCH   4   6
ENDBRANCH   1   2
BRANCH   1  71
ATOM     71  C   UNL A   1      34.559  34.705  28.160  1.00  0.00     0.023 C 
BRANCH  71  72
ATOM     72  C   UNL A   1      33.720  35.897  28.625  1.00  0.00     0.023 C 
BRANCH  72  73
ATOM     73  C   UNL A   1      32.883  35.651  29.883  1.00  0.00     0.116 C 
BRANCH  73  74
ATOM     74  N   UNL A   1      32.850  36.804  30.762  1.00  0.00    -0.351 N 
ATOM     75  C   UNL A   1      33.432  36.994  31.982  1.00  0.00     0.279 C 
ATOM     76  H   UNL A   1      32.327  37.568  30.427  1.00  0.00     0.163 HD
ATOM     77  O   UNL A   1      33.296  38.108  32.498  1.00  0.00    -0.268 OA
BRANCH  75  78
ATOM     78  C   UNL A   1      34.298  35.903  32.649  1.00  0.00     0.283 C 
ATOM     79  C   UNL A   1      33.412  34.721  33.060  1.00  0.00     0.151 C 
ATOM     80  N   UNL A   1      35.371  35.405  31.748  1.00  0.00    -0.320 N 
ATOM     81  S   UNL A   1      34.415  33.230  32.846  1.00  0.00    -0.087 SA
ATOM     82  C   UNL A   1      35.878  34.140  32.273  1.00  0.00     0.277 C 
ATOM     83  H   UNL A   1      36.128  36.087  31.705  1.00  0.00     0.348 HD
ATOM     84  H   UNL A   1      34.997  35.264  30.809  1.00  0.00     0.348 HD
BRANCH  82  85
ATOM     85  C   UNL A   1      36.952  34.175  33.345  1.00  0.00     0.059 A 
ATOM     86  C   UNL A   1      36.576  33.802  34.656  1.00  0.00     0.053 A 
ATOM     87  C   UNL A   1      38.284  34.567  33.157  1.00  0.00     0.133 A 
ATOM     88  C   UNL A   1      37.475  33.884  35.716  1.00  0.00     0.123 A 
ATOM     89  C   UNL A   1      39.181  34.655  34.227  1.00  0.00     0.043 A 
ATOM     90  F   UNL A   1      38.760  34.878  31.946  1.00  0.00    -0.206 F 
ATOM     91  F   UNL A   1      37.073  33.546  36.948  1.00  0.00    -0.207 F 
ATOM     92  C   UNL A   1      38.774  34.323  35.516  1.00  0.00     0.042 A 
ENDBRANCH  82  85
ENDBRANCH  75  78
ENDBRANCH  73  74
ENDBRANCH  72  73
ENDBRANCH  71  72
ENDBRANCH   1  71
TORSDOF 15
ENDMDL
MODEL 2
REMARK VINA RESULT:     -11.0      1.896      2.211
REMARK SMILES O=C(NCCCCNC(=O)[C@H]1CS[C@H](c2cc(F)ccc2F)[NH2+]1)c1ccc(-c2c3nc(c(-c4cc(S(=O)(=O)[O-])ccc4F)c4ccc([nH]4)c(-c4cc(S(=O)(=O)[O-])ccc4F)c4nc(c(-c5cc(S(=O)(=O)[O-])ccc5F)c5ccc2[nH]5)C=C4)C=C3)cc1
REMARK SMILES IDX 4 1 3 2 1 3 2 4 24 6 25 7 86 8 26 9 85 10 27 11 28 12 29 13
REMARK SMILES IDX 79 14 30 15 84 16 78 17 80 18 31 19 83 20 77 21 76 22 32 24
REMARK SMILES IDX 64 25 44 26 63 27 45 28 48 29 62 30 81 31 46 32 47 33 61 35
REMARK SMILES IDX 82 36 49 37 33 38 34 39 42 40 35 41 41 42 43 43 40 44 36 45
REMARK SMILES IDX 37 46 38 47 39 48 65 49 66 50 74 51 67 52 73 53 75 54 72 55
REMARK SMILES IDX 68 56 69 57 70 58 71 59 50 60 51 61 59 62 52 63 58 64 60 65
REMARK SMILES IDX 57 66 53 67 54 68 55 69 56 70 5 71 6 72 7 73 8 74 9 75 10 77
REMARK SMILES IDX 11 78 12 79 23 80 13 81 14 82 15 85 16 86 21 87 17 88 20 89
REMARK SMILES IDX 22 90 18 91 19 92
REMARK H PARENT 3 5 80 23 48 34 8 76 23 83 23 84
REMARK Flexibility Score: inf
ROOT
ATOM      1  C   UNL A   1      34.297  33.376  28.849  1.00  0.00     0.116 C 
ENDROOT
BRANCH   1   2
ATOM      2  N   UNL A   1      33.823  32.330  27.952  1.00  0.00    -0.352 N 
ATOM      3  O   UNL A   1      33.936  30.395  26.790  1.00  0.00    -0.269 OA
ATOM      4  C   UNL A   1      34.421  31.129  27.647  1.00  0.00     0.251 C 
ATOM      5  H   UNL A   1      32.963  32.506  27.506  1.00  0.00     0.163 HD
BRANCH   4   6
ATOM      6  C   UNL A   1      35.676  30.752  28.333  1.00  0.00     0.039 A 
ATOM      7  C   UNL A   1      36.886  31.340  27.963  1.00  0.00     0.014 A 
ATOM      8  C   UNL A   1      35.646  29.760  29.318  1.00  0.00     0.014 A 
ATOM      9  C   UNL A   1      38.079  30.821  28.450  1.00  0.00     0.010 A 
ATOM     10  C   UNL A   1      36.844  29.300  29.873  1.00  0.00     0.010 A 
ATOM     11  C   UNL A   1      38.074  29.792  29.408  1.00  0.00    -0.014 A 
BRANCH  11  12
ATOM     12  C   UNL A   1      39.371  29.263  29.903  1.00  0.00     0.031 A 
ATOM     13  C   UNL A   1      39.993  29.796  31.166  1.00  0.00     0.074 A 
ATOM     14  C   UNL A   1      39.955  28.251  29.234  1.00  0.00     0.049 A 
ATOM     15  N   UNL A   1      41.093  29.417  31.768  1.00  0.00    -0.248 NA
ATOM     16  C   UNL A   1      39.299  30.907  31.832  1.00  0.00     0.031 C 
ATOM     17  C   UNL A   1      39.444  27.658  27.994  1.00  0.00     0.029 A 
ATOM     18  N   UNL A   1      41.082  27.520  29.510  1.00  0.00    -0.354 N 
ATOM     19  C   UNL A   1      41.237  30.257  32.868  1.00  0.00     0.074 A 
ATOM     20  C   UNL A   1      40.126  31.185  32.831  1.00  0.00     0.031 C 
ATOM     21  C   UNL A   1      40.219  26.619  27.652  1.00  0.00     0.029 A 
ATOM     22  C   UNL A   1      41.316  26.510  28.607  1.00  0.00     0.049 A 
ATOM     23  H   UNL A   1      41.667  27.702  30.280  1.00  0.00     0.167 HD
ATOM     24  C   UNL A   1      42.204  30.249  33.821  1.00  0.00     0.034 A 
ATOM     25  C   UNL A   1      42.307  25.599  28.548  1.00  0.00     0.034 A 
ATOM     26  C   UNL A   1      43.297  29.304  33.851  1.00  0.00     0.049 A 
ATOM     27  C   UNL A   1      43.365  25.613  29.616  1.00  0.00     0.074 A 
ATOM     28  C   UNL A   1      44.311  29.185  34.785  1.00  0.00     0.029 A 
ATOM     29  N   UNL A   1      43.520  28.314  32.901  1.00  0.00    -0.354 N 
ATOM     30  N   UNL A   1      43.480  26.408  30.653  1.00  0.00    -0.248 NA
ATOM     31  C   UNL A   1      44.422  24.602  29.505  1.00  0.00     0.031 C 
ATOM     32  C   UNL A   1      45.177  28.166  34.371  1.00  0.00     0.029 A 
ATOM     33  C   UNL A   1      44.667  27.599  33.215  1.00  0.00     0.049 A 
ATOM     34  H   UNL A   1      42.945  28.144  32.120  1.00  0.00     0.167 HD
ATOM     35  C   UNL A   1      44.616  25.981  31.332  1.00  0.00     0.074 A 
ATOM     36  C   UNL A   1      45.134  24.844  30.597  1.00  0.00     0.031 C 
ATOM     37  C   UNL A   1      45.181  26.480  32.461  1.00  0.00     0.034 A 
BRANCH  24  38
ATOM     38  C   UNL A   1      42.149  31.329  34.877  1.00  0.00     0.023 A 
ATOM     39  C   UNL A   1      42.846  32.543  34.740  1.00  0.00     0.031 A 
ATOM     40  C   UNL A   1      41.404  31.130  36.054  1.00  0.00     0.131 A 
ATOM     41  C   UNL A   1      42.841  33.477  35.788  1.00  0.00     0.055 A 
ATOM     42  C   UNL A   1      41.341  32.095  37.060  1.00  0.00     0.041 A 
ATOM     43  F   UNL A   1      40.732  29.984  36.251  1.00  0.00    -0.206 F 
ATOM     44  C   UNL A   1      42.075  33.271  36.939  1.00  0.00     0.022 A 
BRANCH  41  45
ATOM     45  S   UNL A   1      43.962  34.900  35.689  1.00  0.00     0.124 S 
ATOM     46  O   UNL A   1      43.678  35.591  36.945  1.00  0.00    -0.237 OA
ATOM     47  O   UNL A   1      45.271  34.264  35.592  1.00  0.00    -0.237 OA
ATOM     48  O   UNL A   1      43.519  35.603  34.487  1.00  0.00    -0.744 OA
ENDBRANCH  41  45
ENDBRANCH  24  38
BRANCH  25  49
ATOM     49  C   UNL A   1      42.351  24.615  27.432  1.00  0.00     0.023 A 
ATOM     50  C   UNL A   1      41.576  23.446  27.465  1.00  0.00     0.031 A 
ATOM     51  C   UNL A   1      43.187  24.823  26.320  1.00  0.00     0.131 A 
ATOM     52  C   UNL A   1      41.676  22.512  26.423  1.00  0.00     0.055 A 
ATOM     53  C   UNL A   1      43.246  23.916  25.263  1.00  0.00     0.041 A 
ATOM     54  F   UNL A   1      43.943  25.930  26.237  1.00  0.00    -0.206 F 
ATOM     55  C   UNL A   1      42.496  22.745  25.316  1.00  0.00     0.022 A 
BRANCH  52  56
ATOM     56  S   UNL A   1      40.767  20.950  26.566  1.00  0.00     0.124 S 
ATOM     57  O   UNL A   1      41.586  20.053  25.761  1.00  0.00    -0.237 OA
ATOM     58  O   UNL A   1      40.786  20.720  28.008  1.00  0.00    -0.237 OA
ATOM     59  O   UNL A   1      39.454  21.269  26.007  1.00  0.00    -0.744 OA
ENDBRANCH  52  56
ENDBRANCH  25  49
BRANCH  37  60
ATOM     60  C   UNL A   1      46.404  25.764  32.976  1.00  0.00     0.023 A 
ATOM     61  C   UNL A   1      46.301  24.658  33.839  1.00  0.00     0.031 A 
ATOM     62  C   UNL A   1      47.688  26.222  32.633  1.00  0.00     0.131 A 
ATOM     63  C   UNL A   1      47.461  24.088  34.383  1.00  0.00     0.055 A 
ATOM     64  C   UNL A   1      48.840  25.613  33.133  1.00  0.00     0.041 A 
ATOM     65  F   UNL A   1      47.842  27.274  31.815  1.00  0.00    -0.206 F 
ATOM     66  C   UNL A   1      48.730  24.550  34.025  1.00  0.00     0.022 A 
BRANCH  63  67
ATOM     67  S   UNL A   1      47.286  22.801  35.651  1.00  0.00     0.124 S 
ATOM     68  O   UNL A   1      48.336  21.861  35.275  1.00  0.00    -0.237 OA
ATOM     69  O   UNL A   1      47.510  23.548  36.884  1.00  0.00    -0.237 OA
ATOM     70  O   UNL A   1      45.921  22.315  35.460  1.00  0.00    -0.744 OA
ENDBRANCH  63  67
ENDBRANCH  37  60
ENDBRANCH  11  12
ENDBRANCH   4   6
ENDBRANCH   1   2
BRANCH   1  71
ATOM     71  C   UNL A   1      34.623  34.682  28.140  1.00  0.00     0.023 C 
BRANCH  71  72
ATOM     72  C   UNL A   1      33.845  35.904  28.631  1.00  0.00     0.023 C 
BRANCH  72  73
ATOM     73  C   UNL A   1      32.949  35.659  29.847  1.00  0.00     0.116 C 
BRANCH  73  74
ATOM     74  N   UNL A   1      32.905  36.799  30.743  1.00  0.00    -0.351 N 
ATOM     75  C   UNL A   1      33.461  36.965  31.978  1.00  0.00     0.279 C 
ATOM     76  H   UNL A   1      32.395  37.571  30.409  1.00  0.00     0.163 HD
ATOM     77  O   UNL A   1      33.322  38.072  32.509  1.00  0.00    -0.268 OA
BRANCH  75  78
ATOM     78  C   UNL A   1      34.306  35.858  32.647  1.00  0.00     0.283 C 
ATOM     79  C   UNL A   1      33.405  34.673  33.014  1.00  0.00     0.151 C 
ATOM     80  N   UNL A   1      35.398  35.371  31.764  1.00  0.00    -0.320 N 
ATOM     81  S   UNL A   1      34.406  33.182  32.798  1.00  0.00    -0.087 SA
ATOM     82  C   UNL A   1      35.887  34.095  32.278  1.00  0.00     0.277 C 
ATOM     83  H   UNL A   1      36.159  36.050  31.752  1.00  0.00     0.348 HD
ATOM     84  H   UNL A   1      35.047  35.249  30.813  1.00  0.00     0.348 HD
BRANCH  82  85
ATOM     85  C   UNL A   1      36.934  34.104  33.377  1.00  0.00     0.059 A 
ATOM     86  C   UNL A   1      36.519  33.730  34.676  1.00  0.00     0.053 A 
ATOM     87  C   UNL A   1      38.276  34.475  33.225  1.00  0.00     0.133 A 
ATOM     88  C   UNL A   1      37.392  33.790  35.758  1.00  0.00     0.123 A 
ATOM     89  C   UNL A   1      39.148  34.541  34.317  1.00  0.00     0.043 A 
ATOM     90  F   UNL A   1      38.788  34.786  32.028  1.00  0.00    -0.206 F 
ATOM     91  F   UNL A   1      36.954  33.451  36.978  1.00  0.00    -0.207 F 
ATOM     92  C   UNL A   1      38.703  34.208  35.593  1.00  0.00     0.042 A 
ENDBRANCH  82  85
ENDBRANCH  75  78
ENDBRANCH  73  74
ENDBRANCH  72  73
ENDBRANCH  71  72
ENDBRANCH   1  71
TORSDOF 15
ENDMDL
MODEL 3
REMARK VINA RESULT:     -10.9      5.635     11.078
REMARK SMILES O=C(NCCCCNC(=O)[C@H]1CS[C@H](c2cc(F)ccc2F)[NH2+]1)c1ccc(-c2c3nc(c(-c4cc(S(=O)(=O)[O-])ccc4F)c4ccc([nH]4)c(-c4cc(S(=O)(=O)[O-])ccc4F)c4nc(c(-c5cc(S(=O)(=O)[O-])ccc5F)c5ccc2[nH]5)C=C4)C=C3)cc1
REMARK SMILES IDX 4 1 3 2 1 3 2 4 24 6 25 7 86 8 26 9 85 10 27 11 28 12 29 13
REMARK SMILES IDX 79 14 30 15 84 16 78 17 80 18 31 19 83 20 77 21 76 22 32 24
REMARK SMILES IDX 64 25 44 26 63 27 45 28 48 29 62 30 81 31 46 32 47 33 61 35
REMARK SMILES IDX 82 36 49 37 33 38 34 39 42 40 35 41 41 42 43 43 40 44 36 45
REMARK SMILES IDX 37 46 38 47 39 48 65 49 66 50 74 51 67 52 73 53 75 54 72 55
REMARK SMILES IDX 68 56 69 57 70 58 71 59 50 60 51 61 59 62 52 63 58 64 60 65
REMARK SMILES IDX 57 66 53 67 54 68 55 69 56 70 5 71 6 72 7 73 8 74 9 75 10 77
REMARK SMILES IDX 11 78 12 79 23 80 13 81 14 82 15 85 16 86 21 87 17 88 20 89
REMARK SMILES IDX 22 90 18 91 19 92
REMARK H PARENT 3 5 80 23 48 34 8 76 23 83 23 84
REMARK Flexibility Score: inf
ROOT
ATOM      1  C   UNL A   1      36.631  22.106  25.231  1.00  0.00     0.116 C 
ENDROOT
BRANCH   1   2
ATOM      2  N   UNL A   1      37.571  20.999  25.363  1.00  0.00    -0.352 N 
ATOM      3  O   UNL A   1      39.550  20.012  25.826  1.00  0.00    -0.269 OA
ATOM      4  C   UNL A   1      38.848  21.019  25.874  1.00  0.00     0.251 C 
ATOM      5  H   UNL A   1      37.249  20.124  25.046  1.00  0.00     0.163 HD
BRANCH   4   6
ATOM      6  C   UNL A   1      39.379  22.276  26.444  1.00  0.00     0.039 A 
ATOM      7  C   UNL A   1      38.836  23.505  26.069  1.00  0.00     0.014 A 
ATOM      8  C   UNL A   1      40.467  22.224  27.320  1.00  0.00     0.014 A 
ATOM      9  C   UNL A   1      39.483  24.680  26.430  1.00  0.00     0.010 A 
ATOM     10  C   UNL A   1      41.063  23.412  27.754  1.00  0.00     0.010 A 
ATOM     11  C   UNL A   1      40.606  24.649  27.274  1.00  0.00    -0.014 A 
BRANCH  11  12
ATOM     12  C   UNL A   1      41.271  25.928  27.636  1.00  0.00     0.031 A 
ATOM     13  C   UNL A   1      42.632  26.274  27.094  1.00  0.00     0.074 A 
ATOM     14  C   UNL A   1      40.607  26.805  28.413  1.00  0.00     0.049 A 
ATOM     15  N   UNL A   1      43.337  27.364  27.266  1.00  0.00    -0.248 NA
ATOM     16  C   UNL A   1      43.293  25.259  26.262  1.00  0.00     0.031 C 
ATOM     17  C   UNL A   1      39.283  26.574  28.999  1.00  0.00     0.029 A 
ATOM     18  N   UNL A   1      40.932  28.073  28.819  1.00  0.00    -0.354 N 
ATOM     19  C   UNL A   1      44.534  27.158  26.587  1.00  0.00     0.074 A 
ATOM     20  C   UNL A   1      44.469  25.825  26.025  1.00  0.00     0.031 C 
ATOM     21  C   UNL A   1      38.886  27.684  29.637  1.00  0.00     0.029 A 
ATOM     22  C   UNL A   1      39.947  28.682  29.562  1.00  0.00     0.049 A 
ATOM     23  H   UNL A   1      41.788  28.507  28.602  1.00  0.00     0.167 HD
ATOM     24  C   UNL A   1      45.584  28.007  26.443  1.00  0.00     0.034 A 
ATOM     25  C   UNL A   1      39.903  29.903  30.127  1.00  0.00     0.034 A 
ATOM     26  C   UNL A   1      45.624  29.340  26.998  1.00  0.00     0.049 A 
ATOM     27  C   UNL A   1      41.080  30.823  29.951  1.00  0.00     0.074 A 
ATOM     28  C   UNL A   1      46.621  30.294  26.886  1.00  0.00     0.029 A 
ATOM     29  N   UNL A   1      44.620  29.911  27.771  1.00  0.00    -0.354 N 
ATOM     30  N   UNL A   1      42.199  30.615  29.298  1.00  0.00    -0.248 NA
ATOM     31  C   UNL A   1      40.983  32.142  30.586  1.00  0.00     0.031 C 
ATOM     32  C   UNL A   1      46.249  31.414  27.638  1.00  0.00     0.029 A 
ATOM     33  C   UNL A   1      44.986  31.190  28.163  1.00  0.00     0.049 A 
ATOM     34  H   UNL A   1      43.771  29.471  28.007  1.00  0.00     0.167 HD
ATOM     35  C   UNL A   1      42.935  31.788  29.428  1.00  0.00     0.074 A 
ATOM     36  C   UNL A   1      42.120  32.704  30.203  1.00  0.00     0.031 C 
ATOM     37  C   UNL A   1      44.171  32.084  28.952  1.00  0.00     0.034 A 
BRANCH  24  38
ATOM     38  C   UNL A   1      46.796  27.493  25.700  1.00  0.00     0.023 A 
ATOM     39  C   UNL A   1      47.085  27.888  24.381  1.00  0.00     0.031 A 
ATOM     40  C   UNL A   1      47.664  26.571  26.314  1.00  0.00     0.131 A 
ATOM     41  C   UNL A   1      48.169  27.312  23.698  1.00  0.00     0.055 A 
ATOM     42  C   UNL A   1      48.784  26.060  25.656  1.00  0.00     0.041 A 
ATOM     43  F   UNL A   1      47.430  26.142  27.564  1.00  0.00    -0.206 F 
ATOM     44  C   UNL A   1      49.034  26.418  24.335  1.00  0.00     0.022 A 
BRANCH  41  45
ATOM     45  S   UNL A   1      48.350  27.640  21.923  1.00  0.00     0.124 S 
ATOM     46  O   UNL A   1      47.052  28.228  21.596  1.00  0.00    -0.237 OA
ATOM     47  O   UNL A   1      49.490  28.548  21.885  1.00  0.00    -0.237 OA
ATOM     48  O   UNL A   1      48.586  26.316  21.352  1.00  0.00    -0.744 OA
ENDBRANCH  41  45
ENDBRANCH  24  38
BRANCH  25  49
ATOM     49  C   UNL A   1      38.714  30.318  30.920  1.00  0.00     0.023 A 
ATOM     50  C   UNL A   1      37.655  31.020  30.325  1.00  0.00     0.031 A 
ATOM     51  C   UNL A   1      38.627  30.029  32.294  1.00  0.00     0.131 A 
ATOM     52  C   UNL A   1      36.570  31.442  31.109  1.00  0.00     0.055 A 
ATOM     53  C   UNL A   1      37.524  30.407  33.058  1.00  0.00     0.041 A 
ATOM     54  F   UNL A   1      39.611  29.352  32.908  1.00  0.00    -0.206 F 
ATOM     55  C   UNL A   1      36.491  31.128  32.468  1.00  0.00     0.022 A 
BRANCH  52  56
ATOM     56  S   UNL A   1      35.289  32.468  30.338  1.00  0.00     0.124 S 
ATOM     57  O   UNL A   1      34.352  32.652  31.439  1.00  0.00    -0.237 OA
ATOM     58  O   UNL A   1      36.048  33.648  29.935  1.00  0.00    -0.237 OA
ATOM     59  O   UNL A   1      34.804  31.636  29.237  1.00  0.00    -0.744 OA
ENDBRANCH  52  56
ENDBRANCH  25  49
BRANCH  37  60
ATOM     60  C   UNL A   1      44.687  33.473  29.232  1.00  0.00     0.023 A 
ATOM     61  C   UNL A   1      45.439  33.761  30.385  1.00  0.00     0.031 A 
ATOM     62  C   UNL A   1      44.383  34.530  28.356  1.00  0.00     0.131 A 
ATOM     63  C   UNL A   1      45.806  35.085  30.666  1.00  0.00     0.055 A 
ATOM     64  C   UNL A   1      44.802  35.836  28.612  1.00  0.00     0.041 A 
ATOM     65  F   UNL A   1      43.667  34.310  27.243  1.00  0.00    -0.206 F 
ATOM     66  C   UNL A   1      45.504  36.123  29.779  1.00  0.00     0.022 A 
BRANCH  63  67
ATOM     67  S   UNL A   1      46.592  35.452  32.259  1.00  0.00     0.124 S 
ATOM     68  O   UNL A   1      46.162  36.824  32.501  1.00  0.00    -0.237 OA
ATOM     69  O   UNL A   1      46.012  34.437  33.133  1.00  0.00    -0.237 OA
ATOM     70  O   UNL A   1      48.019  35.289  31.983  1.00  0.00    -0.744 OA
ENDBRANCH  63  67
ENDBRANCH  37  60
ENDBRANCH  11  12
ENDBRANCH   4   6
ENDBRANCH   1   2
BRANCH   1  71
ATOM     71  C   UNL A   1      35.278  21.689  24.674  1.00  0.00     0.023 C 
BRANCH  71  72
ATOM     72  C   UNL A   1      34.315  21.071  25.689  1.00  0.00     0.023 C 
BRANCH  72  73
ATOM     73  C   UNL A   1      33.567  22.075  26.570  1.00  0.00     0.116 C 
BRANCH  73  74
ATOM     74  N   UNL A   1      32.138  21.829  26.601  1.00  0.00    -0.351 N 
ATOM     75  C   UNL A   1      31.099  22.652  26.277  1.00  0.00     0.279 C 
ATOM     76  H   UNL A   1      31.877  20.930  26.904  1.00  0.00     0.163 HD
ATOM     77  O   UNL A   1      29.964  22.169  26.335  1.00  0.00    -0.268 OA
BRANCH  75  78
ATOM     78  C   UNL A   1      31.329  24.094  25.771  1.00  0.00     0.283 C 
ATOM     79  C   UNL A   1      31.018  24.169  24.271  1.00  0.00     0.151 C 
ATOM     80  N   UNL A   1      30.481  25.085  26.484  1.00  0.00    -0.320 N 
ATOM     81  S   UNL A   1      30.316  25.810  23.975  1.00  0.00    -0.087 SA
ATOM     82  C   UNL A   1      30.452  26.323  25.712  1.00  0.00     0.277 C 
ATOM     83  H   UNL A   1      30.869  25.267  27.409  1.00  0.00     0.348 HD
ATOM     84  H   UNL A   1      29.534  24.719  26.588  1.00  0.00     0.348 HD
BRANCH  82  85
ATOM     85  C   UNL A   1      31.577  27.324  25.897  1.00  0.00     0.059 A 
ATOM     86  C   UNL A   1      32.492  27.481  24.829  1.00  0.00     0.053 A 
ATOM     87  C   UNL A   1      31.808  28.094  27.044  1.00  0.00     0.133 A 
ATOM     88  C   UNL A   1      33.600  28.315  24.945  1.00  0.00     0.123 A 
ATOM     89  C   UNL A   1      32.928  28.925  27.158  1.00  0.00     0.043 A 
ATOM     90  F   UNL A   1      30.969  28.069  28.087  1.00  0.00    -0.206 F 
ATOM     91  F   UNL A   1      34.458  28.417  23.921  1.00  0.00    -0.207 F 
ATOM     92  C   UNL A   1      33.836  29.029  26.109  1.00  0.00     0.042 A 
ENDBRANCH  82  85
ENDBRANCH  75  78
ENDBRANCH  73  74
ENDBRANCH  72  73
ENDBRANCH  71  72
ENDBRANCH   1  71
TORSDOF 15
ENDMDL
