MODEL 1
REMARK VINA RESULT:     -13.4      0.000      0.000
REMARK SMILES O=C(NCCCCNC(=O)[C@H]1Cc2c([nH]c3ccccc23)[C@H](c2c[nH]c3ccccc23)[NH2+]1)c1ccc(-c2c3nc(c(-c4cc(S(=O)(=O)[O-])ccc4F)c4ccc([nH]4)c(-c4cc(S(=O)(=O)[O-])ccc4F)c4nc(c(-c5cc(S(=O)(=O)[O-])ccc5F)c5ccc2[nH]5)C=C4)C=C3)cc1
REMARK SMILES IDX 4 1 3 2 1 3 2 4 33 6 34 7 95 8 35 9 94 10 36 11 37 12 38 13
REMARK SMILES IDX 88 14 39 15 93 16 87 17 89 18 40 19 92 20 86 21 85 22 41 24
REMARK SMILES IDX 73 25 53 26 72 27 54 28 57 29 71 30 90 31 55 32 56 33 70 35
REMARK SMILES IDX 91 36 58 37 42 38 43 39 51 40 44 41 50 42 52 43 49 44 45 45
REMARK SMILES IDX 46 46 47 47 48 48 74 49 75 50 83 51 76 52 82 53 84 54 81 55
REMARK SMILES IDX 77 56 78 57 79 58 80 59 59 60 60 61 68 62 61 63 67 64 69 65
REMARK SMILES IDX 66 66 62 67 63 68 64 69 65 70 5 71 6 72 7 73 8 74 9 75 10 77
REMARK SMILES IDX 11 78 12 79 32 80 13 81 22 82 14 85 21 86 15 87 16 88 20 89
REMARK SMILES IDX 17 91 19 92 18 93 23 94 24 95 31 96 25 97 26 98 30 99 27 101
REMARK SMILES IDX 29 102 28 103
REMARK H PARENT 3 5 89 23 57 34 8 76 32 83 32 84 15 90 25 100
REMARK Flexibility Score: inf
ROOT
ATOM      1  C   UNL A   1      35.616  22.395  26.408  1.00  0.00     0.116 C 
ENDROOT
BRANCH   1   2
ATOM      2  N   UNL A   1      36.512  21.350  25.932  1.00  0.00    -0.352 N 
ATOM      3  O   UNL A   1      38.460  20.471  25.205  1.00  0.00    -0.269 OA
ATOM      4  C   UNL A   1      37.872  21.401  25.750  1.00  0.00     0.251 C 
ATOM      5  H   UNL A   1      36.085  20.492  25.711  1.00  0.00     0.163 HD
BRANCH   4   6
ATOM      6  C   UNL A   1      38.616  22.597  26.194  1.00  0.00     0.039 A 
ATOM      7  C   UNL A   1      38.158  23.873  25.857  1.00  0.00     0.014 A 
ATOM      8  C   UNL A   1      39.794  22.438  26.928  1.00  0.00     0.014 A 
ATOM      9  C   UNL A   1      38.948  24.982  26.133  1.00  0.00     0.010 A 
ATOM     10  C   UNL A   1      40.545  23.562  27.278  1.00  0.00     0.010 A 
ATOM     11  C   UNL A   1      40.142  24.840  26.860  1.00  0.00    -0.014 A 
BRANCH  11  12
ATOM     12  C   UNL A   1      40.915  26.052  27.229  1.00  0.00     0.031 A 
ATOM     13  C   UNL A   1      40.331  27.101  28.132  1.00  0.00     0.074 A 
ATOM     14  C   UNL A   1      42.167  26.183  26.747  1.00  0.00     0.049 A 
ATOM     15  N   UNL A   1      40.861  28.226  28.536  1.00  0.00    -0.248 NA
ATOM     16  C   UNL A   1      38.972  26.860  28.639  1.00  0.00     0.031 C 
ATOM     17  C   UNL A   1      42.829  25.222  25.861  1.00  0.00     0.029 A 
ATOM     18  N   UNL A   1      43.107  27.160  26.937  1.00  0.00    -0.354 N 
ATOM     19  C   UNL A   1      39.898  28.841  29.331  1.00  0.00     0.074 A 
ATOM     20  C   UNL A   1      38.739  27.970  29.328  1.00  0.00     0.031 C 
ATOM     21  C   UNL A   1      44.078  25.639  25.614  1.00  0.00     0.029 A 
ATOM     22  C   UNL A   1      44.282  26.929  26.261  1.00  0.00     0.049 A 
ATOM     23  H   UNL A   1      42.957  27.952  27.503  1.00  0.00     0.167 HD
ATOM     24  C   UNL A   1      39.980  30.018  30.000  1.00  0.00     0.034 A 
ATOM     25  C   UNL A   1      45.390  27.684  26.146  1.00  0.00     0.034 A 
ATOM     26  C   UNL A   1      41.149  30.866  29.992  1.00  0.00     0.049 A 
ATOM     27  C   UNL A   1      45.438  29.004  26.863  1.00  0.00     0.074 A 
ATOM     28  C   UNL A   1      41.358  32.055  30.669  1.00  0.00     0.029 A 
ATOM     29  N   UNL A   1      42.306  30.622  29.259  1.00  0.00    -0.354 N 
ATOM     30  N   UNL A   1      44.524  29.561  27.624  1.00  0.00    -0.248 NA
ATOM     31  C   UNL A   1      46.662  29.796  26.705  1.00  0.00     0.031 C 
ATOM     32  C   UNL A   1      42.609  32.561  30.295  1.00  0.00     0.029 A 
ATOM     33  C   UNL A   1      43.214  31.655  29.439  1.00  0.00     0.049 A 
ATOM     34  H   UNL A   1      42.458  29.830  28.695  1.00  0.00     0.167 HD
ATOM     35  C   UNL A   1      45.071  30.768  28.045  1.00  0.00     0.074 A 
ATOM     36  C   UNL A   1      46.399  30.845  27.472  1.00  0.00     0.031 C 
ATOM     37  C   UNL A   1      44.524  31.726  28.837  1.00  0.00     0.034 A 
BRANCH  24  38
ATOM     38  C   UNL A   1      38.756  30.480  30.755  1.00  0.00     0.023 A 
ATOM     39  C   UNL A   1      37.856  31.414  30.214  1.00  0.00     0.031 A 
ATOM     40  C   UNL A   1      38.492  29.983  32.045  1.00  0.00     0.131 A 
ATOM     41  C   UNL A   1      36.770  31.867  30.982  1.00  0.00     0.055 A 
ATOM     42  C   UNL A   1      37.372  30.383  32.775  1.00  0.00     0.041 A 
ATOM     43  F   UNL A   1      39.327  29.103  32.621  1.00  0.00    -0.206 F 
ATOM     44  C   UNL A   1      36.510  31.340  32.249  1.00  0.00     0.022 A 
BRANCH  41  45
ATOM     45  S   UNL A   1      35.774  33.244  30.350  1.00  0.00     0.124 S 
ATOM     46  O   UNL A   1      34.415  32.746  30.554  1.00  0.00    -0.237 OA
ATOM     47  O   UNL A   1      36.184  34.350  31.208  1.00  0.00    -0.237 OA
ATOM     48  O   UNL A   1      36.185  33.353  28.952  1.00  0.00    -0.744 OA
ENDBRANCH  41  45
ENDBRANCH  24  38
BRANCH  25  49
ATOM     49  C   UNL A   1      46.516  27.229  25.284  1.00  0.00     0.023 A 
ATOM     50  C   UNL A   1      46.824  27.885  24.084  1.00  0.00     0.031 A 
ATOM     51  C   UNL A   1      47.295  26.116  25.651  1.00  0.00     0.131 A 
ATOM     52  C   UNL A   1      47.865  27.404  23.276  1.00  0.00     0.055 A 
ATOM     53  C   UNL A   1      48.362  25.673  24.869  1.00  0.00     0.041 A 
ATOM     54  F   UNL A   1      47.044  25.458  26.794  1.00  0.00    -0.206 F 
ATOM     55  C   UNL A   1      48.645  26.312  23.667  1.00  0.00     0.022 A 
BRANCH  52  56
ATOM     56  S   UNL A   1      48.145  28.186  21.664  1.00  0.00     0.124 S 
ATOM     57  O   UNL A   1      49.528  28.631  21.784  1.00  0.00    -0.237 OA
ATOM     58  O   UNL A   1      47.904  27.079  20.745  1.00  0.00    -0.237 OA
ATOM     59  O   UNL A   1      47.146  29.253  21.626  1.00  0.00    -0.744 OA
ENDBRANCH  52  56
ENDBRANCH  25  49
BRANCH  37  60
ATOM     60  C   UNL A   1      45.389  32.923  29.137  1.00  0.00     0.023 A 
ATOM     61  C   UNL A   1      45.351  34.076  28.334  1.00  0.00     0.031 A 
ATOM     62  C   UNL A   1      46.282  32.896  30.223  1.00  0.00     0.131 A 
ATOM     63  C   UNL A   1      46.230  35.138  28.598  1.00  0.00     0.055 A 
ATOM     64  C   UNL A   1      47.114  33.978  30.512  1.00  0.00     0.041 A 
ATOM     65  F   UNL A   1      46.359  31.817  31.016  1.00  0.00    -0.206 F 
ATOM     66  C   UNL A   1      47.101  35.101  29.690  1.00  0.00     0.022 A 
BRANCH  63  67
ATOM     67  S   UNL A   1      46.279  36.535  27.442  1.00  0.00     0.124 S 
ATOM     68  O   UNL A   1      47.027  35.974  26.321  1.00  0.00    -0.237 OA
ATOM     69  O   UNL A   1      44.863  36.791  27.200  1.00  0.00    -0.237 OA
ATOM     70  O   UNL A   1      46.975  37.576  28.194  1.00  0.00    -0.744 OA
ENDBRANCH  63  67
ENDBRANCH  37  60
ENDBRANCH  11  12
ENDBRANCH   4   6
ENDBRANCH   1   2
BRANCH   1  71
ATOM     71  C   UNL A   1      34.379  21.842  27.104  1.00  0.00     0.023 C 
BRANCH  71  72
ATOM     72  C   UNL A   1      33.235  21.454  26.173  1.00  0.00     0.023 C 
BRANCH  72  73
ATOM     73  C   UNL A   1      32.690  22.591  25.316  1.00  0.00     0.116 C 
BRANCH  73  74
ATOM     74  N   UNL A   1      33.527  22.867  24.160  1.00  0.00    -0.351 N 
ATOM     75  C   UNL A   1      33.827  24.074  23.592  1.00  0.00     0.278 C 
ATOM     76  H   UNL A   1      33.933  22.080  23.730  1.00  0.00     0.163 HD
ATOM     77  O   UNL A   1      34.653  24.105  22.676  1.00  0.00    -0.268 OA
BRANCH  75  78
ATOM     78  C   UNL A   1      33.144  25.358  24.079  1.00  0.00     0.277 C 
ATOM     79  C   UNL A   1      34.099  26.106  25.039  1.00  0.00     0.114 C 
ATOM     80  N   UNL A   1      32.650  26.128  22.900  1.00  0.00    -0.324 N 
ATOM     81  C   UNL A   1      33.638  27.506  25.214  1.00  0.00    -0.006 A 
ATOM     82  C   UNL A   1      31.998  27.397  23.221  1.00  0.00     0.264 C 
ATOM     83  H   UNL A   1      31.978  25.545  22.401  1.00  0.00     0.347 HD
ATOM     84  H   UNL A   1      33.473  26.361  22.345  1.00  0.00     0.347 HD
ATOM     85  C   UNL A   1      32.696  28.064  24.372  1.00  0.00     0.083 A 
ATOM     86  C   UNL A   1      34.028  28.488  26.161  1.00  0.00     0.003 A 
ATOM     87  N   UNL A   1      32.542  29.372  24.745  1.00  0.00    -0.353 N 
ATOM     88  C   UNL A   1      33.326  29.652  25.844  1.00  0.00     0.046 A 
ATOM     89  C   UNL A   1      34.916  28.505  27.253  1.00  0.00     0.010 A 
ATOM     90  H   UNL A   1      31.954  30.020  24.293  1.00  0.00     0.166 HD
ATOM     91  C   UNL A   1      33.471  30.839  26.571  1.00  0.00     0.026 A 
ATOM     92  C   UNL A   1      35.065  29.680  27.996  1.00  0.00     0.001 A 
ATOM     93  C   UNL A   1      34.353  30.828  27.657  1.00  0.00     0.002 A 
BRANCH  82  94
ATOM     94  C   UNL A   1      30.494  27.282  23.401  1.00  0.00     0.041 A 
ATOM     95  C   UNL A   1      29.882  26.109  23.832  1.00  0.00     0.093 A 
ATOM     96  C   UNL A   1      29.419  28.249  23.263  1.00  0.00     0.009 A 
ATOM     97  N   UNL A   1      28.533  26.293  23.876  1.00  0.00    -0.361 N 
ATOM     98  C   UNL A   1      28.219  27.583  23.539  1.00  0.00     0.046 A 
ATOM     99  C   UNL A   1      29.316  29.624  22.942  1.00  0.00     0.011 A 
ATOM    100  H   UNL A   1      27.877  25.598  24.116  1.00  0.00     0.166 HD
ATOM    101  C   UNL A   1      26.959  28.195  23.470  1.00  0.00     0.026 A 
ATOM    102  C   UNL A   1      28.067  30.254  22.870  1.00  0.00     0.001 A 
ATOM    103  C   UNL A   1      26.903  29.545  23.125  1.00  0.00     0.002 A 
ENDBRANCH  82  94
ENDBRANCH  75  78
ENDBRANCH  73  74
ENDBRANCH  72  73
ENDBRANCH  71  72
ENDBRANCH   1  71
TORSDOF 15
ENDMDL
MODEL 2
REMARK VINA RESULT:     -13.4      0.543      7.274
REMARK SMILES O=C(NCCCCNC(=O)[C@H]1Cc2c([nH]c3ccccc23)[C@H](c2c[nH]c3ccccc23)[NH2+]1)c1ccc(-c2c3nc(c(-c4cc(S(=O)(=O)[O-])ccc4F)c4ccc([nH]4)c(-c4cc(S(=O)(=O)[O-])ccc4F)c4nc(c(-c5cc(S(=O)(=O)[O-])ccc5F)c5ccc2[nH]5)C=C4)C=C3)cc1
REMARK SMILES IDX 4 1 3 2 1 3 2 4 33 6 34 7 95 8 35 9 94 10 36 11 37 12 38 13
REMARK SMILES IDX 88 14 39 15 93 16 87 17 89 18 40 19 92 20 86 21 85 22 41 24
REMARK SMILES IDX 73 25 53 26 72 27 54 28 57 29 71 30 90 31 55 32 56 33 70 35
REMARK SMILES IDX 91 36 58 37 42 38 43 39 51 40 44 41 50 42 52 43 49 44 45 45
REMARK SMILES IDX 46 46 47 47 48 48 74 49 75 50 83 51 76 52 82 53 84 54 81 55
REMARK SMILES IDX 77 56 78 57 79 58 80 59 59 60 60 61 68 62 61 63 67 64 69 65
REMARK SMILES IDX 66 66 62 67 63 68 64 69 65 70 5 71 6 72 7 73 8 74 9 75 10 77
REMARK SMILES IDX 11 78 12 79 32 80 13 81 22 82 14 85 21 86 15 87 16 88 20 89
REMARK SMILES IDX 17 91 19 92 18 93 23 94 24 95 31 96 25 97 26 98 30 99 27 101
REMARK SMILES IDX 29 102 28 103
REMARK H PARENT 3 5 89 23 57 34 8 76 32 83 32 84 15 90 25 100
REMARK Flexibility Score: inf
ROOT
ATOM      1  C   UNL A   1      35.927  22.653  26.119  1.00  0.00     0.116 C 
ENDROOT
BRANCH   1   2
ATOM      2  N   UNL A   1      36.858  21.555  25.894  1.00  0.00    -0.352 N 
ATOM      3  O   UNL A   1      38.871  20.583  25.577  1.00  0.00    -0.269 OA
ATOM      4  C   UNL A   1      38.231  21.569  25.930  1.00  0.00     0.251 C 
ATOM      5  H   UNL A   1      36.446  20.684  25.689  1.00  0.00     0.163 HD
BRANCH   4   6
ATOM      6  C   UNL A   1      38.928  22.793  26.374  1.00  0.00     0.039 A 
ATOM      7  C   UNL A   1      38.536  24.041  25.883  1.00  0.00     0.014 A 
ATOM      8  C   UNL A   1      39.998  22.686  27.265  1.00  0.00     0.014 A 
ATOM      9  C   UNL A   1      39.300  25.164  26.173  1.00  0.00     0.010 A 
ATOM     10  C   UNL A   1      40.714  23.831  27.622  1.00  0.00     0.010 A 
ATOM     11  C   UNL A   1      40.387  25.074  27.058  1.00  0.00    -0.014 A 
BRANCH  11  12
ATOM     12  C   UNL A   1      41.124  26.307  27.430  1.00  0.00     0.031 A 
ATOM     13  C   UNL A   1      42.519  26.560  26.932  1.00  0.00     0.074 A 
ATOM     14  C   UNL A   1      40.504  27.210  28.215  1.00  0.00     0.049 A 
ATOM     15  N   UNL A   1      43.310  27.572  27.177  1.00  0.00    -0.248 NA
ATOM     16  C   UNL A   1      43.105  25.538  26.051  1.00  0.00     0.031 C 
ATOM     17  C   UNL A   1      39.149  27.062  28.755  1.00  0.00     0.029 A 
ATOM     18  N   UNL A   1      40.917  28.427  28.689  1.00  0.00    -0.354 N 
ATOM     19  C   UNL A   1      44.496  27.306  26.499  1.00  0.00     0.074 A 
ATOM     20  C   UNL A   1      44.325  26.020  25.853  1.00  0.00     0.031 C 
ATOM     21  C   UNL A   1      38.831  28.160  29.454  1.00  0.00     0.029 A 
ATOM     22  C   UNL A   1      39.981  29.056  29.474  1.00  0.00     0.049 A 
ATOM     23  H   UNL A   1      41.800  28.814  28.486  1.00  0.00     0.167 HD
ATOM     24  C   UNL A   1      45.615  28.068  26.424  1.00  0.00     0.034 A 
ATOM     25  C   UNL A   1      40.048  30.210  30.164  1.00  0.00     0.034 A 
ATOM     26  C   UNL A   1      45.758  29.351  27.073  1.00  0.00     0.049 A 
ATOM     27  C   UNL A   1      41.316  31.015  30.097  1.00  0.00     0.074 A 
ATOM     28  C   UNL A   1      46.829  30.227  27.027  1.00  0.00     0.029 A 
ATOM     29  N   UNL A   1      44.805  29.937  27.898  1.00  0.00    -0.354 N 
ATOM     30  N   UNL A   1      42.421  30.756  29.436  1.00  0.00    -0.248 NA
ATOM     31  C   UNL A   1      41.347  32.262  30.867  1.00  0.00     0.031 C 
ATOM     32  C   UNL A   1      46.551  31.307  27.874  1.00  0.00     0.029 A 
ATOM     33  C   UNL A   1      45.278  31.143  28.395  1.00  0.00     0.049 A 
ATOM     34  H   UNL A   1      43.922  29.552  28.100  1.00  0.00     0.167 HD
ATOM     35  C   UNL A   1      43.277  31.818  29.706  1.00  0.00     0.074 A 
ATOM     36  C   UNL A   1      42.551  32.729  30.568  1.00  0.00     0.031 C 
ATOM     37  C   UNL A   1      44.548  32.024  29.276  1.00  0.00     0.034 A 
BRANCH  24  38
ATOM     38  C   UNL A   1      46.789  27.512  25.652  1.00  0.00     0.023 A 
ATOM     39  C   UNL A   1      47.077  27.920  24.339  1.00  0.00     0.031 A 
ATOM     40  C   UNL A   1      47.628  26.549  26.242  1.00  0.00     0.131 A 
ATOM     41  C   UNL A   1      48.139  27.324  23.637  1.00  0.00     0.055 A 
ATOM     42  C   UNL A   1      48.724  26.011  25.563  1.00  0.00     0.041 A 
ATOM     43  F   UNL A   1      47.390  26.106  27.487  1.00  0.00    -0.206 F 
ATOM     44  C   UNL A   1      48.977  26.389  24.248  1.00  0.00     0.022 A 
BRANCH  41  45
ATOM     45  S   UNL A   1      48.330  27.696  21.872  1.00  0.00     0.124 S 
ATOM     46  O   UNL A   1      49.465  28.616  21.885  1.00  0.00    -0.237 OA
ATOM     47  O   UNL A   1      48.581  26.380  21.297  1.00  0.00    -0.237 OA
ATOM     48  O   UNL A   1      47.051  28.303  21.508  1.00  0.00    -0.744 OA
ENDBRANCH  41  45
ENDBRANCH  24  38
BRANCH  25  49
ATOM     49  C   UNL A   1      38.899  30.643  31.007  1.00  0.00     0.023 A 
ATOM     50  C   UNL A   1      37.926  31.524  30.513  1.00  0.00     0.031 A 
ATOM     51  C   UNL A   1      38.768  30.185  32.330  1.00  0.00     0.131 A 
ATOM     52  C   UNL A   1      36.879  31.942  31.347  1.00  0.00     0.055 A 
ATOM     53  C   UNL A   1      37.697  30.564  33.140  1.00  0.00     0.041 A 
ATOM     54  F   UNL A   1      39.670  29.335  32.848  1.00  0.00    -0.206 F 
ATOM     55  C   UNL A   1      36.750  31.458  32.652  1.00  0.00     0.022 A 
BRANCH  52  56
ATOM     56  S   UNL A   1      35.720  33.190  30.725  1.00  0.00     0.124 S 
ATOM     57  O   UNL A   1      36.024  34.333  31.578  1.00  0.00    -0.237 OA
ATOM     58  O   UNL A   1      36.123  33.306  29.328  1.00  0.00    -0.237 OA
ATOM     59  O   UNL A   1      34.411  32.577  30.944  1.00  0.00    -0.744 OA
ENDBRANCH  52  56
ENDBRANCH  25  49
BRANCH  37  60
ATOM     60  C   UNL A   1      45.211  33.300  29.726  1.00  0.00     0.023 A 
ATOM     61  C   UNL A   1      45.094  34.489  28.985  1.00  0.00     0.031 A 
ATOM     62  C   UNL A   1      45.992  33.318  30.895  1.00  0.00     0.131 A 
ATOM     63  C   UNL A   1      45.792  35.635  29.392  1.00  0.00     0.055 A 
ATOM     64  C   UNL A   1      46.639  34.477  31.324  1.00  0.00     0.041 A 
ATOM     65  F   UNL A   1      46.139  32.208  31.635  1.00  0.00    -0.206 F 
ATOM     66  C   UNL A   1      46.552  35.640  30.565  1.00  0.00     0.022 A 
BRANCH  63  67
ATOM     67  S   UNL A   1      45.761  37.100  28.322  1.00  0.00     0.124 S 
ATOM     68  O   UNL A   1      45.251  36.549  27.071  1.00  0.00    -0.237 OA
ATOM     69  O   UNL A   1      44.860  37.993  29.041  1.00  0.00    -0.237 OA
ATOM     70  O   UNL A   1      47.158  37.527  28.288  1.00  0.00    -0.744 OA
ENDBRANCH  63  67
ENDBRANCH  37  60
ENDBRANCH  11  12
ENDBRANCH   4   6
ENDBRANCH   1   2
BRANCH   1  71
ATOM     71  C   UNL A   1      34.730  22.249  26.968  1.00  0.00     0.023 C 
BRANCH  71  72
ATOM     72  C   UNL A   1      33.586  21.593  26.200  1.00  0.00     0.023 C 
BRANCH  72  73
ATOM     73  C   UNL A   1      32.805  22.530  25.287  1.00  0.00     0.116 C 
BRANCH  73  74
ATOM     74  N   UNL A   1      33.498  22.794  24.037  1.00  0.00    -0.351 N 
ATOM     75  C   UNL A   1      33.696  23.992  23.407  1.00  0.00     0.278 C 
ATOM     76  H   UNL A   1      33.874  22.006  23.582  1.00  0.00     0.163 HD
ATOM     77  O   UNL A   1      34.412  24.017  22.402  1.00  0.00    -0.268 OA
BRANCH  75  78
ATOM     78  C   UNL A   1      33.037  25.272  23.936  1.00  0.00     0.277 C 
ATOM     79  C   UNL A   1      34.017  25.986  24.896  1.00  0.00     0.114 C 
ATOM     80  N   UNL A   1      32.531  26.074  22.785  1.00  0.00    -0.324 N 
ATOM     81  C   UNL A   1      33.576  27.386  25.112  1.00  0.00    -0.006 A 
ATOM     82  C   UNL A   1      31.900  27.343  23.147  1.00  0.00     0.264 C 
ATOM     83  H   UNL A   1      31.844  25.511  22.284  1.00  0.00     0.347 HD
ATOM     84  H   UNL A   1      33.347  26.311  22.221  1.00  0.00     0.347 HD
ATOM     85  C   UNL A   1      32.626  27.975  24.301  1.00  0.00     0.083 A 
ATOM     86  C   UNL A   1      33.993  28.342  26.074  1.00  0.00     0.003 A 
ATOM     87  N   UNL A   1      32.493  29.276  24.707  1.00  0.00    -0.353 N 
ATOM     88  C   UNL A   1      33.300  29.521  25.797  1.00  0.00     0.046 A 
ATOM     89  C   UNL A   1      34.901  28.323  27.151  1.00  0.00     0.010 A 
ATOM     90  H   UNL A   1      31.905  29.940  24.281  1.00  0.00     0.166 HD
ATOM     91  C   UNL A   1      33.472  30.689  26.549  1.00  0.00     0.026 A 
ATOM     92  C   UNL A   1      35.076  29.478  27.919  1.00  0.00     0.001 A 
ATOM     93  C   UNL A   1      34.372  30.642  27.619  1.00  0.00     0.002 A 
BRANCH  82  94
ATOM     94  C   UNL A   1      30.398  27.241  23.351  1.00  0.00     0.041 A 
ATOM     95  C   UNL A   1      29.784  26.073  23.792  1.00  0.00     0.093 A 
ATOM     96  C   UNL A   1      29.329  28.216  23.230  1.00  0.00     0.009 A 
ATOM     97  N   UNL A   1      28.436  26.268  23.857  1.00  0.00    -0.361 N 
ATOM     98  C   UNL A   1      28.128  27.560  23.525  1.00  0.00     0.046 A 
ATOM     99  C   UNL A   1      29.233  29.592  22.910  1.00  0.00     0.011 A 
ATOM    100  H   UNL A   1      27.779  25.579  24.108  1.00  0.00     0.166 HD
ATOM    101  C   UNL A   1      26.872  28.183  23.476  1.00  0.00     0.026 A 
ATOM    102  C   UNL A   1      27.988  30.233  22.858  1.00  0.00     0.001 A 
ATOM    103  C   UNL A   1      26.822  29.533  23.131  1.00  0.00     0.002 A 
ENDBRANCH  82  94
ENDBRANCH  75  78
ENDBRANCH  73  74
ENDBRANCH  72  73
ENDBRANCH  71  72
ENDBRANCH   1  71
TORSDOF 15
ENDMDL
MODEL 3
REMARK VINA RESULT:     -13.1      4.933     10.353
REMARK SMILES O=C(NCCCCNC(=O)[C@H]1Cc2c([nH]c3ccccc23)[C@H](c2c[nH]c3ccccc23)[NH2+]1)c1ccc(-c2c3nc(c(-c4cc(S(=O)(=O)[O-])ccc4F)c4ccc([nH]4)c(-c4cc(S(=O)(=O)[O-])ccc4F)c4nc(c(-c5cc(S(=O)(=O)[O-])ccc5F)c5ccc2[nH]5)C=C4)C=C3)cc1
REMARK SMILES IDX 4 1 3 2 1 3 2 4 33 6 34 7 95 8 35 9 94 10 36 11 37 12 38 13
REMARK SMILES IDX 88 14 39 15 93 16 87 17 89 18 40 19 92 20 86 21 85 22 41 24
REMARK SMILES IDX 73 25 53 26 72 27 54 28 57 29 71 30 90 31 55 32 56 33 70 35
REMARK SMILES IDX 91 36 58 37 42 38 43 39 51 40 44 41 50 42 52 43 49 44 45 45
REMARK SMILES IDX 46 46 47 47 48 48 74 49 75 50 83 51 76 52 82 53 84 54 81 55
REMARK SMILES IDX 77 56 78 57 79 58 80 59 59 60 60 61 68 62 61 63 67 64 69 65
REMARK SMILES IDX 66 66 62 67 63 68 64 69 65 70 5 71 6 72 7 73 8 74 9 75 10 77
REMARK SMILES IDX 11 78 12 79 32 80 13 81 22 82 14 85 21 86 15 87 16 88 20 89
REMARK SMILES IDX 17 91 19 92 18 93 23 94 24 95 31 96 25 97 26 98 30 99 27 101
REMARK SMILES IDX 29 102 28 103
REMARK H PARENT 3 5 89 23 57 34 8 76 32 83 32 84 15 90 25 100
REMARK Flexibility Score: inf
ROOT
ATOM      1  C   UNL A   1      33.243  29.197  25.304  1.00  0.00     0.116 C 
ENDROOT
BRANCH   1   2
ATOM      2  N   UNL A   1      32.642  30.430  25.794  1.00  0.00    -0.352 N 
ATOM      3  O   UNL A   1      32.333  32.158  27.214  1.00  0.00    -0.269 OA
ATOM      4  C   UNL A   1      33.037  31.222  26.845  1.00  0.00     0.251 C 
ATOM      5  H   UNL A   1      31.846  30.738  25.305  1.00  0.00     0.163 HD
BRANCH   4   6
ATOM      6  C   UNL A   1      34.304  30.919  27.541  1.00  0.00     0.039 A 
ATOM      7  C   UNL A   1      34.559  29.624  28.000  1.00  0.00     0.014 A 
ATOM      8  C   UNL A   1      35.227  31.944  27.758  1.00  0.00     0.014 A 
ATOM      9  C   UNL A   1      35.672  29.385  28.796  1.00  0.00     0.010 A 
ATOM     10  C   UNL A   1      36.388  31.681  28.490  1.00  0.00     0.010 A 
ATOM     11  C   UNL A   1      36.606  30.407  29.037  1.00  0.00    -0.014 A 
BRANCH  11  12
ATOM     12  C   UNL A   1      37.836  30.098  29.807  1.00  0.00     0.031 A 
ATOM     13  C   UNL A   1      38.930  29.253  29.217  1.00  0.00     0.074 A 
ATOM     14  C   UNL A   1      37.960  30.611  31.047  1.00  0.00     0.049 A 
ATOM     15  N   UNL A   1      40.058  28.872  29.759  1.00  0.00    -0.248 NA
ATOM     16  C   UNL A   1      38.727  28.765  27.845  1.00  0.00     0.031 C 
ATOM     17  C   UNL A   1      36.956  31.443  31.714  1.00  0.00     0.029 A 
ATOM     18  N   UNL A   1      38.975  30.520  31.962  1.00  0.00    -0.354 N 
ATOM     19  C   UNL A   1      40.695  28.083  28.805  1.00  0.00     0.074 A 
ATOM     20  C   UNL A   1      39.810  28.021  27.660  1.00  0.00     0.031 C 
ATOM     21  C   UNL A   1      37.420  31.816  32.915  1.00  0.00     0.029 A 
ATOM     22  C   UNL A   1      38.719  31.192  33.134  1.00  0.00     0.049 A 
ATOM     23  H   UNL A   1      39.809  30.022  31.797  1.00  0.00     0.167 HD
ATOM     24  C   UNL A   1      41.904  27.475  28.883  1.00  0.00     0.034 A 
ATOM     25  C   UNL A   1      39.432  31.271  34.272  1.00  0.00     0.034 A 
ATOM     26  C   UNL A   1      42.772  27.557  30.036  1.00  0.00     0.049 A 
ATOM     27  C   UNL A   1      40.749  30.552  34.347  1.00  0.00     0.074 A 
ATOM     28  C   UNL A   1      44.036  27.019  30.206  1.00  0.00     0.029 A 
ATOM     29  N   UNL A   1      42.459  28.210  31.224  1.00  0.00    -0.354 N 
ATOM     30  N   UNL A   1      41.344  29.826  33.429  1.00  0.00    -0.248 NA
ATOM     31  C   UNL A   1      41.490  30.662  35.608  1.00  0.00     0.031 C 
ATOM     32  C   UNL A   1      44.458  27.289  31.514  1.00  0.00     0.029 A 
ATOM     33  C   UNL A   1      43.489  28.056  32.140  1.00  0.00     0.049 A 
ATOM     34  H   UNL A   1      41.627  28.709  31.389  1.00  0.00     0.167 HD
ATOM     35  C   UNL A   1      42.537  29.399  34.002  1.00  0.00     0.074 A 
ATOM     36  C   UNL A   1      42.586  29.970  35.333  1.00  0.00     0.031 C 
ATOM     37  C   UNL A   1      43.507  28.610  33.473  1.00  0.00     0.034 A 
BRANCH  24  38
ATOM     38  C   UNL A   1      42.339  26.629  27.710  1.00  0.00     0.023 A 
ATOM     39  C   UNL A   1      42.184  25.232  27.702  1.00  0.00     0.031 A 
ATOM     40  C   UNL A   1      42.927  27.232  26.583  1.00  0.00     0.131 A 
ATOM     41  C   UNL A   1      42.667  24.480  26.618  1.00  0.00     0.055 A 
ATOM     42  C   UNL A   1      43.341  26.486  25.479  1.00  0.00     0.041 A 
ATOM     43  F   UNL A   1      43.119  28.560  26.542  1.00  0.00    -0.206 F 
ATOM     44  C   UNL A   1      43.223  25.099  25.497  1.00  0.00     0.022 A 
BRANCH  41  45
ATOM     45  S   UNL A   1      42.671  22.671  26.749  1.00  0.00     0.124 S 
ATOM     46  O   UNL A   1      41.790  22.454  27.895  1.00  0.00    -0.237 OA
ATOM     47  O   UNL A   1      42.145  22.259  25.453  1.00  0.00    -0.237 OA
ATOM     48  O   UNL A   1      44.076  22.346  26.984  1.00  0.00    -0.744 OA
ENDBRANCH  41  45
ENDBRANCH  24  38
BRANCH  25  49
ATOM     49  C   UNL A   1      38.890  32.021  35.440  1.00  0.00     0.023 A 
ATOM     50  C   UNL A   1      38.348  31.351  36.546  1.00  0.00     0.031 A 
ATOM     51  C   UNL A   1      38.899  33.428  35.455  1.00  0.00     0.131 A 
ATOM     52  C   UNL A   1      37.810  32.089  37.611  1.00  0.00     0.055 A 
ATOM     53  C   UNL A   1      38.409  34.156  36.539  1.00  0.00     0.041 A 
ATOM     54  F   UNL A   1      39.413  34.116  34.423  1.00  0.00    -0.206 F 
ATOM     55  C   UNL A   1      37.849  33.486  37.622  1.00  0.00     0.022 A 
BRANCH  52  56
ATOM     56  S   UNL A   1      36.989  31.195  38.958  1.00  0.00     0.124 S 
ATOM     57  O   UNL A   1      37.976  31.296  40.027  1.00  0.00    -0.237 OA
ATOM     58  O   UNL A   1      35.768  31.973  39.136  1.00  0.00    -0.237 OA
ATOM     59  O   UNL A   1      36.797  29.853  38.409  1.00  0.00    -0.744 OA
ENDBRANCH  52  56
ENDBRANCH  25  49
BRANCH  37  60
ATOM     60  C   UNL A   1      44.707  28.346  34.345  1.00  0.00     0.023 A 
ATOM     61  C   UNL A   1      44.760  27.237  35.206  1.00  0.00     0.031 A 
ATOM     62  C   UNL A   1      45.798  29.233  34.333  1.00  0.00     0.131 A 
ATOM     63  C   UNL A   1      45.860  27.070  36.061  1.00  0.00     0.055 A 
ATOM     64  C   UNL A   1      46.914  29.031  35.147  1.00  0.00     0.041 A 
ATOM     65  F   UNL A   1      45.794  30.309  33.532  1.00  0.00    -0.206 F 
ATOM     66  C   UNL A   1      46.942  27.953  36.027  1.00  0.00     0.022 A 
BRANCH  63  67
ATOM     67  S   UNL A   1      45.818  25.729  37.283  1.00  0.00     0.124 S 
ATOM     68  O   UNL A   1      44.469  25.856  37.825  1.00  0.00    -0.237 OA
ATOM     69  O   UNL A   1      46.067  24.550  36.461  1.00  0.00    -0.237 OA
ATOM     70  O   UNL A   1      46.895  26.076  38.208  1.00  0.00    -0.744 OA
ENDBRANCH  63  67
ENDBRANCH  37  60
ENDBRANCH  11  12
ENDBRANCH   4   6
ENDBRANCH   1   2
BRANCH   1  71
ATOM     71  C   UNL A   1      32.377  28.484  24.276  1.00  0.00     0.023 C 
BRANCH  71  72
ATOM     72  C   UNL A   1      31.289  27.588  24.858  1.00  0.00     0.023 C 
BRANCH  72  73
ATOM     73  C   UNL A   1      31.631  26.102  24.894  1.00  0.00     0.116 C 
BRANCH  73  74
ATOM     74  N   UNL A   1      30.834  25.371  25.864  1.00  0.00    -0.351 N 
ATOM     75  C   UNL A   1      31.080  24.147  26.423  1.00  0.00     0.278 C 
ATOM     76  H   UNL A   1      30.007  25.816  26.159  1.00  0.00     0.163 HD
ATOM     77  O   UNL A   1      30.331  23.747  27.318  1.00  0.00    -0.268 OA
BRANCH  75  78
ATOM     78  C   UNL A   1      32.257  23.290  25.940  1.00  0.00     0.277 C 
ATOM     79  C   UNL A   1      33.581  24.022  26.263  1.00  0.00     0.114 C 
ATOM     80  N   UNL A   1      32.112  21.909  26.484  1.00  0.00    -0.324 N 
ATOM     81  C   UNL A   1      34.715  23.070  26.166  1.00  0.00    -0.006 A 
ATOM     82  C   UNL A   1      33.188  20.987  26.122  1.00  0.00     0.264 C 
ATOM     83  H   UNL A   1      31.234  21.522  26.136  1.00  0.00     0.347 HD
ATOM     84  H   UNL A   1      32.139  21.996  27.499  1.00  0.00     0.347 HD
ATOM     85  C   UNL A   1      34.508  21.706  26.114  1.00  0.00     0.083 A 
ATOM     86  C   UNL A   1      36.113  23.310  26.132  1.00  0.00     0.003 A 
ATOM     87  N   UNL A   1      35.739  21.107  26.104  1.00  0.00    -0.353 N 
ATOM     88  C   UNL A   1      36.735  22.060  26.095  1.00  0.00     0.046 A 
ATOM     89  C   UNL A   1      36.914  24.468  26.137  1.00  0.00     0.010 A 
ATOM     90  H   UNL A   1      35.890  20.134  26.103  1.00  0.00     0.166 HD
ATOM     91  C   UNL A   1      38.126  21.913  26.063  1.00  0.00     0.026 A 
ATOM     92  C   UNL A   1      38.306  24.338  26.095  1.00  0.00     0.001 A 
ATOM     93  C   UNL A   1      38.900  23.079  26.060  1.00  0.00     0.002 A 
BRANCH  82  94
ATOM     94  C   UNL A   1      32.914  20.197  24.854  1.00  0.00     0.041 A 
ATOM     95  C   UNL A   1      32.098  20.680  23.837  1.00  0.00     0.093 A 
ATOM     96  C   UNL A   1      33.413  18.919  24.374  1.00  0.00     0.009 A 
ATOM     97  N   UNL A   1      32.017  19.751  22.842  1.00  0.00    -0.361 N 
ATOM     98  C   UNL A   1      32.806  18.671  23.137  1.00  0.00     0.046 A 
ATOM     99  C   UNL A   1      34.321  17.937  24.839  1.00  0.00     0.011 A 
ATOM    100  H   UNL A   1      31.470  19.843  22.029  1.00  0.00     0.166 HD
ATOM    101  C   UNL A   1      33.025  17.506  22.387  1.00  0.00     0.026 A 
ATOM    102  C   UNL A   1      34.553  16.768  24.104  1.00  0.00     0.001 A 
ATOM    103  C   UNL A   1      33.906  16.553  22.896  1.00  0.00     0.002 A 
ENDBRANCH  82  94
ENDBRANCH  75  78
ENDBRANCH  73  74
ENDBRANCH  72  73
ENDBRANCH  71  72
ENDBRANCH   1  71
TORSDOF 15
ENDMDL
