MODEL 1
REMARK VINA RESULT:     -10.8      0.000      0.000
REMARK SMILES COC[C@@H](C)N(C)C(=O)N1CCC(CC(=O)NCCCCNC(=O)c2ccc(-c3c4nc(c(-c5cc(S(=O)(=O)[O-])ccc5F)c5ccc([nH]5)c(-c5cc(S(=O)(=O)[O-])ccc5F)c5nc(c(-c6cc(S(=O)(=O)[O-])ccc6F)c6ccc3[nH]6)C=C5)C=C4)cc2)CC1
REMARK SMILES IDX 18 1 17 2 15 3 16 4 14 6 13 7 8 8 9 9 10 10 11 11 89 12
REMARK SMILES IDX 12 13 88 14 6 15 7 16 4 17 5 18 3 19 2 20 1 21 19 22 20 23
REMARK SMILES IDX 21 24 22 25 23 26 24 28 25 29 26 30 87 31 27 32 86 33 28 34
REMARK SMILES IDX 29 35 30 36 80 37 31 38 85 39 79 40 81 41 32 42 84 43 78 44
REMARK SMILES IDX 77 45 33 47 65 48 45 49 64 50 46 51 49 52 63 53 82 54 47 55
REMARK SMILES IDX 48 56 62 58 83 59 50 60 34 61 35 62 43 63 36 64 42 65 44 66
REMARK SMILES IDX 41 67 37 68 38 69 39 70 40 71 66 72 67 73 75 74 68 75 74 76
REMARK SMILES IDX 76 77 73 78 69 79 70 80 71 81 72 82 51 83 52 84 60 85 53 86
REMARK SMILES IDX 59 87 61 88 58 89 54 90 55 91 56 92 57 93
REMARK H PARENT 17 5 22 27 81 46 49 57
REMARK Flexibility Score: inf
ROOT
ATOM      1  C   UNL A   1      31.432  29.567  25.039  1.00  0.00     0.116 C 
ENDROOT
BRANCH   1   2
ATOM      2  N   UNL A   1      30.857  29.770  23.716  1.00  0.00    -0.356 N 
ATOM      3  C   UNL A   1      30.253  28.887  22.868  1.00  0.00     0.220 C 
ATOM      4  O   UNL A   1      29.894  29.288  21.759  1.00  0.00    -0.275 OA
ATOM      5  H   UNL A   1      30.913  30.693  23.379  1.00  0.00     0.163 HD
BRANCH   3   6
ATOM      6  C   UNL A   1      30.034  27.435  23.270  1.00  0.00     0.103 C 
BRANCH   6   7
ATOM      7  C   UNL A   1      30.989  26.441  22.573  1.00  0.00     0.002 C 
ATOM      8  C   UNL A   1      34.213  24.676  23.961  1.00  0.00     0.320 C 
ATOM      9  O   UNL A   1      34.437  25.620  24.715  1.00  0.00    -0.248 OA
ATOM     10  N   UNL A   1      33.392  24.810  22.856  1.00  0.00    -0.325 N 
ATOM     11  C   UNL A   1      33.473  26.025  22.080  1.00  0.00     0.121 C 
ATOM     12  C   UNL A   1      32.098  24.143  22.811  1.00  0.00     0.121 C 
ATOM     13  C   UNL A   1      32.405  27.011  22.504  1.00  0.00     0.026 C 
ATOM     14  C   UNL A   1      30.985  25.082  23.301  1.00  0.00     0.026 C 
BRANCH   8  15
ATOM     15  N   UNL A   1      34.804  23.428  24.113  1.00  0.00    -0.323 N 
ATOM     16  C   UNL A   1      35.954  23.010  23.324  1.00  0.00     0.149 C 
BRANCH  15  17
ATOM     17  C   UNL A   1      34.411  22.550  25.236  1.00  0.00     0.109 C 
ATOM     18  C   UNL A   1      33.952  21.180  24.734  1.00  0.00     0.033 C 
BRANCH  17  19
ATOM     19  C   UNL A   1      33.384  23.224  26.176  1.00  0.00     0.184 C 
BRANCH  19  20
ATOM     20  O   UNL A   1      32.318  22.345  26.557  1.00  0.00    -0.383 OA
ATOM     21  C   UNL A   1      31.034  22.780  26.131  1.00  0.00     0.194 C 
ENDBRANCH  19  20
ENDBRANCH  17  19
ENDBRANCH  15  17
ENDBRANCH   8  15
ENDBRANCH   6   7
ENDBRANCH   3   6
ENDBRANCH   1   2
BRANCH   1  22
ATOM     22  C   UNL A   1      31.438  30.859  25.863  1.00  0.00     0.023 C 
BRANCH  22  23
ATOM     23  C   UNL A   1      32.220  30.804  27.163  1.00  0.00     0.023 C 
BRANCH  23  24
ATOM     24  C   UNL A   1      33.338  31.823  27.256  1.00  0.00     0.116 C 
BRANCH  24  25
ATOM     25  N   UNL A   1      32.868  33.186  27.468  1.00  0.00    -0.352 N 
ATOM     26  C   UNL A   1      33.285  34.104  28.410  1.00  0.00     0.251 C 
ATOM     27  H   UNL A   1      32.158  33.492  26.859  1.00  0.00     0.163 HD
ATOM     28  O   UNL A   1      32.717  35.178  28.525  1.00  0.00    -0.269 OA
BRANCH  26  29
ATOM     29  C   UNL A   1      34.398  33.732  29.308  1.00  0.00     0.039 A 
ATOM     30  C   UNL A   1      34.151  32.867  30.375  1.00  0.00     0.014 A 
ATOM     31  C   UNL A   1      35.697  34.160  29.025  1.00  0.00     0.014 A 
ATOM     32  C   UNL A   1      35.227  32.360  31.106  1.00  0.00     0.010 A 
ATOM     33  C   UNL A   1      36.767  33.565  29.675  1.00  0.00     0.010 A 
ATOM     34  C   UNL A   1      36.544  32.666  30.729  1.00  0.00    -0.014 A 
BRANCH  34  35
ATOM     35  C   UNL A   1      37.716  32.092  31.438  1.00  0.00     0.031 A 
ATOM     36  C   UNL A   1      38.498  30.983  30.789  1.00  0.00     0.074 A 
ATOM     37  C   UNL A   1      38.016  32.501  32.688  1.00  0.00     0.049 A 
ATOM     38  N   UNL A   1      39.470  30.256  31.275  1.00  0.00    -0.248 NA
ATOM     39  C   UNL A   1      38.092  30.608  29.426  1.00  0.00     0.031 C 
ATOM     40  C   UNL A   1      37.290  33.526  33.443  1.00  0.00     0.029 A 
ATOM     41  N   UNL A   1      39.006  32.097  33.547  1.00  0.00    -0.354 N 
ATOM     42  C   UNL A   1      39.769  29.322  30.291  1.00  0.00     0.074 A 
ATOM     43  C   UNL A   1      38.819  29.523  29.218  1.00  0.00     0.031 C 
ATOM     44  C   UNL A   1      37.882  33.694  34.637  1.00  0.00     0.029 A 
ATOM     45  C   UNL A   1      38.998  32.761  34.752  1.00  0.00     0.049 A 
ATOM     46  H   UNL A   1      39.661  31.398  33.321  1.00  0.00     0.167 HD
ATOM     47  C   UNL A   1      40.766  28.403  30.266  1.00  0.00     0.034 A 
ATOM     48  C   UNL A   1      39.799  32.626  35.827  1.00  0.00     0.034 A 
ATOM     49  C   UNL A   1      41.724  28.245  31.331  1.00  0.00     0.049 A 
ATOM     50  C   UNL A   1      40.912  31.610  35.776  1.00  0.00     0.074 A 
ATOM     51  C   UNL A   1      42.816  27.398  31.395  1.00  0.00     0.029 A 
ATOM     52  N   UNL A   1      41.704  28.957  32.526  1.00  0.00    -0.354 N 
ATOM     53  N   UNL A   1      41.216  30.766  34.817  1.00  0.00    -0.248 NA
ATOM     54  C   UNL A   1      41.794  31.537  36.946  1.00  0.00     0.031 C 
ATOM     55  C   UNL A   1      43.423  27.558  32.645  1.00  0.00     0.029 A 
ATOM     56  C   UNL A   1      42.750  28.553  33.339  1.00  0.00     0.049 A 
ATOM     57  H   UNL A   1      41.042  29.648  32.759  1.00  0.00     0.167 HD
ATOM     58  C   UNL A   1      42.345  30.082  35.257  1.00  0.00     0.074 A 
ATOM     59  C   UNL A   1      42.672  30.622  36.562  1.00  0.00     0.031 C 
ATOM     60  C   UNL A   1      43.051  29.100  34.642  1.00  0.00     0.034 A 
BRANCH  47  61
ATOM     61  C   UNL A   1      40.844  27.502  29.055  1.00  0.00     0.023 A 
ATOM     62  C   UNL A   1      41.786  27.722  28.034  1.00  0.00     0.031 A 
ATOM     63  C   UNL A   1      39.925  26.453  28.884  1.00  0.00     0.131 A 
ATOM     64  C   UNL A   1      41.723  26.977  26.848  1.00  0.00     0.055 A 
ATOM     65  C   UNL A   1      39.928  25.651  27.740  1.00  0.00     0.041 A 
ATOM     66  F   UNL A   1      38.989  26.205  29.813  1.00  0.00    -0.206 F 
ATOM     67  C   UNL A   1      40.816  25.924  26.703  1.00  0.00     0.022 A 
BRANCH  64  68
ATOM     68  S   UNL A   1      42.721  27.519  25.433  1.00  0.00     0.124 S 
ATOM     69  O   UNL A   1      42.701  26.326  24.587  1.00  0.00    -0.237 OA
ATOM     70  O   UNL A   1      41.971  28.666  24.938  1.00  0.00    -0.237 OA
ATOM     71  O   UNL A   1      44.019  27.829  26.028  1.00  0.00    -0.744 OA
ENDBRANCH  64  68
ENDBRANCH  47  61
BRANCH  48  72
ATOM     72  C   UNL A   1      39.592  33.472  37.035  1.00  0.00     0.023 A 
ATOM     73  C   UNL A   1      38.925  32.967  38.163  1.00  0.00     0.031 A 
ATOM     74  C   UNL A   1      40.032  34.807  37.073  1.00  0.00     0.131 A 
ATOM     75  C   UNL A   1      38.679  33.801  39.265  1.00  0.00     0.055 A 
ATOM     76  C   UNL A   1      39.826  35.620  38.189  1.00  0.00     0.041 A 
ATOM     77  F   UNL A   1      40.684  35.336  36.025  1.00  0.00    -0.206 F 
ATOM     78  C   UNL A   1      39.136  35.121  39.290  1.00  0.00     0.022 A 
BRANCH  75  79
ATOM     79  S   UNL A   1      37.693  33.154  40.642  1.00  0.00     0.124 S 
ATOM     80  O   UNL A   1      37.133  34.376  41.207  1.00  0.00    -0.237 OA
ATOM     81  O   UNL A   1      36.753  32.275  39.954  1.00  0.00    -0.237 OA
ATOM     82  O   UNL A   1      38.680  32.474  41.478  1.00  0.00    -0.744 OA
ENDBRANCH  75  79
ENDBRANCH  48  72
BRANCH  60  83
ATOM     83  C   UNL A   1      44.271  28.585  35.360  1.00  0.00     0.023 A 
ATOM     84  C   UNL A   1      44.186  27.564  36.322  1.00  0.00     0.031 A 
ATOM     85  C   UNL A   1      45.536  29.133  35.083  1.00  0.00     0.131 A 
ATOM     86  C   UNL A   1      45.338  27.156  37.011  1.00  0.00     0.055 A 
ATOM     87  C   UNL A   1      46.687  28.684  35.731  1.00  0.00     0.041 A 
ATOM     88  F   UNL A   1      45.673  30.111  34.174  1.00  0.00    -0.206 F 
ATOM     89  C   UNL A   1      46.590  27.699  36.711  1.00  0.00     0.022 A 
BRANCH  86  90
ATOM     90  S   UNL A   1      45.165  25.964  38.366  1.00  0.00     0.124 S 
ATOM     91  O   UNL A   1      44.322  26.696  39.308  1.00  0.00    -0.237 OA
ATOM     92  O   UNL A   1      44.539  24.825  37.703  1.00  0.00    -0.237 OA
ATOM     93  O   UNL A   1      46.541  25.745  38.808  1.00  0.00    -0.744 OA
ENDBRANCH  86  90
ENDBRANCH  60  83
ENDBRANCH  34  35
ENDBRANCH  26  29
ENDBRANCH  24  25
ENDBRANCH  23  24
ENDBRANCH  22  23
ENDBRANCH   1  22
TORSDOF 19
ENDMDL
MODEL 2
REMARK VINA RESULT:     -10.5      1.809      2.115
REMARK SMILES COC[C@@H](C)N(C)C(=O)N1CCC(CC(=O)NCCCCNC(=O)c2ccc(-c3c4nc(c(-c5cc(S(=O)(=O)[O-])ccc5F)c5ccc([nH]5)c(-c5cc(S(=O)(=O)[O-])ccc5F)c5nc(c(-c6cc(S(=O)(=O)[O-])ccc6F)c6ccc3[nH]6)C=C5)C=C4)cc2)CC1
REMARK SMILES IDX 18 1 17 2 15 3 16 4 14 6 13 7 8 8 9 9 10 10 11 11 89 12
REMARK SMILES IDX 12 13 88 14 6 15 7 16 4 17 5 18 3 19 2 20 1 21 19 22 20 23
REMARK SMILES IDX 21 24 22 25 23 26 24 28 25 29 26 30 87 31 27 32 86 33 28 34
REMARK SMILES IDX 29 35 30 36 80 37 31 38 85 39 79 40 81 41 32 42 84 43 78 44
REMARK SMILES IDX 77 45 33 47 65 48 45 49 64 50 46 51 49 52 63 53 82 54 47 55
REMARK SMILES IDX 48 56 62 58 83 59 50 60 34 61 35 62 43 63 36 64 42 65 44 66
REMARK SMILES IDX 41 67 37 68 38 69 39 70 40 71 66 72 67 73 75 74 68 75 74 76
REMARK SMILES IDX 76 77 73 78 69 79 70 80 71 81 72 82 51 83 52 84 60 85 53 86
REMARK SMILES IDX 59 87 61 88 58 89 54 90 55 91 56 92 57 93
REMARK H PARENT 17 5 22 27 81 46 49 57
REMARK Flexibility Score: inf
ROOT
ATOM      1  C   UNL A   1      31.466  29.702  25.051  1.00  0.00     0.116 C 
ENDROOT
BRANCH   1   2
ATOM      2  N   UNL A   1      30.811  29.868  23.761  1.00  0.00    -0.356 N 
ATOM      3  C   UNL A   1      30.230  28.947  22.937  1.00  0.00     0.220 C 
ATOM      4  O   UNL A   1      29.786  29.326  21.852  1.00  0.00    -0.275 OA
ATOM      5  H   UNL A   1      30.782  30.795  23.429  1.00  0.00     0.163 HD
BRANCH   3   6
ATOM      6  C   UNL A   1      30.138  27.482  23.338  1.00  0.00     0.103 C 
BRANCH   6   7
ATOM      7  C   UNL A   1      31.129  26.564  22.588  1.00  0.00     0.002 C 
ATOM      8  C   UNL A   1      34.240  24.594  23.956  1.00  0.00     0.320 C 
ATOM      9  O   UNL A   1      34.422  25.437  24.832  1.00  0.00    -0.248 OA
ATOM     10  N   UNL A   1      33.495  24.873  22.825  1.00  0.00    -0.325 N 
ATOM     11  C   UNL A   1      33.637  26.171  22.208  1.00  0.00     0.121 C 
ATOM     12  C   UNL A   1      32.201  24.237  22.616  1.00  0.00     0.121 C 
ATOM     13  C   UNL A   1      32.551  27.115  22.680  1.00  0.00     0.026 C 
ATOM     14  C   UNL A   1      31.066  25.127  23.144  1.00  0.00     0.026 C 
BRANCH   8  15
ATOM     15  N   UNL A   1      34.810  23.328  23.993  1.00  0.00    -0.323 N 
ATOM     16  C   UNL A   1      36.051  23.012  23.300  1.00  0.00     0.149 C 
BRANCH  15  17
ATOM     17  C   UNL A   1      34.282  22.300  24.915  1.00  0.00     0.109 C 
ATOM     18  C   UNL A   1      33.318  21.353  24.197  1.00  0.00     0.033 C 
BRANCH  17  19
ATOM     19  C   UNL A   1      33.677  22.919  26.198  1.00  0.00     0.184 C 
BRANCH  19  20
ATOM     20  O   UNL A   1      32.255  22.753  26.278  1.00  0.00    -0.383 OA
ATOM     21  C   UNL A   1      31.552  23.957  26.552  1.00  0.00     0.194 C 
ENDBRANCH  19  20
ENDBRANCH  17  19
ENDBRANCH  15  17
ENDBRANCH   8  15
ENDBRANCH   6   7
ENDBRANCH   3   6
ENDBRANCH   1   2
BRANCH   1  22
ATOM     22  C   UNL A   1      31.433  30.991  25.878  1.00  0.00     0.023 C 
BRANCH  22  23
ATOM     23  C   UNL A   1      32.227  30.961  27.172  1.00  0.00     0.023 C 
BRANCH  23  24
ATOM     24  C   UNL A   1      33.334  31.994  27.244  1.00  0.00     0.116 C 
BRANCH  24  25
ATOM     25  N   UNL A   1      32.853  33.349  27.483  1.00  0.00    -0.352 N 
ATOM     26  C   UNL A   1      33.251  34.246  28.451  1.00  0.00     0.251 C 
ATOM     27  H   UNL A   1      32.148  33.664  26.872  1.00  0.00     0.163 HD
ATOM     28  O   UNL A   1      32.675  35.314  28.584  1.00  0.00    -0.269 OA
BRANCH  26  29
ATOM     29  C   UNL A   1      34.355  33.860  29.354  1.00  0.00     0.039 A 
ATOM     30  C   UNL A   1      34.094  32.995  30.417  1.00  0.00     0.014 A 
ATOM     31  C   UNL A   1      35.660  34.275  29.079  1.00  0.00     0.014 A 
ATOM     32  C   UNL A   1      35.160  32.474  31.152  1.00  0.00     0.010 A 
ATOM     33  C   UNL A   1      36.721  33.667  29.734  1.00  0.00     0.010 A 
ATOM     34  C   UNL A   1      36.483  32.767  30.783  1.00  0.00    -0.014 A 
BRANCH  34  35
ATOM     35  C   UNL A   1      37.644  32.178  31.498  1.00  0.00     0.031 A 
ATOM     36  C   UNL A   1      38.448  31.096  30.829  1.00  0.00     0.074 A 
ATOM     37  C   UNL A   1      37.915  32.549  32.765  1.00  0.00     0.049 A 
ATOM     38  N   UNL A   1      39.415  30.361  31.311  1.00  0.00    -0.248 NA
ATOM     39  C   UNL A   1      38.072  30.763  29.446  1.00  0.00     0.031 C 
ATOM     40  C   UNL A   1      37.167  33.543  33.539  1.00  0.00     0.029 A 
ATOM     41  N   UNL A   1      38.891  32.124  33.631  1.00  0.00    -0.354 N 
ATOM     42  C   UNL A   1      39.741  29.462  30.303  1.00  0.00     0.074 A 
ATOM     43  C   UNL A   1      38.812  29.691  29.219  1.00  0.00     0.031 C 
ATOM     44  C   UNL A   1      37.733  33.676  34.749  1.00  0.00     0.029 A 
ATOM     45  C   UNL A   1      38.854  32.748  34.857  1.00  0.00     0.049 A 
ATOM     46  H   UNL A   1      39.556  31.437  33.396  1.00  0.00     0.167 HD
ATOM     47  C   UNL A   1      40.745  28.551  30.269  1.00  0.00     0.034 A 
ATOM     48  C   UNL A   1      39.634  32.583  35.943  1.00  0.00     0.034 A 
ATOM     49  C   UNL A   1      41.683  28.365  31.348  1.00  0.00     0.049 A 
ATOM     50  C   UNL A   1      40.755  31.578  35.882  1.00  0.00     0.074 A 
ATOM     51  C   UNL A   1      42.780  27.524  31.406  1.00  0.00     0.029 A 
ATOM     52  N   UNL A   1      41.633  29.037  32.564  1.00  0.00    -0.354 N 
ATOM     53  N   UNL A   1      41.085  30.768  34.902  1.00  0.00    -0.248 NA
ATOM     54  C   UNL A   1      41.614  31.473  37.067  1.00  0.00     0.031 C 
ATOM     55  C   UNL A   1      43.360  27.647  32.673  1.00  0.00     0.029 A 
ATOM     56  C   UNL A   1      42.666  28.614  33.385  1.00  0.00     0.049 A 
ATOM     57  H   UNL A   1      40.962  29.716  32.806  1.00  0.00     0.167 HD
ATOM     58  C   UNL A   1      42.211  30.078  35.343  1.00  0.00     0.074 A 
ATOM     59  C   UNL A   1      42.507  30.577  36.671  1.00  0.00     0.031 C 
ATOM     60  C   UNL A   1      42.936  29.121  34.711  1.00  0.00     0.034 A 
BRANCH  47  61
ATOM     61  C   UNL A   1      40.855  27.691  29.031  1.00  0.00     0.023 A 
ATOM     62  C   UNL A   1      41.796  27.967  28.023  1.00  0.00     0.031 A 
ATOM     63  C   UNL A   1      39.966  26.623  28.822  1.00  0.00     0.131 A 
ATOM     64  C   UNL A   1      41.760  27.258  26.814  1.00  0.00     0.055 A 
ATOM     65  C   UNL A   1      39.997  25.857  27.654  1.00  0.00     0.041 A 
ATOM     66  F   UNL A   1      39.032  26.321  29.737  1.00  0.00    -0.206 F 
ATOM     67  C   UNL A   1      40.883  26.186  26.632  1.00  0.00     0.022 A 
BRANCH  64  68
ATOM     68  S   UNL A   1      42.751  27.871  25.423  1.00  0.00     0.124 S 
ATOM     69  O   UNL A   1      44.004  28.221  26.089  1.00  0.00    -0.237 OA
ATOM     70  O   UNL A   1      42.799  26.715  24.537  1.00  0.00    -0.237 OA
ATOM     71  O   UNL A   1      41.979  29.008  24.927  1.00  0.00    -0.744 OA
ENDBRANCH  64  68
ENDBRANCH  47  61
BRANCH  48  72
ATOM     72  C   UNL A   1      39.396  33.389  37.174  1.00  0.00     0.023 A 
ATOM     73  C   UNL A   1      40.079  34.596  37.387  1.00  0.00     0.031 A 
ATOM     74  C   UNL A   1      38.502  32.952  38.167  1.00  0.00     0.131 A 
ATOM     75  C   UNL A   1      39.892  35.305  38.584  1.00  0.00     0.055 A 
ATOM     76  C   UNL A   1      38.283  33.684  39.336  1.00  0.00     0.041 A 
ATOM     77  F   UNL A   1      37.816  31.810  38.007  1.00  0.00    -0.206 F 
ATOM     78  C   UNL A   1      38.990  34.863  39.555  1.00  0.00     0.022 A 
BRANCH  75  79
ATOM     79  S   UNL A   1      40.896  36.785  38.885  1.00  0.00     0.124 S 
ATOM     80  O   UNL A   1      39.884  37.835  38.896  1.00  0.00    -0.237 OA
ATOM     81  O   UNL A   1      41.514  36.475  40.170  1.00  0.00    -0.237 OA
ATOM     82  O   UNL A   1      41.812  36.813  37.747  1.00  0.00    -0.744 OA
ENDBRANCH  75  79
ENDBRANCH  48  72
BRANCH  60  83
ATOM     83  C   UNL A   1      44.146  28.591  35.437  1.00  0.00     0.023 A 
ATOM     84  C   UNL A   1      45.415  29.173  35.279  1.00  0.00     0.031 A 
ATOM     85  C   UNL A   1      44.024  27.481  36.291  1.00  0.00     0.131 A 
ATOM     86  C   UNL A   1      46.525  28.610  35.927  1.00  0.00     0.055 A 
ATOM     87  C   UNL A   1      45.122  26.961  36.977  1.00  0.00     0.041 A 
ATOM     88  F   UNL A   1      42.834  26.888  36.476  1.00  0.00    -0.206 F 
ATOM     89  C   UNL A   1      46.384  27.517  36.786  1.00  0.00     0.022 A 
BRANCH  86  90
ATOM     90  S   UNL A   1      48.173  29.274  35.564  1.00  0.00     0.124 S 
ATOM     91  O   UNL A   1      48.577  28.472  34.413  1.00  0.00    -0.237 OA
ATOM     92  O   UNL A   1      47.891  30.680  35.295  1.00  0.00    -0.237 OA
ATOM     93  O   UNL A   1      48.923  29.017  36.792  1.00  0.00    -0.744 OA
ENDBRANCH  86  90
ENDBRANCH  60  83
ENDBRANCH  34  35
ENDBRANCH  26  29
ENDBRANCH  24  25
ENDBRANCH  23  24
ENDBRANCH  22  23
ENDBRANCH   1  22
TORSDOF 19
ENDMDL
MODEL 3
REMARK VINA RESULT:     -10.4      3.120      8.382
REMARK SMILES COC[C@@H](C)N(C)C(=O)N1CCC(CC(=O)NCCCCNC(=O)c2ccc(-c3c4nc(c(-c5cc(S(=O)(=O)[O-])ccc5F)c5ccc([nH]5)c(-c5cc(S(=O)(=O)[O-])ccc5F)c5nc(c(-c6cc(S(=O)(=O)[O-])ccc6F)c6ccc3[nH]6)C=C5)C=C4)cc2)CC1
REMARK SMILES IDX 18 1 17 2 15 3 16 4 14 6 13 7 8 8 9 9 10 10 11 11 89 12
REMARK SMILES IDX 12 13 88 14 6 15 7 16 4 17 5 18 3 19 2 20 1 21 19 22 20 23
REMARK SMILES IDX 21 24 22 25 23 26 24 28 25 29 26 30 87 31 27 32 86 33 28 34
REMARK SMILES IDX 29 35 30 36 80 37 31 38 85 39 79 40 81 41 32 42 84 43 78 44
REMARK SMILES IDX 77 45 33 47 65 48 45 49 64 50 46 51 49 52 63 53 82 54 47 55
REMARK SMILES IDX 48 56 62 58 83 59 50 60 34 61 35 62 43 63 36 64 42 65 44 66
REMARK SMILES IDX 41 67 37 68 38 69 39 70 40 71 66 72 67 73 75 74 68 75 74 76
REMARK SMILES IDX 76 77 73 78 69 79 70 80 71 81 72 82 51 83 52 84 60 85 53 86
REMARK SMILES IDX 59 87 61 88 58 89 54 90 55 91 56 92 57 93
REMARK H PARENT 17 5 22 27 81 46 49 57
REMARK Flexibility Score: inf
ROOT
ATOM      1  C   UNL A   1      32.905  28.453  24.552  1.00  0.00     0.116 C 
ENDROOT
BRANCH   1   2
ATOM      2  N   UNL A   1      32.253  28.086  23.302  1.00  0.00    -0.356 N 
ATOM      3  C   UNL A   1      31.037  27.509  23.073  1.00  0.00     0.220 C 
ATOM      4  O   UNL A   1      30.724  27.236  21.913  1.00  0.00    -0.275 OA
ATOM      5  H   UNL A   1      32.773  28.287  22.491  1.00  0.00     0.163 HD
BRANCH   3   6
ATOM      6  C   UNL A   1      30.088  27.194  24.222  1.00  0.00     0.103 C 
BRANCH   6   7
ATOM      7  C   UNL A   1      30.174  25.736  24.724  1.00  0.00     0.002 C 
ATOM      8  C   UNL A   1      33.272  23.326  24.895  1.00  0.00     0.320 C 
ATOM      9  O   UNL A   1      33.790  23.881  23.928  1.00  0.00    -0.248 OA
ATOM     10  N   UNL A   1      31.917  23.437  25.153  1.00  0.00    -0.325 N 
ATOM     11  C   UNL A   1      30.998  23.403  24.041  1.00  0.00     0.121 C 
ATOM     12  C   UNL A   1      31.444  24.179  26.313  1.00  0.00     0.121 C 
ATOM     13  C   UNL A   1      30.629  24.805  23.601  1.00  0.00     0.026 C 
ATOM     14  C   UNL A   1      31.123  25.633  25.935  1.00  0.00     0.026 C 
BRANCH   8  15
ATOM     15  N   UNL A   1      33.976  22.502  25.762  1.00  0.00    -0.323 N 
ATOM     16  C   UNL A   1      34.426  22.952  27.072  1.00  0.00     0.149 C 
BRANCH  15  17
ATOM     17  C   UNL A   1      34.116  21.059  25.469  1.00  0.00     0.109 C 
ATOM     18  C   UNL A   1      35.554  20.709  25.080  1.00  0.00     0.033 C 
BRANCH  17  19
ATOM     19  C   UNL A   1      33.075  20.567  24.435  1.00  0.00     0.184 C 
BRANCH  19  20
ATOM     20  O   UNL A   1      32.102  19.683  25.005  1.00  0.00    -0.383 OA
ATOM     21  C   UNL A   1      32.622  18.411  25.366  1.00  0.00     0.194 C 
ENDBRANCH  19  20
ENDBRANCH  17  19
ENDBRANCH  15  17
ENDBRANCH   8  15
ENDBRANCH   6   7
ENDBRANCH   3   6
ENDBRANCH   1   2
BRANCH   1  22
ATOM     22  C   UNL A   1      32.110  29.514  25.320  1.00  0.00     0.023 C 
BRANCH  22  23
ATOM     23  C   UNL A   1      32.271  29.489  26.830  1.00  0.00     0.023 C 
BRANCH  23  24
ATOM     24  C   UNL A   1      33.637  29.932  27.314  1.00  0.00     0.116 C 
BRANCH  24  25
ATOM     25  N   UNL A   1      33.621  31.213  28.011  1.00  0.00    -0.352 N 
ATOM     26  C   UNL A   1      34.595  31.770  28.812  1.00  0.00     0.251 C 
ATOM     27  H   UNL A   1      32.805  31.751  27.894  1.00  0.00     0.163 HD
ATOM     28  O   UNL A   1      34.387  32.813  29.410  1.00  0.00    -0.269 OA
BRANCH  26  29
ATOM     29  C   UNL A   1      35.873  31.045  28.970  1.00  0.00     0.039 A 
ATOM     30  C   UNL A   1      37.054  31.644  28.529  1.00  0.00     0.014 A 
ATOM     31  C   UNL A   1      35.905  29.823  29.646  1.00  0.00     0.014 A 
ATOM     32  C   UNL A   1      38.279  31.056  28.849  1.00  0.00     0.010 A 
ATOM     33  C   UNL A   1      37.123  29.306  30.062  1.00  0.00     0.010 A 
ATOM     34  C   UNL A   1      38.323  29.911  29.660  1.00  0.00    -0.014 A 
BRANCH  34  35
ATOM     35  C   UNL A   1      39.608  29.296  30.078  1.00  0.00     0.031 A 
ATOM     36  C   UNL A   1      40.372  29.896  31.228  1.00  0.00     0.074 A 
ATOM     37  C   UNL A   1      40.125  28.267  29.376  1.00  0.00     0.049 A 
ATOM     38  N   UNL A   1      41.563  29.602  31.678  1.00  0.00    -0.248 NA
ATOM     39  C   UNL A   1      39.723  31.015  31.929  1.00  0.00     0.031 C 
ATOM     40  C   UNL A   1      39.505  27.643  28.204  1.00  0.00     0.029 A 
ATOM     41  N   UNL A   1      41.296  27.572  29.539  1.00  0.00    -0.354 N 
ATOM     42  C   UNL A   1      41.817  30.517  32.693  1.00  0.00     0.074 A 
ATOM     43  C   UNL A   1      40.692  31.425  32.731  1.00  0.00     0.031 C 
ATOM     44  C   UNL A   1      40.285  26.635  27.779  1.00  0.00     0.029 A 
ATOM     45  C   UNL A   1      41.479  26.569  28.615  1.00  0.00     0.049 A 
ATOM     46  H   UNL A   1      41.944  27.772  30.252  1.00  0.00     0.167 HD
ATOM     47  C   UNL A   1      42.875  30.576  33.538  1.00  0.00     0.034 A 
ATOM     48  C   UNL A   1      42.497  25.701  28.461  1.00  0.00     0.034 A 
ATOM     49  C   UNL A   1      43.968  29.638  33.505  1.00  0.00     0.049 A 
ATOM     50  C   UNL A   1      43.658  25.771  29.420  1.00  0.00     0.074 A 
ATOM     51  C   UNL A   1      45.062  29.552  34.349  1.00  0.00     0.029 A 
ATOM     52  N   UNL A   1      44.106  28.614  32.574  1.00  0.00    -0.354 N 
ATOM     53  N   UNL A   1      43.863  26.611  30.409  1.00  0.00    -0.248 NA
ATOM     54  C   UNL A   1      44.717  24.770  29.249  1.00  0.00     0.031 C 
ATOM     55  C   UNL A   1      45.885  28.515  33.896  1.00  0.00     0.029 A 
ATOM     56  C   UNL A   1      45.274  27.908  32.809  1.00  0.00     0.049 A 
ATOM     57  H   UNL A   1      43.465  28.420  31.851  1.00  0.00     0.167 HD
ATOM     58  C   UNL A   1      45.062  26.219  30.997  1.00  0.00     0.074 A 
ATOM     59  C   UNL A   1      45.525  25.061  30.258  1.00  0.00     0.031 C 
ATOM     60  C   UNL A   1      45.720  26.762  32.052  1.00  0.00     0.034 A 
BRANCH  47  61
ATOM     61  C   UNL A   1      42.890  31.700  34.547  1.00  0.00     0.023 A 
ATOM     62  C   UNL A   1      42.198  31.604  35.769  1.00  0.00     0.031 A 
ATOM     63  C   UNL A   1      43.545  32.910  34.261  1.00  0.00     0.131 A 
ATOM     64  C   UNL A   1      42.090  32.723  36.605  1.00  0.00     0.055 A 
ATOM     65  C   UNL A   1      43.514  33.992  35.144  1.00  0.00     0.041 A 
ATOM     66  F   UNL A   1      44.206  33.073  33.104  1.00  0.00    -0.206 F 
ATOM     67  C   UNL A   1      42.766  33.911  36.315  1.00  0.00     0.022 A 
BRANCH  64  68
ATOM     68  S   UNL A   1      40.912  32.660  37.984  1.00  0.00     0.124 S 
ATOM     69  O   UNL A   1      40.700  34.082  38.253  1.00  0.00    -0.237 OA
ATOM     70  O   UNL A   1      39.783  31.945  37.403  1.00  0.00    -0.237 OA
ATOM     71  O   UNL A   1      41.642  31.940  39.025  1.00  0.00    -0.744 OA
ENDBRANCH  64  68
ENDBRANCH  47  61
BRANCH  48  72
ATOM     72  C   UNL A   1      42.468  24.689  27.368  1.00  0.00     0.023 A 
ATOM     73  C   UNL A   1      41.634  23.563  27.452  1.00  0.00     0.031 A 
ATOM     74  C   UNL A   1      43.292  24.815  26.236  1.00  0.00     0.131 A 
ATOM     75  C   UNL A   1      41.671  22.585  26.445  1.00  0.00     0.055 A 
ATOM     76  C   UNL A   1      43.293  23.864  25.214  1.00  0.00     0.041 A 
ATOM     77  F   UNL A   1      44.101  25.878  26.102  1.00  0.00    -0.206 F 
ATOM     78  C   UNL A   1      42.487  22.734  25.321  1.00  0.00     0.022 A 
BRANCH  75  79
ATOM     79  S   UNL A   1      40.684  21.079  26.658  1.00  0.00     0.124 S 
ATOM     80  O   UNL A   1      40.839  20.821  28.085  1.00  0.00    -0.237 OA
ATOM     81  O   UNL A   1      39.361  21.521  26.226  1.00  0.00    -0.237 OA
ATOM     82  O   UNL A   1      41.336  20.116  25.774  1.00  0.00    -0.744 OA
ENDBRANCH  75  79
ENDBRANCH  48  72
BRANCH  60  83
ATOM     83  C   UNL A   1      46.988  26.075  32.491  1.00  0.00     0.023 A 
ATOM     84  C   UNL A   1      46.978  25.056  33.458  1.00  0.00     0.031 A 
ATOM     85  C   UNL A   1      48.224  26.456  31.939  1.00  0.00     0.131 A 
ATOM     86  C   UNL A   1      48.188  24.485  33.882  1.00  0.00     0.055 A 
ATOM     87  C   UNL A   1      49.417  25.845  32.323  1.00  0.00     0.041 A 
ATOM     88  F   UNL A   1      48.288  27.425  31.012  1.00  0.00    -0.206 F 
ATOM     89  C   UNL A   1      49.405  24.863  33.310  1.00  0.00     0.022 A 
BRANCH  86  90
ATOM     90  S   UNL A   1      48.157  23.300  35.254  1.00  0.00     0.124 S 
ATOM     91  O   UNL A   1      46.756  23.348  35.665  1.00  0.00    -0.237 OA
ATOM     92  O   UNL A   1      48.590  22.065  34.611  1.00  0.00    -0.237 OA
ATOM     93  O   UNL A   1      49.104  23.863  36.215  1.00  0.00    -0.744 OA
ENDBRANCH  86  90
ENDBRANCH  60  83
ENDBRANCH  34  35
ENDBRANCH  26  29
ENDBRANCH  24  25
ENDBRANCH  23  24
ENDBRANCH  22  23
ENDBRANCH   1  22
TORSDOF 19
ENDMDL
