MODEL 1
REMARK VINA RESULT:     -11.0      0.000      0.000
REMARK SMILES CC[C@@H](C)S(=O)(=O)c1cc(C(=O)NCCCCNC(=O)c2ccc(-c3c4nc(c(-c5cc(S(=O)(=O)[O-])ccc5F)c5ccc([nH]5)c(-c5cc(S(=O)(=O)[O-])ccc5F)c5nc(c(-c6cc(S(=O)(=O)[O-])ccc6F)c6ccc3[nH]6)C=C5)C=C4)cc2)c(C)cc1C
REMARK SMILES IDX 15 1 14 2 13 3 11 4 12 5 10 7 8 8 9 9 87 10 86 11 88 12
REMARK SMILES IDX 84 13 85 14 5 15 6 16 7 17 3 18 4 19 2 20 1 21 16 22 17 23
REMARK SMILES IDX 18 24 19 25 20 27 21 28 22 29 83 30 23 31 82 32 24 33 25 34
REMARK SMILES IDX 26 35 76 36 27 37 81 38 75 39 77 40 28 41 80 42 74 43 73 44
REMARK SMILES IDX 29 46 61 47 41 48 60 49 42 50 45 51 59 52 78 53 43 54 44 55
REMARK SMILES IDX 58 57 79 58 46 59 30 60 31 61 39 62 32 63 38 64 40 65 37 66
REMARK SMILES IDX 33 67 34 68 35 69 36 70 62 71 63 72 71 73 64 74 70 75 72 76
REMARK SMILES IDX 69 77 65 78 66 79 67 80 68 81 47 82 48 83 56 84 49 85 55 86
REMARK SMILES IDX 57 87 54 88 50 89 51 90 52 91 53 92
REMARK H PARENT 13 6 18 26 77 45 45 56
REMARK Flexibility Score: inf
ROOT
ATOM      1  C   UNL A   1      34.907  30.664  27.942  1.00  0.00     0.023 C 
ENDROOT
BRANCH   1   2
ATOM      2  C   UNL A   1      34.706  29.323  27.229  1.00  0.00     0.116 C 
BRANCH   2   3
ATOM      3  N   UNL A   1      34.167  29.554  25.913  1.00  0.00    -0.352 N 
ATOM      4  C   UNL A   1      33.402  28.833  25.041  1.00  0.00     0.251 C 
ATOM      5  O   UNL A   1      33.226  29.388  23.950  1.00  0.00    -0.269 OA
ATOM      6  H   UNL A   1      34.405  30.442  25.559  1.00  0.00     0.163 HD
BRANCH   4   7
ATOM      7  C   UNL A   1      32.709  27.513  25.278  1.00  0.00     0.044 A 
ATOM      8  C   UNL A   1      32.724  25.169  24.425  1.00  0.00     0.071 A 
ATOM      9  C   UNL A   1      33.126  26.519  24.352  1.00  0.00     0.034 A 
ATOM     10  C   UNL A   1      31.836  24.770  25.426  1.00  0.00    -0.032 A 
ATOM     11  C   UNL A   1      31.371  25.759  26.302  1.00  0.00     0.009 A 
ATOM     12  C   UNL A   1      31.304  23.392  25.695  1.00  0.00     0.046 C 
ATOM     13  C   UNL A   1      31.840  27.093  26.299  1.00  0.00    -0.038 A 
ATOM     14  C   UNL A   1      31.406  27.860  27.507  1.00  0.00     0.045 C 
BRANCH   8  15
ATOM     15  S   UNL A   1      33.504  24.035  23.274  1.00  0.00     0.181 S 
ATOM     16  O   UNL A   1      34.035  24.809  22.163  1.00  0.00    -0.223 OA
ATOM     17  O   UNL A   1      32.551  22.983  22.983  1.00  0.00    -0.223 OA
BRANCH  15  18
ATOM     18  C   UNL A   1      34.883  23.291  24.168  1.00  0.00     0.110 C 
ATOM     19  C   UNL A   1      34.524  21.891  24.662  1.00  0.00     0.025 C 
BRANCH  18  20
ATOM     20  C   UNL A   1      35.400  24.200  25.288  1.00  0.00     0.016 C 
ATOM     21  C   UNL A   1      36.751  23.794  25.855  1.00  0.00     0.005 C 
ENDBRANCH  18  20
ENDBRANCH  15  18
ENDBRANCH   8  15
ENDBRANCH   4   7
ENDBRANCH   2   3
ENDBRANCH   1   2
BRANCH   1  22
ATOM     22  C   UNL A   1      33.711  31.602  27.933  1.00  0.00     0.023 C 
BRANCH  22  23
ATOM     23  C   UNL A   1      33.992  32.960  27.319  1.00  0.00     0.116 C 
BRANCH  23  24
ATOM     24  N   UNL A   1      33.168  34.034  27.859  1.00  0.00    -0.352 N 
ATOM     25  C   UNL A   1      33.309  34.668  29.072  1.00  0.00     0.251 C 
ATOM     26  H   UNL A   1      32.426  34.340  27.291  1.00  0.00     0.163 HD
ATOM     27  O   UNL A   1      32.489  35.498  29.444  1.00  0.00    -0.269 OA
BRANCH  25  28
ATOM     28  C   UNL A   1      34.446  34.275  29.929  1.00  0.00     0.039 A 
ATOM     29  C   UNL A   1      34.208  33.474  31.045  1.00  0.00     0.014 A 
ATOM     30  C   UNL A   1      35.750  34.589  29.537  1.00  0.00     0.014 A 
ATOM     31  C   UNL A   1      35.291  32.917  31.725  1.00  0.00     0.010 A 
ATOM     32  C   UNL A   1      36.818  33.947  30.148  1.00  0.00     0.010 A 
ATOM     33  C   UNL A   1      36.602  33.109  31.253  1.00  0.00    -0.014 A 
BRANCH  33  34
ATOM     34  C   UNL A   1      37.764  32.460  31.911  1.00  0.00     0.031 A 
ATOM     35  C   UNL A   1      38.472  31.329  31.216  1.00  0.00     0.074 A 
ATOM     36  C   UNL A   1      38.140  32.845  33.147  1.00  0.00     0.049 A 
ATOM     37  N   UNL A   1      39.457  30.582  31.643  1.00  0.00    -0.248 NA
ATOM     38  C   UNL A   1      37.981  30.965  29.877  1.00  0.00     0.031 C 
ATOM     39  C   UNL A   1      37.498  33.899  33.938  1.00  0.00     0.029 A 
ATOM     40  N   UNL A   1      39.150  32.395  33.959  1.00  0.00    -0.354 N 
ATOM     41  C   UNL A   1      39.693  29.657  30.633  1.00  0.00     0.074 A 
ATOM     42  C   UNL A   1      38.698  29.884  29.610  1.00  0.00     0.031 C 
ATOM     43  C   UNL A   1      38.153  34.038  35.101  1.00  0.00     0.029 A 
ATOM     44  C   UNL A   1      39.227  33.052  35.167  1.00  0.00     0.049 A 
ATOM     45  H   UNL A   1      39.765  31.670  33.701  1.00  0.00     0.167 HD
ATOM     46  C   UNL A   1      40.672  28.722  30.552  1.00  0.00     0.034 A 
ATOM     47  C   UNL A   1      40.060  32.869  36.212  1.00  0.00     0.034 A 
ATOM     48  C   UNL A   1      41.665  28.519  31.577  1.00  0.00     0.049 A 
ATOM     49  C   UNL A   1      41.122  31.801  36.111  1.00  0.00     0.074 A 
ATOM     50  C   UNL A   1      42.732  27.640  31.580  1.00  0.00     0.029 A 
ATOM     51  N   UNL A   1      41.708  29.200  32.788  1.00  0.00    -0.354 N 
ATOM     52  N   UNL A   1      41.368  30.970  35.124  1.00  0.00    -0.248 NA
ATOM     53  C   UNL A   1      42.025  31.654  37.260  1.00  0.00     0.031 C 
ATOM     54  C   UNL A   1      43.372  27.732  32.819  1.00  0.00     0.029 A 
ATOM     55  C   UNL A   1      42.764  28.735  33.557  1.00  0.00     0.049 A 
ATOM     56  H   UNL A   1      41.082  29.909  33.060  1.00  0.00     0.167 HD
ATOM     57  C   UNL A   1      42.479  30.229  35.520  1.00  0.00     0.074 A 
ATOM     58  C   UNL A   1      42.860  30.722  36.827  1.00  0.00     0.031 C 
ATOM     59  C   UNL A   1      43.129  29.235  34.862  1.00  0.00     0.034 A 
BRANCH  46  60
ATOM     60  C   UNL A   1      40.695  27.842  29.325  1.00  0.00     0.023 A 
ATOM     61  C   UNL A   1      41.618  28.048  28.285  1.00  0.00     0.031 A 
ATOM     62  C   UNL A   1      39.764  26.799  29.179  1.00  0.00     0.131 A 
ATOM     63  C   UNL A   1      41.541  27.277  27.116  1.00  0.00     0.055 A 
ATOM     64  C   UNL A   1      39.750  25.976  28.051  1.00  0.00     0.041 A 
ATOM     65  F   UNL A   1      38.840  26.570  30.127  1.00  0.00    -0.206 F 
ATOM     66  C   UNL A   1      40.633  26.224  27.003  1.00  0.00     0.022 A 
BRANCH  63  67
ATOM     67  S   UNL A   1      42.541  27.772  25.685  1.00  0.00     0.124 S 
ATOM     68  O   UNL A   1      43.843  28.010  26.304  1.00  0.00    -0.237 OA
ATOM     69  O   UNL A   1      42.451  26.602  24.818  1.00  0.00    -0.237 OA
ATOM     70  O   UNL A   1      41.865  28.969  25.191  1.00  0.00    -0.744 OA
ENDBRANCH  63  67
ENDBRANCH  46  60
BRANCH  47  71
ATOM     71  C   UNL A   1      39.929  33.701  37.444  1.00  0.00     0.023 A 
ATOM     72  C   UNL A   1      39.140  33.274  38.526  1.00  0.00     0.031 A 
ATOM     73  C   UNL A   1      40.546  34.961  37.540  1.00  0.00     0.131 A 
ATOM     74  C   UNL A   1      38.944  34.121  39.628  1.00  0.00     0.055 A 
ATOM     75  C   UNL A   1      40.398  35.774  38.665  1.00  0.00     0.041 A 
ATOM     76  F   UNL A   1      41.312  35.419  36.537  1.00  0.00    -0.206 F 
ATOM     77  C   UNL A   1      39.579  35.363  39.712  1.00  0.00     0.022 A 
BRANCH  74  78
ATOM     78  S   UNL A   1      37.757  33.623  40.906  1.00  0.00     0.124 S 
ATOM     79  O   UNL A   1      36.697  33.019  40.107  1.00  0.00    -0.237 OA
ATOM     80  O   UNL A   1      38.553  32.706  41.715  1.00  0.00    -0.237 OA
ATOM     81  O   UNL A   1      37.408  34.884  41.556  1.00  0.00    -0.744 OA
ENDBRANCH  74  78
ENDBRANCH  47  71
BRANCH  59  82
ATOM     82  C   UNL A   1      44.355  28.656  35.524  1.00  0.00     0.023 A 
ATOM     83  C   UNL A   1      44.271  27.620  36.471  1.00  0.00     0.031 A 
ATOM     84  C   UNL A   1      45.630  29.153  35.200  1.00  0.00     0.131 A 
ATOM     85  C   UNL A   1      45.435  27.154  37.102  1.00  0.00     0.055 A 
ATOM     86  C   UNL A   1      46.791  28.638  35.780  1.00  0.00     0.041 A 
ATOM     87  F   UNL A   1      45.771  30.145  34.306  1.00  0.00    -0.206 F 
ATOM     88  C   UNL A   1      46.696  27.643  36.747  1.00  0.00     0.022 A 
BRANCH  85  89
ATOM     89  S   UNL A   1      45.272  25.972  38.467  1.00  0.00     0.124 S 
ATOM     90  O   UNL A   1      44.961  24.734  37.761  1.00  0.00    -0.237 OA
ATOM     91  O   UNL A   1      46.589  26.037  39.093  1.00  0.00    -0.237 OA
ATOM     92  O   UNL A   1      44.179  26.521  39.268  1.00  0.00    -0.744 OA
ENDBRANCH  85  89
ENDBRANCH  59  82
ENDBRANCH  33  34
ENDBRANCH  25  28
ENDBRANCH  23  24
ENDBRANCH  22  23
ENDBRANCH   1  22
TORSDOF 17
ENDMDL
MODEL 2
REMARK VINA RESULT:     -11.0      0.842      7.847
REMARK SMILES CC[C@@H](C)S(=O)(=O)c1cc(C(=O)NCCCCNC(=O)c2ccc(-c3c4nc(c(-c5cc(S(=O)(=O)[O-])ccc5F)c5ccc([nH]5)c(-c5cc(S(=O)(=O)[O-])ccc5F)c5nc(c(-c6cc(S(=O)(=O)[O-])ccc6F)c6ccc3[nH]6)C=C5)C=C4)cc2)c(C)cc1C
REMARK SMILES IDX 15 1 14 2 13 3 11 4 12 5 10 7 8 8 9 9 87 10 86 11 88 12
REMARK SMILES IDX 84 13 85 14 5 15 6 16 7 17 3 18 4 19 2 20 1 21 16 22 17 23
REMARK SMILES IDX 18 24 19 25 20 27 21 28 22 29 83 30 23 31 82 32 24 33 25 34
REMARK SMILES IDX 26 35 76 36 27 37 81 38 75 39 77 40 28 41 80 42 74 43 73 44
REMARK SMILES IDX 29 46 61 47 41 48 60 49 42 50 45 51 59 52 78 53 43 54 44 55
REMARK SMILES IDX 58 57 79 58 46 59 30 60 31 61 39 62 32 63 38 64 40 65 37 66
REMARK SMILES IDX 33 67 34 68 35 69 36 70 62 71 63 72 71 73 64 74 70 75 72 76
REMARK SMILES IDX 69 77 65 78 66 79 67 80 68 81 47 82 48 83 56 84 49 85 55 86
REMARK SMILES IDX 57 87 54 88 50 89 51 90 52 91 53 92
REMARK H PARENT 13 6 18 26 77 45 45 56
REMARK Flexibility Score: inf
ROOT
ATOM      1  C   UNL A   1      34.920  30.924  28.019  1.00  0.00     0.023 C 
ENDROOT
BRANCH   1   2
ATOM      2  C   UNL A   1      34.794  29.560  27.332  1.00  0.00     0.116 C 
BRANCH   2   3
ATOM      3  N   UNL A   1      34.235  29.734  26.015  1.00  0.00    -0.352 N 
ATOM      4  C   UNL A   1      33.443  28.984  25.194  1.00  0.00     0.251 C 
ATOM      5  O   UNL A   1      33.258  29.487  24.079  1.00  0.00    -0.269 OA
ATOM      6  H   UNL A   1      34.482  30.598  25.612  1.00  0.00     0.163 HD
BRANCH   4   7
ATOM      7  C   UNL A   1      32.731  27.690  25.508  1.00  0.00     0.044 A 
ATOM      8  C   UNL A   1      32.723  25.296  24.807  1.00  0.00     0.071 A 
ATOM      9  C   UNL A   1      33.142  26.634  24.652  1.00  0.00     0.034 A 
ATOM     10  C   UNL A   1      31.823  24.973  25.824  1.00  0.00    -0.032 A 
ATOM     11  C   UNL A   1      31.365  26.021  26.631  1.00  0.00     0.009 A 
ATOM     12  C   UNL A   1      31.272  23.622  26.176  1.00  0.00     0.046 C 
ATOM     13  C   UNL A   1      31.850  27.347  26.547  1.00  0.00    -0.038 A 
ATOM     14  C   UNL A   1      31.417  28.195  27.700  1.00  0.00     0.045 C 
BRANCH   8  15
ATOM     15  S   UNL A   1      33.497  24.083  23.737  1.00  0.00     0.181 S 
ATOM     16  O   UNL A   1      34.266  24.791  22.727  1.00  0.00    -0.223 OA
ATOM     17  O   UNL A   1      32.464  23.168  23.294  1.00  0.00    -0.223 OA
BRANCH  15  18
ATOM     18  C   UNL A   1      34.637  23.154  24.782  1.00  0.00     0.110 C 
ATOM     19  C   UNL A   1      35.561  24.093  25.555  1.00  0.00     0.025 C 
BRANCH  18  20
ATOM     20  C   UNL A   1      35.403  22.088  23.992  1.00  0.00     0.016 C 
ATOM     21  C   UNL A   1      36.868  22.415  23.750  1.00  0.00     0.005 C 
ENDBRANCH  18  20
ENDBRANCH  15  18
ENDBRANCH   8  15
ENDBRANCH   4   7
ENDBRANCH   2   3
ENDBRANCH   1   2
BRANCH   1  22
ATOM     22  C   UNL A   1      33.725  31.851  27.868  1.00  0.00     0.023 C 
BRANCH  22  23
ATOM     23  C   UNL A   1      34.091  33.315  27.718  1.00  0.00     0.116 C 
BRANCH  23  24
ATOM     24  N   UNL A   1      33.251  34.216  28.497  1.00  0.00    -0.352 N 
ATOM     25  C   UNL A   1      33.388  34.551  29.824  1.00  0.00     0.251 C 
ATOM     26  H   UNL A   1      32.498  34.632  28.018  1.00  0.00     0.163 HD
ATOM     27  O   UNL A   1      32.555  35.255  30.382  1.00  0.00    -0.269 OA
BRANCH  25  28
ATOM     28  C   UNL A   1      34.538  33.992  30.563  1.00  0.00     0.039 A 
ATOM     29  C   UNL A   1      34.337  32.896  31.401  1.00  0.00     0.014 A 
ATOM     30  C   UNL A   1      35.825  34.471  30.307  1.00  0.00     0.014 A 
ATOM     31  C   UNL A   1      35.444  32.226  31.922  1.00  0.00     0.010 A 
ATOM     32  C   UNL A   1      36.923  33.739  30.737  1.00  0.00     0.010 A 
ATOM     33  C   UNL A   1      36.745  32.612  31.555  1.00  0.00    -0.014 A 
BRANCH  33  34
ATOM     34  C   UNL A   1      37.937  31.865  32.031  1.00  0.00     0.031 A 
ATOM     35  C   UNL A   1      38.572  32.242  33.342  1.00  0.00     0.074 A 
ATOM     36  C   UNL A   1      38.478  30.899  31.262  1.00  0.00     0.049 A 
ATOM     37  N   UNL A   1      39.654  31.770  33.904  1.00  0.00    -0.248 NA
ATOM     38  C   UNL A   1      37.923  33.321  34.105  1.00  0.00     0.031 C 
ATOM     39  C   UNL A   1      37.977  30.480  29.950  1.00  0.00     0.029 A 
ATOM     40  N   UNL A   1      39.571  30.094  31.468  1.00  0.00    -0.354 N 
ATOM     41  C   UNL A   1      39.821  32.500  35.075  1.00  0.00     0.074 A 
ATOM     42  C   UNL A   1      38.776  33.498  35.102  1.00  0.00     0.031 C 
ATOM     43  C   UNL A   1      38.736  29.473  29.490  1.00  0.00     0.029 A 
ATOM     44  C   UNL A   1      39.810  29.208  30.442  1.00  0.00     0.049 A 
ATOM     45  H   UNL A   1      40.131  30.145  32.276  1.00  0.00     0.167 HD
ATOM     46  C   UNL A   1      40.742  32.332  36.055  1.00  0.00     0.034 A 
ATOM     47  C   UNL A   1      40.789  28.295  30.284  1.00  0.00     0.034 A 
ATOM     48  C   UNL A   1      41.769  31.320  36.017  1.00  0.00     0.049 A 
ATOM     49  C   UNL A   1      41.823  28.147  31.374  1.00  0.00     0.074 A 
ATOM     50  C   UNL A   1      42.721  31.024  36.974  1.00  0.00     0.029 A 
ATOM     51  N   UNL A   1      41.981  30.443  34.960  1.00  0.00    -0.354 N 
ATOM     52  N   UNL A   1      41.933  28.809  32.503  1.00  0.00    -0.248 NA
ATOM     53  C   UNL A   1      42.856  27.124  31.174  1.00  0.00     0.031 C 
ATOM     54  C   UNL A   1      43.556  30.025  36.466  1.00  0.00     0.029 A 
ATOM     55  C   UNL A   1      43.071  29.630  35.229  1.00  0.00     0.049 A 
ATOM     56  H   UNL A   1      41.438  30.404  34.140  1.00  0.00     0.167 HD
ATOM     57  C   UNL A   1      43.027  28.253  33.164  1.00  0.00     0.074 A 
ATOM     58  C   UNL A   1      43.529  27.195  32.312  1.00  0.00     0.031 C 
ATOM     59  C   UNL A   1      43.564  28.581  34.367  1.00  0.00     0.034 A 
BRANCH  46  60
ATOM     60  C   UNL A   1      40.688  33.277  37.231  1.00  0.00     0.023 A 
ATOM     61  C   UNL A   1      39.911  32.997  38.370  1.00  0.00     0.031 A 
ATOM     62  C   UNL A   1      41.401  34.488  37.205  1.00  0.00     0.131 A 
ATOM     63  C   UNL A   1      39.804  33.947  39.396  1.00  0.00     0.055 A 
ATOM     64  C   UNL A   1      41.362  35.389  38.271  1.00  0.00     0.041 A 
ATOM     65  F   UNL A   1      42.140  34.824  36.135  1.00  0.00    -0.206 F 
ATOM     66  C   UNL A   1      40.547  35.128  39.369  1.00  0.00     0.022 A 
BRANCH  63  67
ATOM     67  S   UNL A   1      38.562  33.684  40.692  1.00  0.00     0.124 S 
ATOM     68  O   UNL A   1      37.521  32.964  39.962  1.00  0.00    -0.237 OA
ATOM     69  O   UNL A   1      39.299  32.909  41.683  1.00  0.00    -0.237 OA
ATOM     70  O   UNL A   1      38.201  35.040  41.101  1.00  0.00    -0.744 OA
ENDBRANCH  63  67
ENDBRANCH  46  60
BRANCH  47  71
ATOM     71  C   UNL A   1      40.855  27.454  29.052  1.00  0.00     0.023 A 
ATOM     72  C   UNL A   1      41.787  27.728  28.037  1.00  0.00     0.031 A 
ATOM     73  C   UNL A   1      39.951  26.397  28.846  1.00  0.00     0.131 A 
ATOM     74  C   UNL A   1      41.757  26.992  26.841  1.00  0.00     0.055 A 
ATOM     75  C   UNL A   1      39.965  25.628  27.681  1.00  0.00     0.041 A 
ATOM     76  F   UNL A   1      39.040  26.089  29.783  1.00  0.00    -0.206 F 
ATOM     77  C   UNL A   1      40.862  25.935  26.662  1.00  0.00     0.022 A 
BRANCH  74  78
ATOM     78  S   UNL A   1      42.834  27.509  25.476  1.00  0.00     0.124 S 
ATOM     79  O   UNL A   1      42.819  26.327  24.623  1.00  0.00    -0.237 OA
ATOM     80  O   UNL A   1      42.130  28.681  24.964  1.00  0.00    -0.237 OA
ATOM     81  O   UNL A   1      44.108  27.788  26.136  1.00  0.00    -0.744 OA
ENDBRANCH  74  78
ENDBRANCH  47  71
BRANCH  59  82
ATOM     82  C   UNL A   1      44.722  27.747  34.857  1.00  0.00     0.023 A 
ATOM     83  C   UNL A   1      44.530  26.590  35.631  1.00  0.00     0.031 A 
ATOM     84  C   UNL A   1      46.041  28.121  34.541  1.00  0.00     0.131 A 
ATOM     85  C   UNL A   1      45.641  25.880  36.112  1.00  0.00     0.055 A 
ATOM     86  C   UNL A   1      47.140  27.372  34.964  1.00  0.00     0.041 A 
ATOM     87  F   UNL A   1      46.284  29.219  33.808  1.00  0.00    -0.206 F 
ATOM     88  C   UNL A   1      46.944  26.252  35.766  1.00  0.00     0.022 A 
BRANCH  85  89
ATOM     89  S   UNL A   1      45.367  24.521  37.280  1.00  0.00     0.124 S 
ATOM     90  O   UNL A   1      45.115  23.397  36.385  1.00  0.00    -0.237 OA
ATOM     91  O   UNL A   1      46.629  24.482  38.014  1.00  0.00    -0.237 OA
ATOM     92  O   UNL A   1      44.213  24.965  38.060  1.00  0.00    -0.744 OA
ENDBRANCH  85  89
ENDBRANCH  59  82
ENDBRANCH  33  34
ENDBRANCH  25  28
ENDBRANCH  23  24
ENDBRANCH  22  23
ENDBRANCH   1  22
TORSDOF 17
ENDMDL
MODEL 3
REMARK VINA RESULT:     -10.8      1.685      7.793
REMARK SMILES CC[C@@H](C)S(=O)(=O)c1cc(C(=O)NCCCCNC(=O)c2ccc(-c3c4nc(c(-c5cc(S(=O)(=O)[O-])ccc5F)c5ccc([nH]5)c(-c5cc(S(=O)(=O)[O-])ccc5F)c5nc(c(-c6cc(S(=O)(=O)[O-])ccc6F)c6ccc3[nH]6)C=C5)C=C4)cc2)c(C)cc1C
REMARK SMILES IDX 15 1 14 2 13 3 11 4 12 5 10 7 8 8 9 9 87 10 86 11 88 12
REMARK SMILES IDX 84 13 85 14 5 15 6 16 7 17 3 18 4 19 2 20 1 21 16 22 17 23
REMARK SMILES IDX 18 24 19 25 20 27 21 28 22 29 83 30 23 31 82 32 24 33 25 34
REMARK SMILES IDX 26 35 76 36 27 37 81 38 75 39 77 40 28 41 80 42 74 43 73 44
REMARK SMILES IDX 29 46 61 47 41 48 60 49 42 50 45 51 59 52 78 53 43 54 44 55
REMARK SMILES IDX 58 57 79 58 46 59 30 60 31 61 39 62 32 63 38 64 40 65 37 66
REMARK SMILES IDX 33 67 34 68 35 69 36 70 62 71 63 72 71 73 64 74 70 75 72 76
REMARK SMILES IDX 69 77 65 78 66 79 67 80 68 81 47 82 48 83 56 84 49 85 55 86
REMARK SMILES IDX 57 87 54 88 50 89 51 90 52 91 53 92
REMARK H PARENT 13 6 18 26 77 45 45 56
REMARK Flexibility Score: inf
ROOT
ATOM      1  C   UNL A   1      34.780  30.582  27.672  1.00  0.00     0.023 C 
ENDROOT
BRANCH   1   2
ATOM      2  C   UNL A   1      34.615  29.232  26.966  1.00  0.00     0.116 C 
BRANCH   2   3
ATOM      3  N   UNL A   1      34.067  29.440  25.650  1.00  0.00    -0.352 N 
ATOM      4  C   UNL A   1      33.275  28.715  24.807  1.00  0.00     0.251 C 
ATOM      5  O   UNL A   1      33.102  29.244  23.702  1.00  0.00    -0.269 OA
ATOM      6  H   UNL A   1      34.324  30.311  25.269  1.00  0.00     0.163 HD
BRANCH   4   7
ATOM      7  C   UNL A   1      32.551  27.420  25.086  1.00  0.00     0.044 A 
ATOM      8  C   UNL A   1      32.430  25.078  24.237  1.00  0.00     0.071 A 
ATOM      9  C   UNL A   1      32.875  26.413  24.138  1.00  0.00     0.034 A 
ATOM     10  C   UNL A   1      31.593  24.710  25.291  1.00  0.00    -0.032 A 
ATOM     11  C   UNL A   1      31.218  25.713  26.193  1.00  0.00     0.009 A 
ATOM     12  C   UNL A   1      31.029  23.351  25.593  1.00  0.00     0.046 C 
ATOM     13  C   UNL A   1      31.733  27.029  26.160  1.00  0.00    -0.038 A 
ATOM     14  C   UNL A   1      31.402  27.811  27.391  1.00  0.00     0.045 C 
BRANCH   8  15
ATOM     15  S   UNL A   1      33.097  23.919  23.042  1.00  0.00     0.181 S 
ATOM     16  O   UNL A   1      33.657  24.678  21.935  1.00  0.00    -0.223 OA
ATOM     17  O   UNL A   1      32.063  22.946  22.751  1.00  0.00    -0.223 OA
BRANCH  15  18
ATOM     18  C   UNL A   1      34.440  23.055  23.883  1.00  0.00     0.110 C 
ATOM     19  C   UNL A   1      33.979  21.691  24.392  1.00  0.00     0.025 C 
BRANCH  18  20
ATOM     20  C   UNL A   1      35.077  23.913  24.981  1.00  0.00     0.016 C 
ATOM     21  C   UNL A   1      34.966  23.328  26.380  1.00  0.00     0.005 C 
ENDBRANCH  18  20
ENDBRANCH  15  18
ENDBRANCH   8  15
ENDBRANCH   4   7
ENDBRANCH   2   3
ENDBRANCH   1   2
BRANCH   1  22
ATOM     22  C   UNL A   1      33.557  31.484  27.664  1.00  0.00     0.023 C 
BRANCH  22  23
ATOM     23  C   UNL A   1      33.844  32.914  27.251  1.00  0.00     0.116 C 
BRANCH  23  24
ATOM     24  N   UNL A   1      33.105  33.909  28.018  1.00  0.00    -0.352 N 
ATOM     25  C   UNL A   1      33.371  34.350  29.294  1.00  0.00     0.251 C 
ATOM     26  H   UNL A   1      32.326  34.313  27.571  1.00  0.00     0.163 HD
ATOM     27  O   UNL A   1      32.613  35.129  29.858  1.00  0.00    -0.269 OA
BRANCH  25  28
ATOM     28  C   UNL A   1      34.563  33.810  29.977  1.00  0.00     0.039 A 
ATOM     29  C   UNL A   1      34.403  32.804  30.928  1.00  0.00     0.014 A 
ATOM     30  C   UNL A   1      35.837  34.208  29.564  1.00  0.00     0.014 A 
ATOM     31  C   UNL A   1      35.529  32.137  31.409  1.00  0.00     0.010 A 
ATOM     32  C   UNL A   1      36.944  33.471  29.962  1.00  0.00     0.010 A 
ATOM     33  C   UNL A   1      36.803  32.431  30.894  1.00  0.00    -0.014 A 
BRANCH  33  34
ATOM     34  C   UNL A   1      38.008  31.679  31.330  1.00  0.00     0.031 A 
ATOM     35  C   UNL A   1      38.644  32.005  32.654  1.00  0.00     0.074 A 
ATOM     36  C   UNL A   1      38.558  30.757  30.516  1.00  0.00     0.049 A 
ATOM     37  N   UNL A   1      39.735  31.522  33.189  1.00  0.00    -0.248 NA
ATOM     38  C   UNL A   1      37.984  33.038  33.469  1.00  0.00     0.031 C 
ATOM     39  C   UNL A   1      38.056  30.392  29.188  1.00  0.00     0.029 A 
ATOM     40  N   UNL A   1      39.661  29.958  30.680  1.00  0.00    -0.354 N 
ATOM     41  C   UNL A   1      39.897  32.200  34.392  1.00  0.00     0.074 A 
ATOM     42  C   UNL A   1      38.839  33.181  34.469  1.00  0.00     0.031 C 
ATOM     43  C   UNL A   1      38.826  29.417  28.678  1.00  0.00     0.029 A 
ATOM     44  C   UNL A   1      39.907  29.123  29.613  1.00  0.00     0.049 A 
ATOM     45  H   UNL A   1      40.225  29.980  31.487  1.00  0.00     0.167 HD
ATOM     46  C   UNL A   1      40.826  31.999  35.359  1.00  0.00     0.034 A 
ATOM     47  C   UNL A   1      40.898  28.232  29.409  1.00  0.00     0.034 A 
ATOM     48  C   UNL A   1      41.865  31.004  35.270  1.00  0.00     0.049 A 
ATOM     49  C   UNL A   1      41.939  28.048  30.487  1.00  0.00     0.074 A 
ATOM     50  C   UNL A   1      42.826  30.678  36.209  1.00  0.00     0.029 A 
ATOM     51  N   UNL A   1      42.084  30.180  34.174  1.00  0.00    -0.354 N 
ATOM     52  N   UNL A   1      42.046  28.659  31.645  1.00  0.00    -0.248 NA
ATOM     53  C   UNL A   1      42.984  27.049  30.236  1.00  0.00     0.031 C 
ATOM     54  C   UNL A   1      43.672  29.715  35.653  1.00  0.00     0.029 A 
ATOM     55  C   UNL A   1      43.186  29.370  34.401  1.00  0.00     0.049 A 
ATOM     56  H   UNL A   1      41.538  30.171  33.355  1.00  0.00     0.167 HD
ATOM     57  C   UNL A   1      43.150  28.088  32.275  1.00  0.00     0.074 A 
ATOM     58  C   UNL A   1      43.662  27.077  31.373  1.00  0.00     0.031 C 
ATOM     59  C   UNL A   1      43.688  28.368  33.489  1.00  0.00     0.034 A 
BRANCH  46  60
ATOM     60  C   UNL A   1      40.765  32.889  36.578  1.00  0.00     0.023 A 
ATOM     61  C   UNL A   1      39.975  32.561  37.694  1.00  0.00     0.031 A 
ATOM     62  C   UNL A   1      41.484  34.096  36.615  1.00  0.00     0.131 A 
ATOM     63  C   UNL A   1      39.863  33.462  38.763  1.00  0.00     0.055 A 
ATOM     64  C   UNL A   1      41.438  34.947  37.721  1.00  0.00     0.041 A 
ATOM     65  F   UNL A   1      42.235  34.477  35.569  1.00  0.00    -0.206 F 
ATOM     66  C   UNL A   1      40.611  34.639  38.798  1.00  0.00     0.022 A 
BRANCH  63  67
ATOM     67  S   UNL A   1      38.607  33.145  40.034  1.00  0.00     0.124 S 
ATOM     68  O   UNL A   1      37.442  32.805  39.219  1.00  0.00    -0.237 OA
ATOM     69  O   UNL A   1      39.197  32.049  40.794  1.00  0.00    -0.237 OA
ATOM     70  O   UNL A   1      38.510  34.418  40.745  1.00  0.00    -0.744 OA
ENDBRANCH  63  67
ENDBRANCH  46  60
BRANCH  47  71
ATOM     71  C   UNL A   1      40.969  27.449  28.140  1.00  0.00     0.023 A 
ATOM     72  C   UNL A   1      40.648  26.081  28.114  1.00  0.00     0.031 A 
ATOM     73  C   UNL A   1      41.410  28.042  26.944  1.00  0.00     0.131 A 
ATOM     74  C   UNL A   1      40.828  25.341  26.934  1.00  0.00     0.055 A 
ATOM     75  C   UNL A   1      41.528  27.316  25.758  1.00  0.00     0.041 A 
ATOM     76  F   UNL A   1      41.729  29.346  26.910  1.00  0.00    -0.206 F 
ATOM     77  C   UNL A   1      41.252  25.953  25.751  1.00  0.00     0.022 A 
BRANCH  74  78
ATOM     78  S   UNL A   1      40.602  23.543  26.994  1.00  0.00     0.124 S 
ATOM     79  O   UNL A   1      41.534  23.093  25.966  1.00  0.00    -0.237 OA
ATOM     80  O   UNL A   1      40.971  23.239  28.373  1.00  0.00    -0.237 OA
ATOM     81  O   UNL A   1      39.187  23.366  26.675  1.00  0.00    -0.744 OA
ENDBRANCH  74  78
ENDBRANCH  47  71
BRANCH  59  82
ATOM     82  C   UNL A   1      44.860  27.529  33.935  1.00  0.00     0.023 A 
ATOM     83  C   UNL A   1      44.687  26.330  34.650  1.00  0.00     0.031 A 
ATOM     84  C   UNL A   1      46.172  27.938  33.639  1.00  0.00     0.131 A 
ATOM     85  C   UNL A   1      45.810  25.614  35.093  1.00  0.00     0.055 A 
ATOM     86  C   UNL A   1      47.283  27.186  34.023  1.00  0.00     0.041 A 
ATOM     87  F   UNL A   1      46.398  29.077  32.964  1.00  0.00    -0.206 F 
ATOM     88  C   UNL A   1      47.106  26.023  34.766  1.00  0.00     0.022 A 
BRANCH  85  89
ATOM     89  S   UNL A   1      45.558  24.193  36.190  1.00  0.00     0.124 S 
ATOM     90  O   UNL A   1      44.164  24.359  36.587  1.00  0.00    -0.237 OA
ATOM     91  O   UNL A   1      45.840  23.065  35.308  1.00  0.00    -0.237 OA
ATOM     92  O   UNL A   1      46.536  24.404  37.256  1.00  0.00    -0.744 OA
ENDBRANCH  85  89
ENDBRANCH  59  82
ENDBRANCH  33  34
ENDBRANCH  25  28
ENDBRANCH  23  24
ENDBRANCH  22  23
ENDBRANCH   1  22
TORSDOF 17
ENDMDL
