MODEL 1
REMARK VINA RESULT:     -10.6      0.000      0.000
REMARK SMILES O=C(/C=C/c1c(Cl)cccc1Cl)NCC(=O)NCCCCNC(=O)c1ccc(-c2c3nc(c(-c4cc(S(=O)(=O)[O-])ccc4F)c4ccc([nH]4)c(-c4cc(S(=O)(=O)[O-])ccc4F)c4nc(c(-c5cc(S(=O)(=O)[O-])ccc5F)c5ccc2[nH]5)C=C4)C=C3)cc1
REMARK SMILES IDX 19 1 18 2 17 3 15 4 16 5 14 7 13 8 1 9 2 10 3 12 4 13 5 14
REMARK SMILES IDX 6 15 11 16 7 17 8 18 10 19 12 20 9 21 20 22 21 23 22 24
REMARK SMILES IDX 23 25 24 27 25 28 26 29 87 30 27 31 86 32 28 33 29 34 30 35
REMARK SMILES IDX 80 36 31 37 85 38 79 39 81 40 32 41 84 42 78 43 77 44 33 46
REMARK SMILES IDX 65 47 45 48 64 49 46 50 49 51 63 52 82 53 47 54 48 55 62 57
REMARK SMILES IDX 83 58 50 59 34 60 35 61 43 62 36 63 42 64 44 65 41 66 37 67
REMARK SMILES IDX 38 68 39 69 40 70 66 71 67 72 75 73 68 74 74 75 76 76 73 77
REMARK SMILES IDX 69 78 70 79 71 80 72 81 51 82 52 83 60 84 53 85 59 86 61 87
REMARK SMILES IDX 58 88 54 89 55 90 56 91 57 92
REMARK H PARENT 17 6 13 11 22 26 81 45 49 56
REMARK Flexibility Score: inf
ROOT
ATOM      1  C   UNL A   1      34.025  35.221  29.343  1.00  0.00     0.023 C 
ENDROOT
BRANCH   1   2
ATOM      2  C   UNL A   1      32.772  35.585  30.139  1.00  0.00     0.116 C 
BRANCH   2   3
ATOM      3  N   UNL A   1      32.893  36.887  30.765  1.00  0.00    -0.355 N 
ATOM      4  C   UNL A   1      33.362  37.194  32.012  1.00  0.00     0.239 C 
ATOM      5  O   UNL A   1      33.435  38.380  32.341  1.00  0.00    -0.273 OA
ATOM      6  H   UNL A   1      32.599  37.653  30.220  1.00  0.00     0.163 HD
BRANCH   4   7
ATOM      7  C   UNL A   1      33.851  36.083  32.942  1.00  0.00     0.216 C 
BRANCH   7   8
ATOM      8  N   UNL A   1      35.155  35.573  32.550  1.00  0.00    -0.343 N 
ATOM      9  O   UNL A   1      34.735  33.409  33.173  1.00  0.00    -0.270 OA
ATOM     10  C   UNL A   1      35.487  34.257  32.706  1.00  0.00     0.244 C 
ATOM     11  H   UNL A   1      35.816  36.192  32.162  1.00  0.00     0.164 HD
BRANCH  10  12
ATOM     12  C   UNL A   1      36.880  33.883  32.368  1.00  0.00     0.072 C 
ATOM     13  C   UNL A   1      37.882  34.741  32.122  1.00  0.00     0.017 C 
BRANCH  13  14
ATOM     14  C   UNL A   1      39.232  34.273  31.747  1.00  0.00     0.012 A 
ATOM     15  C   UNL A   1      39.516  33.754  30.467  1.00  0.00     0.049 A 
ATOM     16  C   UNL A   1      40.294  34.357  32.670  1.00  0.00     0.049 A 
ATOM     17  Cl  UNL A   1      38.320  33.660  29.216  1.00  0.00    -0.084 Cl
ATOM     18  C   UNL A   1      40.804  33.313  30.137  1.00  0.00     0.021 A 
ATOM     19  C   UNL A   1      41.581  33.923  32.331  1.00  0.00     0.021 A 
ATOM     20  Cl  UNL A   1      40.068  34.994  34.265  1.00  0.00    -0.084 Cl
ATOM     21  C   UNL A   1      41.835  33.395  31.067  1.00  0.00     0.003 A 
ENDBRANCH  13  14
ENDBRANCH  10  12
ENDBRANCH   7   8
ENDBRANCH   4   7
ENDBRANCH   2   3
ENDBRANCH   1   2
BRANCH   1  22
ATOM     22  C   UNL A   1      34.322  33.719  29.279  1.00  0.00     0.023 C 
BRANCH  22  23
ATOM     23  C   UNL A   1      34.708  33.186  27.901  1.00  0.00     0.116 C 
BRANCH  23  24
ATOM     24  N   UNL A   1      33.941  32.016  27.508  1.00  0.00    -0.352 N 
ATOM     25  C   UNL A   1      34.306  30.691  27.551  1.00  0.00     0.251 C 
ATOM     26  H   UNL A   1      33.036  32.196  27.164  1.00  0.00     0.163 HD
ATOM     27  O   UNL A   1      33.575  29.842  27.048  1.00  0.00    -0.269 OA
BRANCH  25  28
ATOM     28  C   UNL A   1      35.596  30.302  28.165  1.00  0.00     0.039 A 
ATOM     29  C   UNL A   1      35.596  29.810  29.473  1.00  0.00     0.014 A 
ATOM     30  C   UNL A   1      36.794  30.404  27.454  1.00  0.00     0.014 A 
ATOM     31  C   UNL A   1      36.789  29.353  30.041  1.00  0.00     0.010 A 
ATOM     32  C   UNL A   1      37.968  29.888  27.997  1.00  0.00     0.010 A 
ATOM     33  C   UNL A   1      37.978  29.352  29.294  1.00  0.00    -0.014 A 
BRANCH  33  34
ATOM     34  C   UNL A   1      39.236  28.787  29.850  1.00  0.00     0.031 A 
ATOM     35  C   UNL A   1      39.821  29.348  31.117  1.00  0.00     0.074 A 
ATOM     36  C   UNL A   1      39.885  27.815  29.179  1.00  0.00     0.049 A 
ATOM     37  N   UNL A   1      40.945  29.045  31.715  1.00  0.00    -0.248 NA
ATOM     38  C   UNL A   1      39.053  30.409  31.783  1.00  0.00     0.031 C 
ATOM     39  C   UNL A   1      39.439  27.217  27.918  1.00  0.00     0.029 A 
ATOM     40  N   UNL A   1      41.062  27.163  29.453  1.00  0.00    -0.354 N 
ATOM     41  C   UNL A   1      41.026  29.886  32.821  1.00  0.00     0.074 A 
ATOM     42  C   UNL A   1      39.866  30.751  32.771  1.00  0.00     0.031 C 
ATOM     43  C   UNL A   1      40.318  26.274  27.542  1.00  0.00     0.029 A 
ATOM     44  C   UNL A   1      41.413  26.230  28.505  1.00  0.00     0.049 A 
ATOM     45  H   UNL A   1      41.603  27.347  30.255  1.00  0.00     0.167 HD
ATOM     46  C   UNL A   1      41.967  29.919  33.797  1.00  0.00     0.034 A 
ATOM     47  C   UNL A   1      42.501  25.438  28.414  1.00  0.00     0.034 A 
ATOM     48  C   UNL A   1      43.113  29.042  33.836  1.00  0.00     0.049 A 
ATOM     49  C   UNL A   1      43.548  25.512  29.495  1.00  0.00     0.074 A 
ATOM     50  C   UNL A   1      44.096  28.951  34.807  1.00  0.00     0.029 A 
ATOM     51  N   UNL A   1      43.438  28.111  32.858  1.00  0.00    -0.354 N 
ATOM     52  N   UNL A   1      43.582  26.277  30.563  1.00  0.00    -0.248 NA
ATOM     53  C   UNL A   1      44.699  24.609  29.365  1.00  0.00     0.031 C 
ATOM     54  C   UNL A   1      45.048  28.017  34.384  1.00  0.00     0.029 A 
ATOM     55  C   UNL A   1      44.622  27.467  33.185  1.00  0.00     0.049 A 
ATOM     56  H   UNL A   1      42.905  27.934  32.049  1.00  0.00     0.167 HD
ATOM     57  C   UNL A   1      44.744  25.924  31.244  1.00  0.00     0.074 A 
ATOM     58  C   UNL A   1      45.371  24.868  30.477  1.00  0.00     0.031 C 
ATOM     59  C   UNL A   1      45.246  26.425  32.402  1.00  0.00     0.034 A 
BRANCH  46  60
ATOM     60  C   UNL A   1      41.803  30.954  34.884  1.00  0.00     0.023 A 
ATOM     61  C   UNL A   1      40.645  31.014  35.679  1.00  0.00     0.031 A 
ATOM     62  C   UNL A   1      42.806  31.913  35.113  1.00  0.00     0.131 A 
ATOM     63  C   UNL A   1      40.482  32.054  36.606  1.00  0.00     0.055 A 
ATOM     64  C   UNL A   1      42.674  32.896  36.097  1.00  0.00     0.041 A 
ATOM     65  F   UNL A   1      43.927  31.921  34.375  1.00  0.00    -0.206 F 
ATOM     66  C   UNL A   1      41.500  32.981  36.839  1.00  0.00     0.022 A 
BRANCH  63  67
ATOM     67  S   UNL A   1      38.863  32.263  37.396  1.00  0.00     0.124 S 
ATOM     68  O   UNL A   1      38.264  33.307  36.568  1.00  0.00    -0.237 OA
ATOM     69  O   UNL A   1      38.277  30.934  37.271  1.00  0.00    -0.237 OA
ATOM     70  O   UNL A   1      39.196  32.674  38.759  1.00  0.00    -0.744 OA
ENDBRANCH  63  67
ENDBRANCH  46  60
BRANCH  47  71
ATOM     71  C   UNL A   1      42.670  24.516  27.254  1.00  0.00     0.023 A 
ATOM     72  C   UNL A   1      42.137  23.218  27.278  1.00  0.00     0.031 A 
ATOM     73  C   UNL A   1      43.407  24.905  26.121  1.00  0.00     0.131 A 
ATOM     74  C   UNL A   1      42.389  22.339  26.214  1.00  0.00     0.055 A 
ATOM     75  C   UNL A   1      43.610  24.045  25.041  1.00  0.00     0.041 A 
ATOM     76  F   UNL A   1      43.935  26.138  26.044  1.00  0.00    -0.206 F 
ATOM     77  C   UNL A   1      43.110  22.747  25.089  1.00  0.00     0.022 A 
BRANCH  74  78
ATOM     78  S   UNL A   1      41.828  20.619  26.358  1.00  0.00     0.124 S 
ATOM     79  O   UNL A   1      42.644  19.955  25.348  1.00  0.00    -0.237 OA
ATOM     80  O   UNL A   1      42.149  20.312  27.748  1.00  0.00    -0.237 OA
ATOM     81  O   UNL A   1      40.401  20.701  26.053  1.00  0.00    -0.744 OA
ENDBRANCH  74  78
ENDBRANCH  47  71
BRANCH  59  82
ATOM     82  C   UNL A   1      46.518  25.802  32.923  1.00  0.00     0.023 A 
ATOM     83  C   UNL A   1      46.500  24.688  33.779  1.00  0.00     0.031 A 
ATOM     84  C   UNL A   1      47.766  26.344  32.569  1.00  0.00     0.131 A 
ATOM     85  C   UNL A   1      47.705  24.185  34.297  1.00  0.00     0.055 A 
ATOM     86  C   UNL A   1      48.964  25.802  33.038  1.00  0.00     0.041 A 
ATOM     87  F   UNL A   1      47.843  27.411  31.756  1.00  0.00    -0.206 F 
ATOM     88  C   UNL A   1      48.937  24.724  33.918  1.00  0.00     0.022 A 
BRANCH  85  89
ATOM     89  S   UNL A   1      47.634  22.871  35.546  1.00  0.00     0.124 S 
ATOM     90  O   UNL A   1      48.016  21.695  34.772  1.00  0.00    -0.237 OA
ATOM     91  O   UNL A   1      48.606  23.327  36.534  1.00  0.00    -0.237 OA
ATOM     92  O   UNL A   1      46.242  22.895  35.991  1.00  0.00    -0.744 OA
ENDBRANCH  85  89
ENDBRANCH  59  82
ENDBRANCH  33  34
ENDBRANCH  25  28
ENDBRANCH  23  24
ENDBRANCH  22  23
ENDBRANCH   1  22
TORSDOF 17
ENDMDL
MODEL 2
REMARK VINA RESULT:     -10.5      1.442      1.999
REMARK SMILES O=C(/C=C/c1c(Cl)cccc1Cl)NCC(=O)NCCCCNC(=O)c1ccc(-c2c3nc(c(-c4cc(S(=O)(=O)[O-])ccc4F)c4ccc([nH]4)c(-c4cc(S(=O)(=O)[O-])ccc4F)c4nc(c(-c5cc(S(=O)(=O)[O-])ccc5F)c5ccc2[nH]5)C=C4)C=C3)cc1
REMARK SMILES IDX 19 1 18 2 17 3 15 4 16 5 14 7 13 8 1 9 2 10 3 12 4 13 5 14
REMARK SMILES IDX 6 15 11 16 7 17 8 18 10 19 12 20 9 21 20 22 21 23 22 24
REMARK SMILES IDX 23 25 24 27 25 28 26 29 87 30 27 31 86 32 28 33 29 34 30 35
REMARK SMILES IDX 80 36 31 37 85 38 79 39 81 40 32 41 84 42 78 43 77 44 33 46
REMARK SMILES IDX 65 47 45 48 64 49 46 50 49 51 63 52 82 53 47 54 48 55 62 57
REMARK SMILES IDX 83 58 50 59 34 60 35 61 43 62 36 63 42 64 44 65 41 66 37 67
REMARK SMILES IDX 38 68 39 69 40 70 66 71 67 72 75 73 68 74 74 75 76 76 73 77
REMARK SMILES IDX 69 78 70 79 71 80 72 81 51 82 52 83 60 84 53 85 59 86 61 87
REMARK SMILES IDX 58 88 54 89 55 90 56 91 57 92
REMARK H PARENT 17 6 13 11 22 26 81 45 49 56
REMARK Flexibility Score: inf
ROOT
ATOM      1  C   UNL A   1      34.216  35.187  29.362  1.00  0.00     0.023 C 
ENDROOT
BRANCH   1   2
ATOM      2  C   UNL A   1      32.883  35.501  30.040  1.00  0.00     0.116 C 
BRANCH   2   3
ATOM      3  N   UNL A   1      32.907  36.793  30.699  1.00  0.00    -0.355 N 
ATOM      4  C   UNL A   1      33.283  37.091  31.978  1.00  0.00     0.239 C 
ATOM      5  O   UNL A   1      33.283  38.271  32.335  1.00  0.00    -0.273 OA
ATOM      6  H   UNL A   1      32.613  37.557  30.152  1.00  0.00     0.163 HD
BRANCH   4   7
ATOM      7  C   UNL A   1      33.764  35.982  32.915  1.00  0.00     0.216 C 
BRANCH   7   8
ATOM      8  N   UNL A   1      35.102  35.521  32.581  1.00  0.00    -0.343 N 
ATOM      9  O   UNL A   1      34.843  33.432  33.484  1.00  0.00    -0.270 OA
ATOM     10  C   UNL A   1      35.530  34.265  32.904  1.00  0.00     0.244 C 
ATOM     11  H   UNL A   1      35.715  36.132  32.110  1.00  0.00     0.164 HD
BRANCH  10  12
ATOM     12  C   UNL A   1      36.947  33.954  32.605  1.00  0.00     0.072 C 
ATOM     13  C   UNL A   1      37.803  34.754  31.952  1.00  0.00     0.017 C 
BRANCH  13  14
ATOM     14  C   UNL A   1      39.190  34.337  31.659  1.00  0.00     0.012 A 
ATOM     15  C   UNL A   1      40.226  34.465  32.606  1.00  0.00     0.049 A 
ATOM     16  C   UNL A   1      39.510  33.768  30.410  1.00  0.00     0.049 A 
ATOM     17  Cl  UNL A   1      39.955  35.081  34.203  1.00  0.00    -0.084 Cl
ATOM     18  C   UNL A   1      41.534  34.066  32.302  1.00  0.00     0.021 A 
ATOM     19  C   UNL A   1      40.817  33.363  30.115  1.00  0.00     0.021 A 
ATOM     20  Cl  UNL A   1      38.315  33.545  29.175  1.00  0.00    -0.084 Cl
ATOM     21  C   UNL A   1      41.830  33.516  31.058  1.00  0.00     0.003 A 
ENDBRANCH  13  14
ENDBRANCH  10  12
ENDBRANCH   7   8
ENDBRANCH   4   7
ENDBRANCH   2   3
ENDBRANCH   1   2
BRANCH   1  22
ATOM     22  C   UNL A   1      34.576  33.698  29.329  1.00  0.00     0.023 C 
BRANCH  22  23
ATOM     23  C   UNL A   1      34.936  33.141  27.953  1.00  0.00     0.116 C 
BRANCH  23  24
ATOM     24  N   UNL A   1      34.140  31.984  27.582  1.00  0.00    -0.352 N 
ATOM     25  C   UNL A   1      34.482  30.652  27.622  1.00  0.00     0.251 C 
ATOM     26  H   UNL A   1      33.231  32.178  27.256  1.00  0.00     0.163 HD
ATOM     27  O   UNL A   1      33.726  29.815  27.139  1.00  0.00    -0.269 OA
BRANCH  25  28
ATOM     28  C   UNL A   1      35.778  30.243  28.210  1.00  0.00     0.039 A 
ATOM     29  C   UNL A   1      35.793  29.726  29.509  1.00  0.00     0.014 A 
ATOM     30  C   UNL A   1      36.966  30.350  27.484  1.00  0.00     0.014 A 
ATOM     31  C   UNL A   1      36.990  29.250  30.051  1.00  0.00     0.010 A 
ATOM     32  C   UNL A   1      38.144  29.814  28.000  1.00  0.00     0.010 A 
ATOM     33  C   UNL A   1      38.169  29.254  29.287  1.00  0.00    -0.014 A 
BRANCH  33  34
ATOM     34  C   UNL A   1      39.430  28.669  29.813  1.00  0.00     0.031 A 
ATOM     35  C   UNL A   1      40.076  29.249  31.042  1.00  0.00     0.074 A 
ATOM     36  C   UNL A   1      40.028  27.661  29.148  1.00  0.00     0.049 A 
ATOM     37  N   UNL A   1      41.212  28.931  31.609  1.00  0.00    -0.248 NA
ATOM     38  C   UNL A   1      39.361  30.350  31.705  1.00  0.00     0.031 C 
ATOM     39  C   UNL A   1      39.520  27.041  27.922  1.00  0.00     0.029 A 
ATOM     40  N   UNL A   1      41.195  26.984  29.400  1.00  0.00    -0.354 N 
ATOM     41  C   UNL A   1      41.356  29.800  32.686  1.00  0.00     0.074 A 
ATOM     42  C   UNL A   1      40.218  30.696  32.653  1.00  0.00     0.031 C 
ATOM     43  C   UNL A   1      40.359  26.064  27.542  1.00  0.00     0.029 A 
ATOM     44  C   UNL A   1      41.487  26.015  28.467  1.00  0.00     0.049 A 
ATOM     45  H   UNL A   1      41.770  27.175  30.176  1.00  0.00     0.167 HD
ATOM     46  C   UNL A   1      42.332  29.833  33.627  1.00  0.00     0.034 A 
ATOM     47  C   UNL A   1      42.548  25.191  28.361  1.00  0.00     0.034 A 
ATOM     48  C   UNL A   1      43.455  28.926  33.650  1.00  0.00     0.049 A 
ATOM     49  C   UNL A   1      43.636  25.265  29.401  1.00  0.00     0.074 A 
ATOM     50  C   UNL A   1      44.469  28.835  34.589  1.00  0.00     0.029 A 
ATOM     51  N   UNL A   1      43.718  27.959  32.689  1.00  0.00    -0.354 N 
ATOM     52  N   UNL A   1      43.729  26.059  30.444  1.00  0.00    -0.248 NA
ATOM     53  C   UNL A   1      44.756  24.327  29.256  1.00  0.00     0.031 C 
ATOM     54  C   UNL A   1      45.379  27.862  34.159  1.00  0.00     0.029 A 
ATOM     55  C   UNL A   1      44.895  27.291  32.993  1.00  0.00     0.049 A 
ATOM     56  H   UNL A   1      43.152  27.775  31.905  1.00  0.00     0.167 HD
ATOM     57  C   UNL A   1      44.905  25.692  31.094  1.00  0.00     0.074 A 
ATOM     58  C   UNL A   1      45.474  24.598  30.336  1.00  0.00     0.031 C 
ATOM     59  C   UNL A   1      45.462  26.211  32.219  1.00  0.00     0.034 A 
BRANCH  46  60
ATOM     60  C   UNL A   1      42.236  30.903  34.689  1.00  0.00     0.023 A 
ATOM     61  C   UNL A   1      42.947  32.112  34.586  1.00  0.00     0.031 A 
ATOM     62  C   UNL A   1      41.447  30.702  35.835  1.00  0.00     0.131 A 
ATOM     63  C   UNL A   1      42.918  33.036  35.642  1.00  0.00     0.055 A 
ATOM     64  C   UNL A   1      41.355  31.663  36.845  1.00  0.00     0.041 A 
ATOM     65  F   UNL A   1      40.760  29.561  36.001  1.00  0.00    -0.206 F 
ATOM     66  C   UNL A   1      42.107  32.831  36.759  1.00  0.00     0.022 A 
BRANCH  63  67
ATOM     67  S   UNL A   1      44.071  34.435  35.597  1.00  0.00     0.124 S 
ATOM     68  O   UNL A   1      44.415  34.579  37.009  1.00  0.00    -0.237 OA
ATOM     69  O   UNL A   1      45.132  33.943  34.727  1.00  0.00    -0.237 OA
ATOM     70  O   UNL A   1      43.265  35.525  35.046  1.00  0.00    -0.744 OA
ENDBRANCH  63  67
ENDBRANCH  46  60
BRANCH  47  71
ATOM     71  C   UNL A   1      42.651  24.233  27.222  1.00  0.00     0.023 A 
ATOM     72  C   UNL A   1      42.051  22.965  27.288  1.00  0.00     0.031 A 
ATOM     73  C   UNL A   1      43.387  24.554  26.068  1.00  0.00     0.131 A 
ATOM     74  C   UNL A   1      42.239  22.047  26.243  1.00  0.00     0.055 A 
ATOM     75  C   UNL A   1      43.527  23.658  25.008  1.00  0.00     0.041 A 
ATOM     76  F   UNL A   1      43.976  25.755  25.951  1.00  0.00    -0.206 F 
ATOM     77  C   UNL A   1      42.962  22.389  25.098  1.00  0.00     0.022 A 
BRANCH  74  78
ATOM     78  S   UNL A   1      41.593  20.363  26.441  1.00  0.00     0.124 S 
ATOM     79  O   UNL A   1      40.159  20.575  26.287  1.00  0.00    -0.237 OA
ATOM     80  O   UNL A   1      42.259  19.655  25.353  1.00  0.00    -0.237 OA
ATOM     81  O   UNL A   1      42.029  19.988  27.784  1.00  0.00    -0.744 OA
ENDBRANCH  74  78
ENDBRANCH  47  71
BRANCH  59  82
ATOM     82  C   UNL A   1      46.735  25.567  32.712  1.00  0.00     0.023 A 
ATOM     83  C   UNL A   1      46.726  24.577  33.710  1.00  0.00     0.031 A 
ATOM     84  C   UNL A   1      47.977  25.963  32.185  1.00  0.00     0.131 A 
ATOM     85  C   UNL A   1      47.938  24.057  34.189  1.00  0.00     0.055 A 
ATOM     86  C   UNL A   1      49.176  25.398  32.622  1.00  0.00     0.041 A 
ATOM     87  F   UNL A   1      48.045  26.907  31.231  1.00  0.00    -0.206 F 
ATOM     88  C   UNL A   1      49.161  24.448  33.639  1.00  0.00     0.022 A 
BRANCH  85  89
ATOM     89  S   UNL A   1      47.900  22.925  35.607  1.00  0.00     0.124 S 
ATOM     90  O   UNL A   1      48.720  23.635  36.583  1.00  0.00    -0.237 OA
ATOM     91  O   UNL A   1      46.475  22.849  35.907  1.00  0.00    -0.237 OA
ATOM     92  O   UNL A   1      48.489  21.696  35.079  1.00  0.00    -0.744 OA
ENDBRANCH  85  89
ENDBRANCH  59  82
ENDBRANCH  33  34
ENDBRANCH  25  28
ENDBRANCH  23  24
ENDBRANCH  22  23
ENDBRANCH   1  22
TORSDOF 17
ENDMDL
MODEL 3
REMARK VINA RESULT:     -10.0      4.401     10.656
REMARK SMILES O=C(/C=C/c1c(Cl)cccc1Cl)NCC(=O)NCCCCNC(=O)c1ccc(-c2c3nc(c(-c4cc(S(=O)(=O)[O-])ccc4F)c4ccc([nH]4)c(-c4cc(S(=O)(=O)[O-])ccc4F)c4nc(c(-c5cc(S(=O)(=O)[O-])ccc5F)c5ccc2[nH]5)C=C4)C=C3)cc1
REMARK SMILES IDX 19 1 18 2 17 3 15 4 16 5 14 7 13 8 1 9 2 10 3 12 4 13 5 14
REMARK SMILES IDX 6 15 11 16 7 17 8 18 10 19 12 20 9 21 20 22 21 23 22 24
REMARK SMILES IDX 23 25 24 27 25 28 26 29 87 30 27 31 86 32 28 33 29 34 30 35
REMARK SMILES IDX 80 36 31 37 85 38 79 39 81 40 32 41 84 42 78 43 77 44 33 46
REMARK SMILES IDX 65 47 45 48 64 49 46 50 49 51 63 52 82 53 47 54 48 55 62 57
REMARK SMILES IDX 83 58 50 59 34 60 35 61 43 62 36 63 42 64 44 65 41 66 37 67
REMARK SMILES IDX 38 68 39 69 40 70 66 71 67 72 75 73 68 74 74 75 76 76 73 77
REMARK SMILES IDX 69 78 70 79 71 80 72 81 51 82 52 83 60 84 53 85 59 86 61 87
REMARK SMILES IDX 58 88 54 89 55 90 56 91 57 92
REMARK H PARENT 17 6 13 11 22 26 81 45 49 56
REMARK Flexibility Score: inf
ROOT
ATOM      1  C   UNL A   1      31.995  30.446  26.399  1.00  0.00     0.023 C 
ENDROOT
BRANCH   1   2
ATOM      2  C   UNL A   1      31.405  29.957  25.077  1.00  0.00     0.116 C 
BRANCH   2   3
ATOM      3  N   UNL A   1      32.439  29.560  24.142  1.00  0.00    -0.355 N 
ATOM      4  C   UNL A   1      32.610  28.356  23.518  1.00  0.00     0.239 C 
ATOM      5  O   UNL A   1      33.532  28.233  22.709  1.00  0.00    -0.273 OA
ATOM      6  H   UNL A   1      33.109  30.249  23.927  1.00  0.00     0.163 HD
BRANCH   4   7
ATOM      7  C   UNL A   1      31.624  27.214  23.773  1.00  0.00     0.216 C 
BRANCH   7   8
ATOM      8  N   UNL A   1      32.300  25.953  24.036  1.00  0.00    -0.343 N 
ATOM      9  O   UNL A   1      32.614  26.339  26.272  1.00  0.00    -0.270 OA
ATOM     10  C   UNL A   1      32.744  25.624  25.284  1.00  0.00     0.244 C 
ATOM     11  H   UNL A   1      32.440  25.321  23.293  1.00  0.00     0.164 HD
BRANCH  10  12
ATOM     12  C   UNL A   1      33.510  24.361  25.401  1.00  0.00     0.072 C 
ATOM     13  C   UNL A   1      33.997  23.645  24.376  1.00  0.00     0.017 C 
BRANCH  13  14
ATOM     14  C   UNL A   1      34.711  22.369  24.589  1.00  0.00     0.012 A 
ATOM     15  C   UNL A   1      36.099  22.319  24.831  1.00  0.00     0.049 A 
ATOM     16  C   UNL A   1      34.004  21.150  24.578  1.00  0.00     0.049 A 
ATOM     17  Cl  UNL A   1      37.075  23.747  24.942  1.00  0.00    -0.084 Cl
ATOM     18  C   UNL A   1      36.754  21.096  25.026  1.00  0.00     0.021 A 
ATOM     19  C   UNL A   1      34.662  19.931  24.782  1.00  0.00     0.021 A 
ATOM     20  Cl  UNL A   1      32.293  21.090  24.308  1.00  0.00    -0.084 Cl
ATOM     21  C   UNL A   1      36.037  19.904  25.000  1.00  0.00     0.003 A 
ENDBRANCH  13  14
ENDBRANCH  10  12
ENDBRANCH   7   8
ENDBRANCH   4   7
ENDBRANCH   2   3
ENDBRANCH   1   2
BRANCH   1  22
ATOM     22  C   UNL A   1      31.736  31.926  26.701  1.00  0.00     0.023 C 
BRANCH  22  23
ATOM     23  C   UNL A   1      32.852  32.645  27.455  1.00  0.00     0.116 C 
BRANCH  23  24
ATOM     24  N   UNL A   1      32.539  34.034  27.746  1.00  0.00    -0.352 N 
ATOM     25  C   UNL A   1      33.113  34.872  28.673  1.00  0.00     0.251 C 
ATOM     26  H   UNL A   1      31.816  34.429  27.207  1.00  0.00     0.163 HD
ATOM     27  O   UNL A   1      32.626  35.981  28.874  1.00  0.00    -0.269 OA
BRANCH  25  28
ATOM     28  C   UNL A   1      34.289  34.417  29.448  1.00  0.00     0.039 A 
ATOM     29  C   UNL A   1      34.079  33.740  30.652  1.00  0.00     0.014 A 
ATOM     30  C   UNL A   1      35.588  34.640  28.986  1.00  0.00     0.014 A 
ATOM     31  C   UNL A   1      35.170  33.223  31.356  1.00  0.00     0.010 A 
ATOM     32  C   UNL A   1      36.669  34.067  29.653  1.00  0.00     0.010 A 
ATOM     33  C   UNL A   1      36.472  33.348  30.842  1.00  0.00    -0.014 A 
BRANCH  33  34
ATOM     34  C   UNL A   1      37.634  32.726  31.530  1.00  0.00     0.031 A 
ATOM     35  C   UNL A   1      38.353  31.564  30.901  1.00  0.00     0.074 A 
ATOM     36  C   UNL A   1      38.001  33.166  32.751  1.00  0.00     0.049 A 
ATOM     37  N   UNL A   1      39.333  30.840  31.377  1.00  0.00    -0.248 NA
ATOM     38  C   UNL A   1      37.886  31.145  29.571  1.00  0.00     0.031 C 
ATOM     39  C   UNL A   1      37.356  34.259  33.483  1.00  0.00     0.029 A 
ATOM     40  N   UNL A   1      38.996  32.745  33.597  1.00  0.00    -0.354 N 
ATOM     41  C   UNL A   1      39.594  29.872  30.412  1.00  0.00     0.074 A 
ATOM     42  C   UNL A   1      38.625  30.068  29.353  1.00  0.00     0.031 C 
ATOM     43  C   UNL A   1      37.985  34.434  34.656  1.00  0.00     0.029 A 
ATOM     44  C   UNL A   1      39.047  33.441  34.783  1.00  0.00     0.049 A 
ATOM     45  H   UNL A   1      39.616  32.012  33.375  1.00  0.00     0.167 HD
ATOM     46  C   UNL A   1      40.564  28.924  30.400  1.00  0.00     0.034 A 
ATOM     47  C   UNL A   1      39.847  33.287  35.857  1.00  0.00     0.034 A 
ATOM     48  C   UNL A   1      41.528  28.749  31.459  1.00  0.00     0.049 A 
ATOM     49  C   UNL A   1      40.899  32.208  35.834  1.00  0.00     0.074 A 
ATOM     50  C   UNL A   1      42.588  27.859  31.522  1.00  0.00     0.029 A 
ATOM     51  N   UNL A   1      41.548  29.471  32.646  1.00  0.00    -0.354 N 
ATOM     52  N   UNL A   1      41.166  31.334  34.889  1.00  0.00    -0.248 NA
ATOM     53  C   UNL A   1      41.764  32.100  37.015  1.00  0.00     0.031 C 
ATOM     54  C   UNL A   1      43.202  27.996  32.772  1.00  0.00     0.029 A 
ATOM     55  C   UNL A   1      42.578  29.024  33.460  1.00  0.00     0.049 A 
ATOM     56  H   UNL A   1      40.921  30.195  32.876  1.00  0.00     0.167 HD
ATOM     57  C   UNL A   1      42.250  30.593  35.355  1.00  0.00     0.074 A 
ATOM     58  C   UNL A   1      42.595  31.134  36.653  1.00  0.00     0.031 C 
ATOM     59  C   UNL A   1      42.903  29.562  34.761  1.00  0.00     0.034 A 
BRANCH  46  60
ATOM     60  C   UNL A   1      40.607  27.991  29.213  1.00  0.00     0.023 A 
ATOM     61  C   UNL A   1      41.518  28.181  28.157  1.00  0.00     0.031 A 
ATOM     62  C   UNL A   1      39.710  26.913  29.119  1.00  0.00     0.131 A 
ATOM     63  C   UNL A   1      41.457  27.358  27.022  1.00  0.00     0.055 A 
ATOM     64  C   UNL A   1      39.711  26.046  28.024  1.00  0.00     0.041 A 
ATOM     65  F   UNL A   1      38.804  26.691  30.085  1.00  0.00    -0.206 F 
ATOM     66  C   UNL A   1      40.577  26.276  26.959  1.00  0.00     0.022 A 
BRANCH  63  67
ATOM     67  S   UNL A   1      42.443  27.816  25.570  1.00  0.00     0.124 S 
ATOM     68  O   UNL A   1      42.287  26.635  24.724  1.00  0.00    -0.237 OA
ATOM     69  O   UNL A   1      41.779  29.028  25.106  1.00  0.00    -0.237 OA
ATOM     70  O   UNL A   1      43.786  28.009  26.115  1.00  0.00    -0.744 OA
ENDBRANCH  63  67
ENDBRANCH  46  60
BRANCH  47  71
ATOM     71  C   UNL A   1      39.683  34.161  37.054  1.00  0.00     0.023 A 
ATOM     72  C   UNL A   1      39.104  33.669  38.235  1.00  0.00     0.031 A 
ATOM     73  C   UNL A   1      40.063  35.515  37.021  1.00  0.00     0.131 A 
ATOM     74  C   UNL A   1      38.876  34.535  39.316  1.00  0.00     0.055 A 
ATOM     75  C   UNL A   1      39.883  36.359  38.118  1.00  0.00     0.041 A 
ATOM     76  F   UNL A   1      40.626  36.035  35.919  1.00  0.00    -0.206 F 
ATOM     77  C   UNL A   1      39.273  35.873  39.271  1.00  0.00     0.022 A 
BRANCH  74  78
ATOM     78  S   UNL A   1      37.973  33.904  40.757  1.00  0.00     0.124 S 
ATOM     79  O   UNL A   1      39.015  33.164  41.460  1.00  0.00    -0.237 OA
ATOM     80  O   UNL A   1      37.519  35.136  41.393  1.00  0.00    -0.237 OA
ATOM     81  O   UNL A   1      36.917  33.085  40.165  1.00  0.00    -0.744 OA
ENDBRANCH  74  78
ENDBRANCH  47  71
BRANCH  59  82
ATOM     82  C   UNL A   1      44.083  28.981  35.502  1.00  0.00     0.023 A 
ATOM     83  C   UNL A   1      43.927  27.975  36.471  1.00  0.00     0.031 A 
ATOM     84  C   UNL A   1      45.381  29.455  35.244  1.00  0.00     0.131 A 
ATOM     85  C   UNL A   1      45.044  27.514  37.186  1.00  0.00     0.055 A 
ATOM     86  C   UNL A   1      46.496  28.950  35.914  1.00  0.00     0.041 A 
ATOM     87  F   UNL A   1      45.589  30.418  34.330  1.00  0.00    -0.206 F 
ATOM     88  C   UNL A   1      46.329  27.983  36.902  1.00  0.00     0.022 A 
BRANCH  85  89
ATOM     89  S   UNL A   1      44.782  26.357  38.559  1.00  0.00     0.124 S 
ATOM     90  O   UNL A   1      45.608  26.942  39.610  1.00  0.00    -0.237 OA
ATOM     91  O   UNL A   1      43.340  26.437  38.764  1.00  0.00    -0.237 OA
ATOM     92  O   UNL A   1      45.263  25.083  38.029  1.00  0.00    -0.744 OA
ENDBRANCH  85  89
ENDBRANCH  59  82
ENDBRANCH  33  34
ENDBRANCH  25  28
ENDBRANCH  23  24
ENDBRANCH  22  23
ENDBRANCH   1  22
TORSDOF 17
ENDMDL
