MODEL 1
REMARK VINA RESULT:     -12.8      0.000      0.000
REMARK SMILES O=C(NCCCCNC(=O)c1ccc(-c2c3nc(c(-c4cc(S(=O)(=O)[O-])ccc4F)c4ccc([nH]4)c(-c4cc(S(=O)(=O)[O-])ccc4F)c4nc(c(-c5cc(S(=O)(=O)[O-])ccc5F)c5ccc2[nH]5)C=C4)C=C3)cc1)C1=C([O-])N(c2ccc3c(c2)OCCO3)CC1
REMARK SMILES IDX 6 1 5 2 4 3 3 4 1 5 2 6 74 8 75 9 89 10 76 11 77 12 88 13
REMARK SMILES IDX 78 14 79 15 83 16 80 17 82 18 81 19 84 20 87 21 85 22 86 23
REMARK SMILES IDX 7 24 8 25 9 26 10 28 11 29 12 30 73 31 13 32 72 33 14 34
REMARK SMILES IDX 15 35 16 36 66 37 17 38 71 39 65 40 67 41 18 42 70 43 64 44
REMARK SMILES IDX 63 45 19 47 51 48 31 49 50 50 32 51 35 52 49 53 68 54 33 55
REMARK SMILES IDX 34 56 48 58 69 59 36 60 20 61 21 62 29 63 22 64 28 65 30 66
REMARK SMILES IDX 27 67 23 68 24 69 25 70 26 71 52 72 53 73 61 74 54 75 60 76
REMARK SMILES IDX 62 77 59 78 55 79 56 80 57 81 58 82 37 83 38 84 46 85 39 86
REMARK SMILES IDX 45 87 47 88 44 89 40 90 41 91 42 92 43 93
REMARK H PARENT 3 7 8 27 67 46 35 57
REMARK Flexibility Score: inf
ROOT
ATOM      1  C   UNL A   1      31.789  29.230  24.403  1.00  0.00     0.023 C 
ENDROOT
BRANCH   1   2
ATOM      2  C   UNL A   1      30.859  28.041  24.624  1.00  0.00     0.023 C 
BRANCH   2   3
ATOM      3  C   UNL A   1      31.026  26.884  23.649  1.00  0.00     0.116 C 
BRANCH   3   4
ATOM      4  N   UNL A   1      32.009  27.131  22.606  1.00  0.00    -0.352 N 
ATOM      5  O   UNL A   1      33.917  26.844  21.433  1.00  0.00    -0.270 OA
ATOM      6  C   UNL A   1      33.228  26.548  22.410  1.00  0.00     0.248 C 
ATOM      7  H   UNL A   1      31.760  27.817  21.946  1.00  0.00     0.163 HD
BRANCH   6   8
ATOM      8  C   UNL A   1      33.651  25.535  23.371  1.00  0.00     0.027 C 
ATOM      9  C   UNL A   1      33.776  24.220  23.144  1.00  0.00    -0.028 C 
ATOM     10  C   UNL A   1      34.009  25.846  24.792  1.00  0.00     0.064 C 
ATOM     11  O   UNL A   1      33.490  23.560  21.998  1.00  0.00    -0.860 OA
ATOM     12  N   UNL A   1      34.378  23.576  24.206  1.00  0.00    -0.354 N 
ATOM     13  C   UNL A   1      34.816  24.598  25.189  1.00  0.00     0.126 C 
BRANCH  12  14
ATOM     14  C   UNL A   1      33.939  22.391  24.829  1.00  0.00     0.044 A 
ATOM     15  C   UNL A   1      32.582  22.261  25.157  1.00  0.00     0.030 A 
ATOM     16  C   UNL A   1      34.760  21.256  24.816  1.00  0.00     0.076 A 
ATOM     17  C   UNL A   1      32.017  20.996  25.320  1.00  0.00     0.052 A 
ATOM     18  C   UNL A   1      34.181  19.996  24.868  1.00  0.00     0.163 A 
ATOM     19  C   UNL A   1      32.805  19.874  25.082  1.00  0.00     0.161 A 
ATOM     20  O   UNL A   1      34.996  18.945  24.545  1.00  0.00    -0.486 OA
ATOM     21  O   UNL A   1      32.158  18.672  24.932  1.00  0.00    -0.486 OA
ATOM     22  C   UNL A   1      34.288  17.723  24.305  1.00  0.00     0.271 C 
ATOM     23  C   UNL A   1      32.838  17.945  23.900  1.00  0.00     0.271 C 
ENDBRANCH  12  14
ENDBRANCH   6   8
ENDBRANCH   3   4
ENDBRANCH   2   3
ENDBRANCH   1   2
BRANCH   1  24
ATOM     24  C   UNL A   1      32.592  29.681  25.618  1.00  0.00     0.116 C 
BRANCH  24  25
ATOM     25  N   UNL A   1      32.212  30.997  26.108  1.00  0.00    -0.352 N 
ATOM     26  C   UNL A   1      32.846  31.807  27.021  1.00  0.00     0.251 C 
ATOM     27  H   UNL A   1      31.379  31.361  25.729  1.00  0.00     0.163 HD
ATOM     28  O   UNL A   1      32.304  32.848  27.384  1.00  0.00    -0.269 OA
BRANCH  26  29
ATOM     29  C   UNL A   1      34.150  31.405  27.594  1.00  0.00     0.039 A 
ATOM     30  C   UNL A   1      35.122  32.386  27.809  1.00  0.00     0.014 A 
ATOM     31  C   UNL A   1      34.408  30.077  27.945  1.00  0.00     0.014 A 
ATOM     32  C   UNL A   1      36.317  32.051  28.453  1.00  0.00     0.010 A 
ATOM     33  C   UNL A   1      35.566  29.760  28.653  1.00  0.00     0.010 A 
ATOM     34  C   UNL A   1      36.529  30.745  28.922  1.00  0.00    -0.014 A 
BRANCH  34  35
ATOM     35  C   UNL A   1      37.743  30.391  29.707  1.00  0.00     0.031 A 
ATOM     36  C   UNL A   1      38.774  29.463  29.125  1.00  0.00     0.074 A 
ATOM     37  C   UNL A   1      37.875  30.840  30.971  1.00  0.00     0.049 A 
ATOM     38  N   UNL A   1      39.844  28.958  29.685  1.00  0.00    -0.248 NA
ATOM     39  C   UNL A   1      38.554  29.024  27.740  1.00  0.00     0.031 C 
ATOM     40  C   UNL A   1      36.920  31.708  31.666  1.00  0.00     0.029 A 
ATOM     41  N   UNL A   1      38.857  30.619  31.904  1.00  0.00    -0.354 N 
ATOM     42  C   UNL A   1      40.414  28.124  28.728  1.00  0.00     0.074 A 
ATOM     43  C   UNL A   1      39.538  28.154  27.575  1.00  0.00     0.031 C 
ATOM     44  C   UNL A   1      37.373  31.958  32.905  1.00  0.00     0.029 A 
ATOM     45  C   UNL A   1      38.625  31.237  33.111  1.00  0.00     0.049 A 
ATOM     46  H   UNL A   1      39.654  30.069  31.726  1.00  0.00     0.167 HD
ATOM     47  C   UNL A   1      41.570  27.419  28.796  1.00  0.00     0.034 A 
ATOM     48  C   UNL A   1      39.330  31.213  34.260  1.00  0.00     0.034 A 
ATOM     49  C   UNL A   1      42.442  27.412  29.947  1.00  0.00     0.049 A 
ATOM     50  C   UNL A   1      40.607  30.416  34.316  1.00  0.00     0.074 A 
ATOM     51  C   UNL A   1      43.664  26.781  30.100  1.00  0.00     0.029 A 
ATOM     52  N   UNL A   1      42.180  28.064  31.146  1.00  0.00    -0.354 N 
ATOM     53  N   UNL A   1      41.158  29.672  33.386  1.00  0.00    -0.248 NA
ATOM     54  C   UNL A   1      41.362  30.464  35.575  1.00  0.00     0.031 C 
ATOM     55  C   UNL A   1      44.113  27.003  31.408  1.00  0.00     0.029 A 
ATOM     56  C   UNL A   1      43.205  27.829  32.051  1.00  0.00     0.049 A 
ATOM     57  H   UNL A   1      41.384  28.613  31.327  1.00  0.00     0.167 HD
ATOM     58  C   UNL A   1      42.341  29.187  33.939  1.00  0.00     0.074 A 
ATOM     59  C   UNL A   1      42.427  29.733  35.278  1.00  0.00     0.031 C 
ATOM     60  C   UNL A   1      43.273  28.370  33.387  1.00  0.00     0.034 A 
BRANCH  47  61
ATOM     61  C   UNL A   1      41.938  26.577  27.597  1.00  0.00     0.023 A 
ATOM     62  C   UNL A   1      41.533  25.235  27.486  1.00  0.00     0.031 A 
ATOM     63  C   UNL A   1      42.734  27.111  26.568  1.00  0.00     0.131 A 
ATOM     64  C   UNL A   1      41.992  24.450  26.418  1.00  0.00     0.055 A 
ATOM     65  C   UNL A   1      43.119  26.347  25.464  1.00  0.00     0.041 A 
ATOM     66  F   UNL A   1      43.166  28.380  26.627  1.00  0.00    -0.206 F 
ATOM     67  C   UNL A   1      42.761  25.004  25.392  1.00  0.00     0.022 A 
BRANCH  64  68
ATOM     68  S   UNL A   1      41.691  22.663  26.467  1.00  0.00     0.124 S 
ATOM     69  O   UNL A   1      42.332  22.290  27.727  1.00  0.00    -0.237 OA
ATOM     70  O   UNL A   1      40.236  22.586  26.443  1.00  0.00    -0.237 OA
ATOM     71  O   UNL A   1      42.363  22.169  25.266  1.00  0.00    -0.744 OA
ENDBRANCH  64  68
ENDBRANCH  47  61
BRANCH  48  72
ATOM     72  C   UNL A   1      38.847  31.958  35.457  1.00  0.00     0.023 A 
ATOM     73  C   UNL A   1      38.261  31.283  36.538  1.00  0.00     0.031 A 
ATOM     74  C   UNL A   1      38.931  33.361  35.518  1.00  0.00     0.131 A 
ATOM     75  C   UNL A   1      37.741  32.014  37.619  1.00  0.00     0.055 A 
ATOM     76  C   UNL A   1      38.455  34.080  36.616  1.00  0.00     0.041 A 
ATOM     77  F   UNL A   1      39.490  34.052  34.512  1.00  0.00    -0.206 F 
ATOM     78  C   UNL A   1      37.844  33.406  37.670  1.00  0.00     0.022 A 
BRANCH  75  79
ATOM     79  S   UNL A   1      36.860  31.119  38.928  1.00  0.00     0.124 S 
ATOM     80  O   UNL A   1      36.715  29.793  38.336  1.00  0.00    -0.237 OA
ATOM     81  O   UNL A   1      37.793  31.225  40.046  1.00  0.00    -0.237 OA
ATOM     82  O   UNL A   1      35.619  31.874  39.081  1.00  0.00    -0.744 OA
ENDBRANCH  75  79
ENDBRANCH  48  72
BRANCH  60  83
ATOM     83  C   UNL A   1      44.489  28.061  34.223  1.00  0.00     0.023 A 
ATOM     84  C   UNL A   1      44.503  27.001  35.147  1.00  0.00     0.031 A 
ATOM     85  C   UNL A   1      45.646  28.852  34.102  1.00  0.00     0.131 A 
ATOM     86  C   UNL A   1      45.634  26.791  35.951  1.00  0.00     0.055 A 
ATOM     87  C   UNL A   1      46.787  28.605  34.867  1.00  0.00     0.041 A 
ATOM     88  F   UNL A   1      45.685  29.877  33.237  1.00  0.00    -0.206 F 
ATOM     89  C   UNL A   1      46.782  27.577  35.806  1.00  0.00     0.022 A 
BRANCH  86  90
ATOM     90  S   UNL A   1      45.560  25.527  37.249  1.00  0.00     0.124 S 
ATOM     91  O   UNL A   1      46.006  26.271  38.423  1.00  0.00    -0.237 OA
ATOM     92  O   UNL A   1      44.152  25.146  37.233  1.00  0.00    -0.237 OA
ATOM     93  O   UNL A   1      46.485  24.497  36.780  1.00  0.00    -0.744 OA
ENDBRANCH  86  90
ENDBRANCH  60  83
ENDBRANCH  34  35
ENDBRANCH  26  29
ENDBRANCH  24  25
ENDBRANCH   1  24
TORSDOF 15
ENDMDL
MODEL 2
REMARK VINA RESULT:     -12.7      5.259     10.615
REMARK SMILES O=C(NCCCCNC(=O)c1ccc(-c2c3nc(c(-c4cc(S(=O)(=O)[O-])ccc4F)c4ccc([nH]4)c(-c4cc(S(=O)(=O)[O-])ccc4F)c4nc(c(-c5cc(S(=O)(=O)[O-])ccc5F)c5ccc2[nH]5)C=C4)C=C3)cc1)C1=C([O-])N(c2ccc3c(c2)OCCO3)CC1
REMARK SMILES IDX 6 1 5 2 4 3 3 4 1 5 2 6 74 8 75 9 89 10 76 11 77 12 88 13
REMARK SMILES IDX 78 14 79 15 83 16 80 17 82 18 81 19 84 20 87 21 85 22 86 23
REMARK SMILES IDX 7 24 8 25 9 26 10 28 11 29 12 30 73 31 13 32 72 33 14 34
REMARK SMILES IDX 15 35 16 36 66 37 17 38 71 39 65 40 67 41 18 42 70 43 64 44
REMARK SMILES IDX 63 45 19 47 51 48 31 49 50 50 32 51 35 52 49 53 68 54 33 55
REMARK SMILES IDX 34 56 48 58 69 59 36 60 20 61 21 62 29 63 22 64 28 65 30 66
REMARK SMILES IDX 27 67 23 68 24 69 25 70 26 71 52 72 53 73 61 74 54 75 60 76
REMARK SMILES IDX 62 77 59 78 55 79 56 80 57 81 58 82 37 83 38 84 46 85 39 86
REMARK SMILES IDX 45 87 47 88 44 89 40 90 41 91 42 92 43 93
REMARK H PARENT 3 7 8 27 67 46 35 57
REMARK Flexibility Score: inf
ROOT
ATOM      1  C   UNL A   1      35.701  22.521  24.181  1.00  0.00     0.023 C 
ENDROOT
BRANCH   1   2
ATOM      2  C   UNL A   1      34.416  23.343  24.195  1.00  0.00     0.023 C 
BRANCH   2   3
ATOM      3  C   UNL A   1      34.380  24.493  25.193  1.00  0.00     0.116 C 
BRANCH   3   4
ATOM      4  N   UNL A   1      33.408  24.314  26.260  1.00  0.00    -0.352 N 
ATOM      5  O   UNL A   1      31.379  24.325  27.251  1.00  0.00    -0.270 OA
ATOM      6  C   UNL A   1      32.071  24.591  26.268  1.00  0.00     0.248 C 
ATOM      7  H   UNL A   1      33.765  23.939  27.097  1.00  0.00     0.163 HD
BRANCH   6   8
ATOM      8  C   UNL A   1      31.497  25.164  25.056  1.00  0.00     0.027 C 
ATOM      9  C   UNL A   1      31.263  26.462  24.816  1.00  0.00    -0.028 C 
ATOM     10  C   UNL A   1      31.072  24.342  23.877  1.00  0.00     0.064 C 
ATOM     11  O   UNL A   1      31.465  27.496  25.666  1.00  0.00    -0.860 OA
ATOM     12  N   UNL A   1      30.894  26.679  23.505  1.00  0.00    -0.354 N 
ATOM     13  C   UNL A   1      31.023  25.400  22.762  1.00  0.00     0.126 C 
BRANCH  12  14
ATOM     14  C   UNL A   1      29.803  27.449  23.054  1.00  0.00     0.044 A 
ATOM     15  C   UNL A   1      28.515  27.128  23.505  1.00  0.00     0.030 A 
ATOM     16  C   UNL A   1      30.035  28.691  22.448  1.00  0.00     0.076 A 
ATOM     17  C   UNL A   1      27.506  28.090  23.491  1.00  0.00     0.052 A 
ATOM     18  C   UNL A   1      29.067  29.681  22.534  1.00  0.00     0.163 A 
ATOM     19  C   UNL A   1      27.820  29.385  23.090  1.00  0.00     0.161 A 
ATOM     20  O   UNL A   1      29.470  30.946  22.199  1.00  0.00    -0.486 OA
ATOM     21  O   UNL A   1      26.912  30.373  23.388  1.00  0.00    -0.486 OA
ATOM     22  C   UNL A   1      28.548  31.966  22.602  1.00  0.00     0.271 C 
ATOM     23  C   UNL A   1      27.658  31.541  23.760  1.00  0.00     0.271 C 
ENDBRANCH  12  14
ENDBRANCH   6   8
ENDBRANCH   3   4
ENDBRANCH   2   3
ENDBRANCH   1   2
BRANCH   1  24
ATOM     24  C   UNL A   1      36.220  22.075  25.544  1.00  0.00     0.116 C 
BRANCH  24  25
ATOM     25  N   UNL A   1      37.213  21.015  25.467  1.00  0.00    -0.352 N 
ATOM     26  C   UNL A   1      38.558  21.054  25.752  1.00  0.00     0.251 C 
ATOM     27  H   UNL A   1      36.871  20.141  25.166  1.00  0.00     0.163 HD
ATOM     28  O   UNL A   1      39.253  20.069  25.519  1.00  0.00    -0.269 OA
BRANCH  26  29
ATOM     29  C   UNL A   1      39.169  22.289  26.292  1.00  0.00     0.039 A 
ATOM     30  C   UNL A   1      40.288  22.179  27.121  1.00  0.00     0.014 A 
ATOM     31  C   UNL A   1      38.663  23.550  25.965  1.00  0.00     0.014 A 
ATOM     32  C   UNL A   1      40.951  23.332  27.551  1.00  0.00     0.010 A 
ATOM     33  C   UNL A   1      39.367  24.695  26.333  1.00  0.00     0.010 A 
ATOM     34  C   UNL A   1      40.524  24.598  27.122  1.00  0.00    -0.014 A 
BRANCH  34  35
ATOM     35  C   UNL A   1      41.277  25.832  27.476  1.00  0.00     0.031 A 
ATOM     36  C   UNL A   1      40.626  26.902  28.309  1.00  0.00     0.074 A 
ATOM     37  C   UNL A   1      42.515  26.023  26.980  1.00  0.00     0.049 A 
ATOM     38  N   UNL A   1      41.077  28.085  28.639  1.00  0.00    -0.248 NA
ATOM     39  C   UNL A   1      39.276  26.610  28.812  1.00  0.00     0.031 C 
ATOM     40  C   UNL A   1      43.239  25.081  26.121  1.00  0.00     0.029 A 
ATOM     41  N   UNL A   1      43.383  27.079  27.113  1.00  0.00    -0.354 N 
ATOM     42  C   UNL A   1      40.059  28.689  29.370  1.00  0.00     0.074 A 
ATOM     43  C   UNL A   1      38.950  27.758  29.386  1.00  0.00     0.031 C 
ATOM     44  C   UNL A   1      44.443  25.594  25.820  1.00  0.00     0.029 A 
ATOM     45  C   UNL A   1      44.563  26.916  26.426  1.00  0.00     0.049 A 
ATOM     46  H   UNL A   1      43.179  27.878  27.651  1.00  0.00     0.167 HD
ATOM     47  C   UNL A   1      40.058  29.896  29.988  1.00  0.00     0.034 A 
ATOM     48  C   UNL A   1      45.619  27.744  26.286  1.00  0.00     0.034 A 
ATOM     49  C   UNL A   1      41.178  30.806  29.978  1.00  0.00     0.049 A 
ATOM     50  C   UNL A   1      45.593  29.083  26.974  1.00  0.00     0.074 A 
ATOM     51  C   UNL A   1      41.305  32.026  30.619  1.00  0.00     0.029 A 
ATOM     52  N   UNL A   1      42.364  30.599  29.284  1.00  0.00    -0.354 N 
ATOM     53  N   UNL A   1      44.641  29.619  27.703  1.00  0.00    -0.248 NA
ATOM     54  C   UNL A   1      46.787  29.925  26.830  1.00  0.00     0.031 C 
ATOM     55  C   UNL A   1      42.541  32.582  30.268  1.00  0.00     0.029 A 
ATOM     56  C   UNL A   1      43.216  31.679  29.461  1.00  0.00     0.049 A 
ATOM     57  H   UNL A   1      42.570  29.802  28.745  1.00  0.00     0.167 HD
ATOM     58  C   UNL A   1      45.137  30.849  28.128  1.00  0.00     0.074 A 
ATOM     59  C   UNL A   1      46.474  30.969  27.583  1.00  0.00     0.031 C 
ATOM     60  C   UNL A   1      44.542  31.791  28.903  1.00  0.00     0.034 A 
BRANCH  47  61
ATOM     61  C   UNL A   1      38.792  30.304  30.705  1.00  0.00     0.023 A 
ATOM     62  C   UNL A   1      37.778  31.028  30.055  1.00  0.00     0.031 A 
ATOM     63  C   UNL A   1      38.612  29.997  32.065  1.00  0.00     0.131 A 
ATOM     64  C   UNL A   1      36.672  31.493  30.782  1.00  0.00     0.055 A 
ATOM     65  C   UNL A   1      37.469  30.391  32.764  1.00  0.00     0.041 A 
ATOM     66  F   UNL A   1      39.554  29.324  32.745  1.00  0.00    -0.206 F 
ATOM     67  C   UNL A   1      36.497  31.157  32.126  1.00  0.00     0.022 A 
BRANCH  64  68
ATOM     68  S   UNL A   1      35.541  32.663  29.981  1.00  0.00     0.124 S 
ATOM     69  O   UNL A   1      36.347  33.882  29.958  1.00  0.00    -0.237 OA
ATOM     70  O   UNL A   1      35.296  32.034  28.689  1.00  0.00    -0.237 OA
ATOM     71  O   UNL A   1      34.392  32.702  30.884  1.00  0.00    -0.744 OA
ENDBRANCH  64  68
ENDBRANCH  47  61
BRANCH  48  72
ATOM     72  C   UNL A   1      46.788  27.340  25.454  1.00  0.00     0.023 A 
ATOM     73  C   UNL A   1      46.947  27.830  24.148  1.00  0.00     0.031 A 
ATOM     74  C   UNL A   1      47.742  26.429  25.941  1.00  0.00     0.131 A 
ATOM     75  C   UNL A   1      48.013  27.373  23.357  1.00  0.00     0.055 A 
ATOM     76  C   UNL A   1      48.826  26.014  25.166  1.00  0.00     0.041 A 
ATOM     77  F   UNL A   1      47.638  25.938  27.186  1.00  0.00    -0.206 F 
ATOM     78  C   UNL A   1      48.960  26.477  23.861  1.00  0.00     0.022 A 
BRANCH  75  79
ATOM     79  S   UNL A   1      48.103  27.914  21.628  1.00  0.00     0.124 S 
ATOM     80  O   UNL A   1      48.279  26.646  20.928  1.00  0.00    -0.237 OA
ATOM     81  O   UNL A   1      46.814  28.573  21.449  1.00  0.00    -0.237 OA
ATOM     82  O   UNL A   1      49.263  28.803  21.610  1.00  0.00    -0.744 OA
ENDBRANCH  75  79
ENDBRANCH  48  72
BRANCH  60  83
ATOM     83  C   UNL A   1      45.361  33.011  29.242  1.00  0.00     0.023 A 
ATOM     84  C   UNL A   1      45.333  34.168  28.444  1.00  0.00     0.031 A 
ATOM     85  C   UNL A   1      46.194  33.007  30.376  1.00  0.00     0.131 A 
ATOM     86  C   UNL A   1      46.162  35.255  28.762  1.00  0.00     0.055 A 
ATOM     87  C   UNL A   1      46.976  34.111  30.716  1.00  0.00     0.041 A 
ATOM     88  F   UNL A   1      46.260  31.927  31.171  1.00  0.00    -0.206 F 
ATOM     89  C   UNL A   1      46.971  35.239  29.902  1.00  0.00     0.022 A 
BRANCH  86  90
ATOM     90  S   UNL A   1      46.230  36.663  27.621  1.00  0.00     0.124 S 
ATOM     91  O   UNL A   1      45.079  37.454  28.045  1.00  0.00    -0.237 OA
ATOM     92  O   UNL A   1      47.540  37.237  27.912  1.00  0.00    -0.237 OA
ATOM     93  O   UNL A   1      46.105  36.044  26.302  1.00  0.00    -0.744 OA
ENDBRANCH  86  90
ENDBRANCH  60  83
ENDBRANCH  34  35
ENDBRANCH  26  29
ENDBRANCH  24  25
ENDBRANCH   1  24
TORSDOF 15
ENDMDL
MODEL 3
REMARK VINA RESULT:     -12.7      0.902      7.517
REMARK SMILES O=C(NCCCCNC(=O)c1ccc(-c2c3nc(c(-c4cc(S(=O)(=O)[O-])ccc4F)c4ccc([nH]4)c(-c4cc(S(=O)(=O)[O-])ccc4F)c4nc(c(-c5cc(S(=O)(=O)[O-])ccc5F)c5ccc2[nH]5)C=C4)C=C3)cc1)C1=C([O-])N(c2ccc3c(c2)OCCO3)CC1
REMARK SMILES IDX 6 1 5 2 4 3 3 4 1 5 2 6 74 8 75 9 89 10 76 11 77 12 88 13
REMARK SMILES IDX 78 14 79 15 83 16 80 17 82 18 81 19 84 20 87 21 85 22 86 23
REMARK SMILES IDX 7 24 8 25 9 26 10 28 11 29 12 30 73 31 13 32 72 33 14 34
REMARK SMILES IDX 15 35 16 36 66 37 17 38 71 39 65 40 67 41 18 42 70 43 64 44
REMARK SMILES IDX 63 45 19 47 51 48 31 49 50 50 32 51 35 52 49 53 68 54 33 55
REMARK SMILES IDX 34 56 48 58 69 59 36 60 20 61 21 62 29 63 22 64 28 65 30 66
REMARK SMILES IDX 27 67 23 68 24 69 25 70 26 71 52 72 53 73 61 74 54 75 60 76
REMARK SMILES IDX 62 77 59 78 55 79 56 80 57 81 58 82 37 83 38 84 46 85 39 86
REMARK SMILES IDX 45 87 47 88 44 89 40 90 41 91 42 92 43 93
REMARK H PARENT 3 7 8 27 67 46 35 57
REMARK Flexibility Score: inf
ROOT
ATOM      1  C   UNL A   1      32.248  29.403  24.616  1.00  0.00     0.023 C 
ENDROOT
BRANCH   1   2
ATOM      2  C   UNL A   1      31.046  28.464  24.592  1.00  0.00     0.023 C 
BRANCH   2   3
ATOM      3  C   UNL A   1      31.212  27.203  23.754  1.00  0.00     0.116 C 
BRANCH   3   4
ATOM      4  N   UNL A   1      32.182  27.335  22.679  1.00  0.00    -0.352 N 
ATOM      5  O   UNL A   1      34.027  26.853  21.469  1.00  0.00    -0.270 OA
ATOM      6  C   UNL A   1      33.343  26.647  22.472  1.00  0.00     0.248 C 
ATOM      7  H   UNL A   1      31.972  28.019  22.002  1.00  0.00     0.163 HD
BRANCH   6   8
ATOM      8  C   UNL A   1      33.707  25.633  23.456  1.00  0.00     0.027 C 
ATOM      9  C   UNL A   1      33.866  24.321  23.232  1.00  0.00    -0.028 C 
ATOM     10  C   UNL A   1      33.955  25.938  24.902  1.00  0.00     0.064 C 
ATOM     11  O   UNL A   1      33.674  23.665  22.063  1.00  0.00    -0.860 OA
ATOM     12  N   UNL A   1      34.397  23.678  24.331  1.00  0.00    -0.354 N 
ATOM     13  C   UNL A   1      34.747  24.699  25.350  1.00  0.00     0.126 C 
BRANCH  12  14
ATOM     14  C   UNL A   1      33.928  22.483  24.913  1.00  0.00     0.044 A 
ATOM     15  C   UNL A   1      32.557  22.346  25.171  1.00  0.00     0.030 A 
ATOM     16  C   UNL A   1      34.751  21.348  24.924  1.00  0.00     0.076 A 
ATOM     17  C   UNL A   1      31.987  21.080  25.286  1.00  0.00     0.052 A 
ATOM     18  C   UNL A   1      34.171  20.087  24.928  1.00  0.00     0.163 A 
ATOM     19  C   UNL A   1      32.787  19.961  25.071  1.00  0.00     0.161 A 
ATOM     20  O   UNL A   1      35.004  19.042  24.630  1.00  0.00    -0.486 OA
ATOM     21  O   UNL A   1      32.150  18.761  24.871  1.00  0.00    -0.486 OA
ATOM     22  C   UNL A   1      34.310  17.824  24.336  1.00  0.00     0.271 C 
ATOM     23  C   UNL A   1      32.882  18.050  23.863  1.00  0.00     0.271 C 
ENDBRANCH  12  14
ENDBRANCH   6   8
ENDBRANCH   3   4
ENDBRANCH   2   3
ENDBRANCH   1   2
BRANCH   1  24
ATOM     24  C   UNL A   1      32.866  29.658  25.986  1.00  0.00     0.116 C 
BRANCH  24  25
ATOM     25  N   UNL A   1      32.714  31.030  26.444  1.00  0.00    -0.352 N 
ATOM     26  C   UNL A   1      33.514  31.763  27.290  1.00  0.00     0.251 C 
ATOM     27  H   UNL A   1      31.924  31.504  26.096  1.00  0.00     0.163 HD
ATOM     28  O   UNL A   1      33.154  32.884  27.641  1.00  0.00    -0.269 OA
BRANCH  26  29
ATOM     29  C   UNL A   1      34.774  31.187  27.809  1.00  0.00     0.039 A 
ATOM     30  C   UNL A   1      35.872  32.030  27.999  1.00  0.00     0.014 A 
ATOM     31  C   UNL A   1      34.871  29.831  28.135  1.00  0.00     0.014 A 
ATOM     32  C   UNL A   1      37.036  31.534  28.593  1.00  0.00     0.010 A 
ATOM     33  C   UNL A   1      36.003  29.356  28.794  1.00  0.00     0.010 A 
ATOM     34  C   UNL A   1      37.094  30.204  29.039  1.00  0.00    -0.014 A 
BRANCH  34  35
ATOM     35  C   UNL A   1      38.279  29.683  29.773  1.00  0.00     0.031 A 
ATOM     36  C   UNL A   1      38.614  30.214  31.140  1.00  0.00     0.074 A 
ATOM     37  C   UNL A   1      39.097  28.794  29.175  1.00  0.00     0.049 A 
ATOM     38  N   UNL A   1      39.653  29.962  31.895  1.00  0.00    -0.248 NA
ATOM     39  C   UNL A   1      37.667  31.177  31.719  1.00  0.00     0.031 C 
ATOM     40  C   UNL A   1      38.907  28.238  27.832  1.00  0.00     0.029 A 
ATOM     41  N   UNL A   1      40.259  28.209  29.611  1.00  0.00    -0.354 N 
ATOM     42  C   UNL A   1      39.497  30.752  33.030  1.00  0.00     0.074 A 
ATOM     43  C   UNL A   1      38.290  31.528  32.834  1.00  0.00     0.031 C 
ATOM     44  C   UNL A   1      39.906  27.383  27.563  1.00  0.00     0.029 A 
ATOM     45  C   UNL A   1      40.831  27.360  28.692  1.00  0.00     0.049 A 
ATOM     46  H   UNL A   1      40.649  28.383  30.498  1.00  0.00     0.167 HD
ATOM     47  C   UNL A   1      40.274  30.807  34.139  1.00  0.00     0.034 A 
ATOM     48  C   UNL A   1      41.979  26.654  28.745  1.00  0.00     0.034 A 
ATOM     49  C   UNL A   1      41.466  30.014  34.328  1.00  0.00     0.049 A 
ATOM     50  C   UNL A   1      42.831  26.736  29.983  1.00  0.00     0.074 A 
ATOM     51  C   UNL A   1      42.293  29.949  35.435  1.00  0.00     0.029 A 
ATOM     52  N   UNL A   1      42.004  29.152  33.380  1.00  0.00    -0.354 N 
ATOM     53  N   UNL A   1      42.644  27.451  31.069  1.00  0.00    -0.248 NA
ATOM     54  C   UNL A   1      44.044  25.909  30.009  1.00  0.00     0.031 C 
ATOM     55  C   UNL A   1      43.360  29.094  35.138  1.00  0.00     0.029 A 
ATOM     56  C   UNL A   1      43.165  28.571  33.869  1.00  0.00     0.049 A 
ATOM     57  H   UNL A   1      41.618  28.978  32.492  1.00  0.00     0.167 HD
ATOM     58  C   UNL A   1      43.702  27.136  31.917  1.00  0.00     0.074 A 
ATOM     59  C   UNL A   1      44.515  26.159  31.222  1.00  0.00     0.031 C 
ATOM     60  C   UNL A   1      43.972  27.607  33.161  1.00  0.00     0.034 A 
BRANCH  47  61
ATOM     61  C   UNL A   1      39.867  31.780  35.221  1.00  0.00     0.023 A 
ATOM     62  C   UNL A   1      39.091  31.376  36.322  1.00  0.00     0.031 A 
ATOM     63  C   UNL A   1      40.228  33.136  35.135  1.00  0.00     0.131 A 
ATOM     64  C   UNL A   1      38.632  32.328  37.244  1.00  0.00     0.055 A 
ATOM     65  C   UNL A   1      39.838  34.065  36.102  1.00  0.00     0.041 A 
ATOM     66  F   UNL A   1      40.953  33.585  34.098  1.00  0.00    -0.206 F 
ATOM     67  C   UNL A   1      39.021  33.666  37.156  1.00  0.00     0.022 A 
BRANCH  64  68
ATOM     68  S   UNL A   1      37.401  31.817  38.474  1.00  0.00     0.124 S 
ATOM     69  O   UNL A   1      37.124  30.443  38.060  1.00  0.00    -0.237 OA
ATOM     70  O   UNL A   1      38.124  31.973  39.730  1.00  0.00    -0.237 OA
ATOM     71  O   UNL A   1      36.299  32.755  38.266  1.00  0.00    -0.744 OA
ENDBRANCH  64  68
ENDBRANCH  47  61
BRANCH  48  72
ATOM     72  C   UNL A   1      42.399  25.811  27.589  1.00  0.00     0.023 A 
ATOM     73  C   UNL A   1      41.976  24.478  27.477  1.00  0.00     0.031 A 
ATOM     74  C   UNL A   1      43.260  26.318  26.599  1.00  0.00     0.131 A 
ATOM     75  C   UNL A   1      42.449  23.682  26.422  1.00  0.00     0.055 A 
ATOM     76  C   UNL A   1      43.690  25.536  25.527  1.00  0.00     0.041 A 
ATOM     77  F   UNL A   1      43.686  27.590  26.658  1.00  0.00    -0.206 F 
ATOM     78  C   UNL A   1      43.294  24.205  25.440  1.00  0.00     0.022 A 
BRANCH  75  79
ATOM     79  S   UNL A   1      41.999  21.924  26.392  1.00  0.00     0.124 S 
ATOM     80  O   UNL A   1      42.856  21.416  25.326  1.00  0.00    -0.237 OA
ATOM     81  O   UNL A   1      42.340  21.502  27.746  1.00  0.00    -0.237 OA
ATOM     82  O   UNL A   1      40.569  21.944  26.089  1.00  0.00    -0.744 OA
ENDBRANCH  75  79
ENDBRANCH  48  72
BRANCH  60  83
ATOM     83  C   UNL A   1      45.177  27.029  33.862  1.00  0.00     0.023 A 
ATOM     84  C   UNL A   1      45.097  25.849  34.621  1.00  0.00     0.031 A 
ATOM     85  C   UNL A   1      46.420  27.682  33.778  1.00  0.00     0.131 A 
ATOM     86  C   UNL A   1      46.228  25.384  35.309  1.00  0.00     0.055 A 
ATOM     87  C   UNL A   1      47.554  27.185  34.421  1.00  0.00     0.041 A 
ATOM     88  F   UNL A   1      46.551  28.813  33.068  1.00  0.00    -0.206 F 
ATOM     89  C   UNL A   1      47.460  26.037  35.201  1.00  0.00     0.022 A 
BRANCH  86  90
ATOM     90  S   UNL A   1      46.052  23.957  36.416  1.00  0.00     0.124 S 
ATOM     91  O   UNL A   1      44.613  23.940  36.661  1.00  0.00    -0.237 OA
ATOM     92  O   UNL A   1      46.572  22.864  35.601  1.00  0.00    -0.237 OA
ATOM     93  O   UNL A   1      46.874  24.314  37.571  1.00  0.00    -0.744 OA
ENDBRANCH  86  90
ENDBRANCH  60  83
ENDBRANCH  34  35
ENDBRANCH  26  29
ENDBRANCH  24  25
ENDBRANCH   1  24
TORSDOF 15
ENDMDL
