MODEL 1
REMARK VINA RESULT:     -14.4      0.000      0.000
REMARK SMILES Cc1ccc(S(=O)(=O)n2cc(C(=O)C(=O)N[C@@H](Cc3c[nH]c4ccccc34)C(=O)NCCCCNC(=O)c3ccc(-c4c5nc(c(-c6cc(S(=O)(=O)[O-])ccc6F)c6ccc([nH]6)c(-c6cc(S(=O)(=O)[O-])ccc6F)c6nc(c(-c7cc(S(=O)(=O)[O-])ccc7F)c7ccc4[nH]7)C=C6)C=C5)cc3)c3ccccc32)cc1
REMARK SMILES IDX 31 1 30 2 28 3 29 4 17 6 16 7 14 8 15 9 12 11 13 12 11 13
REMARK SMILES IDX 9 14 10 15 106 16 101 17 105 18 102 19 104 20 103 21 6 22
REMARK SMILES IDX 7 23 8 24 5 25 1 26 2 27 3 28 108 29 4 30 107 31 18 32 19 33
REMARK SMILES IDX 20 34 27 35 21 36 22 37 26 38 23 40 25 41 24 42 32 43 33 44
REMARK SMILES IDX 34 45 35 46 36 47 37 49 38 50 39 51 100 52 40 53 99 54 41 55
REMARK SMILES IDX 42 56 43 57 93 58 44 59 98 60 92 61 94 62 45 63 97 64 91 65
REMARK SMILES IDX 90 66 46 68 78 69 58 70 77 71 59 72 62 73 76 74 95 75 60 76
REMARK SMILES IDX 61 77 75 79 96 80 63 81 47 82 48 83 56 84 49 85 55 86 57 87
REMARK SMILES IDX 54 88 50 89 51 90 52 91 53 92 79 93 80 94 88 95 81 96 87 97
REMARK SMILES IDX 89 98 86 99 82 100 83 101 84 102 85 103 64 104 65 105 73 106
REMARK SMILES IDX 66 107 72 108 74 109 71 110 67 111 68 112 69 113 70 114
REMARK H PARENT 30 5 16 10 21 39 35 48 94 67 62 78
REMARK Flexibility Score: inf
ROOT
ATOM      1  C   UNL A   1      35.780  22.736  24.045  1.00  0.00     0.116 C 
ENDROOT
BRANCH   1   2
ATOM      2  N   UNL A   1      35.302  23.178  25.338  1.00  0.00    -0.354 N 
ATOM      3  C   UNL A   1      34.493  22.501  26.218  1.00  0.00     0.242 C 
ATOM      4  O   UNL A   1      34.637  22.774  27.418  1.00  0.00    -0.273 OA
ATOM      5  H   UNL A   1      35.592  24.075  25.622  1.00  0.00     0.163 HD
BRANCH   3   6
ATOM      6  C   UNL A   1      33.509  21.363  25.801  1.00  0.00     0.176 C 
BRANCH   6   7
ATOM      7  N   UNL A   1      32.126  21.503  26.315  1.00  0.00    -0.337 N 
ATOM      8  C   UNL A   1      31.103  22.369  25.961  1.00  0.00     0.293 C 
ATOM      9  O   UNL A   1      30.046  22.389  26.586  1.00  0.00    -0.265 OA
ATOM     10  H   UNL A   1      31.893  20.870  27.033  1.00  0.00     0.164 HD
BRANCH   8  11
ATOM     11  C   UNL A   1      31.257  23.299  24.758  1.00  0.00     0.252 C 
ATOM     12  O   UNL A   1      30.909  22.838  23.672  1.00  0.00    -0.283 OA
BRANCH  11  13
ATOM     13  C   UNL A   1      31.872  24.638  24.860  1.00  0.00     0.054 A 
ATOM     14  N   UNL A   1      32.695  26.656  25.494  1.00  0.00    -0.240 N 
ATOM     15  C   UNL A   1      32.043  25.508  25.949  1.00  0.00     0.117 A 
ATOM     16  C   UNL A   1      33.128  26.399  24.182  1.00  0.00     0.065 A 
ATOM     17  C   UNL A   1      32.327  25.361  23.715  1.00  0.00     0.012 A 
ATOM     18  C   UNL A   1      33.920  27.167  23.304  1.00  0.00     0.028 A 
ATOM     19  C   UNL A   1      32.161  25.213  22.322  1.00  0.00     0.011 A 
ATOM     20  C   UNL A   1      33.684  27.049  21.937  1.00  0.00     0.002 A 
ATOM     21  C   UNL A   1      32.782  26.113  21.451  1.00  0.00     0.001 A 
BRANCH  14  22
ATOM     22  S   UNL A   1      32.121  28.303  25.649  1.00  0.00     0.268 S 
ATOM     23  O   UNL A   1      33.321  29.096  25.437  1.00  0.00    -0.201 OA
ATOM     24  O   UNL A   1      31.457  28.281  26.947  1.00  0.00    -0.201 OA
BRANCH  22  25
ATOM     25  C   UNL A   1      30.887  29.090  24.675  1.00  0.00     0.088 A 
ATOM     26  C   UNL A   1      28.074  30.202  21.583  1.00  0.00     0.044 C 
ATOM     27  C   UNL A   1      29.009  29.840  22.702  1.00  0.00    -0.051 A 
ATOM     28  C   UNL A   1      29.442  28.523  22.765  1.00  0.00     0.005 A 
ATOM     29  C   UNL A   1      29.508  30.769  23.644  1.00  0.00     0.005 A 
ATOM     30  C   UNL A   1      30.351  28.161  23.743  1.00  0.00     0.022 A 
ATOM     31  C   UNL A   1      30.457  30.404  24.637  1.00  0.00     0.022 A 
ENDBRANCH  22  25
ENDBRANCH  14  22
ENDBRANCH  11  13
ENDBRANCH   8  11
ENDBRANCH   6   7
BRANCH   6  32
ATOM     32  C   UNL A   1      33.597  20.999  24.278  1.00  0.00     0.072 C 
BRANCH  32  33
ATOM     33  C   UNL A   1      33.230  19.594  23.888  1.00  0.00    -0.020 A 
ATOM     34  C   UNL A   1      32.055  19.184  23.279  1.00  0.00     0.087 A 
ATOM     35  C   UNL A   1      33.977  18.398  24.162  1.00  0.00     0.003 A 
ATOM     36  N   UNL A   1      31.997  17.812  23.327  1.00  0.00    -0.361 N 
ATOM     37  C   UNL A   1      33.081  17.339  24.027  1.00  0.00     0.046 A 
ATOM     38  C   UNL A   1      35.254  18.136  24.702  1.00  0.00     0.010 A 
ATOM     39  H   UNL A   1      31.292  17.256  22.923  1.00  0.00     0.166 HD
ATOM     40  C   UNL A   1      33.331  16.078  24.572  1.00  0.00     0.026 A 
ATOM     41  C   UNL A   1      35.521  16.878  25.250  1.00  0.00     0.001 A 
ATOM     42  C   UNL A   1      34.558  15.875  25.213  1.00  0.00     0.002 A 
ENDBRANCH  32  33
ENDBRANCH   6  32
ENDBRANCH   3   6
ENDBRANCH   1   2
BRANCH   1  43
ATOM     43  C   UNL A   1      37.041  21.877  24.025  1.00  0.00     0.023 C 
BRANCH  43  44
ATOM     44  C   UNL A   1      37.755  21.680  25.356  1.00  0.00     0.023 C 
BRANCH  44  45
ATOM     45  C   UNL A   1      38.360  22.930  25.986  1.00  0.00     0.116 C 
BRANCH  45  46
ATOM     46  N   UNL A   1      39.711  22.822  26.518  1.00  0.00    -0.352 N 
ATOM     47  C   UNL A   1      40.571  23.831  26.948  1.00  0.00     0.251 C 
ATOM     48  H   UNL A   1      40.068  21.907  26.583  1.00  0.00     0.163 HD
ATOM     49  O   UNL A   1      41.730  23.566  27.222  1.00  0.00    -0.269 OA
BRANCH  47  50
ATOM     50  C   UNL A   1      40.061  25.216  27.182  1.00  0.00     0.039 A 
ATOM     51  C   UNL A   1      40.554  26.258  26.380  1.00  0.00     0.014 A 
ATOM     52  C   UNL A   1      39.252  25.523  28.269  1.00  0.00     0.014 A 
ATOM     53  C   UNL A   1      40.449  27.579  26.817  1.00  0.00     0.010 A 
ATOM     54  C   UNL A   1      39.264  26.801  28.776  1.00  0.00     0.010 A 
ATOM     55  C   UNL A   1      39.923  27.814  28.083  1.00  0.00    -0.014 A 
BRANCH  55  56
ATOM     56  C   UNL A   1      40.106  29.033  28.854  1.00  0.00     0.031 A 
ATOM     57  C   UNL A   1      39.062  30.077  28.837  1.00  0.00     0.074 A 
ATOM     58  C   UNL A   1      41.129  29.057  29.739  1.00  0.00     0.049 A 
ATOM     59  N   UNL A   1      39.213  31.264  29.307  1.00  0.00    -0.248 NA
ATOM     60  C   UNL A   1      37.758  29.875  28.209  1.00  0.00     0.031 C 
ATOM     61  C   UNL A   1      41.308  29.959  30.872  1.00  0.00     0.029 A 
ATOM     62  N   UNL A   1      42.356  28.380  29.649  1.00  0.00    -0.354 N 
ATOM     63  C   UNL A   1      37.976  31.871  29.322  1.00  0.00     0.074 A 
ATOM     64  C   UNL A   1      37.146  31.025  28.505  1.00  0.00     0.031 C 
ATOM     65  C   UNL A   1      42.619  30.015  31.167  1.00  0.00     0.029 A 
ATOM     66  C   UNL A   1      43.320  29.288  30.119  1.00  0.00     0.049 A 
ATOM     67  H   UNL A   1      42.509  27.463  29.325  1.00  0.00     0.167 HD
ATOM     68  C   UNL A   1      37.782  32.942  30.145  1.00  0.00     0.034 A 
ATOM     69  C   UNL A   1      44.287  29.825  29.319  1.00  0.00     0.034 A 
ATOM     70  C   UNL A   1      39.069  33.429  30.649  1.00  0.00     0.049 A 
ATOM     71  C   UNL A   1      44.198  31.344  29.235  1.00  0.00     0.074 A 
ATOM     72  C   UNL A   1      39.707  33.335  31.873  1.00  0.00     0.029 A 
ATOM     73  N   UNL A   1      40.024  33.882  29.742  1.00  0.00    -0.354 N 
ATOM     74  N   UNL A   1      43.143  32.043  29.559  1.00  0.00    -0.248 NA
ATOM     75  C   UNL A   1      45.295  32.179  28.757  1.00  0.00     0.031 C 
ATOM     76  C   UNL A   1      41.089  33.609  31.662  1.00  0.00     0.029 A 
ATOM     77  C   UNL A   1      41.275  33.927  30.325  1.00  0.00     0.049 A 
ATOM     78  H   UNL A   1      39.833  34.136  28.810  1.00  0.00     0.167 HD
ATOM     79  C   UNL A   1      43.385  33.376  29.335  1.00  0.00     0.074 A 
ATOM     80  C   UNL A   1      44.757  33.407  28.854  1.00  0.00     0.031 C 
ATOM     81  C   UNL A   1      42.437  34.343  29.547  1.00  0.00     0.034 A 
BRANCH  68  82
ATOM     82  C   UNL A   1      36.446  33.431  30.689  1.00  0.00     0.023 A 
ATOM     83  C   UNL A   1      35.558  34.089  29.804  1.00  0.00     0.031 A 
ATOM     84  C   UNL A   1      36.024  33.415  32.037  1.00  0.00     0.131 A 
ATOM     85  C   UNL A   1      34.374  34.707  30.262  1.00  0.00     0.055 A 
ATOM     86  C   UNL A   1      34.828  33.995  32.485  1.00  0.00     0.041 A 
ATOM     87  F   UNL A   1      36.752  32.880  33.021  1.00  0.00    -0.206 F 
ATOM     88  C   UNL A   1      34.000  34.656  31.599  1.00  0.00     0.022 A 
BRANCH  85  89
ATOM     89  S   UNL A   1      33.350  35.644  29.094  1.00  0.00     0.124 S 
ATOM     90  O   UNL A   1      32.660  36.581  29.975  1.00  0.00    -0.237 OA
ATOM     91  O   UNL A   1      34.345  36.211  28.193  1.00  0.00    -0.237 OA
ATOM     92  O   UNL A   1      32.493  34.619  28.498  1.00  0.00    -0.744 OA
ENDBRANCH  85  89
ENDBRANCH  68  82
BRANCH  69  93
ATOM     93  C   UNL A   1      44.728  28.956  28.188  1.00  0.00     0.023 A 
ATOM     94  C   UNL A   1      45.608  27.881  28.436  1.00  0.00     0.031 A 
ATOM     95  C   UNL A   1      44.025  28.960  26.972  1.00  0.00     0.131 A 
ATOM     96  C   UNL A   1      45.702  26.823  27.515  1.00  0.00     0.055 A 
ATOM     97  C   UNL A   1      44.098  27.888  26.077  1.00  0.00     0.041 A 
ATOM     98  F   UNL A   1      43.134  29.927  26.707  1.00  0.00    -0.206 F 
ATOM     99  C   UNL A   1      44.914  26.798  26.361  1.00  0.00     0.022 A 
BRANCH  96 100
ATOM    100  S   UNL A   1      46.780  25.392  27.825  1.00  0.00     0.124 S 
ATOM    101  O   UNL A   1      45.880  24.483  28.525  1.00  0.00    -0.237 OA
ATOM    102  O   UNL A   1      47.177  24.978  26.485  1.00  0.00    -0.237 OA
ATOM    103  O   UNL A   1      47.841  25.975  28.646  1.00  0.00    -0.744 OA
ENDBRANCH  96 100
ENDBRANCH  69  93
BRANCH  81 104
ATOM    104  C   UNL A   1      42.538  35.790  29.098  1.00  0.00     0.023 A 
ATOM    105  C   UNL A   1      43.274  36.764  29.788  1.00  0.00     0.031 A 
ATOM    106  C   UNL A   1      41.953  36.220  27.881  1.00  0.00     0.131 A 
ATOM    107  C   UNL A   1      43.333  38.095  29.333  1.00  0.00     0.055 A 
ATOM    108  C   UNL A   1      42.091  37.520  27.381  1.00  0.00     0.041 A 
ATOM    109  F   UNL A   1      41.228  35.392  27.113  1.00  0.00    -0.206 F 
ATOM    110  C   UNL A   1      42.769  38.475  28.120  1.00  0.00     0.022 A 
BRANCH 107 111
ATOM    111  S   UNL A   1      44.099  39.333  30.412  1.00  0.00     0.124 S 
ATOM    112  O   UNL A   1      42.957  40.178  30.753  1.00  0.00    -0.237 OA
ATOM    113  O   UNL A   1      44.629  38.516  31.498  1.00  0.00    -0.237 OA
ATOM    114  O   UNL A   1      45.103  39.962  29.557  1.00  0.00    -0.744 OA
ENDBRANCH 107 111
ENDBRANCH  81 104
ENDBRANCH  55  56
ENDBRANCH  47  50
ENDBRANCH  45  46
ENDBRANCH  44  45
ENDBRANCH  43  44
ENDBRANCH   1  43
TORSDOF 21
ENDMDL
MODEL 2
REMARK VINA RESULT:     -14.2      1.504      2.197
REMARK SMILES Cc1ccc(S(=O)(=O)n2cc(C(=O)C(=O)N[C@@H](Cc3c[nH]c4ccccc34)C(=O)NCCCCNC(=O)c3ccc(-c4c5nc(c(-c6cc(S(=O)(=O)[O-])ccc6F)c6ccc([nH]6)c(-c6cc(S(=O)(=O)[O-])ccc6F)c6nc(c(-c7cc(S(=O)(=O)[O-])ccc7F)c7ccc4[nH]7)C=C6)C=C5)cc3)c3ccccc32)cc1
REMARK SMILES IDX 31 1 30 2 28 3 29 4 17 6 16 7 14 8 15 9 12 11 13 12 11 13
REMARK SMILES IDX 9 14 10 15 106 16 101 17 105 18 102 19 104 20 103 21 6 22
REMARK SMILES IDX 7 23 8 24 5 25 1 26 2 27 3 28 108 29 4 30 107 31 18 32 19 33
REMARK SMILES IDX 20 34 27 35 21 36 22 37 26 38 23 40 25 41 24 42 32 43 33 44
REMARK SMILES IDX 34 45 35 46 36 47 37 49 38 50 39 51 100 52 40 53 99 54 41 55
REMARK SMILES IDX 42 56 43 57 93 58 44 59 98 60 92 61 94 62 45 63 97 64 91 65
REMARK SMILES IDX 90 66 46 68 78 69 58 70 77 71 59 72 62 73 76 74 95 75 60 76
REMARK SMILES IDX 61 77 75 79 96 80 63 81 47 82 48 83 56 84 49 85 55 86 57 87
REMARK SMILES IDX 54 88 50 89 51 90 52 91 53 92 79 93 80 94 88 95 81 96 87 97
REMARK SMILES IDX 89 98 86 99 82 100 83 101 84 102 85 103 64 104 65 105 73 106
REMARK SMILES IDX 66 107 72 108 74 109 71 110 67 111 68 112 69 113 70 114
REMARK H PARENT 30 5 16 10 21 39 35 48 94 67 62 78
REMARK Flexibility Score: inf
ROOT
ATOM      1  C   UNL A   1      35.906  22.538  24.221  1.00  0.00     0.116 C 
ENDROOT
BRANCH   1   2
ATOM      2  N   UNL A   1      35.262  23.039  25.417  1.00  0.00    -0.354 N 
ATOM      3  C   UNL A   1      34.365  22.390  26.231  1.00  0.00     0.242 C 
ATOM      4  O   UNL A   1      34.354  22.734  27.420  1.00  0.00    -0.273 OA
ATOM      5  H   UNL A   1      35.495  23.959  25.680  1.00  0.00     0.163 HD
BRANCH   3   6
ATOM      6  C   UNL A   1      33.466  21.201  25.765  1.00  0.00     0.176 C 
BRANCH   6   7
ATOM      7  N   UNL A   1      32.043  21.289  26.171  1.00  0.00    -0.337 N 
ATOM      8  C   UNL A   1      31.060  22.215  25.862  1.00  0.00     0.293 C 
ATOM      9  O   UNL A   1      29.952  22.163  26.387  1.00  0.00    -0.265 OA
ATOM     10  H   UNL A   1      31.743  20.562  26.763  1.00  0.00     0.164 HD
BRANCH   8  11
ATOM     11  C   UNL A   1      31.325  23.310  24.828  1.00  0.00     0.252 C 
ATOM     12  O   UNL A   1      31.136  23.000  23.653  1.00  0.00    -0.283 OA
BRANCH  11  13
ATOM     13  C   UNL A   1      31.867  24.635  25.193  1.00  0.00     0.054 A 
ATOM     14  N   UNL A   1      32.580  26.534  26.212  1.00  0.00    -0.240 N 
ATOM     15  C   UNL A   1      31.991  25.286  26.430  1.00  0.00     0.117 A 
ATOM     16  C   UNL A   1      33.026  26.559  24.880  1.00  0.00     0.065 A 
ATOM     17  C   UNL A   1      32.282  25.590  24.213  1.00  0.00     0.012 A 
ATOM     18  C   UNL A   1      33.775  27.523  24.174  1.00  0.00     0.028 A 
ATOM     19  C   UNL A   1      32.123  25.704  22.816  1.00  0.00     0.011 A 
ATOM     20  C   UNL A   1      33.544  27.659  22.808  1.00  0.00     0.002 A 
ATOM     21  C   UNL A   1      32.694  26.788  22.141  1.00  0.00     0.001 A 
BRANCH  14  22
ATOM     22  S   UNL A   1      31.917  28.087  26.676  1.00  0.00     0.268 S 
ATOM     23  O   UNL A   1      31.279  27.809  27.953  1.00  0.00    -0.201 OA
ATOM     24  O   UNL A   1      31.126  28.451  25.507  1.00  0.00    -0.201 OA
BRANCH  22  25
ATOM     25  C   UNL A   1      32.806  29.582  26.936  1.00  0.00     0.088 A 
ATOM     26  C   UNL A   1      35.672  32.594  28.129  1.00  0.00     0.044 C 
ATOM     27  C   UNL A   1      34.666  31.581  27.659  1.00  0.00    -0.051 A 
ATOM     28  C   UNL A   1      35.071  30.255  27.621  1.00  0.00     0.005 A 
ATOM     29  C   UNL A   1      33.331  31.898  27.315  1.00  0.00     0.005 A 
ATOM     30  C   UNL A   1      34.158  29.284  27.253  1.00  0.00     0.022 A 
ATOM     31  C   UNL A   1      32.386  30.899  26.955  1.00  0.00     0.022 A 
ENDBRANCH  22  25
ENDBRANCH  14  22
ENDBRANCH  11  13
ENDBRANCH   8  11
ENDBRANCH   6   7
BRANCH   6  32
ATOM     32  C   UNL A   1      33.685  20.814  24.261  1.00  0.00     0.072 C 
BRANCH  32  33
ATOM     33  C   UNL A   1      33.295  19.421  23.850  1.00  0.00    -0.020 A 
ATOM     34  C   UNL A   1      32.128  19.046  23.204  1.00  0.00     0.087 A 
ATOM     35  C   UNL A   1      34.003  18.205  24.136  1.00  0.00     0.003 A 
ATOM     36  N   UNL A   1      32.034  17.675  23.239  1.00  0.00    -0.361 N 
ATOM     37  C   UNL A   1      33.085  17.170  23.967  1.00  0.00     0.046 A 
ATOM     38  C   UNL A   1      35.257  17.907  24.711  1.00  0.00     0.010 A 
ATOM     39  H   UNL A   1      31.328  17.140  22.810  1.00  0.00     0.166 HD
ATOM     40  C   UNL A   1      33.288  15.899  24.508  1.00  0.00     0.026 A 
ATOM     41  C   UNL A   1      35.476  16.639  25.257  1.00  0.00     0.001 A 
ATOM     42  C   UNL A   1      34.490  15.661  25.183  1.00  0.00     0.002 A 
ENDBRANCH  32  33
ENDBRANCH   6  32
ENDBRANCH   3   6
ENDBRANCH   1   2
BRANCH   1  43
ATOM     43  C   UNL A   1      37.146  21.668  24.410  1.00  0.00     0.023 C 
BRANCH  43  44
ATOM     44  C   UNL A   1      37.847  21.761  25.759  1.00  0.00     0.023 C 
BRANCH  44  45
ATOM     45  C   UNL A   1      38.625  23.045  26.026  1.00  0.00     0.116 C 
BRANCH  45  46
ATOM     46  N   UNL A   1      40.038  22.914  26.350  1.00  0.00    -0.352 N 
ATOM     47  C   UNL A   1      40.925  23.878  26.826  1.00  0.00     0.251 C 
ATOM     48  H   UNL A   1      40.423  22.018  26.213  1.00  0.00     0.163 HD
ATOM     49  O   UNL A   1      42.117  23.625  26.897  1.00  0.00    -0.269 OA
BRANCH  47  50
ATOM     50  C   UNL A   1      40.420  25.181  27.356  1.00  0.00     0.039 A 
ATOM     51  C   UNL A   1      40.441  26.302  26.510  1.00  0.00     0.014 A 
ATOM     52  C   UNL A   1      40.094  25.349  28.695  1.00  0.00     0.014 A 
ATOM     53  C   UNL A   1      40.392  27.585  27.059  1.00  0.00     0.010 A 
ATOM     54  C   UNL A   1      40.185  26.600  29.257  1.00  0.00     0.010 A 
ATOM     55  C   UNL A   1      40.403  27.709  28.444  1.00  0.00    -0.014 A 
BRANCH  55  56
ATOM     56  C   UNL A   1      40.762  28.914  29.174  1.00  0.00     0.031 A 
ATOM     57  C   UNL A   1      39.713  29.882  29.554  1.00  0.00     0.074 A 
ATOM     58  C   UNL A   1      42.016  28.983  29.676  1.00  0.00     0.049 A 
ATOM     59  N   UNL A   1      39.944  31.063  30.010  1.00  0.00    -0.248 NA
ATOM     60  C   UNL A   1      38.288  29.608  29.378  1.00  0.00     0.031 C 
ATOM     61  C   UNL A   1      42.508  29.861  30.732  1.00  0.00     0.029 A 
ATOM     62  N   UNL A   1      43.181  28.397  29.154  1.00  0.00    -0.354 N 
ATOM     63  C   UNL A   1      38.749  31.581  30.460  1.00  0.00     0.074 A 
ATOM     64  C   UNL A   1      37.745  30.703  29.917  1.00  0.00     0.031 C 
ATOM     65  C   UNL A   1      43.837  30.000  30.585  1.00  0.00     0.029 A 
ATOM     66  C   UNL A   1      44.193  29.356  29.329  1.00  0.00     0.049 A 
ATOM     67  H   UNL A   1      43.269  27.503  28.751  1.00  0.00     0.167 HD
ATOM     68  C   UNL A   1      38.777  32.610  31.354  1.00  0.00     0.034 A 
ATOM     69  C   UNL A   1      44.810  29.984  28.285  1.00  0.00     0.034 A 
ATOM     70  C   UNL A   1      40.129  33.171  31.435  1.00  0.00     0.049 A 
ATOM     71  C   UNL A   1      44.613  31.494  28.314  1.00  0.00     0.074 A 
ATOM     72  C   UNL A   1      41.140  33.085  32.375  1.00  0.00     0.029 A 
ATOM     73  N   UNL A   1      40.704  33.717  30.289  1.00  0.00    -0.354 N 
ATOM     74  N   UNL A   1      43.687  32.107  29.000  1.00  0.00    -0.248 NA
ATOM     75  C   UNL A   1      45.442  32.419  27.546  1.00  0.00     0.031 C 
ATOM     76  C   UNL A   1      42.356  33.461  31.738  1.00  0.00     0.029 A 
ATOM     77  C   UNL A   1      42.072  33.832  30.433  1.00  0.00     0.049 A 
ATOM     78  H   UNL A   1      40.202  33.984  29.485  1.00  0.00     0.167 HD
ATOM     79  C   UNL A   1      43.766  33.461  28.779  1.00  0.00     0.074 A 
ATOM     80  C   UNL A   1      44.898  33.603  27.877  1.00  0.00     0.031 C 
ATOM     81  C   UNL A   1      42.887  34.351  29.339  1.00  0.00     0.034 A 
BRANCH  68  82
ATOM     82  C   UNL A   1      37.670  32.987  32.331  1.00  0.00     0.023 A 
ATOM     83  C   UNL A   1      36.530  33.660  31.829  1.00  0.00     0.031 A 
ATOM     84  C   UNL A   1      37.699  32.851  33.737  1.00  0.00     0.131 A 
ATOM     85  C   UNL A   1      35.537  34.180  32.687  1.00  0.00     0.055 A 
ATOM     86  C   UNL A   1      36.691  33.333  34.585  1.00  0.00     0.041 A 
ATOM     87  F   UNL A   1      38.715  32.285  34.392  1.00  0.00    -0.206 F 
ATOM     88  C   UNL A   1      35.608  34.012  34.064  1.00  0.00     0.022 A 
BRANCH  85  89
ATOM     89  S   UNL A   1      34.170  35.144  31.985  1.00  0.00     0.124 S 
ATOM     90  O   UNL A   1      34.500  36.500  32.411  1.00  0.00    -0.237 OA
ATOM     91  O   UNL A   1      34.291  34.863  30.559  1.00  0.00    -0.237 OA
ATOM     92  O   UNL A   1      32.987  34.571  32.626  1.00  0.00    -0.744 OA
ENDBRANCH  85  89
ENDBRANCH  68  82
BRANCH  69  93
ATOM     93  C   UNL A   1      44.902  29.182  27.029  1.00  0.00     0.023 A 
ATOM     94  C   UNL A   1      46.017  28.344  26.815  1.00  0.00     0.031 A 
ATOM     95  C   UNL A   1      43.761  28.971  26.236  1.00  0.00     0.131 A 
ATOM     96  C   UNL A   1      45.937  27.292  25.887  1.00  0.00     0.055 A 
ATOM     97  C   UNL A   1      43.677  27.900  25.340  1.00  0.00     0.041 A 
ATOM     98  F   UNL A   1      42.653  29.700  26.434  1.00  0.00    -0.206 F 
ATOM     99  C   UNL A   1      44.756  27.036  25.185  1.00  0.00     0.022 A 
BRANCH  96 100
ATOM    100  S   UNL A   1      47.331  26.155  25.624  1.00  0.00     0.124 S 
ATOM    101  O   UNL A   1      47.408  26.104  24.169  1.00  0.00    -0.237 OA
ATOM    102  O   UNL A   1      48.439  26.829  26.290  1.00  0.00    -0.237 OA
ATOM    103  O   UNL A   1      46.859  24.930  26.268  1.00  0.00    -0.744 OA
ENDBRANCH  96 100
ENDBRANCH  69  93
BRANCH  81 104
ATOM    104  C   UNL A   1      42.753  35.815  28.958  1.00  0.00     0.023 A 
ATOM    105  C   UNL A   1      43.355  36.859  29.673  1.00  0.00     0.031 A 
ATOM    106  C   UNL A   1      42.070  36.202  27.777  1.00  0.00     0.131 A 
ATOM    107  C   UNL A   1      43.196  38.202  29.281  1.00  0.00     0.055 A 
ATOM    108  C   UNL A   1      41.992  37.529  27.337  1.00  0.00     0.041 A 
ATOM    109  F   UNL A   1      41.454  35.307  26.990  1.00  0.00    -0.206 F 
ATOM    110  C   UNL A   1      42.541  38.544  28.102  1.00  0.00     0.022 A 
BRANCH 107 111
ATOM    111  S   UNL A   1      43.800  39.495  30.397  1.00  0.00     0.124 S 
ATOM    112  O   UNL A   1      45.034  39.909  29.733  1.00  0.00    -0.237 OA
ATOM    113  O   UNL A   1      42.711  40.465  30.372  1.00  0.00    -0.237 OA
ATOM    114  O   UNL A   1      43.984  38.797  31.668  1.00  0.00    -0.744 OA
ENDBRANCH 107 111
ENDBRANCH  81 104
ENDBRANCH  55  56
ENDBRANCH  47  50
ENDBRANCH  45  46
ENDBRANCH  44  45
ENDBRANCH  43  44
ENDBRANCH   1  43
TORSDOF 21
ENDMDL
MODEL 3
REMARK VINA RESULT:     -13.6      2.489      3.833
REMARK SMILES Cc1ccc(S(=O)(=O)n2cc(C(=O)C(=O)N[C@@H](Cc3c[nH]c4ccccc34)C(=O)NCCCCNC(=O)c3ccc(-c4c5nc(c(-c6cc(S(=O)(=O)[O-])ccc6F)c6ccc([nH]6)c(-c6cc(S(=O)(=O)[O-])ccc6F)c6nc(c(-c7cc(S(=O)(=O)[O-])ccc7F)c7ccc4[nH]7)C=C6)C=C5)cc3)c3ccccc32)cc1
REMARK SMILES IDX 31 1 30 2 28 3 29 4 17 6 16 7 14 8 15 9 12 11 13 12 11 13
REMARK SMILES IDX 9 14 10 15 106 16 101 17 105 18 102 19 104 20 103 21 6 22
REMARK SMILES IDX 7 23 8 24 5 25 1 26 2 27 3 28 108 29 4 30 107 31 18 32 19 33
REMARK SMILES IDX 20 34 27 35 21 36 22 37 26 38 23 40 25 41 24 42 32 43 33 44
REMARK SMILES IDX 34 45 35 46 36 47 37 49 38 50 39 51 100 52 40 53 99 54 41 55
REMARK SMILES IDX 42 56 43 57 93 58 44 59 98 60 92 61 94 62 45 63 97 64 91 65
REMARK SMILES IDX 90 66 46 68 78 69 58 70 77 71 59 72 62 73 76 74 95 75 60 76
REMARK SMILES IDX 61 77 75 79 96 80 63 81 47 82 48 83 56 84 49 85 55 86 57 87
REMARK SMILES IDX 54 88 50 89 51 90 52 91 53 92 79 93 80 94 88 95 81 96 87 97
REMARK SMILES IDX 89 98 86 99 82 100 83 101 84 102 85 103 64 104 65 105 73 106
REMARK SMILES IDX 66 107 72 108 74 109 71 110 67 111 68 112 69 113 70 114
REMARK H PARENT 30 5 16 10 21 39 35 48 94 67 62 78
REMARK Flexibility Score: inf
ROOT
ATOM      1  C   UNL A   1      35.891  22.920  24.565  1.00  0.00     0.116 C 
ENDROOT
BRANCH   1   2
ATOM      2  N   UNL A   1      35.188  23.298  25.773  1.00  0.00    -0.354 N 
ATOM      3  C   UNL A   1      34.323  22.537  26.522  1.00  0.00     0.242 C 
ATOM      4  O   UNL A   1      34.261  22.803  27.730  1.00  0.00    -0.273 OA
ATOM      5  H   UNL A   1      35.349  24.213  26.099  1.00  0.00     0.163 HD
BRANCH   3   6
ATOM      6  C   UNL A   1      33.521  21.321  25.960  1.00  0.00     0.176 C 
BRANCH   6   7
ATOM      7  N   UNL A   1      32.066  21.335  26.249  1.00  0.00    -0.337 N 
ATOM      8  C   UNL A   1      31.064  22.204  25.849  1.00  0.00     0.293 C 
ATOM      9  O   UNL A   1      29.921  22.097  26.285  1.00  0.00    -0.265 OA
ATOM     10  H   UNL A   1      31.759  20.598  26.825  1.00  0.00     0.164 HD
BRANCH   8  11
ATOM     11  C   UNL A   1      31.354  23.303  24.826  1.00  0.00     0.252 C 
ATOM     12  O   UNL A   1      31.168  23.004  23.647  1.00  0.00    -0.283 OA
BRANCH  11  13
ATOM     13  C   UNL A   1      31.914  24.616  25.204  1.00  0.00     0.054 A 
ATOM     14  N   UNL A   1      32.651  26.495  26.243  1.00  0.00    -0.240 N 
ATOM     15  C   UNL A   1      32.044  25.254  26.448  1.00  0.00     0.117 A 
ATOM     16  C   UNL A   1      33.101  26.525  24.912  1.00  0.00     0.065 A 
ATOM     17  C   UNL A   1      32.345  25.574  24.235  1.00  0.00     0.012 A 
ATOM     18  C   UNL A   1      33.866  27.485  24.218  1.00  0.00     0.028 A 
ATOM     19  C   UNL A   1      32.192  25.703  22.838  1.00  0.00     0.011 A 
ATOM     20  C   UNL A   1      33.641  27.637  22.852  1.00  0.00     0.002 A 
ATOM     21  C   UNL A   1      32.780  26.785  22.176  1.00  0.00     0.001 A 
BRANCH  14  22
ATOM     22  S   UNL A   1      32.010  28.053  26.720  1.00  0.00     0.268 S 
ATOM     23  O   UNL A   1      31.386  27.778  28.005  1.00  0.00    -0.201 OA
ATOM     24  O   UNL A   1      31.206  28.427  25.562  1.00  0.00    -0.201 OA
BRANCH  22  25
ATOM     25  C   UNL A   1      32.915  29.539  26.971  1.00  0.00     0.088 A 
ATOM     26  C   UNL A   1      35.818  32.523  28.146  1.00  0.00     0.044 C 
ATOM     27  C   UNL A   1      34.800  31.520  27.682  1.00  0.00    -0.051 A 
ATOM     28  C   UNL A   1      35.189  30.189  27.651  1.00  0.00     0.005 A 
ATOM     29  C   UNL A   1      33.468  31.850  27.338  1.00  0.00     0.005 A 
ATOM     30  C   UNL A   1      34.265  29.226  27.289  1.00  0.00     0.022 A 
ATOM     31  C   UNL A   1      32.512  30.861  26.984  1.00  0.00     0.022 A 
ENDBRANCH  22  25
ENDBRANCH  14  22
ENDBRANCH  11  13
ENDBRANCH   8  11
ENDBRANCH   6   7
BRANCH   6  32
ATOM     32  C   UNL A   1      33.879  20.979  24.472  1.00  0.00     0.072 C 
BRANCH  32  33
ATOM     33  C   UNL A   1      33.425  19.644  23.948  1.00  0.00    -0.020 A 
ATOM     34  C   UNL A   1      32.265  19.387  23.235  1.00  0.00     0.087 A 
ATOM     35  C   UNL A   1      34.049  18.370  24.172  1.00  0.00     0.003 A 
ATOM     36  N   UNL A   1      32.090  18.025  23.169  1.00  0.00    -0.361 N 
ATOM     37  C   UNL A   1      33.079  17.407  23.897  1.00  0.00     0.046 A 
ATOM     38  C   UNL A   1      35.258  17.957  24.770  1.00  0.00     0.010 A 
ATOM     39  H   UNL A   1      31.372  17.565  22.678  1.00  0.00     0.166 HD
ATOM     40  C   UNL A   1      33.185  16.093  24.353  1.00  0.00     0.026 A 
ATOM     41  C   UNL A   1      35.381  16.643  25.232  1.00  0.00     0.001 A 
ATOM     42  C   UNL A   1      34.342  15.735  25.053  1.00  0.00     0.002 A 
ENDBRANCH  32  33
ENDBRANCH   6  32
ENDBRANCH   3   6
ENDBRANCH   1   2
BRANCH   1  43
ATOM     43  C   UNL A   1      37.393  22.676  24.680  1.00  0.00     0.023 C 
BRANCH  43  44
ATOM     44  C   UNL A   1      37.964  22.585  26.090  1.00  0.00     0.023 C 
BRANCH  44  45
ATOM     45  C   UNL A   1      39.476  22.750  26.215  1.00  0.00     0.116 C 
BRANCH  45  46
ATOM     46  N   UNL A   1      40.300  21.587  25.923  1.00  0.00    -0.352 N 
ATOM     47  C   UNL A   1      41.670  21.409  26.112  1.00  0.00     0.251 C 
ATOM     48  H   UNL A   1      39.824  20.816  25.538  1.00  0.00     0.163 HD
ATOM     49  O   UNL A   1      42.221  20.416  25.666  1.00  0.00    -0.269 OA
BRANCH  47  50
ATOM     50  C   UNL A   1      42.453  22.367  26.949  1.00  0.00     0.039 A 
ATOM     51  C   UNL A   1      42.318  22.304  28.346  1.00  0.00     0.014 A 
ATOM     52  C   UNL A   1      43.169  23.415  26.385  1.00  0.00     0.014 A 
ATOM     53  C   UNL A   1      42.671  23.405  29.127  1.00  0.00     0.010 A 
ATOM     54  C   UNL A   1      43.390  24.553  27.125  1.00  0.00     0.010 A 
ATOM     55  C   UNL A   1      43.076  24.568  28.481  1.00  0.00    -0.014 A 
BRANCH  55  56
ATOM     56  C   UNL A   1      43.085  25.896  29.073  1.00  0.00     0.031 A 
ATOM     57  C   UNL A   1      41.917  26.783  28.907  1.00  0.00     0.074 A 
ATOM     58  C   UNL A   1      44.078  26.176  29.949  1.00  0.00     0.049 A 
ATOM     59  N   UNL A   1      41.904  28.034  29.207  1.00  0.00    -0.248 NA
ATOM     60  C   UNL A   1      40.662  26.328  28.310  1.00  0.00     0.031 C 
ATOM     61  C   UNL A   1      44.117  27.241  30.944  1.00  0.00     0.029 A 
ATOM     62  N   UNL A   1      45.384  25.657  29.957  1.00  0.00    -0.354 N 
ATOM     63  C   UNL A   1      40.600  28.471  29.133  1.00  0.00     0.074 A 
ATOM     64  C   UNL A   1      39.902  27.419  28.441  1.00  0.00     0.031 C 
ATOM     65  C   UNL A   1      45.403  27.508  31.232  1.00  0.00     0.029 A 
ATOM     66  C   UNL A   1      46.213  26.740  30.298  1.00  0.00     0.049 A 
ATOM     67  H   UNL A   1      45.659  24.732  29.766  1.00  0.00     0.167 HD
ATOM     68  C   UNL A   1      40.253  29.611  29.796  1.00  0.00     0.034 A 
ATOM     69  C   UNL A   1      47.120  27.282  29.433  1.00  0.00     0.034 A 
ATOM     70  C   UNL A   1      41.456  30.327  30.231  1.00  0.00     0.049 A 
ATOM     71  C   UNL A   1      46.839  28.749  29.137  1.00  0.00     0.074 A 
ATOM     72  C   UNL A   1      42.076  30.488  31.457  1.00  0.00     0.029 A 
ATOM     73  N   UNL A   1      42.364  30.770  29.271  1.00  0.00    -0.354 N 
ATOM     74  N   UNL A   1      45.697  29.343  29.356  1.00  0.00    -0.248 NA
ATOM     75  C   UNL A   1      47.829  29.646  28.549  1.00  0.00     0.031 C 
ATOM     76  C   UNL A   1      43.415  30.906  31.213  1.00  0.00     0.029 A 
ATOM     77  C   UNL A   1      43.586  31.057  29.846  1.00  0.00     0.049 A 
ATOM     78  H   UNL A   1      42.161  30.864  28.312  1.00  0.00     0.167 HD
ATOM     79  C   UNL A   1      45.770  30.653  28.948  1.00  0.00     0.074 A 
ATOM     80  C   UNL A   1      47.136  30.795  28.471  1.00  0.00     0.031 C 
ATOM     81  C   UNL A   1      44.701  31.508  29.020  1.00  0.00     0.034 A 
BRANCH  68  82
ATOM     82  C   UNL A   1      38.854  29.993  30.263  1.00  0.00     0.023 A 
ATOM     83  C   UNL A   1      38.589  31.352  30.556  1.00  0.00     0.031 A 
ATOM     84  C   UNL A   1      37.792  29.111  30.564  1.00  0.00     0.131 A 
ATOM     85  C   UNL A   1      37.371  31.764  31.140  1.00  0.00     0.055 A 
ATOM     86  C   UNL A   1      36.567  29.526  31.108  1.00  0.00     0.041 A 
ATOM     87  F   UNL A   1      37.875  27.789  30.397  1.00  0.00    -0.206 F 
ATOM     88  C   UNL A   1      36.355  30.856  31.410  1.00  0.00     0.022 A 
BRANCH  85  89
ATOM     89  S   UNL A   1      37.150  33.502  31.609  1.00  0.00     0.124 S 
ATOM     90  O   UNL A   1      37.804  34.202  30.509  1.00  0.00    -0.237 OA
ATOM     91  O   UNL A   1      35.699  33.621  31.685  1.00  0.00    -0.237 OA
ATOM     92  O   UNL A   1      37.843  33.597  32.894  1.00  0.00    -0.744 OA
ENDBRANCH  85  89
ENDBRANCH  68  82
BRANCH  69  93
ATOM     93  C   UNL A   1      47.692  26.328  28.437  1.00  0.00     0.023 A 
ATOM     94  C   UNL A   1      47.346  26.451  27.074  1.00  0.00     0.031 A 
ATOM     95  C   UNL A   1      48.820  25.555  28.760  1.00  0.00     0.131 A 
ATOM     96  C   UNL A   1      48.163  25.871  26.087  1.00  0.00     0.055 A 
ATOM     97  C   UNL A   1      49.646  25.011  27.770  1.00  0.00     0.041 A 
ATOM     98  F   UNL A   1      49.229  25.450  30.033  1.00  0.00    -0.206 F 
ATOM     99  C   UNL A   1      49.337  25.195  26.427  1.00  0.00     0.022 A 
BRANCH  96 100
ATOM    100  S   UNL A   1      47.782  26.055  24.319  1.00  0.00     0.124 S 
ATOM    101  O   UNL A   1      46.745  27.079  24.339  1.00  0.00    -0.237 OA
ATOM    102  O   UNL A   1      49.059  26.463  23.745  1.00  0.00    -0.237 OA
ATOM    103  O   UNL A   1      47.328  24.713  23.958  1.00  0.00    -0.744 OA
ENDBRANCH  96 100
ENDBRANCH  69  93
BRANCH  81 104
ATOM    104  C   UNL A   1      44.625  32.879  28.373  1.00  0.00     0.023 A 
ATOM    105  C   UNL A   1      44.691  34.080  29.094  1.00  0.00     0.031 A 
ATOM    106  C   UNL A   1      44.574  33.020  26.963  1.00  0.00     0.131 A 
ATOM    107  C   UNL A   1      44.611  35.328  28.448  1.00  0.00     0.055 A 
ATOM    108  C   UNL A   1      44.590  34.261  26.316  1.00  0.00     0.041 A 
ATOM    109  F   UNL A   1      44.517  31.957  26.147  1.00  0.00    -0.206 F 
ATOM    110  C   UNL A   1      44.588  35.429  27.060  1.00  0.00     0.022 A 
BRANCH 107 111
ATOM    111  S   UNL A   1      44.457  36.813  29.474  1.00  0.00     0.124 S 
ATOM    112  O   UNL A   1      45.856  37.182  29.676  1.00  0.00    -0.237 OA
ATOM    113  O   UNL A   1      43.684  37.707  28.617  1.00  0.00    -0.237 OA
ATOM    114  O   UNL A   1      43.761  36.338  30.668  1.00  0.00    -0.744 OA
ENDBRANCH 107 111
ENDBRANCH  81 104
ENDBRANCH  55  56
ENDBRANCH  47  50
ENDBRANCH  45  46
ENDBRANCH  44  45
ENDBRANCH  43  44
ENDBRANCH   1  43
TORSDOF 21
ENDMDL
