MODEL 1
REMARK VINA RESULT:     -11.3      0.000      0.000
REMARK SMILES CC(C)Cc1cc(C(=O)N[C@@H](CO)C(=O)NCCCCNC(=O)c2ccc(-c3c4nc(c(-c5cc(S(=O)(=O)[O-])ccc5F)c5ccc([nH]5)c(-c5cc(S(=O)(=O)[O-])ccc5F)c5nc(c(-c6cc(S(=O)(=O)[O-])ccc6F)c6ccc3[nH]6)C=C5)C=C4)cc2)n(C)n1
REMARK SMILES IDX 18 1 17 2 16 3 14 4 15 5 11 7 10 8 8 9 9 10 7 12 5 13 6 14
REMARK SMILES IDX 89 15 87 16 88 17 4 18 2 19 1 20 3 21 12 22 13 23 19 25
REMARK SMILES IDX 20 26 21 27 22 28 23 30 24 31 25 32 86 33 26 34 85 35 27 36
REMARK SMILES IDX 28 37 29 38 79 39 30 40 84 41 78 42 80 43 31 44 83 45 77 46
REMARK SMILES IDX 76 47 32 49 64 50 44 51 63 52 45 53 48 54 62 55 81 56 46 57
REMARK SMILES IDX 47 58 61 60 82 61 49 62 33 63 34 64 42 65 35 66 41 67 43 68
REMARK SMILES IDX 40 69 36 70 37 71 38 72 39 73 65 74 66 75 74 76 67 77 73 78
REMARK SMILES IDX 75 79 72 80 68 81 69 82 70 83 71 84 50 85 51 86 59 87 52 88
REMARK SMILES IDX 58 89 60 90 57 91 53 92 54 93 55 94 56 95
REMARK H PARENT 16 6 10 11 13 24 21 29 80 48 48 59
REMARK Flexibility Score: inf
ROOT
ATOM      1  C   UNL A   1      32.020  29.973  27.079  1.00  0.00     0.023 C 
ENDROOT
BRANCH   1   2
ATOM      2  C   UNL A   1      31.660  29.076  25.901  1.00  0.00     0.116 C 
BRANCH   2   3
ATOM      3  N   UNL A   1      32.704  29.058  24.898  1.00  0.00    -0.354 N 
ATOM      4  C   UNL A   1      32.652  28.878  23.557  1.00  0.00     0.244 C 
ATOM      5  O   UNL A   1      33.671  29.157  22.915  1.00  0.00    -0.273 OA
ATOM      6  H   UNL A   1      33.610  29.203  25.254  1.00  0.00     0.163 HD
BRANCH   4   7
ATOM      7  C   UNL A   1      31.377  28.475  22.804  1.00  0.00     0.197 C 
BRANCH   7   8
ATOM      8  N   UNL A   1      30.626  27.348  23.340  1.00  0.00    -0.337 N 
ATOM      9  C   UNL A   1      30.859  26.010  23.466  1.00  0.00     0.270 C 
ATOM     10  O   UNL A   1      29.907  25.408  23.978  1.00  0.00    -0.268 OA
ATOM     11  H   UNL A   1      29.748  27.613  23.695  1.00  0.00     0.164 HD
BRANCH   9  12
ATOM     12  C   UNL A   1      32.068  25.291  23.102  1.00  0.00     0.126 A 
ATOM     13  C   UNL A   1      33.767  23.826  23.290  1.00  0.00     0.064 A 
ATOM     14  C   UNL A   1      32.640  24.336  23.950  1.00  0.00     0.059 A 
ATOM     15  N   UNL A   1      33.999  24.511  22.175  1.00  0.00    -0.178 NA
ATOM     16  N   UNL A   1      32.868  25.216  21.981  1.00  0.00    -0.263 N 
ATOM     17  C   UNL A   1      32.592  25.494  20.593  1.00  0.00     0.174 C 
BRANCH  13  18
ATOM     18  C   UNL A   1      34.620  22.652  23.623  1.00  0.00     0.061 C 
BRANCH  18  19
ATOM     19  C   UNL A   1      36.074  23.060  23.967  1.00  0.00    -0.011 C 
ATOM     20  C   UNL A   1      36.176  23.959  25.206  1.00  0.00     0.008 C 
ATOM     21  C   UNL A   1      36.930  21.813  24.182  1.00  0.00     0.008 C 
ENDBRANCH  18  19
ENDBRANCH  13  18
ENDBRANCH   9  12
ENDBRANCH   7   8
BRANCH   7  22
ATOM     22  C   UNL A   1      30.473  29.694  22.551  1.00  0.00     0.191 C 
BRANCH  22  23
ATOM     23  O   UNL A   1      30.196  29.917  21.168  1.00  0.00    -0.394 OA
ATOM     24  H   UNL A   1      30.642  29.238  20.636  1.00  0.00     0.210 HD
ENDBRANCH  22  23
ENDBRANCH   7  22
ENDBRANCH   4   7
ENDBRANCH   2   3
ENDBRANCH   1   2
BRANCH   1  25
ATOM     25  C   UNL A   1      31.945  31.473  26.791  1.00  0.00     0.023 C 
BRANCH  25  26
ATOM     26  C   UNL A   1      33.075  32.307  27.383  1.00  0.00     0.116 C 
BRANCH  26  27
ATOM     27  N   UNL A   1      32.678  33.678  27.668  1.00  0.00    -0.352 N 
ATOM     28  C   UNL A   1      33.176  34.539  28.615  1.00  0.00     0.251 C 
ATOM     29  H   UNL A   1      31.953  34.036  27.104  1.00  0.00     0.163 HD
ATOM     30  O   UNL A   1      32.634  35.623  28.808  1.00  0.00    -0.269 OA
BRANCH  28  31
ATOM     31  C   UNL A   1      34.343  34.126  29.419  1.00  0.00     0.039 A 
ATOM     32  C   UNL A   1      34.132  33.383  30.582  1.00  0.00     0.014 A 
ATOM     33  C   UNL A   1      35.639  34.421  28.990  1.00  0.00     0.014 A 
ATOM     34  C   UNL A   1      35.228  32.871  31.278  1.00  0.00     0.010 A 
ATOM     35  C   UNL A   1      36.726  33.848  29.643  1.00  0.00     0.010 A 
ATOM     36  C   UNL A   1      36.532  33.065  30.791  1.00  0.00    -0.014 A 
BRANCH  36  37
ATOM     37  C   UNL A   1      37.706  32.451  31.465  1.00  0.00     0.031 A 
ATOM     38  C   UNL A   1      38.446  31.323  30.798  1.00  0.00     0.074 A 
ATOM     39  C   UNL A   1      38.050  32.854  32.705  1.00  0.00     0.049 A 
ATOM     40  N   UNL A   1      39.431  30.597  31.256  1.00  0.00    -0.248 NA
ATOM     41  C   UNL A   1      37.993  30.939  29.452  1.00  0.00     0.031 C 
ATOM     42  C   UNL A   1      37.368  33.898  33.475  1.00  0.00     0.029 A 
ATOM     43  N   UNL A   1      39.046  32.424  33.547  1.00  0.00    -0.354 N 
ATOM     44  C   UNL A   1      39.697  29.653  30.270  1.00  0.00     0.074 A 
ATOM     45  C   UNL A   1      38.739  29.873  29.208  1.00  0.00     0.031 C 
ATOM     46  C   UNL A   1      37.973  34.034  34.668  1.00  0.00     0.029 A 
ATOM     47  C   UNL A   1      39.057  33.062  34.767  1.00  0.00     0.049 A 
ATOM     48  H   UNL A   1      39.693  31.723  33.301  1.00  0.00     0.167 HD
ATOM     49  C   UNL A   1      40.663  28.702  30.247  1.00  0.00     0.034 A 
ATOM     50  C   UNL A   1      39.839  32.873  35.848  1.00  0.00     0.034 A 
ATOM     51  C   UNL A   1      41.636  28.525  31.297  1.00  0.00     0.049 A 
ATOM     52  C   UNL A   1      40.925  31.827  35.783  1.00  0.00     0.074 A 
ATOM     53  C   UNL A   1      42.716  27.661  31.329  1.00  0.00     0.029 A 
ATOM     54  N   UNL A   1      41.642  29.217  32.500  1.00  0.00    -0.354 N 
ATOM     55  N   UNL A   1      41.217  31.000  34.805  1.00  0.00    -0.248 NA
ATOM     56  C   UNL A   1      41.798  31.699  36.958  1.00  0.00     0.031 C 
ATOM     57  C   UNL A   1      43.337  27.784  32.576  1.00  0.00     0.029 A 
ATOM     58  C   UNL A   1      42.690  28.778  33.294  1.00  0.00     0.049 A 
ATOM     59  H   UNL A   1      40.999  29.918  32.751  1.00  0.00     0.167 HD
ATOM     60  C   UNL A   1      42.325  30.277  35.238  1.00  0.00     0.074 A 
ATOM     61  C   UNL A   1      42.660  30.779  36.554  1.00  0.00     0.031 C 
ATOM     62  C   UNL A   1      43.008  29.289  34.606  1.00  0.00     0.034 A 
BRANCH  49  63
ATOM     63  C   UNL A   1      40.702  27.767  29.063  1.00  0.00     0.023 A 
ATOM     64  C   UNL A   1      41.616  27.939  28.010  1.00  0.00     0.031 A 
ATOM     65  C   UNL A   1      39.811  26.681  28.994  1.00  0.00     0.131 A 
ATOM     66  C   UNL A   1      41.580  27.075  26.905  1.00  0.00     0.055 A 
ATOM     67  C   UNL A   1      39.829  25.782  27.927  1.00  0.00     0.041 A 
ATOM     68  F   UNL A   1      38.903  26.479  29.962  1.00  0.00    -0.206 F 
ATOM     69  C   UNL A   1      40.711  25.982  26.868  1.00  0.00     0.022 A 
BRANCH  66  70
ATOM     70  S   UNL A   1      42.613  27.461  25.466  1.00  0.00     0.124 S 
ATOM     71  O   UNL A   1      43.904  27.731  26.095  1.00  0.00    -0.237 OA
ATOM     72  O   UNL A   1      42.531  26.236  24.679  1.00  0.00    -0.237 OA
ATOM     73  O   UNL A   1      41.959  28.626  24.875  1.00  0.00    -0.744 OA
ENDBRANCH  66  70
ENDBRANCH  49  63
BRANCH  50  74
ATOM     74  C   UNL A   1      39.626  33.666  37.094  1.00  0.00     0.023 A 
ATOM     75  C   UNL A   1      38.929  33.128  38.187  1.00  0.00     0.031 A 
ATOM     76  C   UNL A   1      40.061  35.000  37.186  1.00  0.00     0.131 A 
ATOM     77  C   UNL A   1      38.630  33.935  39.296  1.00  0.00     0.055 A 
ATOM     78  C   UNL A   1      39.813  35.783  38.315  1.00  0.00     0.041 A 
ATOM     79  F   UNL A   1      40.738  35.564  36.173  1.00  0.00    -0.206 F 
ATOM     80  C   UNL A   1      39.077  35.256  39.372  1.00  0.00     0.022 A 
BRANCH  77  81
ATOM     81  S   UNL A   1      37.548  33.268  40.591  1.00  0.00     0.124 S 
ATOM     82  O   UNL A   1      38.334  32.141  41.082  1.00  0.00    -0.237 OA
ATOM     83  O   UNL A   1      37.424  34.407  41.495  1.00  0.00    -0.237 OA
ATOM     84  O   UNL A   1      36.330  32.913  39.867  1.00  0.00    -0.744 OA
ENDBRANCH  77  81
ENDBRANCH  50  74
BRANCH  62  85
ATOM     85  C   UNL A   1      44.213  28.726  35.315  1.00  0.00     0.023 A 
ATOM     86  C   UNL A   1      44.106  27.660  36.224  1.00  0.00     0.031 A 
ATOM     87  C   UNL A   1      45.487  29.274  35.083  1.00  0.00     0.131 A 
ATOM     88  C   UNL A   1      45.244  27.209  36.909  1.00  0.00     0.055 A 
ATOM     89  C   UNL A   1      46.626  28.782  35.722  1.00  0.00     0.041 A 
ATOM     90  F   UNL A   1      45.646  30.294  34.225  1.00  0.00    -0.206 F 
ATOM     91  C   UNL A   1      46.505  27.752  36.651  1.00  0.00     0.022 A 
BRANCH  88  92
ATOM     92  S   UNL A   1      45.041  25.959  38.206  1.00  0.00     0.124 S 
ATOM     93  O   UNL A   1      46.425  25.660  38.560  1.00  0.00    -0.237 OA
ATOM     94  O   UNL A   1      44.267  26.677  39.213  1.00  0.00    -0.237 OA
ATOM     95  O   UNL A   1      44.325  24.877  37.532  1.00  0.00    -0.744 OA
ENDBRANCH  88  92
ENDBRANCH  62  85
ENDBRANCH  36  37
ENDBRANCH  28  31
ENDBRANCH  26  27
ENDBRANCH  25  26
ENDBRANCH   1  25
TORSDOF 20
ENDMDL
MODEL 2
REMARK VINA RESULT:     -11.3      3.524      8.665
REMARK SMILES CC(C)Cc1cc(C(=O)N[C@@H](CO)C(=O)NCCCCNC(=O)c2ccc(-c3c4nc(c(-c5cc(S(=O)(=O)[O-])ccc5F)c5ccc([nH]5)c(-c5cc(S(=O)(=O)[O-])ccc5F)c5nc(c(-c6cc(S(=O)(=O)[O-])ccc6F)c6ccc3[nH]6)C=C5)C=C4)cc2)n(C)n1
REMARK SMILES IDX 18 1 17 2 16 3 14 4 15 5 11 7 10 8 8 9 9 10 7 12 5 13 6 14
REMARK SMILES IDX 89 15 87 16 88 17 4 18 2 19 1 20 3 21 12 22 13 23 19 25
REMARK SMILES IDX 20 26 21 27 22 28 23 30 24 31 25 32 86 33 26 34 85 35 27 36
REMARK SMILES IDX 28 37 29 38 79 39 30 40 84 41 78 42 80 43 31 44 83 45 77 46
REMARK SMILES IDX 76 47 32 49 64 50 44 51 63 52 45 53 48 54 62 55 81 56 46 57
REMARK SMILES IDX 47 58 61 60 82 61 49 62 33 63 34 64 42 65 35 66 41 67 43 68
REMARK SMILES IDX 40 69 36 70 37 71 38 72 39 73 65 74 66 75 74 76 67 77 73 78
REMARK SMILES IDX 75 79 72 80 68 81 69 82 70 83 71 84 50 85 51 86 59 87 52 88
REMARK SMILES IDX 58 89 60 90 57 91 53 92 54 93 55 94 56 95
REMARK H PARENT 16 6 10 11 13 24 21 29 80 48 48 59
REMARK Flexibility Score: inf
ROOT
ATOM      1  C   UNL A   1      31.665  28.099  26.898  1.00  0.00     0.023 C 
ENDROOT
BRANCH   1   2
ATOM      2  C   UNL A   1      31.538  26.741  26.221  1.00  0.00     0.116 C 
BRANCH   2   3
ATOM      3  N   UNL A   1      30.422  26.699  25.301  1.00  0.00    -0.354 N 
ATOM      4  C   UNL A   1      30.313  27.088  24.008  1.00  0.00     0.244 C 
ATOM      5  O   UNL A   1      29.310  26.709  23.392  1.00  0.00    -0.273 OA
ATOM      6  H   UNL A   1      29.596  26.322  25.682  1.00  0.00     0.163 HD
BRANCH   4   7
ATOM      7  C   UNL A   1      31.412  27.851  23.257  1.00  0.00     0.197 C 
BRANCH   7   8
ATOM      8  N   UNL A   1      32.005  27.185  22.105  1.00  0.00    -0.337 N 
ATOM      9  C   UNL A   1      32.740  26.051  21.923  1.00  0.00     0.270 C 
ATOM     10  O   UNL A   1      33.057  25.876  20.740  1.00  0.00    -0.268 OA
ATOM     11  H   UNL A   1      31.834  27.665  21.263  1.00  0.00     0.164 HD
BRANCH   9  12
ATOM     12  C   UNL A   1      33.122  25.081  22.935  1.00  0.00     0.126 A 
ATOM     13  C   UNL A   1      34.340  24.147  24.583  1.00  0.00     0.064 A 
ATOM     14  C   UNL A   1      34.287  25.232  23.696  1.00  0.00     0.059 A 
ATOM     15  N   UNL A   1      33.373  23.279  24.308  1.00  0.00    -0.178 NA
ATOM     16  N   UNL A   1      32.548  23.955  23.484  1.00  0.00    -0.263 N 
ATOM     17  C   UNL A   1      31.171  23.532  23.571  1.00  0.00     0.174 C 
BRANCH  13  18
ATOM     18  C   UNL A   1      35.231  23.911  25.751  1.00  0.00     0.061 C 
BRANCH  18  19
ATOM     19  C   UNL A   1      36.548  23.200  25.352  1.00  0.00    -0.011 C 
ATOM     20  C   UNL A   1      37.762  23.669  26.164  1.00  0.00     0.008 C 
ATOM     21  C   UNL A   1      36.394  21.688  25.511  1.00  0.00     0.008 C 
ENDBRANCH  18  19
ENDBRANCH  13  18
ENDBRANCH   9  12
ENDBRANCH   7   8
BRANCH   7  22
ATOM     22  C   UNL A   1      30.962  29.283  22.920  1.00  0.00     0.191 C 
BRANCH  22  23
ATOM     23  O   UNL A   1      29.581  29.521  23.188  1.00  0.00    -0.394 OA
ATOM     24  H   UNL A   1      29.495  30.272  23.797  1.00  0.00     0.210 HD
ENDBRANCH  22  23
ENDBRANCH   7  22
ENDBRANCH   4   7
ENDBRANCH   2   3
ENDBRANCH   1   2
BRANCH   1  25
ATOM     25  C   UNL A   1      33.092  28.504  27.268  1.00  0.00     0.023 C 
BRANCH  25  26
ATOM     26  C   UNL A   1      33.674  29.655  26.455  1.00  0.00     0.116 C 
BRANCH  26  27
ATOM     27  N   UNL A   1      33.606  30.930  27.152  1.00  0.00    -0.352 N 
ATOM     28  C   UNL A   1      34.448  31.432  28.114  1.00  0.00     0.251 C 
ATOM     29  H   UNL A   1      32.853  31.513  26.899  1.00  0.00     0.163 HD
ATOM     30  O   UNL A   1      34.168  32.476  28.695  1.00  0.00    -0.269 OA
BRANCH  28  31
ATOM     31  C   UNL A   1      35.668  30.678  28.464  1.00  0.00     0.039 A 
ATOM     32  C   UNL A   1      36.850  30.946  27.770  1.00  0.00     0.014 A 
ATOM     33  C   UNL A   1      35.654  29.755  29.513  1.00  0.00     0.014 A 
ATOM     34  C   UNL A   1      38.039  30.340  28.179  1.00  0.00     0.010 A 
ATOM     35  C   UNL A   1      36.852  29.210  29.964  1.00  0.00     0.010 A 
ATOM     36  C   UNL A   1      38.057  29.500  29.305  1.00  0.00    -0.014 A 
BRANCH  36  37
ATOM     37  C   UNL A   1      39.327  28.918  29.813  1.00  0.00     0.031 A 
ATOM     38  C   UNL A   1      40.048  29.581  30.955  1.00  0.00     0.074 A 
ATOM     39  C   UNL A   1      39.865  27.847  29.193  1.00  0.00     0.049 A 
ATOM     40  N   UNL A   1      41.208  29.285  31.482  1.00  0.00    -0.248 NA
ATOM     41  C   UNL A   1      39.395  30.751  31.561  1.00  0.00     0.031 C 
ATOM     42  C   UNL A   1      39.285  27.158  28.038  1.00  0.00     0.029 A 
ATOM     43  N   UNL A   1      41.031  27.162  29.434  1.00  0.00    -0.354 N 
ATOM     44  C   UNL A   1      41.436  30.248  32.459  1.00  0.00     0.074 A 
ATOM     45  C   UNL A   1      40.314  31.161  32.421  1.00  0.00     0.031 C 
ATOM     46  C   UNL A   1      40.090  26.143  27.680  1.00  0.00     0.029 A 
ATOM     47  C   UNL A   1      41.262  26.132  28.549  1.00  0.00     0.049 A 
ATOM     48  H   UNL A   1      41.644  27.385  30.171  1.00  0.00     0.167 HD
ATOM     49  C   UNL A   1      42.479  30.349  33.319  1.00  0.00     0.034 A 
ATOM     50  C   UNL A   1      42.307  25.288  28.440  1.00  0.00     0.034 A 
ATOM     51  C   UNL A   1      43.569  29.406  33.370  1.00  0.00     0.049 A 
ATOM     52  C   UNL A   1      43.440  25.406  29.430  1.00  0.00     0.074 A 
ATOM     53  C   UNL A   1      44.622  29.357  34.266  1.00  0.00     0.029 A 
ATOM     54  N   UNL A   1      43.749  28.351  32.486  1.00  0.00    -0.354 N 
ATOM     55  N   UNL A   1      43.597  26.273  30.405  1.00  0.00    -0.248 NA
ATOM     56  C   UNL A   1      44.527  24.424  29.318  1.00  0.00     0.031 C 
ATOM     57  C   UNL A   1      45.472  28.315  33.886  1.00  0.00     0.029 A 
ATOM     58  C   UNL A   1      44.913  27.665  32.797  1.00  0.00     0.049 A 
ATOM     59  H   UNL A   1      43.139  28.122  31.748  1.00  0.00     0.167 HD
ATOM     60  C   UNL A   1      44.786  25.918  31.038  1.00  0.00     0.074 A 
ATOM     61  C   UNL A   1      45.292  24.751  30.349  1.00  0.00     0.031 C 
ATOM     62  C   UNL A   1      45.403  26.502  32.096  1.00  0.00     0.034 A 
BRANCH  49  63
ATOM     63  C   UNL A   1      42.505  31.530  34.258  1.00  0.00     0.023 A 
ATOM     64  C   UNL A   1      41.893  31.488  35.522  1.00  0.00     0.031 A 
ATOM     65  C   UNL A   1      43.158  32.717  33.880  1.00  0.00     0.131 A 
ATOM     66  C   UNL A   1      41.898  32.629  36.339  1.00  0.00     0.055 A 
ATOM     67  C   UNL A   1      43.222  33.823  34.727  1.00  0.00     0.041 A 
ATOM     68  F   UNL A   1      43.743  32.821  32.676  1.00  0.00    -0.206 F 
ATOM     69  C   UNL A   1      42.581  33.787  35.962  1.00  0.00     0.022 A 
BRANCH  66  70
ATOM     70  S   UNL A   1      40.909  32.614  37.859  1.00  0.00     0.124 S 
ATOM     71  O   UNL A   1      39.707  31.910  37.420  1.00  0.00    -0.237 OA
ATOM     72  O   UNL A   1      41.768  31.890  38.789  1.00  0.00    -0.237 OA
ATOM     73  O   UNL A   1      40.719  34.031  38.160  1.00  0.00    -0.744 OA
ENDBRANCH  66  70
ENDBRANCH  49  63
BRANCH  50  74
ATOM     74  C   UNL A   1      42.356  24.269  27.351  1.00  0.00     0.023 A 
ATOM     75  C   UNL A   1      41.616  23.079  27.435  1.00  0.00     0.031 A 
ATOM     76  C   UNL A   1      43.198  24.442  26.237  1.00  0.00     0.131 A 
ATOM     77  C   UNL A   1      41.778  22.082  26.461  1.00  0.00     0.055 A 
ATOM     78  C   UNL A   1      43.312  23.471  25.240  1.00  0.00     0.041 A 
ATOM     79  F   UNL A   1      43.924  25.562  26.102  1.00  0.00    -0.206 F 
ATOM     80  C   UNL A   1      42.612  22.274  25.358  1.00  0.00     0.022 A 
BRANCH  77  81
ATOM     81  S   UNL A   1      40.966  20.478  26.716  1.00  0.00     0.124 S 
ATOM     82  O   UNL A   1      41.929  19.560  26.118  1.00  0.00    -0.237 OA
ATOM     83  O   UNL A   1      40.849  20.429  28.170  1.00  0.00    -0.237 OA
ATOM     84  O   UNL A   1      39.704  20.618  25.994  1.00  0.00    -0.744 OA
ENDBRANCH  77  81
ENDBRANCH  50  74
BRANCH  62  85
ATOM     85  C   UNL A   1      46.668  25.852  32.597  1.00  0.00     0.023 A 
ATOM     86  C   UNL A   1      47.915  26.104  32.001  1.00  0.00     0.031 A 
ATOM     87  C   UNL A   1      46.619  24.959  33.681  1.00  0.00     0.131 A 
ATOM     88  C   UNL A   1      49.057  25.429  32.460  1.00  0.00     0.055 A 
ATOM     89  C   UNL A   1      47.767  24.335  34.172  1.00  0.00     0.041 A 
ATOM     90  F   UNL A   1      45.453  24.681  34.286  1.00  0.00    -0.206 F 
ATOM     91  C   UNL A   1      48.993  24.559  33.551  1.00  0.00     0.022 A 
BRANCH  88  92
ATOM     92  S   UNL A   1      50.613  25.637  31.554  1.00  0.00     0.124 S 
ATOM     93  O   UNL A   1      50.970  24.257  31.241  1.00  0.00    -0.237 OA
ATOM     94  O   UNL A   1      50.207  26.462  30.421  1.00  0.00    -0.237 OA
ATOM     95  O   UNL A   1      51.486  26.301  32.520  1.00  0.00    -0.744 OA
ENDBRANCH  88  92
ENDBRANCH  62  85
ENDBRANCH  36  37
ENDBRANCH  28  31
ENDBRANCH  26  27
ENDBRANCH  25  26
ENDBRANCH   1  25
TORSDOF 20
ENDMDL
MODEL 3
REMARK VINA RESULT:     -11.2      3.554      8.875
REMARK SMILES CC(C)Cc1cc(C(=O)N[C@@H](CO)C(=O)NCCCCNC(=O)c2ccc(-c3c4nc(c(-c5cc(S(=O)(=O)[O-])ccc5F)c5ccc([nH]5)c(-c5cc(S(=O)(=O)[O-])ccc5F)c5nc(c(-c6cc(S(=O)(=O)[O-])ccc6F)c6ccc3[nH]6)C=C5)C=C4)cc2)n(C)n1
REMARK SMILES IDX 18 1 17 2 16 3 14 4 15 5 11 7 10 8 8 9 9 10 7 12 5 13 6 14
REMARK SMILES IDX 89 15 87 16 88 17 4 18 2 19 1 20 3 21 12 22 13 23 19 25
REMARK SMILES IDX 20 26 21 27 22 28 23 30 24 31 25 32 86 33 26 34 85 35 27 36
REMARK SMILES IDX 28 37 29 38 79 39 30 40 84 41 78 42 80 43 31 44 83 45 77 46
REMARK SMILES IDX 76 47 32 49 64 50 44 51 63 52 45 53 48 54 62 55 81 56 46 57
REMARK SMILES IDX 47 58 61 60 82 61 49 62 33 63 34 64 42 65 35 66 41 67 43 68
REMARK SMILES IDX 40 69 36 70 37 71 38 72 39 73 65 74 66 75 74 76 67 77 73 78
REMARK SMILES IDX 75 79 72 80 68 81 69 82 70 83 71 84 50 85 51 86 59 87 52 88
REMARK SMILES IDX 58 89 60 90 57 91 53 92 54 93 55 94 56 95
REMARK H PARENT 16 6 10 11 13 24 21 29 80 48 48 59
REMARK Flexibility Score: inf
ROOT
ATOM      1  C   UNL A   1      33.524  27.264  24.597  1.00  0.00     0.023 C 
ENDROOT
BRANCH   1   2
ATOM      2  C   UNL A   1      33.459  25.794  24.991  1.00  0.00     0.116 C 
BRANCH   2   3
ATOM      3  N   UNL A   1      34.036  24.938  23.976  1.00  0.00    -0.354 N 
ATOM      4  C   UNL A   1      35.069  24.065  24.025  1.00  0.00     0.244 C 
ATOM      5  O   UNL A   1      35.189  23.285  23.073  1.00  0.00    -0.273 OA
ATOM      6  H   UNL A   1      33.600  25.003  23.096  1.00  0.00     0.163 HD
BRANCH   4   7
ATOM      7  C   UNL A   1      35.999  23.917  25.237  1.00  0.00     0.197 C 
BRANCH   7   8
ATOM      8  N   UNL A   1      35.431  23.305  26.430  1.00  0.00    -0.337 N 
ATOM      9  C   UNL A   1      34.438  22.399  26.667  1.00  0.00     0.270 C 
ATOM     10  O   UNL A   1      34.277  22.177  27.873  1.00  0.00    -0.268 OA
ATOM     11  H   UNL A   1      35.864  23.615  27.257  1.00  0.00     0.164 HD
BRANCH   9  12
ATOM     12  C   UNL A   1      33.636  21.698  25.679  1.00  0.00     0.126 A 
ATOM     13  C   UNL A   1      32.995  20.034  24.304  1.00  0.00     0.064 A 
ATOM     14  C   UNL A   1      33.983  20.422  25.221  1.00  0.00     0.059 A 
ATOM     15  N   UNL A   1      32.163  21.043  24.068  1.00  0.00    -0.178 NA
ATOM     16  N   UNL A   1      32.433  21.929  25.046  1.00  0.00    -0.263 N 
ATOM     17  C   UNL A   1      31.301  22.743  25.418  1.00  0.00     0.174 C 
BRANCH  13  18
ATOM     18  C   UNL A   1      32.741  18.709  23.677  1.00  0.00     0.061 C 
BRANCH  18  19
ATOM     19  C   UNL A   1      33.586  17.582  24.320  1.00  0.00    -0.011 C 
ATOM     20  C   UNL A   1      32.839  16.812  25.418  1.00  0.00     0.008 C 
ATOM     21  C   UNL A   1      34.050  16.599  23.247  1.00  0.00     0.008 C 
ENDBRANCH  18  19
ENDBRANCH  13  18
ENDBRANCH   9  12
ENDBRANCH   7   8
BRANCH   7  22
ATOM     22  C   UNL A   1      37.332  23.260  24.838  1.00  0.00     0.191 C 
BRANCH  22  23
ATOM     23  O   UNL A   1      37.207  21.876  24.515  1.00  0.00    -0.394 OA
ATOM     24  H   UNL A   1      36.414  21.515  24.941  1.00  0.00     0.210 HD
ENDBRANCH  22  23
ENDBRANCH   7  22
ENDBRANCH   4   7
ENDBRANCH   2   3
ENDBRANCH   1   2
BRANCH   1  25
ATOM     25  C   UNL A   1      33.085  28.242  25.688  1.00  0.00     0.023 C 
BRANCH  25  26
ATOM     26  C   UNL A   1      34.216  28.996  26.379  1.00  0.00     0.116 C 
BRANCH  26  27
ATOM     27  N   UNL A   1      33.848  30.356  26.745  1.00  0.00    -0.352 N 
ATOM     28  C   UNL A   1      34.436  31.189  27.666  1.00  0.00     0.251 C 
ATOM     29  H   UNL A   1      33.072  30.730  26.267  1.00  0.00     0.163 HD
ATOM     30  O   UNL A   1      33.915  32.264  27.946  1.00  0.00    -0.269 OA
BRANCH  28  31
ATOM     31  C   UNL A   1      35.676  30.753  28.339  1.00  0.00     0.039 A 
ATOM     32  C   UNL A   1      35.588  29.836  29.387  1.00  0.00     0.014 A 
ATOM     33  C   UNL A   1      36.920  31.206  27.893  1.00  0.00     0.014 A 
ATOM     34  C   UNL A   1      36.758  29.314  29.942  1.00  0.00     0.010 A 
ATOM     35  C   UNL A   1      38.081  30.630  28.397  1.00  0.00     0.010 A 
ATOM     36  C   UNL A   1      38.013  29.675  29.424  1.00  0.00    -0.014 A 
BRANCH  36  37
ATOM     37  C   UNL A   1      39.265  29.062  29.938  1.00  0.00     0.031 A 
ATOM     38  C   UNL A   1      39.962  29.668  31.126  1.00  0.00     0.074 A 
ATOM     39  C   UNL A   1      39.811  28.014  29.287  1.00  0.00     0.049 A 
ATOM     40  N   UNL A   1      41.105  29.340  31.669  1.00  0.00    -0.248 NA
ATOM     41  C   UNL A   1      39.301  30.817  31.766  1.00  0.00     0.031 C 
ATOM     42  C   UNL A   1      39.256  27.380  28.088  1.00  0.00     0.029 A 
ATOM     43  N   UNL A   1      40.964  27.308  29.527  1.00  0.00    -0.354 N 
ATOM     44  C   UNL A   1      41.315  30.257  32.693  1.00  0.00     0.074 A 
ATOM     45  C   UNL A   1      40.202  31.181  32.665  1.00  0.00     0.031 C 
ATOM     46  C   UNL A   1      40.062  26.374  27.707  1.00  0.00     0.029 A 
ATOM     47  C   UNL A   1      41.210  26.315  28.605  1.00  0.00     0.049 A 
ATOM     48  H   UNL A   1      41.560  27.494  30.289  1.00  0.00     0.167 HD
ATOM     49  C   UNL A   1      42.336  30.312  33.582  1.00  0.00     0.034 A 
ATOM     50  C   UNL A   1      42.251  25.468  28.486  1.00  0.00     0.034 A 
ATOM     51  C   UNL A   1      43.417  29.358  33.620  1.00  0.00     0.049 A 
ATOM     52  C   UNL A   1      43.359  25.533  29.509  1.00  0.00     0.074 A 
ATOM     53  C   UNL A   1      44.446  29.262  34.540  1.00  0.00     0.029 A 
ATOM     54  N   UNL A   1      43.611  28.341  32.697  1.00  0.00    -0.354 N 
ATOM     55  N   UNL A   1      43.498  26.355  30.524  1.00  0.00    -0.248 NA
ATOM     56  C   UNL A   1      44.441  24.548  29.382  1.00  0.00     0.031 C 
ATOM     57  C   UNL A   1      45.298  28.229  34.137  1.00  0.00     0.029 A 
ATOM     58  C   UNL A   1      44.762  27.632  33.007  1.00  0.00     0.049 A 
ATOM     59  H   UNL A   1      43.020  28.150  31.933  1.00  0.00     0.167 HD
ATOM     60  C   UNL A   1      44.667  25.964  31.172  1.00  0.00     0.074 A 
ATOM     61  C   UNL A   1      45.182  24.823  30.445  1.00  0.00     0.031 C 
ATOM     62  C   UNL A   1      45.261  26.496  32.270  1.00  0.00     0.034 A 
BRANCH  49  63
ATOM     63  C   UNL A   1      42.347  31.452  34.572  1.00  0.00     0.023 A 
ATOM     64  C   UNL A   1      41.450  31.506  35.652  1.00  0.00     0.031 A 
ATOM     65  C   UNL A   1      43.275  32.498  34.431  1.00  0.00     0.131 A 
ATOM     66  C   UNL A   1      41.463  32.612  36.516  1.00  0.00     0.055 A 
ATOM     67  C   UNL A   1      43.331  33.559  35.336  1.00  0.00     0.041 A 
ATOM     68  F   UNL A   1      44.142  32.509  33.406  1.00  0.00    -0.206 F 
ATOM     69  C   UNL A   1      42.414  33.625  36.381  1.00  0.00     0.022 A 
BRANCH  66  70
ATOM     70  S   UNL A   1      40.149  32.759  37.757  1.00  0.00     0.124 S 
ATOM     71  O   UNL A   1      39.229  31.705  37.339  1.00  0.00    -0.237 OA
ATOM     72  O   UNL A   1      40.865  32.523  39.006  1.00  0.00    -0.237 OA
ATOM     73  O   UNL A   1      39.653  34.121  37.572  1.00  0.00    -0.744 OA
ENDBRANCH  66  70
ENDBRANCH  49  63
BRANCH  50  74
ATOM     74  C   UNL A   1      42.321  24.496  27.356  1.00  0.00     0.023 A 
ATOM     75  C   UNL A   1      41.583  23.302  27.378  1.00  0.00     0.031 A 
ATOM     76  C   UNL A   1      43.179  24.718  26.263  1.00  0.00     0.131 A 
ATOM     77  C   UNL A   1      41.764  22.347  26.365  1.00  0.00     0.055 A 
ATOM     78  C   UNL A   1      43.312  23.792  25.228  1.00  0.00     0.041 A 
ATOM     79  F   UNL A   1      43.903  25.846  26.188  1.00  0.00    -0.206 F 
ATOM     80  C   UNL A   1      42.615  22.589  25.284  1.00  0.00     0.022 A 
BRANCH  77  81
ATOM     81  S   UNL A   1      40.955  20.732  26.539  1.00  0.00     0.124 S 
ATOM     82  O   UNL A   1      39.637  20.998  25.972  1.00  0.00    -0.237 OA
ATOM     83  O   UNL A   1      41.831  19.871  25.750  1.00  0.00    -0.237 OA
ATOM     84  O   UNL A   1      40.980  20.493  27.980  1.00  0.00    -0.744 OA
ENDBRANCH  77  81
ENDBRANCH  50  74
BRANCH  62  85
ATOM     85  C   UNL A   1      46.507  25.814  32.774  1.00  0.00     0.023 A 
ATOM     86  C   UNL A   1      46.449  24.748  33.688  1.00  0.00     0.031 A 
ATOM     87  C   UNL A   1      47.772  26.246  32.337  1.00  0.00     0.131 A 
ATOM     88  C   UNL A   1      47.637  24.184  34.178  1.00  0.00     0.055 A 
ATOM     89  C   UNL A   1      48.949  25.641  32.783  1.00  0.00     0.041 A 
ATOM     90  F   UNL A   1      47.885  27.260  31.466  1.00  0.00    -0.206 F 
ATOM     91  C   UNL A   1      48.884  24.612  33.719  1.00  0.00     0.022 A 
BRANCH  88  92
ATOM     92  S   UNL A   1      47.531  22.938  35.491  1.00  0.00     0.124 S 
ATOM     93  O   UNL A   1      48.700  23.253  36.304  1.00  0.00    -0.237 OA
ATOM     94  O   UNL A   1      46.236  23.232  36.097  1.00  0.00    -0.237 OA
ATOM     95  O   UNL A   1      47.601  21.670  34.767  1.00  0.00    -0.744 OA
ENDBRANCH  88  92
ENDBRANCH  62  85
ENDBRANCH  36  37
ENDBRANCH  28  31
ENDBRANCH  26  27
ENDBRANCH  25  26
ENDBRANCH   1  25
TORSDOF 20
ENDMDL
