MODEL 1
REMARK VINA RESULT:     -11.8      0.000      0.000
REMARK SMILES CCCCc1cc(S(F)(F)(F)(F)F)cc2c1O[C@@H](C(F)(F)F)C(C(=O)NCCCCNC(=O)c1ccc(-c3c4nc(c(-c5cc(S(=O)(=O)[O-])ccc5F)c5ccc([nH]5)c(-c5cc(S(=O)(=O)[O-])ccc5F)c5nc(c(-c6cc(S(=O)(=O)[O-])ccc6F)c6ccc3[nH]6)C=C5)C=C4)cc1)=C2
REMARK SMILES IDX 28 1 27 2 26 3 24 4 25 5 23 7 5 8 6 9 16 10 7 11 15 12 17 13
REMARK SMILES IDX 14 14 97 15 18 16 4 17 3 18 2 19 1 20 8 21 9 22 10 23 11 24
REMARK SMILES IDX 12 25 13 26 19 27 20 28 21 29 22 30 29 31 30 32 31 33 32 34
REMARK SMILES IDX 33 36 34 37 35 38 96 39 36 40 95 41 37 42 38 43 39 44 89 45
REMARK SMILES IDX 40 46 94 47 88 48 90 49 41 50 93 51 87 52 86 53 42 55 74 56
REMARK SMILES IDX 54 57 73 58 55 59 58 60 72 61 91 62 56 63 57 64 71 66 92 67
REMARK SMILES IDX 59 68 43 69 44 70 52 71 45 72 51 73 53 74 50 75 46 76 47 77
REMARK SMILES IDX 48 78 49 79 75 80 76 81 84 82 77 83 83 84 85 85 82 86 78 87
REMARK SMILES IDX 79 88 80 89 81 90 60 91 61 92 69 93 62 94 68 95 70 96 67 97
REMARK SMILES IDX 63 98 64 99 65 100 66 101
REMARK H PARENT 26 6 31 35 90 54 58 65
REMARK Flexibility Score: inf
ROOT
ATOM      1  C   UNL A   1      35.782  22.427  23.985  1.00  0.00     0.023 C 
ENDROOT
BRANCH   1   2
ATOM      2  C   UNL A   1      34.482  22.478  23.200  1.00  0.00     0.116 C 
BRANCH   2   3
ATOM      3  N   UNL A   1      33.551  21.469  23.726  1.00  0.00    -0.352 N 
ATOM      4  C   UNL A   1      32.400  21.885  24.540  1.00  0.00     0.251 C 
ATOM      5  O   UNL A   1      31.595  21.013  24.995  1.00  0.00    -0.270 OA
ATOM      6  H   UNL A   1      33.698  20.516  23.533  1.00  0.00     0.163 HD
BRANCH   4   7
ATOM      7  C   UNL A   1      32.172  23.358  24.839  1.00  0.00     0.067 C 
ATOM      8  C   UNL A   1      31.177  27.251  25.979  1.00  0.00    -0.004 A 
ATOM      9  C   UNL A   1      30.606  28.114  25.061  1.00  0.00     0.032 A 
ATOM     10  C   UNL A   1      31.445  25.960  25.592  1.00  0.00     0.131 A 
ATOM     11  C   UNL A   1      30.306  27.694  23.791  1.00  0.00     0.108 A 
ATOM     12  C   UNL A   1      31.173  25.507  24.314  1.00  0.00     0.019 A 
ATOM     13  O   UNL A   1      31.908  25.085  26.545  1.00  0.00    -0.475 OA
ATOM     14  C   UNL A   1      30.594  26.398  23.419  1.00  0.00     0.036 A 
ATOM     15  C   UNL A   1      31.458  24.114  24.015  1.00  0.00     0.025 C 
ATOM     16  C   UNL A   1      32.760  23.997  26.089  1.00  0.00     0.314 C 
BRANCH   8  17
ATOM     17  C   UNL A   1      31.503  27.721  27.386  1.00  0.00     0.039 C 
BRANCH  17  18
ATOM     18  C   UNL A   1      32.357  28.976  27.316  1.00  0.00     0.005 C 
BRANCH  18  19
ATOM     19  C   UNL A   1      33.776  28.601  26.921  1.00  0.00    -0.003 C 
ATOM     20  C   UNL A   1      34.723  29.731  27.299  1.00  0.00     0.004 C 
ENDBRANCH  18  19
ENDBRANCH  17  18
ENDBRANCH   8  17
BRANCH  11  21
ATOM     21  S   UNL A   1      29.536  28.833  22.614  1.00  0.00     0.310 S 
ATOM     22  F   UNL A   1      29.532  30.020  23.666  1.00  0.00    -0.094 F 
ATOM     23  F   UNL A   1      28.122  28.423  23.175  1.00  0.00    -0.094 F 
ATOM     24  F   UNL A   1      28.881  29.813  21.600  1.00  0.00    -0.094 F 
ATOM     25  F   UNL A   1      30.963  29.334  22.163  1.00  0.00    -0.094 F 
ATOM     26  F   UNL A   1      30.218  27.928  23.716  1.00  0.00    -0.094 F 
ENDBRANCH  11  21
BRANCH  16  27
ATOM     27  C   UNL A   1      32.855  22.949  27.185  1.00  0.00     0.429 C 
ATOM     28  F   UNL A   1      31.635  22.518  27.494  1.00  0.00    -0.167 F 
ATOM     29  F   UNL A   1      33.591  21.926  26.759  1.00  0.00    -0.167 F 
ATOM     30  F   UNL A   1      33.422  23.485  28.263  1.00  0.00    -0.167 F 
ENDBRANCH  16  27
ENDBRANCH   4   7
ENDBRANCH   2   3
ENDBRANCH   1   2
BRANCH   1  31
ATOM     31  C   UNL A   1      35.890  23.661  24.867  1.00  0.00     0.023 C 
BRANCH  31  32
ATOM     32  C   UNL A   1      36.529  23.282  26.193  1.00  0.00     0.116 C 
BRANCH  32  33
ATOM     33  N   UNL A   1      37.521  22.221  25.972  1.00  0.00    -0.352 N 
ATOM     34  C   UNL A   1      38.942  22.472  26.255  1.00  0.00     0.251 C 
ATOM     35  H   UNL A   1      37.235  21.340  25.636  1.00  0.00     0.163 HD
ATOM     36  O   UNL A   1      39.800  21.555  26.064  1.00  0.00    -0.269 OA
BRANCH  34  37
ATOM     37  C   UNL A   1      39.384  23.831  26.774  1.00  0.00     0.039 A 
ATOM     38  C   UNL A   1      39.737  24.832  25.884  1.00  0.00     0.014 A 
ATOM     39  C   UNL A   1      39.433  24.026  28.086  1.00  0.00     0.014 A 
ATOM     40  C   UNL A   1      40.410  25.922  26.486  1.00  0.00     0.010 A 
ATOM     41  C   UNL A   1      39.980  25.176  28.602  1.00  0.00     0.010 A 
ATOM     42  C   UNL A   1      40.405  26.183  27.780  1.00  0.00    -0.014 A 
BRANCH  42  43
ATOM     43  C   UNL A   1      40.847  27.531  28.327  1.00  0.00     0.031 A 
ATOM     44  C   UNL A   1      42.223  27.759  28.382  1.00  0.00     0.074 A 
ATOM     45  C   UNL A   1      39.893  28.453  28.721  1.00  0.00     0.049 A 
ATOM     46  N   UNL A   1      42.848  28.872  28.772  1.00  0.00    -0.248 NA
ATOM     47  C   UNL A   1      43.240  26.769  27.996  1.00  0.00     0.031 C 
ATOM     48  C   UNL A   1      38.503  28.232  28.661  1.00  0.00     0.029 A 
ATOM     49  N   UNL A   1      40.098  29.716  29.229  1.00  0.00    -0.354 N 
ATOM     50  C   UNL A   1      44.170  28.718  28.667  1.00  0.00     0.074 A 
ATOM     51  C   UNL A   1      44.440  27.362  28.172  1.00  0.00     0.031 C 
ATOM     52  C   UNL A   1      37.879  29.342  29.138  1.00  0.00     0.029 A 
ATOM     53  C   UNL A   1      38.869  30.275  29.502  1.00  0.00     0.049 A 
ATOM     54  H   UNL A   1      40.972  30.146  29.373  1.00  0.00     0.167 HD
ATOM     55  C   UNL A   1      45.159  29.657  28.963  1.00  0.00     0.034 A 
ATOM     56  C   UNL A   1      38.605  31.525  30.040  1.00  0.00     0.034 A 
ATOM     57  C   UNL A   1      44.893  30.923  29.459  1.00  0.00     0.049 A 
ATOM     58  C   UNL A   1      39.598  32.442  30.391  1.00  0.00     0.074 A 
ATOM     59  C   UNL A   1      45.879  31.885  29.756  1.00  0.00     0.029 A 
ATOM     60  N   UNL A   1      43.665  31.473  29.756  1.00  0.00    -0.354 N 
ATOM     61  N   UNL A   1      40.917  32.304  30.248  1.00  0.00    -0.248 NA
ATOM     62  C   UNL A   1      39.331  33.757  30.991  1.00  0.00     0.031 C 
ATOM     63  C   UNL A   1      45.255  32.995  30.232  1.00  0.00     0.029 A 
ATOM     64  C   UNL A   1      43.870  32.745  30.242  1.00  0.00     0.049 A 
ATOM     65  H   UNL A   1      42.793  31.032  29.639  1.00  0.00     0.167 HD
ATOM     66  C   UNL A   1      41.543  33.401  30.678  1.00  0.00     0.074 A 
ATOM     67  C   UNL A   1      40.532  34.348  31.170  1.00  0.00     0.031 C 
ATOM     68  C   UNL A   1      42.916  33.652  30.678  1.00  0.00     0.034 A 
BRANCH  55  69
ATOM     69  C   UNL A   1      46.610  29.270  28.726  1.00  0.00     0.023 A 
ATOM     70  C   UNL A   1      47.082  29.226  27.424  1.00  0.00     0.031 A 
ATOM     71  C   UNL A   1      47.388  28.948  29.752  1.00  0.00     0.131 A 
ATOM     72  C   UNL A   1      48.316  28.547  27.285  1.00  0.00     0.055 A 
ATOM     73  C   UNL A   1      48.638  28.414  29.543  1.00  0.00     0.041 A 
ATOM     74  F   UNL A   1      46.955  29.143  30.994  1.00  0.00    -0.206 F 
ATOM     75  C   UNL A   1      49.145  28.287  28.279  1.00  0.00     0.022 A 
BRANCH  72  76
ATOM     76  S   UNL A   1      48.791  27.996  25.627  1.00  0.00     0.124 S 
ATOM     77  O   UNL A   1      50.145  28.604  25.256  1.00  0.00    -0.237 OA
ATOM     78  O   UNL A   1      48.894  26.469  25.607  1.00  0.00    -0.237 OA
ATOM     79  O   UNL A   1      47.610  28.503  24.499  1.00  0.00    -0.744 OA
ENDBRANCH  72  76
ENDBRANCH  55  69
BRANCH  56  80
ATOM     80  C   UNL A   1      37.154  31.918  30.261  1.00  0.00     0.023 A 
ATOM     81  C   UNL A   1      36.387  32.372  29.201  1.00  0.00     0.031 A 
ATOM     82  C   UNL A   1      36.636  31.777  31.476  1.00  0.00     0.131 A 
ATOM     83  C   UNL A   1      35.146  32.931  29.589  1.00  0.00     0.055 A 
ATOM     84  C   UNL A   1      35.365  32.224  31.750  1.00  0.00     0.041 A 
ATOM     85  F   UNL A   1      37.352  31.200  32.436  1.00  0.00    -0.206 F 
ATOM     86  C   UNL A   1      34.572  32.739  30.762  1.00  0.00     0.022 A 
BRANCH  83  87
ATOM     87  S   UNL A   1      34.286  33.982  28.392  1.00  0.00     0.124 S 
ATOM     88  O   UNL A   1      33.759  35.233  29.100  1.00  0.00    -0.237 OA
ATOM     89  O   UNL A   1      35.256  34.393  27.283  1.00  0.00    -0.237 OA
ATOM     90  O   UNL A   1      32.976  33.118  27.713  1.00  0.00    -0.744 OA
ENDBRANCH  83  87
ENDBRANCH  56  80
BRANCH  68  91
ATOM     91  C   UNL A   1      43.395  35.002  31.186  1.00  0.00     0.023 A 
ATOM     92  C   UNL A   1      43.484  36.085  30.327  1.00  0.00     0.031 A 
ATOM     93  C   UNL A   1      43.743  35.106  32.463  1.00  0.00     0.131 A 
ATOM     94  C   UNL A   1      44.230  37.169  30.847  1.00  0.00     0.055 A 
ATOM     95  C   UNL A   1      44.345  36.248  32.934  1.00  0.00     0.041 A 
ATOM     96  F   UNL A   1      43.505  34.096  33.295  1.00  0.00    -0.206 F 
ATOM     97  C   UNL A   1      44.518  37.336  32.125  1.00  0.00     0.022 A 
BRANCH  94  98
ATOM     98  S   UNL A   1      44.831  38.415  29.679  1.00  0.00     0.124 S 
ATOM     99  O   UNL A   1      44.128  39.747  29.947  1.00  0.00    -0.237 OA
ATOM    100  O   UNL A   1      46.342  38.591  29.852  1.00  0.00    -0.237 OA
ATOM    101  O   UNL A   1      44.497  37.906  28.081  1.00  0.00    -0.744 OA
ENDBRANCH  94  98
ENDBRANCH  68  91
ENDBRANCH  42  43
ENDBRANCH  34  37
ENDBRANCH  32  33
ENDBRANCH  31  32
ENDBRANCH   1  31
TORSDOF 19
ENDMDL
MODEL 2
REMARK VINA RESULT:     -11.7      1.756      7.378
REMARK SMILES CCCCc1cc(S(F)(F)(F)(F)F)cc2c1O[C@@H](C(F)(F)F)C(C(=O)NCCCCNC(=O)c1ccc(-c3c4nc(c(-c5cc(S(=O)(=O)[O-])ccc5F)c5ccc([nH]5)c(-c5cc(S(=O)(=O)[O-])ccc5F)c5nc(c(-c6cc(S(=O)(=O)[O-])ccc6F)c6ccc3[nH]6)C=C5)C=C4)cc1)=C2
REMARK SMILES IDX 28 1 27 2 26 3 24 4 25 5 23 7 5 8 6 9 16 10 7 11 15 12 17 13
REMARK SMILES IDX 14 14 97 15 18 16 4 17 3 18 2 19 1 20 8 21 9 22 10 23 11 24
REMARK SMILES IDX 12 25 13 26 19 27 20 28 21 29 22 30 29 31 30 32 31 33 32 34
REMARK SMILES IDX 33 36 34 37 35 38 96 39 36 40 95 41 37 42 38 43 39 44 89 45
REMARK SMILES IDX 40 46 94 47 88 48 90 49 41 50 93 51 87 52 86 53 42 55 74 56
REMARK SMILES IDX 54 57 73 58 55 59 58 60 72 61 91 62 56 63 57 64 71 66 92 67
REMARK SMILES IDX 59 68 43 69 44 70 52 71 45 72 51 73 53 74 50 75 46 76 47 77
REMARK SMILES IDX 48 78 49 79 75 80 76 81 84 82 77 83 83 84 85 85 82 86 78 87
REMARK SMILES IDX 79 88 80 89 81 90 60 91 61 92 69 93 62 94 68 95 70 96 67 97
REMARK SMILES IDX 63 98 64 99 65 100 66 101
REMARK H PARENT 26 6 31 35 90 54 58 65
REMARK Flexibility Score: inf
ROOT
ATOM      1  C   UNL A   1      35.735  22.260  23.949  1.00  0.00     0.023 C 
ENDROOT
BRANCH   1   2
ATOM      2  C   UNL A   1      34.423  22.390  23.193  1.00  0.00     0.116 C 
BRANCH   2   3
ATOM      3  N   UNL A   1      33.447  21.434  23.736  1.00  0.00    -0.352 N 
ATOM      4  C   UNL A   1      32.311  21.917  24.534  1.00  0.00     0.251 C 
ATOM      5  O   UNL A   1      31.467  21.090  25.003  1.00  0.00    -0.270 OA
ATOM      6  H   UNL A   1      33.554  20.471  23.565  1.00  0.00     0.163 HD
BRANCH   4   7
ATOM      7  C   UNL A   1      32.144  23.405  24.798  1.00  0.00     0.067 C 
ATOM      8  C   UNL A   1      31.353  27.359  25.885  1.00  0.00    -0.004 A 
ATOM      9  C   UNL A   1      30.701  28.201  25.002  1.00  0.00     0.032 A 
ATOM     10  C   UNL A   1      31.552  26.049  25.523  1.00  0.00     0.131 A 
ATOM     11  C   UNL A   1      30.256  27.741  23.789  1.00  0.00     0.108 A 
ATOM     12  C   UNL A   1      31.134  25.555  24.300  1.00  0.00     0.019 A 
ATOM     13  O   UNL A   1      32.100  25.199  26.453  1.00  0.00    -0.475 OA
ATOM     14  C   UNL A   1      30.478  26.426  23.439  1.00  0.00     0.036 A 
ATOM     15  C   UNL A   1      31.358  24.146  24.027  1.00  0.00     0.025 C 
ATOM     16  C   UNL A   1      32.877  24.076  25.951  1.00  0.00     0.314 C 
BRANCH   8  17
ATOM     17  C   UNL A   1      31.839  27.873  27.229  1.00  0.00     0.039 C 
BRANCH  17  18
ATOM     18  C   UNL A   1      31.790  29.393  27.238  1.00  0.00     0.005 C 
BRANCH  18  19
ATOM     19  C   UNL A   1      33.197  29.946  27.081  1.00  0.00    -0.003 C 
ATOM     20  C   UNL A   1      34.209  28.850  27.380  1.00  0.00     0.004 C 
ENDBRANCH  18  19
ENDBRANCH  17  18
ENDBRANCH   8  17
BRANCH  11  21
ATOM     21  S   UNL A   1      29.383  28.853  22.659  1.00  0.00     0.310 S 
ATOM     22  F   UNL A   1      29.411  30.044  23.706  1.00  0.00    -0.094 F 
ATOM     23  F   UNL A   1      28.019  28.406  23.307  1.00  0.00    -0.094 F 
ATOM     24  F   UNL A   1      28.640  29.810  21.685  1.00  0.00    -0.094 F 
ATOM     25  F   UNL A   1      30.766  29.392  22.119  1.00  0.00    -0.094 F 
ATOM     26  F   UNL A   1      30.157  27.972  23.719  1.00  0.00    -0.094 F 
ENDBRANCH  11  21
BRANCH  16  27
ATOM     27  C   UNL A   1      33.071  23.067  27.070  1.00  0.00     0.429 C 
ATOM     28  F   UNL A   1      33.713  22.001  26.601  1.00  0.00    -0.167 F 
ATOM     29  F   UNL A   1      33.787  23.619  28.046  1.00  0.00    -0.167 F 
ATOM     30  F   UNL A   1      31.885  22.698  27.545  1.00  0.00    -0.167 F 
ENDBRANCH  16  27
ENDBRANCH   4   7
ENDBRANCH   2   3
ENDBRANCH   1   2
BRANCH   1  31
ATOM     31  C   UNL A   1      36.144  23.620  24.492  1.00  0.00     0.023 C 
BRANCH  31  32
ATOM     32  C   UNL A   1      36.675  23.462  25.907  1.00  0.00     0.116 C 
BRANCH  32  33
ATOM     33  N   UNL A   1      37.617  22.335  25.953  1.00  0.00    -0.352 N 
ATOM     34  C   UNL A   1      38.999  22.550  26.405  1.00  0.00     0.251 C 
ATOM     35  H   UNL A   1      37.322  21.435  25.682  1.00  0.00     0.163 HD
ATOM     36  O   UNL A   1      39.813  21.576  26.445  1.00  0.00    -0.269 OA
BRANCH  34  37
ATOM     37  C   UNL A   1      39.454  23.939  26.823  1.00  0.00     0.039 A 
ATOM     38  C   UNL A   1      39.937  24.825  25.875  1.00  0.00     0.014 A 
ATOM     39  C   UNL A   1      39.386  24.272  28.106  1.00  0.00     0.014 A 
ATOM     40  C   UNL A   1      40.601  25.948  26.425  1.00  0.00     0.010 A 
ATOM     41  C   UNL A   1      39.936  25.448  28.554  1.00  0.00     0.010 A 
ATOM     42  C   UNL A   1      40.485  26.346  27.679  1.00  0.00    -0.014 A 
BRANCH  42  43
ATOM     43  C   UNL A   1      40.937  27.727  28.126  1.00  0.00     0.031 A 
ATOM     44  C   UNL A   1      39.934  28.606  28.539  1.00  0.00     0.074 A 
ATOM     45  C   UNL A   1      42.286  28.037  28.120  1.00  0.00     0.049 A 
ATOM     46  N   UNL A   1      40.085  29.843  29.017  1.00  0.00    -0.248 NA
ATOM     47  C   UNL A   1      38.498  28.290  28.514  1.00  0.00     0.031 C 
ATOM     48  C   UNL A   1      43.303  27.152  27.713  1.00  0.00     0.029 A 
ATOM     49  N   UNL A   1      42.882  29.221  28.493  1.00  0.00    -0.354 N 
ATOM     50  C   UNL A   1      38.895  30.365  29.324  1.00  0.00     0.074 A 
ATOM     51  C   UNL A   1      37.858  29.376  28.999  1.00  0.00     0.031 C 
ATOM     52  C   UNL A   1      44.493  27.797  27.827  1.00  0.00     0.029 A 
ATOM     53  C   UNL A   1      44.241  29.096  28.310  1.00  0.00     0.049 A 
ATOM     54  H   UNL A   1      42.417  30.020  28.833  1.00  0.00     0.167 HD
ATOM     55  C   UNL A   1      38.635  31.626  29.862  1.00  0.00     0.034 A 
ATOM     56  C   UNL A   1      45.220  30.049  28.541  1.00  0.00     0.034 A 
ATOM     57  C   UNL A   1      39.619  32.562  30.135  1.00  0.00     0.049 A 
ATOM     58  C   UNL A   1      44.955  31.331  29.025  1.00  0.00     0.074 A 
ATOM     59  C   UNL A   1      39.374  33.836  30.685  1.00  0.00     0.029 A 
ATOM     60  N   UNL A   1      40.976  32.446  29.928  1.00  0.00    -0.354 N 
ATOM     61  N   UNL A   1      43.770  31.839  29.369  1.00  0.00    -0.248 NA
ATOM     62  C   UNL A   1      45.981  32.359  29.244  1.00  0.00     0.031 C 
ATOM     63  C   UNL A   1      40.565  34.481  30.800  1.00  0.00     0.029 A 
ATOM     64  C   UNL A   1      41.574  33.622  30.323  1.00  0.00     0.049 A 
ATOM     65  H   UNL A   1      41.438  31.658  29.561  1.00  0.00     0.167 HD
ATOM     66  C   UNL A   1      43.916  33.090  29.807  1.00  0.00     0.074 A 
ATOM     67  C   UNL A   1      45.339  33.446  29.726  1.00  0.00     0.031 C 
ATOM     68  C   UNL A   1      42.920  33.949  30.275  1.00  0.00     0.034 A 
BRANCH  55  69
ATOM     69  C   UNL A   1      37.192  31.992  30.168  1.00  0.00     0.023 A 
ATOM     70  C   UNL A   1      36.389  32.447  29.135  1.00  0.00     0.031 A 
ATOM     71  C   UNL A   1      36.732  31.905  31.410  1.00  0.00     0.131 A 
ATOM     72  C   UNL A   1      35.192  33.067  29.569  1.00  0.00     0.055 A 
ATOM     73  C   UNL A   1      35.496  32.410  31.737  1.00  0.00     0.041 A 
ATOM     74  F   UNL A   1      37.475  31.325  32.349  1.00  0.00    -0.206 F 
ATOM     75  C   UNL A   1      34.673  32.929  30.776  1.00  0.00     0.022 A 
BRANCH  72  76
ATOM     76  S   UNL A   1      34.312  34.119  28.389  1.00  0.00     0.124 S 
ATOM     77  O   UNL A   1      35.220  34.413  27.192  1.00  0.00    -0.237 OA
ATOM     78  O   UNL A   1      33.050  33.400  27.906  1.00  0.00    -0.237 OA
ATOM     79  O   UNL A   1      33.877  35.587  29.149  1.00  0.00    -0.744 OA
ENDBRANCH  72  76
ENDBRANCH  55  69
BRANCH  56  80
ATOM     80  C   UNL A   1      46.665  29.676  28.251  1.00  0.00     0.023 A 
ATOM     81  C   UNL A   1      47.428  29.043  29.217  1.00  0.00     0.031 A 
ATOM     82  C   UNL A   1      47.157  29.935  27.044  1.00  0.00     0.131 A 
ATOM     83  C   UNL A   1      48.807  28.979  28.908  1.00  0.00     0.055 A 
ATOM     84  C   UNL A   1      48.487  29.721  26.771  1.00  0.00     0.041 A 
ATOM     85  F   UNL A   1      46.357  30.407  26.093  1.00  0.00    -0.206 F 
ATOM     86  C   UNL A   1      49.313  29.152  27.701  1.00  0.00     0.022 A 
BRANCH  83  87
ATOM     87  S   UNL A   1      49.958  28.634  30.262  1.00  0.00     0.124 S 
ATOM     88  O   UNL A   1      49.189  28.585  31.584  1.00  0.00    -0.237 OA
ATOM     89  O   UNL A   1      50.642  27.287  30.020  1.00  0.00    -0.237 OA
ATOM     90  O   UNL A   1      51.139  29.868  30.334  1.00  0.00    -0.744 OA
ENDBRANCH  83  87
ENDBRANCH  56  80
BRANCH  68  91
ATOM     91  C   UNL A   1      43.337  35.327  30.763  1.00  0.00     0.023 A 
ATOM     92  C   UNL A   1      43.489  35.578  32.117  1.00  0.00     0.031 A 
ATOM     93  C   UNL A   1      43.530  36.282  29.861  1.00  0.00     0.131 A 
ATOM     94  C   UNL A   1      43.567  36.953  32.440  1.00  0.00     0.055 A 
ATOM     95  C   UNL A   1      43.736  37.583  30.251  1.00  0.00     0.041 A 
ATOM     96  F   UNL A   1      43.524  35.975  28.566  1.00  0.00    -0.206 F 
ATOM     97  C   UNL A   1      43.838  37.912  31.574  1.00  0.00     0.022 A 
BRANCH  94  98
ATOM     98  S   UNL A   1      43.275  37.431  34.162  1.00  0.00     0.124 S 
ATOM     99  O   UNL A   1      42.821  38.891  34.216  1.00  0.00    -0.237 OA
ATOM    100  O   UNL A   1      42.189  36.535  34.763  1.00  0.00    -0.237 OA
ATOM    101  O   UNL A   1      44.721  37.251  35.056  1.00  0.00    -0.744 OA
ENDBRANCH  94  98
ENDBRANCH  68  91
ENDBRANCH  42  43
ENDBRANCH  34  37
ENDBRANCH  32  33
ENDBRANCH  31  32
ENDBRANCH   1  31
TORSDOF 19
ENDMDL
MODEL 3
REMARK VINA RESULT:     -11.7      3.441      4.696
REMARK SMILES CCCCc1cc(S(F)(F)(F)(F)F)cc2c1O[C@@H](C(F)(F)F)C(C(=O)NCCCCNC(=O)c1ccc(-c3c4nc(c(-c5cc(S(=O)(=O)[O-])ccc5F)c5ccc([nH]5)c(-c5cc(S(=O)(=O)[O-])ccc5F)c5nc(c(-c6cc(S(=O)(=O)[O-])ccc6F)c6ccc3[nH]6)C=C5)C=C4)cc1)=C2
REMARK SMILES IDX 28 1 27 2 26 3 24 4 25 5 23 7 5 8 6 9 16 10 7 11 15 12 17 13
REMARK SMILES IDX 14 14 97 15 18 16 4 17 3 18 2 19 1 20 8 21 9 22 10 23 11 24
REMARK SMILES IDX 12 25 13 26 19 27 20 28 21 29 22 30 29 31 30 32 31 33 32 34
REMARK SMILES IDX 33 36 34 37 35 38 96 39 36 40 95 41 37 42 38 43 39 44 89 45
REMARK SMILES IDX 40 46 94 47 88 48 90 49 41 50 93 51 87 52 86 53 42 55 74 56
REMARK SMILES IDX 54 57 73 58 55 59 58 60 72 61 91 62 56 63 57 64 71 66 92 67
REMARK SMILES IDX 59 68 43 69 44 70 52 71 45 72 51 73 53 74 50 75 46 76 47 77
REMARK SMILES IDX 48 78 49 79 75 80 76 81 84 82 77 83 83 84 85 85 82 86 78 87
REMARK SMILES IDX 79 88 80 89 81 90 60 91 61 92 69 93 62 94 68 95 70 96 67 97
REMARK SMILES IDX 63 98 64 99 65 100 66 101
REMARK H PARENT 26 6 31 35 90 54 58 65
REMARK Flexibility Score: inf
ROOT
ATOM      1  C   UNL A   1      37.362  21.534  24.399  1.00  0.00     0.023 C 
ENDROOT
BRANCH   1   2
ATOM      2  C   UNL A   1      36.519  22.290  25.413  1.00  0.00     0.116 C 
BRANCH   2   3
ATOM      3  N   UNL A   1      35.441  21.419  25.901  1.00  0.00    -0.352 N 
ATOM      4  C   UNL A   1      34.051  21.898  25.897  1.00  0.00     0.251 C 
ATOM      5  O   UNL A   1      33.118  21.145  26.320  1.00  0.00    -0.270 OA
ATOM      6  H   UNL A   1      35.648  20.515  26.231  1.00  0.00     0.163 HD
BRANCH   4   7
ATOM      7  C   UNL A   1      33.729  23.294  25.389  1.00  0.00     0.067 C 
ATOM      8  C   UNL A   1      33.264  27.086  23.701  1.00  0.00    -0.004 A 
ATOM      9  C   UNL A   1      33.410  28.215  24.488  1.00  0.00     0.032 A 
ATOM     10  C   UNL A   1      33.476  25.854  24.270  1.00  0.00     0.131 A 
ATOM     11  C   UNL A   1      33.762  28.112  25.809  1.00  0.00     0.108 A 
ATOM     12  C   UNL A   1      33.814  25.710  25.604  1.00  0.00     0.019 A 
ATOM     13  O   UNL A   1      33.437  24.751  23.451  1.00  0.00    -0.475 OA
ATOM     14  C   UNL A   1      33.957  26.864  26.364  1.00  0.00     0.036 A 
ATOM     15  C   UNL A   1      34.053  24.366  26.100  1.00  0.00     0.025 C 
ATOM     16  C   UNL A   1      33.027  23.491  24.052  1.00  0.00     0.314 C 
BRANCH   8  17
ATOM     17  C   UNL A   1      32.879  27.208  22.237  1.00  0.00     0.039 C 
BRANCH  17  18
ATOM     18  C   UNL A   1      31.429  26.788  22.058  1.00  0.00     0.005 C 
BRANCH  18  19
ATOM     19  C   UNL A   1      30.522  27.986  22.291  1.00  0.00    -0.003 C 
ATOM     20  C   UNL A   1      29.759  27.796  23.593  1.00  0.00     0.004 C 
ENDBRANCH  18  19
ENDBRANCH  17  18
ENDBRANCH   8  17
BRANCH  11  21
ATOM     21  S   UNL A   1      33.971  29.601  26.815  1.00  0.00     0.310 S 
ATOM     22  F   UNL A   1      34.314  28.755  28.112  1.00  0.00    -0.094 F 
ATOM     23  F   UNL A   1      32.456  29.504  27.235  1.00  0.00    -0.094 F 
ATOM     24  F   UNL A   1      34.158  30.882  27.677  1.00  0.00    -0.094 F 
ATOM     25  F   UNL A   1      35.518  29.602  26.496  1.00  0.00    -0.094 F 
ATOM     26  F   UNL A   1      33.824  28.239  26.028  1.00  0.00    -0.094 F 
ENDBRANCH  11  21
BRANCH  16  27
ATOM     27  C   UNL A   1      33.403  22.351  23.121  1.00  0.00     0.429 C 
ATOM     28  F   UNL A   1      32.860  22.558  21.925  1.00  0.00    -0.167 F 
ATOM     29  F   UNL A   1      34.727  22.294  23.001  1.00  0.00    -0.167 F 
ATOM     30  F   UNL A   1      32.953  21.203  23.621  1.00  0.00    -0.167 F 
ENDBRANCH  16  27
ENDBRANCH   4   7
ENDBRANCH   2   3
ENDBRANCH   1   2
BRANCH   1  31
ATOM     31  C   UNL A   1      37.829  20.221  25.007  1.00  0.00     0.023 C 
BRANCH  31  32
ATOM     32  C   UNL A   1      39.004  20.481  25.935  1.00  0.00     0.116 C 
BRANCH  32  33
ATOM     33  N   UNL A   1      39.915  19.329  25.906  1.00  0.00    -0.352 N 
ATOM     34  C   UNL A   1      41.349  19.518  26.172  1.00  0.00     0.251 C 
ATOM     35  H   UNL A   1      39.566  18.429  25.709  1.00  0.00     0.163 HD
ATOM     36  O   UNL A   1      42.137  18.521  26.147  1.00  0.00    -0.269 OA
BRANCH  34  37
ATOM     37  C   UNL A   1      41.888  20.906  26.477  1.00  0.00     0.039 A 
ATOM     38  C   UNL A   1      42.197  21.259  27.780  1.00  0.00     0.014 A 
ATOM     39  C   UNL A   1      42.044  21.763  25.475  1.00  0.00     0.014 A 
ATOM     40  C   UNL A   1      42.393  22.649  27.966  1.00  0.00     0.010 A 
ATOM     41  C   UNL A   1      42.370  23.074  25.721  1.00  0.00     0.010 A 
ATOM     42  C   UNL A   1      42.630  23.508  26.991  1.00  0.00    -0.014 A 
BRANCH  42  43
ATOM     43  C   UNL A   1      43.164  24.905  27.267  1.00  0.00     0.031 A 
ATOM     44  C   UNL A   1      44.517  25.118  26.998  1.00  0.00     0.074 A 
ATOM     45  C   UNL A   1      42.306  25.880  27.745  1.00  0.00     0.049 A 
ATOM     46  N   UNL A   1      45.198  26.260  27.111  1.00  0.00    -0.248 NA
ATOM     47  C   UNL A   1      45.438  24.075  26.523  1.00  0.00     0.031 C 
ATOM     48  C   UNL A   1      40.939  25.674  28.011  1.00  0.00     0.029 A 
ATOM     49  N   UNL A   1      42.601  27.192  28.045  1.00  0.00    -0.354 N 
ATOM     50  C   UNL A   1      46.468  26.076  26.743  1.00  0.00     0.074 A 
ATOM     51  C   UNL A   1      46.642  24.667  26.366  1.00  0.00     0.031 C 
ATOM     52  C   UNL A   1      40.420  26.841  28.476  1.00  0.00     0.029 A 
ATOM     53  C   UNL A   1      41.453  27.796  28.506  1.00  0.00     0.049 A 
ATOM     54  H   UNL A   1      43.481  27.623  27.946  1.00  0.00     0.167 HD
ATOM     55  C   UNL A   1      47.487  27.029  26.707  1.00  0.00     0.034 A 
ATOM     56  C   UNL A   1      41.297  29.105  28.937  1.00  0.00     0.034 A 
ATOM     57  C   UNL A   1      47.320  28.349  27.096  1.00  0.00     0.049 A 
ATOM     58  C   UNL A   1      42.331  30.043  28.956  1.00  0.00     0.074 A 
ATOM     59  C   UNL A   1      48.335  29.324  27.058  1.00  0.00     0.029 A 
ATOM     60  N   UNL A   1      46.178  28.947  27.582  1.00  0.00    -0.354 N 
ATOM     61  N   UNL A   1      43.590  29.870  28.551  1.00  0.00    -0.248 NA
ATOM     62  C   UNL A   1      42.185  31.422  29.440  1.00  0.00     0.031 C 
ATOM     63  C   UNL A   1      47.816  30.491  27.523  1.00  0.00     0.029 A 
ATOM     64  C   UNL A   1      46.468  30.264  27.859  1.00  0.00     0.049 A 
ATOM     65  H   UNL A   1      45.306  28.508  27.708  1.00  0.00     0.167 HD
ATOM     66  C   UNL A   1      44.282  31.000  28.704  1.00  0.00     0.074 A 
ATOM     67  C   UNL A   1      43.390  32.013  29.285  1.00  0.00     0.031 C 
ATOM     68  C   UNL A   1      45.620  31.230  28.379  1.00  0.00     0.034 A 
BRANCH  55  69
ATOM     69  C   UNL A   1      48.858  26.596  26.212  1.00  0.00     0.023 A 
ATOM     70  C   UNL A   1      49.848  26.331  27.145  1.00  0.00     0.031 A 
ATOM     71  C   UNL A   1      49.098  26.509  24.910  1.00  0.00     0.131 A 
ATOM     72  C   UNL A   1      51.150  26.263  26.594  1.00  0.00     0.055 A 
ATOM     73  C   UNL A   1      50.376  26.306  24.445  1.00  0.00     0.041 A 
ATOM     74  F   UNL A   1      48.094  26.622  24.045  1.00  0.00    -0.206 F 
ATOM     75  C   UNL A   1      51.413  26.097  25.311  1.00  0.00     0.022 A 
BRANCH  72  76
ATOM     76  S   UNL A   1      52.552  26.415  27.729  1.00  0.00     0.124 S 
ATOM     77  O   UNL A   1      53.719  25.568  27.215  1.00  0.00    -0.237 OA
ATOM     78  O   UNL A   1      52.985  27.882  27.813  1.00  0.00    -0.237 OA
ATOM     79  O   UNL A   1      52.091  25.867  29.281  1.00  0.00    -0.744 OA
ENDBRANCH  72  76
ENDBRANCH  55  69
BRANCH  56  80
ATOM     80  C   UNL A   1      39.922  29.542  29.416  1.00  0.00     0.023 A 
ATOM     81  C   UNL A   1      39.687  29.742  30.766  1.00  0.00     0.031 A 
ATOM     82  C   UNL A   1      38.976  29.765  28.511  1.00  0.00     0.131 A 
ATOM     83  C   UNL A   1      38.320  29.904  31.092  1.00  0.00     0.055 A 
ATOM     84  C   UNL A   1      37.690  30.052  28.900  1.00  0.00     0.041 A 
ATOM     85  F   UNL A   1      39.276  29.709  27.216  1.00  0.00    -0.206 F 
ATOM     86  C   UNL A   1      37.373  30.205  30.222  1.00  0.00     0.022 A 
BRANCH  83  87
ATOM     87  S   UNL A   1      37.834  29.683  32.821  1.00  0.00     0.124 S 
ATOM     88  O   UNL A   1      36.761  30.712  33.185  1.00  0.00    -0.237 OA
ATOM     89  O   UNL A   1      37.276  28.272  33.019  1.00  0.00    -0.237 OA
ATOM     90  O   UNL A   1      39.198  29.903  33.829  1.00  0.00    -0.744 OA
ENDBRANCH  83  87
ENDBRANCH  56  80
BRANCH  68  91
ATOM     91  C   UNL A   1      46.181  32.624  28.609  1.00  0.00     0.023 A 
ATOM     92  C   UNL A   1      46.168  33.564  27.592  1.00  0.00     0.031 A 
ATOM     93  C   UNL A   1      46.700  32.904  29.799  1.00  0.00     0.131 A 
ATOM     94  C   UNL A   1      46.992  34.687  27.839  1.00  0.00     0.055 A 
ATOM     95  C   UNL A   1      47.375  34.082  30.008  1.00  0.00     0.041 A 
ATOM     96  F   UNL A   1      46.563  32.037  30.798  1.00  0.00    -0.206 F 
ATOM     97  C   UNL A   1      47.453  35.032  29.028  1.00  0.00     0.022 A 
BRANCH  94  98
ATOM     98  S   UNL A   1      47.447  35.725  26.427  1.00  0.00     0.124 S 
ATOM     99  O   UNL A   1      47.664  34.843  25.196  1.00  0.00    -0.237 OA
ATOM    100  O   UNL A   1      46.324  36.726  26.147  1.00  0.00    -0.237 OA
ATOM    101  O   UNL A   1      48.889  36.571  26.783  1.00  0.00    -0.744 OA
ENDBRANCH  94  98
ENDBRANCH  68  91
ENDBRANCH  42  43
ENDBRANCH  34  37
ENDBRANCH  32  33
ENDBRANCH  31  32
ENDBRANCH   1  31
TORSDOF 19
ENDMDL
