MODEL 1
REMARK VINA RESULT:     -12.5      0.000      0.000
REMARK SMILES O=C(NCCCCNC(=O)[C@@]1(CCc2ccccc2)CCC[N@@H+](Cc2cccnc2)C1)c1ccc(-c2c3nc(c(-c4cc(S(=O)(=O)[O-])ccc4F)c4ccc([nH]4)c(-c4cc(S(=O)(=O)[O-])ccc4F)c4nc(c(-c5cc(S(=O)(=O)[O-])ccc5F)c5ccc2[nH]5)C=C4)C=C3)cc1
REMARK SMILES IDX 5 1 4 2 3 3 1 4 2 5 32 7 33 8 94 9 34 10 93 11 35 12 36 13
REMARK SMILES IDX 37 14 87 15 38 16 92 17 86 18 88 19 39 20 91 21 85 22 84 23
REMARK SMILES IDX 40 25 72 26 52 27 71 28 53 29 56 30 70 31 89 32 54 33 55 34
REMARK SMILES IDX 69 36 90 37 57 38 41 39 42 40 50 41 43 42 49 43 51 44 48 45
REMARK SMILES IDX 44 46 45 47 46 48 47 49 73 50 74 51 82 52 75 53 81 54 83 55
REMARK SMILES IDX 80 56 76 57 77 58 78 59 79 60 58 61 59 62 67 63 60 64 66 65
REMARK SMILES IDX 68 66 65 67 61 68 62 69 63 70 64 71 6 72 7 73 8 74 9 75
REMARK SMILES IDX 10 77 11 78 20 79 31 80 21 81 23 82 22 83 12 85 13 86 14 87
REMARK SMILES IDX 15 88 19 89 16 90 18 91 17 92 24 93 25 94 26 95 30 96 27 97
REMARK SMILES IDX 29 98 28 99
REMARK H PARENT 3 6 88 24 56 35 8 76 23 84
REMARK Flexibility Score: inf
ROOT
ATOM      1  C   UNL A   1      31.552  31.494  26.394  1.00  0.00     0.023 C 
ENDROOT
BRANCH   1   2
ATOM      2  C   UNL A   1      32.734  32.126  27.090  1.00  0.00     0.116 C 
BRANCH   2   3
ATOM      3  N   UNL A   1      32.501  33.511  27.462  1.00  0.00    -0.352 N 
ATOM      4  O   UNL A   1      32.726  35.385  28.692  1.00  0.00    -0.269 OA
ATOM      5  C   UNL A   1      33.143  34.263  28.416  1.00  0.00     0.251 C 
ATOM      6  H   UNL A   1      31.787  33.972  26.965  1.00  0.00     0.163 HD
BRANCH   5   7
ATOM      7  C   UNL A   1      34.320  33.704  29.117  1.00  0.00     0.039 A 
ATOM      8  C   UNL A   1      34.163  32.722  30.097  1.00  0.00     0.014 A 
ATOM      9  C   UNL A   1      35.597  34.171  28.791  1.00  0.00     0.014 A 
ATOM     10  C   UNL A   1      35.253  32.311  30.848  1.00  0.00     0.010 A 
ATOM     11  C   UNL A   1      36.710  33.671  29.471  1.00  0.00     0.010 A 
ATOM     12  C   UNL A   1      36.544  32.746  30.513  1.00  0.00    -0.014 A 
BRANCH  12  13
ATOM     13  C   UNL A   1      37.705  32.128  31.198  1.00  0.00     0.031 A 
ATOM     14  C   UNL A   1      38.486  31.016  30.563  1.00  0.00     0.074 A 
ATOM     15  C   UNL A   1      38.056  32.614  32.406  1.00  0.00     0.049 A 
ATOM     16  N   UNL A   1      39.509  30.354  31.039  1.00  0.00    -0.248 NA
ATOM     17  C   UNL A   1      38.059  30.583  29.224  1.00  0.00     0.031 C 
ATOM     18  C   UNL A   1      37.362  33.700  33.107  1.00  0.00     0.029 A 
ATOM     19  N   UNL A   1      39.086  32.286  33.246  1.00  0.00    -0.354 N 
ATOM     20  C   UNL A   1      39.842  29.414  30.070  1.00  0.00     0.074 A 
ATOM     21  C   UNL A   1      38.889  29.575  28.990  1.00  0.00     0.031 C 
ATOM     22  C   UNL A   1      38.018  33.986  34.239  1.00  0.00     0.029 A 
ATOM     23  C   UNL A   1      39.122  33.048  34.391  1.00  0.00     0.049 A 
ATOM     24  H   UNL A   1      39.737  31.575  33.051  1.00  0.00     0.167 HD
ATOM     25  C   UNL A   1      40.852  28.509  30.086  1.00  0.00     0.034 A 
ATOM     26  C   UNL A   1      39.933  32.981  35.462  1.00  0.00     0.034 A 
ATOM     27  C   UNL A   1      41.784  28.369  31.181  1.00  0.00     0.049 A 
ATOM     28  C   UNL A   1      41.008  31.932  35.477  1.00  0.00     0.074 A 
ATOM     29  C   UNL A   1      42.849  27.492  31.303  1.00  0.00     0.029 A 
ATOM     30  N   UNL A   1      41.758  29.120  32.351  1.00  0.00    -0.354 N 
ATOM     31  N   UNL A   1      41.302  31.042  34.557  1.00  0.00    -0.248 NA
ATOM     32  C   UNL A   1      41.854  31.874  36.672  1.00  0.00     0.031 C 
ATOM     33  C   UNL A   1      43.423  27.669  32.568  1.00  0.00     0.029 A 
ATOM     34  C   UNL A   1      42.768  28.708  33.210  1.00  0.00     0.049 A 
ATOM     35  H   UNL A   1      41.115  29.841  32.543  1.00  0.00     0.167 HD
ATOM     36  C   UNL A   1      42.382  30.327  35.058  1.00  0.00     0.074 A 
ATOM     37  C   UNL A   1      42.699  30.906  36.349  1.00  0.00     0.031 C 
ATOM     38  C   UNL A   1      43.052  29.284  34.503  1.00  0.00     0.034 A 
BRANCH  25  39
ATOM     39  C   UNL A   1      40.965  27.570  28.907  1.00  0.00     0.023 A 
ATOM     40  C   UNL A   1      41.958  27.727  27.924  1.00  0.00     0.031 A 
ATOM     41  C   UNL A   1      40.049  26.512  28.751  1.00  0.00     0.131 A 
ATOM     42  C   UNL A   1      41.973  26.884  26.801  1.00  0.00     0.055 A 
ATOM     43  C   UNL A   1      40.116  25.631  27.670  1.00  0.00     0.041 A 
ATOM     44  F   UNL A   1      39.064  26.324  29.644  1.00  0.00    -0.206 F 
ATOM     45  C   UNL A   1      41.074  25.823  26.679  1.00  0.00     0.022 A 
BRANCH  42  46
ATOM     46  S   UNL A   1      43.100  27.280  25.434  1.00  0.00     0.124 S 
ATOM     47  O   UNL A   1      43.295  25.968  24.821  1.00  0.00    -0.237 OA
ATOM     48  O   UNL A   1      42.326  28.240  24.655  1.00  0.00    -0.237 OA
ATOM     49  O   UNL A   1      44.277  27.826  26.106  1.00  0.00    -0.744 OA
ENDBRANCH  42  46
ENDBRANCH  25  39
BRANCH  26  50
ATOM     50  C   UNL A   1      39.730  33.903  36.615  1.00  0.00     0.023 A 
ATOM     51  C   UNL A   1      39.209  33.438  37.831  1.00  0.00     0.031 A 
ATOM     52  C   UNL A   1      40.047  35.271  36.509  1.00  0.00     0.131 A 
ATOM     53  C   UNL A   1      38.990  34.339  38.884  1.00  0.00     0.055 A 
ATOM     54  C   UNL A   1      39.878  36.152  37.578  1.00  0.00     0.041 A 
ATOM     55  F   UNL A   1      40.553  35.766  35.369  1.00  0.00    -0.206 F 
ATOM     56  C   UNL A   1      39.334  35.689  38.771  1.00  0.00     0.022 A 
BRANCH  53  57
ATOM     57  S   UNL A   1      38.174  33.733  40.386  1.00  0.00     0.124 S 
ATOM     58  O   UNL A   1      39.161  32.790  40.900  1.00  0.00    -0.237 OA
ATOM     59  O   UNL A   1      38.001  34.962  41.152  1.00  0.00    -0.237 OA
ATOM     60  O   UNL A   1      36.940  33.134  39.883  1.00  0.00    -0.744 OA
ENDBRANCH  53  57
ENDBRANCH  26  50
BRANCH  38  61
ATOM     61  C   UNL A   1      44.216  28.739  35.292  1.00  0.00     0.023 A 
ATOM     62  C   UNL A   1      44.049  27.711  36.236  1.00  0.00     0.031 A 
ATOM     63  C   UNL A   1      45.502  29.279  35.119  1.00  0.00     0.131 A 
ATOM     64  C   UNL A   1      45.138  27.297  37.016  1.00  0.00     0.055 A 
ATOM     65  C   UNL A   1      46.595  28.821  35.855  1.00  0.00     0.041 A 
ATOM     66  F   UNL A   1      45.715  30.266  34.234  1.00  0.00    -0.206 F 
ATOM     67  C   UNL A   1      46.414  27.833  36.820  1.00  0.00     0.022 A 
BRANCH  64  68
ATOM     68  S   UNL A   1      44.847  26.113  38.359  1.00  0.00     0.124 S 
ATOM     69  O   UNL A   1      46.053  26.271  39.167  1.00  0.00    -0.237 OA
ATOM     70  O   UNL A   1      43.611  26.612  38.953  1.00  0.00    -0.237 OA
ATOM     71  O   UNL A   1      44.729  24.831  37.667  1.00  0.00    -0.744 OA
ENDBRANCH  64  68
ENDBRANCH  38  61
ENDBRANCH  12  13
ENDBRANCH   5   7
ENDBRANCH   2   3
ENDBRANCH   1   2
BRANCH   1  72
ATOM     72  C   UNL A   1      31.628  29.982  26.241  1.00  0.00     0.023 C 
BRANCH  72  73
ATOM     73  C   UNL A   1      33.032  29.375  26.098  1.00  0.00     0.116 C 
BRANCH  73  74
ATOM     74  N   UNL A   1      33.606  29.444  24.764  1.00  0.00    -0.355 N 
ATOM     75  C   UNL A   1      33.656  28.591  23.703  1.00  0.00     0.231 C 
ATOM     76  H   UNL A   1      34.061  30.299  24.588  1.00  0.00     0.163 HD
ATOM     77  O   UNL A   1      34.187  29.051  22.683  1.00  0.00    -0.274 OA
BRANCH  75  78
ATOM     78  C   UNL A   1      33.053  27.172  23.693  1.00  0.00     0.098 C 
ATOM     79  C   UNL A   1      33.284  26.673  22.233  1.00  0.00     0.028 C 
ATOM     80  C   UNL A   1      33.878  26.248  24.630  1.00  0.00     0.279 C 
ATOM     81  C   UNL A   1      33.148  25.157  22.051  1.00  0.00     0.063 C 
ATOM     82  N   UNL A   1      33.420  24.859  24.455  1.00  0.00    -0.330 N 
ATOM     83  C   UNL A   1      33.839  24.350  23.153  1.00  0.00     0.262 C 
ATOM     84  H   UNL A   1      32.400  24.872  24.452  1.00  0.00     0.348 HD
BRANCH  78  85
ATOM     85  C   UNL A   1      31.562  27.070  24.115  1.00  0.00     0.027 C 
BRANCH  85  86
ATOM     86  C   UNL A   1      30.405  27.323  23.100  1.00  0.00     0.037 C 
BRANCH  86  87
ATOM     87  C   UNL A   1      29.400  28.461  23.066  1.00  0.00    -0.048 A 
ATOM     88  C   UNL A   1      28.020  28.360  23.214  1.00  0.00     0.004 A 
ATOM     89  C   UNL A   1      29.903  29.757  22.829  1.00  0.00     0.004 A 
ATOM     90  C   UNL A   1      27.170  29.470  23.144  1.00  0.00     0.000 A 
ATOM     91  C   UNL A   1      29.062  30.876  22.755  1.00  0.00     0.000 A 
ATOM     92  C   UNL A   1      27.691  30.733  22.916  1.00  0.00     0.000 A 
ENDBRANCH  86  87
ENDBRANCH  85  86
ENDBRANCH  78  85
BRANCH  82  93
ATOM     93  C   UNL A   1      33.679  23.975  25.589  1.00  0.00     0.300 C 
BRANCH  93  94
ATOM     94  C   UNL A   1      33.463  22.507  25.367  1.00  0.00     0.025 A 
ATOM     95  C   UNL A   1      34.536  21.632  25.176  1.00  0.00     0.013 A 
ATOM     96  C   UNL A   1      32.185  21.962  25.359  1.00  0.00     0.120 A 
ATOM     97  C   UNL A   1      34.296  20.280  24.964  1.00  0.00     0.021 A 
ATOM     98  N   UNL A   1      31.917  20.650  25.167  1.00  0.00    -0.264 NA
ATOM     99  C   UNL A   1      32.982  19.842  24.966  1.00  0.00     0.111 A 
ENDBRANCH  93  94
ENDBRANCH  82  93
ENDBRANCH  75  78
ENDBRANCH  73  74
ENDBRANCH  72  73
ENDBRANCH   1  72
TORSDOF 19
ENDMDL
MODEL 2
REMARK VINA RESULT:     -12.4      1.428      7.541
REMARK SMILES O=C(NCCCCNC(=O)[C@@]1(CCc2ccccc2)CCC[N@@H+](Cc2cccnc2)C1)c1ccc(-c2c3nc(c(-c4cc(S(=O)(=O)[O-])ccc4F)c4ccc([nH]4)c(-c4cc(S(=O)(=O)[O-])ccc4F)c4nc(c(-c5cc(S(=O)(=O)[O-])ccc5F)c5ccc2[nH]5)C=C4)C=C3)cc1
REMARK SMILES IDX 5 1 4 2 3 3 1 4 2 5 32 7 33 8 94 9 34 10 93 11 35 12 36 13
REMARK SMILES IDX 37 14 87 15 38 16 92 17 86 18 88 19 39 20 91 21 85 22 84 23
REMARK SMILES IDX 40 25 72 26 52 27 71 28 53 29 56 30 70 31 89 32 54 33 55 34
REMARK SMILES IDX 69 36 90 37 57 38 41 39 42 40 50 41 43 42 49 43 51 44 48 45
REMARK SMILES IDX 44 46 45 47 46 48 47 49 73 50 74 51 82 52 75 53 81 54 83 55
REMARK SMILES IDX 80 56 76 57 77 58 78 59 79 60 58 61 59 62 67 63 60 64 66 65
REMARK SMILES IDX 68 66 65 67 61 68 62 69 63 70 64 71 6 72 7 73 8 74 9 75
REMARK SMILES IDX 10 77 11 78 20 79 31 80 21 81 23 82 22 83 12 85 13 86 14 87
REMARK SMILES IDX 15 88 19 89 16 90 18 91 17 92 24 93 25 94 26 95 30 96 27 97
REMARK SMILES IDX 29 98 28 99
REMARK H PARENT 3 6 88 24 56 35 8 76 23 84
REMARK Flexibility Score: inf
ROOT
ATOM      1  C   UNL A   1      31.291  31.700  26.588  1.00  0.00     0.023 C 
ENDROOT
BRANCH   1   2
ATOM      2  C   UNL A   1      32.626  32.319  26.923  1.00  0.00     0.116 C 
BRANCH   2   3
ATOM      3  N   UNL A   1      32.516  33.690  27.393  1.00  0.00    -0.352 N 
ATOM      4  O   UNL A   1      32.923  35.453  28.735  1.00  0.00    -0.269 OA
ATOM      5  C   UNL A   1      33.240  34.322  28.374  1.00  0.00     0.251 C 
ATOM      6  H   UNL A   1      31.829  34.239  26.949  1.00  0.00     0.163 HD
BRANCH   5   7
ATOM      7  C   UNL A   1      34.386  33.627  29.000  1.00  0.00     0.039 A 
ATOM      8  C   UNL A   1      35.697  33.994  28.689  1.00  0.00     0.014 A 
ATOM      9  C   UNL A   1      34.145  32.592  29.910  1.00  0.00     0.014 A 
ATOM     10  C   UNL A   1      36.759  33.244  29.168  1.00  0.00     0.010 A 
ATOM     11  C   UNL A   1      35.221  31.910  30.482  1.00  0.00     0.010 A 
ATOM     12  C   UNL A   1      36.537  32.223  30.104  1.00  0.00    -0.014 A 
BRANCH  12  13
ATOM     13  C   UNL A   1      37.706  31.582  30.752  1.00  0.00     0.031 A 
ATOM     14  C   UNL A   1      38.100  31.917  32.161  1.00  0.00     0.074 A 
ATOM     15  C   UNL A   1      38.395  30.666  30.043  1.00  0.00     0.049 A 
ATOM     16  N   UNL A   1      39.108  31.464  32.862  1.00  0.00    -0.248 NA
ATOM     17  C   UNL A   1      37.261  32.892  32.872  1.00  0.00     0.031 C 
ATOM     18  C   UNL A   1      38.088  30.267  28.665  1.00  0.00     0.029 A 
ATOM     19  N   UNL A   1      39.472  29.889  30.378  1.00  0.00    -0.354 N 
ATOM     20  C   UNL A   1      39.038  32.108  34.091  1.00  0.00     0.074 A 
ATOM     21  C   UNL A   1      37.904  33.007  34.027  1.00  0.00     0.031 C 
ATOM     22  C   UNL A   1      38.916  29.281  28.296  1.00  0.00     0.029 A 
ATOM     23  C   UNL A   1      39.870  29.041  29.370  1.00  0.00     0.049 A 
ATOM     24  H   UNL A   1      39.918  29.932  31.254  1.00  0.00     0.167 HD
ATOM     25  C   UNL A   1      39.848  31.956  35.170  1.00  0.00     0.034 A 
ATOM     26  C   UNL A   1      40.907  28.187  29.302  1.00  0.00     0.034 A 
ATOM     27  C   UNL A   1      40.976  31.054  35.201  1.00  0.00     0.049 A 
ATOM     28  C   UNL A   1      41.819  28.079  30.491  1.00  0.00     0.074 A 
ATOM     29  C   UNL A   1      41.860  30.812  36.239  1.00  0.00     0.029 A 
ATOM     30  N   UNL A   1      41.385  30.250  34.143  1.00  0.00    -0.354 N 
ATOM     31  N   UNL A   1      41.747  28.705  31.643  1.00  0.00    -0.248 NA
ATOM     32  C   UNL A   1      42.951  27.157  30.369  1.00  0.00     0.031 C 
ATOM     33  C   UNL A   1      42.837  29.915  35.788  1.00  0.00     0.029 A 
ATOM     34  C   UNL A   1      42.522  29.535  34.493  1.00  0.00     0.049 A 
ATOM     35  H   UNL A   1      40.932  30.196  33.270  1.00  0.00     0.167 HD
ATOM     36  C   UNL A   1      42.820  28.238  32.392  1.00  0.00     0.074 A 
ATOM     37  C   UNL A   1      43.506  27.262  31.568  1.00  0.00     0.031 C 
ATOM     38  C   UNL A   1      43.204  28.583  33.647  1.00  0.00     0.034 A 
BRANCH  25  39
ATOM     39  C   UNL A   1      39.569  32.819  36.378  1.00  0.00     0.023 A 
ATOM     40  C   UNL A   1      38.789  32.360  37.455  1.00  0.00     0.031 A 
ATOM     41  C   UNL A   1      40.073  34.131  36.445  1.00  0.00     0.131 A 
ATOM     42  C   UNL A   1      38.483  33.226  38.519  1.00  0.00     0.055 A 
ATOM     43  C   UNL A   1      39.828  34.961  37.541  1.00  0.00     0.041 A 
ATOM     44  F   UNL A   1      40.805  34.634  35.439  1.00  0.00    -0.206 F 
ATOM     45  C   UNL A   1      39.016  34.514  38.581  1.00  0.00     0.022 A 
BRANCH  42  46
ATOM     46  S   UNL A   1      37.267  32.687  39.753  1.00  0.00     0.124 S 
ATOM     47  O   UNL A   1      36.042  32.634  38.959  1.00  0.00    -0.237 OA
ATOM     48  O   UNL A   1      37.804  31.403  40.186  1.00  0.00    -0.237 OA
ATOM     49  O   UNL A   1      37.303  33.750  40.756  1.00  0.00    -0.744 OA
ENDBRANCH  42  46
ENDBRANCH  25  39
BRANCH  26  50
ATOM     50  C   UNL A   1      41.155  27.406  28.058  1.00  0.00     0.023 A 
ATOM     51  C   UNL A   1      40.888  26.031  28.001  1.00  0.00     0.031 A 
ATOM     52  C   UNL A   1      41.674  28.029  26.906  1.00  0.00     0.131 A 
ATOM     53  C   UNL A   1      41.171  25.315  26.828  1.00  0.00     0.055 A 
ATOM     54  C   UNL A   1      41.902  27.322  25.725  1.00  0.00     0.041 A 
ATOM     55  F   UNL A   1      41.941  29.344  26.907  1.00  0.00    -0.206 F 
ATOM     56  C   UNL A   1      41.661  25.953  25.686  1.00  0.00     0.022 A 
BRANCH  53  57
ATOM     57  S   UNL A   1      40.958  23.514  26.840  1.00  0.00     0.124 S 
ATOM     58  O   UNL A   1      41.891  23.097  25.798  1.00  0.00    -0.237 OA
ATOM     59  O   UNL A   1      41.329  23.175  28.208  1.00  0.00    -0.237 OA
ATOM     60  O   UNL A   1      39.543  23.338  26.517  1.00  0.00    -0.744 OA
ENDBRANCH  53  57
ENDBRANCH  26  50
BRANCH  38  61
ATOM     61  C   UNL A   1      44.408  27.864  34.202  1.00  0.00     0.023 A 
ATOM     62  C   UNL A   1      44.283  26.657  34.911  1.00  0.00     0.031 A 
ATOM     63  C   UNL A   1      45.693  28.414  34.047  1.00  0.00     0.131 A 
ATOM     64  C   UNL A   1      45.416  26.070  35.492  1.00  0.00     0.055 A 
ATOM     65  C   UNL A   1      46.824  27.792  34.574  1.00  0.00     0.041 A 
ATOM     66  F   UNL A   1      45.866  29.567  33.382  1.00  0.00    -0.206 F 
ATOM     67  C   UNL A   1      46.689  26.620  35.314  1.00  0.00     0.022 A 
BRANCH  64  68
ATOM     68  S   UNL A   1      45.194  24.625  36.566  1.00  0.00     0.124 S 
ATOM     69  O   UNL A   1      44.520  25.209  37.722  1.00  0.00    -0.237 OA
ATOM     70  O   UNL A   1      44.384  23.739  35.736  1.00  0.00    -0.237 OA
ATOM     71  O   UNL A   1      46.560  24.167  36.812  1.00  0.00    -0.744 OA
ENDBRANCH  64  68
ENDBRANCH  38  61
ENDBRANCH  12  13
ENDBRANCH   5   7
ENDBRANCH   2   3
ENDBRANCH   1   2
BRANCH   1  72
ATOM     72  C   UNL A   1      31.344  30.565  25.575  1.00  0.00     0.023 C 
BRANCH  72  73
ATOM     73  C   UNL A   1      32.546  29.614  25.670  1.00  0.00     0.116 C 
BRANCH  73  74
ATOM     74  N   UNL A   1      33.382  29.547  24.482  1.00  0.00    -0.355 N 
ATOM     75  C   UNL A   1      33.622  28.594  23.539  1.00  0.00     0.231 C 
ATOM     76  H   UNL A   1      33.887  30.378  24.323  1.00  0.00     0.163 HD
ATOM     77  O   UNL A   1      34.363  28.948  22.612  1.00  0.00    -0.274 OA
BRANCH  75  78
ATOM     78  C   UNL A   1      32.995  27.186  23.539  1.00  0.00     0.098 C 
ATOM     79  C   UNL A   1      33.323  26.625  22.121  1.00  0.00     0.028 C 
ATOM     80  C   UNL A   1      33.732  26.287  24.569  1.00  0.00     0.279 C 
ATOM     81  C   UNL A   1      33.172  25.106  21.988  1.00  0.00     0.063 C 
ATOM     82  N   UNL A   1      33.261  24.899  24.415  1.00  0.00    -0.330 N 
ATOM     83  C   UNL A   1      33.765  24.332  23.168  1.00  0.00     0.262 C 
ATOM     84  H   UNL A   1      32.245  24.929  24.336  1.00  0.00     0.348 HD
BRANCH  78  85
ATOM     85  C   UNL A   1      31.475  27.124  23.854  1.00  0.00     0.027 C 
BRANCH  85  86
ATOM     86  C   UNL A   1      30.402  27.454  22.772  1.00  0.00     0.037 C 
BRANCH  86  87
ATOM     87  C   UNL A   1      29.550  28.703  22.625  1.00  0.00    -0.048 A 
ATOM     88  C   UNL A   1      29.936  29.911  22.053  1.00  0.00     0.004 A 
ATOM     89  C   UNL A   1      28.242  28.655  23.147  1.00  0.00     0.004 A 
ATOM     90  C   UNL A   1      29.082  31.020  21.985  1.00  0.00     0.000 A 
ATOM     91  C   UNL A   1      27.379  29.758  23.086  1.00  0.00     0.000 A 
ATOM     92  C   UNL A   1      27.800  30.944  22.500  1.00  0.00     0.000 A 
ENDBRANCH  86  87
ENDBRANCH  85  86
ENDBRANCH  78  85
BRANCH  82  93
ATOM     93  C   UNL A   1      33.420  24.057  25.599  1.00  0.00     0.300 C 
BRANCH  93  94
ATOM     94  C   UNL A   1      33.311  22.574  25.395  1.00  0.00     0.025 A 
ATOM     95  C   UNL A   1      34.446  21.767  25.281  1.00  0.00     0.013 A 
ATOM     96  C   UNL A   1      32.072  21.949  25.327  1.00  0.00     0.120 A 
ATOM     97  C   UNL A   1      34.303  20.399  25.083  1.00  0.00     0.021 A 
ATOM     98  N   UNL A   1      31.899  20.619  25.148  1.00  0.00    -0.264 NA
ATOM     99  C   UNL A   1      33.023  19.878  25.022  1.00  0.00     0.111 A 
ENDBRANCH  93  94
ENDBRANCH  82  93
ENDBRANCH  75  78
ENDBRANCH  73  74
ENDBRANCH  72  73
ENDBRANCH   1  72
TORSDOF 19
ENDMDL
MODEL 3
REMARK VINA RESULT:     -12.4      1.682      3.096
REMARK SMILES O=C(NCCCCNC(=O)[C@@]1(CCc2ccccc2)CCC[N@@H+](Cc2cccnc2)C1)c1ccc(-c2c3nc(c(-c4cc(S(=O)(=O)[O-])ccc4F)c4ccc([nH]4)c(-c4cc(S(=O)(=O)[O-])ccc4F)c4nc(c(-c5cc(S(=O)(=O)[O-])ccc5F)c5ccc2[nH]5)C=C4)C=C3)cc1
REMARK SMILES IDX 5 1 4 2 3 3 1 4 2 5 32 7 33 8 94 9 34 10 93 11 35 12 36 13
REMARK SMILES IDX 37 14 87 15 38 16 92 17 86 18 88 19 39 20 91 21 85 22 84 23
REMARK SMILES IDX 40 25 72 26 52 27 71 28 53 29 56 30 70 31 89 32 54 33 55 34
REMARK SMILES IDX 69 36 90 37 57 38 41 39 42 40 50 41 43 42 49 43 51 44 48 45
REMARK SMILES IDX 44 46 45 47 46 48 47 49 73 50 74 51 82 52 75 53 81 54 83 55
REMARK SMILES IDX 80 56 76 57 77 58 78 59 79 60 58 61 59 62 67 63 60 64 66 65
REMARK SMILES IDX 68 66 65 67 61 68 62 69 63 70 64 71 6 72 7 73 8 74 9 75
REMARK SMILES IDX 10 77 11 78 20 79 31 80 21 81 23 82 22 83 12 85 13 86 14 87
REMARK SMILES IDX 15 88 19 89 16 90 18 91 17 92 24 93 25 94 26 95 30 96 27 97
REMARK SMILES IDX 29 98 28 99
REMARK H PARENT 3 6 88 24 56 35 8 76 23 84
REMARK Flexibility Score: inf
ROOT
ATOM      1  C   UNL A   1      31.685  31.893  26.713  1.00  0.00     0.023 C 
ENDROOT
BRANCH   1   2
ATOM      2  C   UNL A   1      32.913  32.601  27.234  1.00  0.00     0.116 C 
BRANCH   2   3
ATOM      3  N   UNL A   1      32.627  33.929  27.751  1.00  0.00    -0.352 N 
ATOM      4  O   UNL A   1      32.752  35.655  29.193  1.00  0.00    -0.269 OA
ATOM      5  C   UNL A   1      33.211  34.582  28.809  1.00  0.00     0.251 C 
ATOM      6  H   UNL A   1      31.919  34.427  27.280  1.00  0.00     0.163 HD
BRANCH   5   7
ATOM      7  C   UNL A   1      34.376  33.976  29.490  1.00  0.00     0.039 A 
ATOM      8  C   UNL A   1      34.194  33.049  30.519  1.00  0.00     0.014 A 
ATOM      9  C   UNL A   1      35.666  34.341  29.096  1.00  0.00     0.014 A 
ATOM     10  C   UNL A   1      35.284  32.598  31.245  1.00  0.00     0.010 A 
ATOM     11  C   UNL A   1      36.771  33.797  29.755  1.00  0.00     0.010 A 
ATOM     12  C   UNL A   1      36.587  32.930  30.844  1.00  0.00    -0.014 A 
BRANCH  12  13
ATOM     13  C   UNL A   1      37.731  32.265  31.512  1.00  0.00     0.031 A 
ATOM     14  C   UNL A   1      38.476  31.142  30.852  1.00  0.00     0.074 A 
ATOM     15  C   UNL A   1      38.101  32.717  32.726  1.00  0.00     0.049 A 
ATOM     16  N   UNL A   1      39.480  30.440  31.311  1.00  0.00    -0.248 NA
ATOM     17  C   UNL A   1      38.031  30.747  29.507  1.00  0.00     0.031 C 
ATOM     18  C   UNL A   1      37.443  33.810  33.451  1.00  0.00     0.029 A 
ATOM     19  N   UNL A   1      39.125  32.343  33.556  1.00  0.00    -0.354 N 
ATOM     20  C   UNL A   1      39.781  29.510  30.324  1.00  0.00     0.074 A 
ATOM     21  C   UNL A   1      38.829  29.719  29.251  1.00  0.00     0.031 C 
ATOM     22  C   UNL A   1      38.113  34.055  34.585  1.00  0.00     0.029 A 
ATOM     23  C   UNL A   1      39.188  33.082  34.714  1.00  0.00     0.049 A 
ATOM     24  H   UNL A   1      39.753  31.617  33.344  1.00  0.00     0.167 HD
ATOM     25  C   UNL A   1      40.764  28.574  30.318  1.00  0.00     0.034 A 
ATOM     26  C   UNL A   1      40.001  32.970  35.781  1.00  0.00     0.034 A 
ATOM     27  C   UNL A   1      41.695  28.386  31.406  1.00  0.00     0.049 A 
ATOM     28  C   UNL A   1      41.044  31.889  35.771  1.00  0.00     0.074 A 
ATOM     29  C   UNL A   1      42.734  27.476  31.507  1.00  0.00     0.029 A 
ATOM     30  N   UNL A   1      41.696  29.116  32.590  1.00  0.00    -0.354 N 
ATOM     31  N   UNL A   1      41.308  31.009  34.833  1.00  0.00    -0.248 NA
ATOM     32  C   UNL A   1      41.893  31.784  36.961  1.00  0.00     0.031 C 
ATOM     33  C   UNL A   1      43.318  27.611  32.773  1.00  0.00     0.029 A 
ATOM     34  C   UNL A   1      42.697  28.657  33.436  1.00  0.00     0.049 A 
ATOM     35  H   UNL A   1      41.076  29.852  32.798  1.00  0.00     0.167 HD
ATOM     36  C   UNL A   1      42.368  30.252  35.316  1.00  0.00     0.074 A 
ATOM     37  C   UNL A   1      42.707  30.797  36.616  1.00  0.00     0.031 C 
ATOM     38  C   UNL A   1      43.004  29.201  34.739  1.00  0.00     0.034 A 
BRANCH  25  39
ATOM     39  C   UNL A   1      40.843  27.654  29.121  1.00  0.00     0.023 A 
ATOM     40  C   UNL A   1      41.788  27.847  28.098  1.00  0.00     0.031 A 
ATOM     41  C   UNL A   1      39.945  26.579  28.991  1.00  0.00     0.131 A 
ATOM     42  C   UNL A   1      41.770  27.021  26.962  1.00  0.00     0.055 A 
ATOM     43  C   UNL A   1      39.982  25.714  27.896  1.00  0.00     0.041 A 
ATOM     44  F   UNL A   1      39.006  26.356  29.924  1.00  0.00    -0.206 F 
ATOM     45  C   UNL A   1      40.890  25.941  26.865  1.00  0.00     0.022 A 
BRANCH  42  46
ATOM     46  S   UNL A   1      42.825  27.461  25.552  1.00  0.00     0.124 S 
ATOM     47  O   UNL A   1      44.145  27.515  26.174  1.00  0.00    -0.237 OA
ATOM     48  O   UNL A   1      42.598  26.353  24.631  1.00  0.00    -0.237 OA
ATOM     49  O   UNL A   1      42.296  28.752  25.118  1.00  0.00    -0.744 OA
ENDBRANCH  42  46
ENDBRANCH  25  39
BRANCH  26  50
ATOM     50  C   UNL A   1      39.831  33.877  36.951  1.00  0.00     0.023 A 
ATOM     51  C   UNL A   1      40.742  34.912  37.203  1.00  0.00     0.031 A 
ATOM     52  C   UNL A   1      38.752  33.712  37.841  1.00  0.00     0.131 A 
ATOM     53  C   UNL A   1      40.579  35.723  38.337  1.00  0.00     0.055 A 
ATOM     54  C   UNL A   1      38.564  34.556  38.936  1.00  0.00     0.041 A 
ATOM     55  F   UNL A   1      37.848  32.740  37.641  1.00  0.00    -0.206 F 
ATOM     56  C   UNL A   1      39.488  35.562  39.196  1.00  0.00     0.022 A 
BRANCH  53  57
ATOM     57  S   UNL A   1      41.859  36.950  38.716  1.00  0.00     0.124 S 
ATOM     58  O   UNL A   1      42.442  37.189  37.400  1.00  0.00    -0.237 OA
ATOM     59  O   UNL A   1      41.073  38.042  39.278  1.00  0.00    -0.237 OA
ATOM     60  O   UNL A   1      42.725  36.254  39.665  1.00  0.00    -0.744 OA
ENDBRANCH  53  57
ENDBRANCH  26  50
BRANCH  38  61
ATOM     61  C   UNL A   1      44.154  28.606  35.512  1.00  0.00     0.023 A 
ATOM     62  C   UNL A   1      43.962  27.555  36.425  1.00  0.00     0.031 A 
ATOM     63  C   UNL A   1      45.453  29.122  35.356  1.00  0.00     0.131 A 
ATOM     64  C   UNL A   1      45.041  27.093  37.193  1.00  0.00     0.055 A 
ATOM     65  C   UNL A   1      46.533  28.617  36.079  1.00  0.00     0.041 A 
ATOM     66  F   UNL A   1      45.689  30.129  34.501  1.00  0.00    -0.206 F 
ATOM     67  C   UNL A   1      46.328  27.606  37.015  1.00  0.00     0.022 A 
BRANCH  64  68
ATOM     68  S   UNL A   1      44.721  25.877  38.501  1.00  0.00     0.124 S 
ATOM     69  O   UNL A   1      46.053  25.328  38.735  1.00  0.00    -0.237 OA
ATOM     70  O   UNL A   1      44.175  26.705  39.571  1.00  0.00    -0.237 OA
ATOM     71  O   UNL A   1      43.770  24.953  37.885  1.00  0.00    -0.744 OA
ENDBRANCH  64  68
ENDBRANCH  38  61
ENDBRANCH  12  13
ENDBRANCH   5   7
ENDBRANCH   2   3
ENDBRANCH   1   2
BRANCH   1  72
ATOM     72  C   UNL A   1      31.775  30.373  26.704  1.00  0.00     0.023 C 
BRANCH  72  73
ATOM     73  C   UNL A   1      33.123  29.767  26.285  1.00  0.00     0.116 C 
BRANCH  73  74
ATOM     74  N   UNL A   1      33.303  29.579  24.855  1.00  0.00    -0.355 N 
ATOM     75  C   UNL A   1      32.991  28.584  23.978  1.00  0.00     0.231 C 
ATOM     76  H   UNL A   1      33.750  30.343  24.423  1.00  0.00     0.163 HD
ATOM     77  O   UNL A   1      33.246  28.830  22.792  1.00  0.00    -0.274 OA
BRANCH  75  78
ATOM     78  C   UNL A   1      32.309  27.257  24.368  1.00  0.00     0.098 C 
ATOM     79  C   UNL A   1      30.824  27.657  24.628  1.00  0.00     0.028 C 
ATOM     80  C   UNL A   1      32.317  26.290  23.153  1.00  0.00     0.279 C 
ATOM     81  C   UNL A   1      29.842  26.481  24.639  1.00  0.00     0.063 C 
ATOM     82  N   UNL A   1      31.489  25.114  23.473  1.00  0.00    -0.330 N 
ATOM     83  C   UNL A   1      30.078  25.484  23.501  1.00  0.00     0.262 C 
ATOM     84  H   UNL A   1      31.735  24.816  24.416  1.00  0.00     0.348 HD
BRANCH  78  85
ATOM     85  C   UNL A   1      32.933  26.508  25.577  1.00  0.00     0.027 C 
BRANCH  85  86
ATOM     86  C   UNL A   1      34.372  25.911  25.516  1.00  0.00     0.037 C 
BRANCH  86  87
ATOM     87  C   UNL A   1      34.796  24.464  25.334  1.00  0.00    -0.048 A 
ATOM     88  C   UNL A   1      34.798  23.469  26.306  1.00  0.00     0.004 A 
ATOM     89  C   UNL A   1      35.269  24.086  24.061  1.00  0.00     0.004 A 
ATOM     90  C   UNL A   1      35.231  22.162  26.047  1.00  0.00     0.000 A 
ATOM     91  C   UNL A   1      35.707  22.783  23.790  1.00  0.00     0.000 A 
ATOM     92  C   UNL A   1      35.686  21.816  24.786  1.00  0.00     0.000 A 
ENDBRANCH  86  87
ENDBRANCH  85  86
ENDBRANCH  78  85
BRANCH  82  93
ATOM     93  C   UNL A   1      31.808  23.908  22.712  1.00  0.00     0.300 C 
BRANCH  93  94
ATOM     94  C   UNL A   1      31.942  22.632  23.491  1.00  0.00     0.025 A 
ATOM     95  C   UNL A   1      32.426  21.462  22.898  1.00  0.00     0.013 A 
ATOM     96  C   UNL A   1      31.603  22.573  24.837  1.00  0.00     0.120 A 
ATOM     97  C   UNL A   1      32.526  20.298  23.649  1.00  0.00     0.021 A 
ATOM     98  N   UNL A   1      31.701  21.460  25.599  1.00  0.00    -0.264 NA
ATOM     99  C   UNL A   1      32.154  20.346  24.982  1.00  0.00     0.111 A 
ENDBRANCH  93  94
ENDBRANCH  82  93
ENDBRANCH  75  78
ENDBRANCH  73  74
ENDBRANCH  72  73
ENDBRANCH   1  72
TORSDOF 19
ENDMDL
