MODEL 1
REMARK VINA RESULT:     -12.1      0.000      0.000
REMARK SMILES C[C@@H]1CCCN(C(=O)CSc2nnc3c4ccccc4n(CC(=O)NCCCCNC(=O)c4ccc(-c5c6nc(c(-c7cc(S(=O)(=O)[O-])ccc7F)c7ccc([nH]7)c(-c7cc(S(=O)(=O)[O-])ccc7F)c7nc(c(-c8cc(S(=O)(=O)[O-])ccc8F)c8ccc5[nH]8)C=C7)C=C6)cc4)c3n2)C1
REMARK SMILES IDX 26 1 25 2 23 3 24 4 22 6 21 7 11 8 12 9 97 10 13 11 96 12
REMARK SMILES IDX 14 13 15 14 20 15 16 16 19 17 17 18 18 19 10 20 9 21 7 22
REMARK SMILES IDX 8 23 6 24 1 25 2 26 3 27 98 28 4 29 5 30 27 31 28 32 29 33
REMARK SMILES IDX 30 34 31 35 32 37 33 38 34 39 95 40 35 41 94 42 36 43 37 44
REMARK SMILES IDX 38 45 88 46 39 47 93 48 87 49 89 50 40 51 92 52 86 53 85 54
REMARK SMILES IDX 41 56 73 57 53 58 72 59 54 60 57 61 71 62 90 63 55 64 56 65
REMARK SMILES IDX 70 67 91 68 58 69 42 70 43 71 51 72 44 73 50 74 52 75 49 76
REMARK SMILES IDX 45 77 46 78 47 79 48 80 74 81 75 82 83 83 76 84 82 85 84 86
REMARK SMILES IDX 81 87 77 88 78 89 79 90 80 91 59 92 60 93 68 94 61 95 67 96
REMARK SMILES IDX 69 97 66 98 62 99 63 100 64 101 65 102
REMARK H PARENT 25 5 30 36 89 55 57 66
REMARK Flexibility Score: inf
ROOT
ATOM      1  C   UNL A   1      38.753  22.275  26.266  1.00  0.00     0.116 C 
ENDROOT
BRANCH   1   2
ATOM      2  N   UNL A   1      38.192  22.619  24.974  1.00  0.00    -0.355 N 
ATOM      3  C   UNL A   1      36.883  22.757  24.612  1.00  0.00     0.240 C 
ATOM      4  O   UNL A   1      36.633  23.108  23.456  1.00  0.00    -0.273 OA
ATOM      5  H   UNL A   1      38.847  22.776  24.257  1.00  0.00     0.163 HD
BRANCH   3   6
ATOM      6  C   UNL A   1      35.768  22.557  25.619  1.00  0.00     0.224 C 
BRANCH   6   7
ATOM      7  N   UNL A   1      34.510  22.126  25.028  1.00  0.00    -0.314 N 
ATOM      8  C   UNL A   1      32.182  24.782  24.783  1.00  0.00     0.211 A 
ATOM      9  N   UNL A   1      31.121  24.097  24.289  1.00  0.00    -0.122 NA
ATOM     10  N   UNL A   1      33.417  24.290  25.018  1.00  0.00    -0.201 NA
ATOM     11  N   UNL A   1      31.222  22.795  24.007  1.00  0.00    -0.144 NA
ATOM     12  C   UNL A   1      33.460  22.968  24.768  1.00  0.00     0.165 A 
ATOM     13  C   UNL A   1      32.410  22.206  24.291  1.00  0.00     0.138 A 
ATOM     14  C   UNL A   1      32.840  20.854  24.243  1.00  0.00     0.030 A 
ATOM     15  C   UNL A   1      34.170  20.828  24.692  1.00  0.00     0.053 A 
ATOM     16  C   UNL A   1      32.215  19.641  23.891  1.00  0.00     0.013 A 
ATOM     17  C   UNL A   1      34.899  19.631  24.776  1.00  0.00     0.027 A 
ATOM     18  C   UNL A   1      32.929  18.443  23.994  1.00  0.00     0.001 A 
ATOM     19  C   UNL A   1      34.252  18.442  24.426  1.00  0.00     0.002 A 
BRANCH   8  20
ATOM     20  S   UNL A   1      31.893  26.407  25.443  1.00  0.00    -0.074 SA
BRANCH  20  21
ATOM     21  C   UNL A   1      32.176  27.400  23.956  1.00  0.00     0.178 C 
BRANCH  21  22
ATOM     22  C   UNL A   1      31.464  28.743  24.004  1.00  0.00     0.233 C 
ATOM     23  O   UNL A   1      31.877  29.612  24.777  1.00  0.00    -0.274 OA
BRANCH  22  24
ATOM     24  N   UNL A   1      30.398  28.984  23.141  1.00  0.00    -0.342 N 
ATOM     25  C   UNL A   1      26.642  28.327  23.391  1.00  0.00     0.009 C 
ATOM     26  C   UNL A   1      27.928  29.130  23.214  1.00  0.00     0.005 C 
ATOM     27  C   UNL A   1      27.942  29.852  21.861  1.00  0.00     0.007 C 
ATOM     28  C   UNL A   1      29.161  28.228  23.343  1.00  0.00     0.122 C 
ATOM     29  C   UNL A   1      29.240  30.637  21.694  1.00  0.00     0.022 C 
ATOM     30  C   UNL A   1      30.469  29.755  21.898  1.00  0.00     0.119 C 
ENDBRANCH  22  24
ENDBRANCH  21  22
ENDBRANCH  20  21
ENDBRANCH   8  20
ENDBRANCH   6   7
ENDBRANCH   3   6
ENDBRANCH   1   2
BRANCH   1  31
ATOM     31  C   UNL A   1      39.818  21.185  26.159  1.00  0.00     0.023 C 
BRANCH  31  32
ATOM     32  C   UNL A   1      40.785  21.117  27.351  1.00  0.00     0.023 C 
BRANCH  32  33
ATOM     33  C   UNL A   1      42.257  20.932  26.973  1.00  0.00     0.116 C 
BRANCH  33  34
ATOM     34  N   UNL A   1      42.624  21.606  25.745  1.00  0.00    -0.352 N 
ATOM     35  C   UNL A   1      42.755  22.914  25.364  1.00  0.00     0.251 C 
ATOM     36  H   UNL A   1      42.825  20.978  25.014  1.00  0.00     0.163 HD
ATOM     37  O   UNL A   1      43.208  23.091  24.229  1.00  0.00    -0.269 OA
BRANCH  35  38
ATOM     38  C   UNL A   1      42.369  24.096  26.184  1.00  0.00     0.039 A 
ATOM     39  C   UNL A   1      41.291  24.942  25.926  1.00  0.00     0.014 A 
ATOM     40  C   UNL A   1      43.215  24.405  27.268  1.00  0.00     0.014 A 
ATOM     41  C   UNL A   1      41.100  26.096  26.679  1.00  0.00     0.010 A 
ATOM     42  C   UNL A   1      43.024  25.556  28.030  1.00  0.00     0.010 A 
ATOM     43  C   UNL A   1      41.990  26.427  27.704  1.00  0.00    -0.014 A 
BRANCH  43  44
ATOM     44  C   UNL A   1      41.773  27.700  28.385  1.00  0.00     0.031 A 
ATOM     45  C   UNL A   1      42.654  28.834  27.983  1.00  0.00     0.074 A 
ATOM     46  C   UNL A   1      40.803  27.899  29.297  1.00  0.00     0.049 A 
ATOM     47  N   UNL A   1      43.537  29.465  28.691  1.00  0.00    -0.248 NA
ATOM     48  C   UNL A   1      42.589  29.266  26.582  1.00  0.00     0.031 C 
ATOM     49  C   UNL A   1      39.653  27.046  29.606  1.00  0.00     0.029 A 
ATOM     50  N   UNL A   1      40.602  28.992  30.084  1.00  0.00    -0.354 N 
ATOM     51  C   UNL A   1      44.032  30.486  27.878  1.00  0.00     0.074 A 
ATOM     52  C   UNL A   1      43.499  30.240  26.560  1.00  0.00     0.031 C 
ATOM     53  C   UNL A   1      38.761  27.756  30.334  1.00  0.00     0.029 A 
ATOM     54  C   UNL A   1      39.351  29.040  30.673  1.00  0.00     0.049 A 
ATOM     55  H   UNL A   1      41.287  29.687  30.221  1.00  0.00     0.167 HD
ATOM     56  C   UNL A   1      44.727  31.554  28.370  1.00  0.00     0.034 A 
ATOM     57  C   UNL A   1      38.804  30.097  31.318  1.00  0.00     0.034 A 
ATOM     58  C   UNL A   1      45.186  31.325  29.710  1.00  0.00     0.049 A 
ATOM     59  C   UNL A   1      39.895  31.013  31.731  1.00  0.00     0.074 A 
ATOM     60  C   UNL A   1      46.063  30.444  30.308  1.00  0.00     0.029 A 
ATOM     61  N   UNL A   1      44.493  31.912  30.739  1.00  0.00    -0.354 N 
ATOM     62  N   UNL A   1      40.768  30.752  32.662  1.00  0.00    -0.248 NA
ATOM     63  C   UNL A   1      40.251  32.095  30.827  1.00  0.00     0.031 C 
ATOM     64  C   UNL A   1      45.520  30.201  31.602  1.00  0.00     0.029 A 
ATOM     65  C   UNL A   1      44.357  30.966  31.721  1.00  0.00     0.049 A 
ATOM     66  H   UNL A   1      44.156  32.837  30.766  1.00  0.00     0.167 HD
ATOM     67  C   UNL A   1      41.949  31.318  32.204  1.00  0.00     0.074 A 
ATOM     68  C   UNL A   1      41.540  32.231  31.140  1.00  0.00     0.031 C 
ATOM     69  C   UNL A   1      43.169  30.798  32.535  1.00  0.00     0.034 A 
BRANCH  56  70
ATOM     70  C   UNL A   1      44.765  32.924  27.731  1.00  0.00     0.023 A 
ATOM     71  C   UNL A   1      43.830  33.928  28.037  1.00  0.00     0.031 A 
ATOM     72  C   UNL A   1      45.875  33.335  26.963  1.00  0.00     0.131 A 
ATOM     73  C   UNL A   1      43.985  35.244  27.579  1.00  0.00     0.055 A 
ATOM     74  C   UNL A   1      46.068  34.665  26.563  1.00  0.00     0.041 A 
ATOM     75  F   UNL A   1      46.842  32.467  26.621  1.00  0.00    -0.206 F 
ATOM     76  C   UNL A   1      45.116  35.629  26.868  1.00  0.00     0.022 A 
BRANCH  73  77
ATOM     77  S   UNL A   1      42.700  36.481  27.904  1.00  0.00     0.124 S 
ATOM     78  O   UNL A   1      43.345  37.327  28.901  1.00  0.00    -0.237 OA
ATOM     79  O   UNL A   1      42.523  37.081  26.583  1.00  0.00    -0.237 OA
ATOM     80  O   UNL A   1      41.571  35.682  28.372  1.00  0.00    -0.744 OA
ENDBRANCH  73  77
ENDBRANCH  56  70
BRANCH  57  81
ATOM     81  C   UNL A   1      37.413  30.569  31.143  1.00  0.00     0.023 A 
ATOM     82  C   UNL A   1      36.884  30.716  29.847  1.00  0.00     0.031 A 
ATOM     83  C   UNL A   1      36.709  31.160  32.203  1.00  0.00     0.131 A 
ATOM     84  C   UNL A   1      35.723  31.466  29.633  1.00  0.00     0.055 A 
ATOM     85  C   UNL A   1      35.540  31.899  31.990  1.00  0.00     0.041 A 
ATOM     86  F   UNL A   1      37.180  31.086  33.458  1.00  0.00    -0.206 F 
ATOM     87  C   UNL A   1      35.049  32.066  30.698  1.00  0.00     0.022 A 
BRANCH  84  88
ATOM     88  S   UNL A   1      35.104  31.733  27.949  1.00  0.00     0.124 S 
ATOM     89  O   UNL A   1      35.695  33.024  27.603  1.00  0.00    -0.237 OA
ATOM     90  O   UNL A   1      35.654  30.582  27.243  1.00  0.00    -0.237 OA
ATOM     91  O   UNL A   1      33.653  31.746  28.116  1.00  0.00    -0.744 OA
ENDBRANCH  84  88
ENDBRANCH  57  81
BRANCH  69  92
ATOM     92  C   UNL A   1      43.259  29.753  33.624  1.00  0.00     0.023 A 
ATOM     93  C   UNL A   1      43.817  30.143  34.856  1.00  0.00     0.031 A 
ATOM     94  C   UNL A   1      43.042  28.378  33.416  1.00  0.00     0.131 A 
ATOM     95  C   UNL A   1      44.171  29.179  35.810  1.00  0.00     0.055 A 
ATOM     96  C   UNL A   1      43.331  27.426  34.400  1.00  0.00     0.041 A 
ATOM     97  F   UNL A   1      42.636  27.904  32.231  1.00  0.00    -0.206 F 
ATOM     98  C   UNL A   1      43.913  27.823  35.598  1.00  0.00     0.022 A 
BRANCH  95  99
ATOM     99  S   UNL A   1      45.123  29.652  37.279  1.00  0.00     0.124 S 
ATOM    100  O   UNL A   1      46.467  29.183  36.939  1.00  0.00    -0.237 OA
ATOM    101  O   UNL A   1      44.959  31.107  37.298  1.00  0.00    -0.237 OA
ATOM    102  O   UNL A   1      44.472  28.945  38.370  1.00  0.00    -0.744 OA
ENDBRANCH  95  99
ENDBRANCH  69  92
ENDBRANCH  43  44
ENDBRANCH  35  38
ENDBRANCH  33  34
ENDBRANCH  32  33
ENDBRANCH  31  32
ENDBRANCH   1  31
TORSDOF 19
ENDMDL
MODEL 2
REMARK VINA RESULT:     -12.0      2.927      9.021
REMARK SMILES C[C@@H]1CCCN(C(=O)CSc2nnc3c4ccccc4n(CC(=O)NCCCCNC(=O)c4ccc(-c5c6nc(c(-c7cc(S(=O)(=O)[O-])ccc7F)c7ccc([nH]7)c(-c7cc(S(=O)(=O)[O-])ccc7F)c7nc(c(-c8cc(S(=O)(=O)[O-])ccc8F)c8ccc5[nH]8)C=C7)C=C6)cc4)c3n2)C1
REMARK SMILES IDX 26 1 25 2 23 3 24 4 22 6 21 7 11 8 12 9 97 10 13 11 96 12
REMARK SMILES IDX 14 13 15 14 20 15 16 16 19 17 17 18 18 19 10 20 9 21 7 22
REMARK SMILES IDX 8 23 6 24 1 25 2 26 3 27 98 28 4 29 5 30 27 31 28 32 29 33
REMARK SMILES IDX 30 34 31 35 32 37 33 38 34 39 95 40 35 41 94 42 36 43 37 44
REMARK SMILES IDX 38 45 88 46 39 47 93 48 87 49 89 50 40 51 92 52 86 53 85 54
REMARK SMILES IDX 41 56 73 57 53 58 72 59 54 60 57 61 71 62 90 63 55 64 56 65
REMARK SMILES IDX 70 67 91 68 58 69 42 70 43 71 51 72 44 73 50 74 52 75 49 76
REMARK SMILES IDX 45 77 46 78 47 79 48 80 74 81 75 82 83 83 76 84 82 85 84 86
REMARK SMILES IDX 81 87 77 88 78 89 79 90 80 91 59 92 60 93 68 94 61 95 67 96
REMARK SMILES IDX 69 97 66 98 62 99 63 100 64 101 65 102
REMARK H PARENT 25 5 30 36 89 55 57 66
REMARK Flexibility Score: inf
ROOT
ATOM      1  C   UNL A   1      34.278  30.596  27.348  1.00  0.00     0.116 C 
ENDROOT
BRANCH   1   2
ATOM      2  N   UNL A   1      34.686  29.495  26.497  1.00  0.00    -0.355 N 
ATOM      3  C   UNL A   1      34.053  28.310  26.259  1.00  0.00     0.240 C 
ATOM      4  O   UNL A   1      34.563  27.530  25.450  1.00  0.00    -0.273 OA
ATOM      5  H   UNL A   1      35.539  29.621  26.023  1.00  0.00     0.163 HD
BRANCH   3   6
ATOM      6  C   UNL A   1      32.724  27.987  26.912  1.00  0.00     0.224 C 
BRANCH   6   7
ATOM      7  N   UNL A   1      31.777  27.326  26.028  1.00  0.00    -0.314 N 
ATOM      8  C   UNL A   1      31.665  23.831  26.582  1.00  0.00     0.211 A 
ATOM      9  N   UNL A   1      30.791  23.483  25.604  1.00  0.00    -0.122 NA
ATOM     10  N   UNL A   1      32.046  25.084  26.909  1.00  0.00    -0.201 NA
ATOM     11  N   UNL A   1      30.230  24.415  24.828  1.00  0.00    -0.144 NA
ATOM     12  C   UNL A   1      31.498  25.984  26.073  1.00  0.00     0.165 A 
ATOM     13  C   UNL A   1      30.624  25.695  25.041  1.00  0.00     0.138 A 
ATOM     14  C   UNL A   1      30.347  26.905  24.354  1.00  0.00     0.030 A 
ATOM     15  C   UNL A   1      31.065  27.923  25.002  1.00  0.00     0.053 A 
ATOM     16  C   UNL A   1      29.577  27.231  23.218  1.00  0.00     0.013 A 
ATOM     17  C   UNL A   1      31.018  29.256  24.564  1.00  0.00     0.027 A 
ATOM     18  C   UNL A   1      29.544  28.554  22.765  1.00  0.00     0.001 A 
ATOM     19  C   UNL A   1      30.251  29.549  23.434  1.00  0.00     0.002 A 
BRANCH   8  20
ATOM     20  S   UNL A   1      32.618  22.541  27.347  1.00  0.00    -0.074 SA
BRANCH  20  21
ATOM     21  C   UNL A   1      34.282  23.226  27.151  1.00  0.00     0.178 C 
BRANCH  21  22
ATOM     22  C   UNL A   1      35.006  22.666  25.937  1.00  0.00     0.233 C 
ATOM     23  O   UNL A   1      35.957  21.896  26.110  1.00  0.00    -0.274 OA
BRANCH  22  24
ATOM     24  N   UNL A   1      34.553  22.986  24.660  1.00  0.00    -0.342 N 
ATOM     25  C   UNL A   1      32.084  21.308  22.274  1.00  0.00     0.009 C 
ATOM     26  C   UNL A   1      32.686  22.412  23.140  1.00  0.00     0.005 C 
ATOM     27  C   UNL A   1      33.001  23.656  22.301  1.00  0.00     0.007 C 
ATOM     28  C   UNL A   1      33.951  21.923  23.854  1.00  0.00     0.122 C 
ATOM     29  C   UNL A   1      33.615  24.744  23.177  1.00  0.00     0.022 C 
ATOM     30  C   UNL A   1      34.830  24.236  23.948  1.00  0.00     0.119 C 
ENDBRANCH  22  24
ENDBRANCH  21  22
ENDBRANCH  20  21
ENDBRANCH   8  20
ENDBRANCH   6   7
ENDBRANCH   3   6
ENDBRANCH   1   2
BRANCH   1  31
ATOM     31  C   UNL A   1      35.441  31.531  27.675  1.00  0.00     0.023 C 
BRANCH  31  32
ATOM     32  C   UNL A   1      35.057  32.756  28.519  1.00  0.00     0.023 C 
BRANCH  32  33
ATOM     33  C   UNL A   1      34.777  32.457  29.994  1.00  0.00     0.116 C 
BRANCH  33  34
ATOM     34  N   UNL A   1      35.577  33.251  30.904  1.00  0.00    -0.352 N 
ATOM     35  C   UNL A   1      36.890  33.250  31.286  1.00  0.00     0.251 C 
ATOM     36  H   UNL A   1      35.054  33.954  31.352  1.00  0.00     0.163 HD
ATOM     37  O   UNL A   1      37.227  34.181  32.023  1.00  0.00    -0.269 OA
BRANCH  35  38
ATOM     38  C   UNL A   1      37.898  32.216  30.917  1.00  0.00     0.039 A 
ATOM     39  C   UNL A   1      37.694  30.838  30.954  1.00  0.00     0.014 A 
ATOM     40  C   UNL A   1      39.176  32.692  30.563  1.00  0.00     0.014 A 
ATOM     41  C   UNL A   1      38.746  29.960  30.716  1.00  0.00     0.010 A 
ATOM     42  C   UNL A   1      40.232  31.817  30.317  1.00  0.00     0.010 A 
ATOM     43  C   UNL A   1      40.025  30.447  30.439  1.00  0.00    -0.014 A 
BRANCH  43  44
ATOM     44  C   UNL A   1      41.093  29.463  30.292  1.00  0.00     0.031 A 
ATOM     45  C   UNL A   1      41.706  28.945  31.550  1.00  0.00     0.074 A 
ATOM     46  C   UNL A   1      41.500  28.978  29.104  1.00  0.00     0.049 A 
ATOM     47  N   UNL A   1      42.920  29.088  31.979  1.00  0.00    -0.248 NA
ATOM     48  C   UNL A   1      40.819  28.241  32.484  1.00  0.00     0.031 C 
ATOM     49  C   UNL A   1      40.847  29.100  27.798  1.00  0.00     0.029 A 
ATOM     50  N   UNL A   1      42.566  28.171  28.846  1.00  0.00    -0.354 N 
ATOM     51  C   UNL A   1      43.005  28.355  33.164  1.00  0.00     0.074 A 
ATOM     52  C   UNL A   1      41.655  27.956  33.483  1.00  0.00     0.031 C 
ATOM     53  C   UNL A   1      41.398  28.206  26.945  1.00  0.00     0.029 A 
ATOM     54  C   UNL A   1      42.535  27.578  27.597  1.00  0.00     0.049 A 
ATOM     55  H   UNL A   1      43.294  28.022  29.493  1.00  0.00     0.167 HD
ATOM     56  C   UNL A   1      44.195  27.993  33.729  1.00  0.00     0.034 A 
ATOM     57  C   UNL A   1      43.335  26.577  27.161  1.00  0.00     0.034 A 
ATOM     58  C   UNL A   1      45.295  28.738  33.186  1.00  0.00     0.049 A 
ATOM     59  C   UNL A   1      44.549  26.537  28.011  1.00  0.00     0.074 A 
ATOM     60  C   UNL A   1      45.670  30.065  33.177  1.00  0.00     0.029 A 
ATOM     61  N   UNL A   1      46.096  28.121  32.257  1.00  0.00    -0.354 N 
ATOM     62  N   UNL A   1      45.486  27.442  28.005  1.00  0.00    -0.248 NA
ATOM     63  C   UNL A   1      44.537  25.658  29.169  1.00  0.00     0.031 C 
ATOM     64  C   UNL A   1      46.322  30.258  31.926  1.00  0.00     0.029 A 
ATOM     65  C   UNL A   1      46.324  29.030  31.258  1.00  0.00     0.049 A 
ATOM     66  H   UNL A   1      46.440  27.199  32.300  1.00  0.00     0.167 HD
ATOM     67  C   UNL A   1      45.894  27.533  29.328  1.00  0.00     0.074 A 
ATOM     68  C   UNL A   1      45.367  26.331  29.967  1.00  0.00     0.031 C 
ATOM     69  C   UNL A   1      46.384  28.698  29.849  1.00  0.00     0.034 A 
BRANCH  56  70
ATOM     70  C   UNL A   1      44.401  26.768  34.591  1.00  0.00     0.023 A 
ATOM     71  C   UNL A   1      44.583  26.844  35.983  1.00  0.00     0.031 A 
ATOM     72  C   UNL A   1      44.198  25.473  34.069  1.00  0.00     0.131 A 
ATOM     73  C   UNL A   1      44.589  25.697  36.788  1.00  0.00     0.055 A 
ATOM     74  C   UNL A   1      44.134  24.332  34.881  1.00  0.00     0.041 A 
ATOM     75  F   UNL A   1      44.000  25.277  32.755  1.00  0.00    -0.206 F 
ATOM     76  C   UNL A   1      44.334  24.440  36.251  1.00  0.00     0.022 A 
BRANCH  73  77
ATOM     77  S   UNL A   1      44.935  25.829  38.563  1.00  0.00     0.124 S 
ATOM     78  O   UNL A   1      44.991  24.428  38.962  1.00  0.00    -0.237 OA
ATOM     79  O   UNL A   1      46.212  26.539  38.565  1.00  0.00    -0.237 OA
ATOM     80  O   UNL A   1      43.803  26.598  39.072  1.00  0.00    -0.744 OA
ENDBRANCH  73  77
ENDBRANCH  56  70
BRANCH  57  81
ATOM     81  C   UNL A   1      42.873  25.392  26.405  1.00  0.00     0.023 A 
ATOM     82  C   UNL A   1      41.762  24.660  26.868  1.00  0.00     0.031 A 
ATOM     83  C   UNL A   1      43.678  24.798  25.422  1.00  0.00     0.131 A 
ATOM     84  C   UNL A   1      41.511  23.370  26.388  1.00  0.00     0.055 A 
ATOM     85  C   UNL A   1      43.419  23.513  24.933  1.00  0.00     0.041 A 
ATOM     86  F   UNL A   1      44.771  25.430  24.965  1.00  0.00    -0.206 F 
ATOM     87  C   UNL A   1      42.337  22.787  25.427  1.00  0.00     0.022 A 
BRANCH  84  88
ATOM     88  S   UNL A   1      40.136  22.395  27.062  1.00  0.00     0.124 S 
ATOM     89  O   UNL A   1      39.242  23.433  27.571  1.00  0.00    -0.237 OA
ATOM     90  O   UNL A   1      39.666  21.686  25.878  1.00  0.00    -0.237 OA
ATOM     91  O   UNL A   1      40.772  21.573  28.088  1.00  0.00    -0.744 OA
ENDBRANCH  84  88
ENDBRANCH  57  81
BRANCH  69  92
ATOM     92  C   UNL A   1      46.737  29.836  28.917  1.00  0.00     0.023 A 
ATOM     93  C   UNL A   1      45.677  30.572  28.357  1.00  0.00     0.031 A 
ATOM     94  C   UNL A   1      48.027  30.056  28.397  1.00  0.00     0.131 A 
ATOM     95  C   UNL A   1      45.911  31.458  27.296  1.00  0.00     0.055 A 
ATOM     96  C   UNL A   1      48.266  30.994  27.387  1.00  0.00     0.041 A 
ATOM     97  F   UNL A   1      49.073  29.312  28.779  1.00  0.00    -0.206 F 
ATOM     98  C   UNL A   1      47.204  31.688  26.820  1.00  0.00     0.022 A 
BRANCH  95  99
ATOM     99  S   UNL A   1      44.522  32.207  26.404  1.00  0.00     0.124 S 
ATOM    100  O   UNL A   1      43.613  31.072  26.242  1.00  0.00    -0.237 OA
ATOM    101  O   UNL A   1      44.070  33.235  27.343  1.00  0.00    -0.237 OA
ATOM    102  O   UNL A   1      45.116  32.712  25.177  1.00  0.00    -0.744 OA
ENDBRANCH  95  99
ENDBRANCH  69  92
ENDBRANCH  43  44
ENDBRANCH  35  38
ENDBRANCH  33  34
ENDBRANCH  32  33
ENDBRANCH  31  32
ENDBRANCH   1  31
TORSDOF 19
ENDMDL
MODEL 3
REMARK VINA RESULT:     -12.0      1.555      2.066
REMARK SMILES C[C@@H]1CCCN(C(=O)CSc2nnc3c4ccccc4n(CC(=O)NCCCCNC(=O)c4ccc(-c5c6nc(c(-c7cc(S(=O)(=O)[O-])ccc7F)c7ccc([nH]7)c(-c7cc(S(=O)(=O)[O-])ccc7F)c7nc(c(-c8cc(S(=O)(=O)[O-])ccc8F)c8ccc5[nH]8)C=C7)C=C6)cc4)c3n2)C1
REMARK SMILES IDX 26 1 25 2 23 3 24 4 22 6 21 7 11 8 12 9 97 10 13 11 96 12
REMARK SMILES IDX 14 13 15 14 20 15 16 16 19 17 17 18 18 19 10 20 9 21 7 22
REMARK SMILES IDX 8 23 6 24 1 25 2 26 3 27 98 28 4 29 5 30 27 31 28 32 29 33
REMARK SMILES IDX 30 34 31 35 32 37 33 38 34 39 95 40 35 41 94 42 36 43 37 44
REMARK SMILES IDX 38 45 88 46 39 47 93 48 87 49 89 50 40 51 92 52 86 53 85 54
REMARK SMILES IDX 41 56 73 57 53 58 72 59 54 60 57 61 71 62 90 63 55 64 56 65
REMARK SMILES IDX 70 67 91 68 58 69 42 70 43 71 51 72 44 73 50 74 52 75 49 76
REMARK SMILES IDX 45 77 46 78 47 79 48 80 74 81 75 82 83 83 76 84 82 85 84 86
REMARK SMILES IDX 81 87 77 88 78 89 79 90 80 91 59 92 60 93 68 94 61 95 67 96
REMARK SMILES IDX 69 97 66 98 62 99 63 100 64 101 65 102
REMARK H PARENT 25 5 30 36 89 55 57 66
REMARK Flexibility Score: inf
ROOT
ATOM      1  C   UNL A   1      39.096  21.492  26.238  1.00  0.00     0.116 C 
ENDROOT
BRANCH   1   2
ATOM      2  N   UNL A   1      38.453  21.902  25.004  1.00  0.00    -0.355 N 
ATOM      3  C   UNL A   1      37.123  22.024  24.725  1.00  0.00     0.240 C 
ATOM      4  O   UNL A   1      36.798  22.442  23.610  1.00  0.00    -0.273 OA
ATOM      5  H   UNL A   1      39.062  22.125  24.264  1.00  0.00     0.163 HD
BRANCH   3   6
ATOM      6  C   UNL A   1      36.072  21.725  25.775  1.00  0.00     0.224 C 
BRANCH   6   7
ATOM      7  N   UNL A   1      34.788  21.319  25.227  1.00  0.00    -0.314 N 
ATOM      8  C   UNL A   1      32.366  23.889  25.481  1.00  0.00     0.211 A 
ATOM      9  N   UNL A   1      31.291  23.226  24.982  1.00  0.00    -0.122 NA
ATOM     10  N   UNL A   1      33.629  23.422  25.564  1.00  0.00    -0.201 NA
ATOM     11  N   UNL A   1      31.412  21.974  24.533  1.00  0.00    -0.144 NA
ATOM     12  C   UNL A   1      33.695  22.143  25.148  1.00  0.00     0.165 A 
ATOM     13  C   UNL A   1      32.636  21.403  24.656  1.00  0.00     0.138 A 
ATOM     14  C   UNL A   1      33.103  20.086  24.409  1.00  0.00     0.030 A 
ATOM     15  C   UNL A   1      34.464  20.059  24.755  1.00  0.00     0.053 A 
ATOM     16  C   UNL A   1      32.492  18.900  23.954  1.00  0.00     0.013 A 
ATOM     17  C   UNL A   1      35.234  18.891  24.638  1.00  0.00     0.027 A 
ATOM     18  C   UNL A   1      33.249  17.728  23.856  1.00  0.00     0.001 A 
ATOM     19  C   UNL A   1      34.600  17.729  24.189  1.00  0.00     0.002 A 
BRANCH   8  20
ATOM     20  S   UNL A   1      32.076  25.407  26.357  1.00  0.00    -0.074 SA
BRANCH  20  21
ATOM     21  C   UNL A   1      33.620  26.277  25.989  1.00  0.00     0.178 C 
BRANCH  21  22
ATOM     22  C   UNL A   1      33.389  27.697  25.494  1.00  0.00     0.233 C 
ATOM     23  O   UNL A   1      33.965  28.629  26.063  1.00  0.00    -0.274 OA
BRANCH  22  24
ATOM     24  N   UNL A   1      32.580  27.911  24.381  1.00  0.00    -0.342 N 
ATOM     25  C   UNL A   1      31.854  25.845  21.250  1.00  0.00     0.009 C 
ATOM     26  C   UNL A   1      31.561  26.619  22.533  1.00  0.00     0.005 C 
ATOM     27  C   UNL A   1      30.600  27.783  22.263  1.00  0.00     0.007 C 
ATOM     28  C   UNL A   1      32.855  27.139  23.168  1.00  0.00     0.122 C 
ATOM     29  C   UNL A   1      30.329  28.554  23.552  1.00  0.00     0.022 C 
ATOM     30  C   UNL A   1      31.621  29.007  24.226  1.00  0.00     0.119 C 
ENDBRANCH  22  24
ENDBRANCH  21  22
ENDBRANCH  20  21
ENDBRANCH   8  20
ENDBRANCH   6   7
ENDBRANCH   3   6
ENDBRANCH   1   2
BRANCH   1  31
ATOM     31  C   UNL A   1      39.790  22.657  26.940  1.00  0.00     0.023 C 
BRANCH  31  32
ATOM     32  C   UNL A   1      41.096  22.284  27.658  1.00  0.00     0.023 C 
BRANCH  32  33
ATOM     33  C   UNL A   1      41.971  21.272  26.914  1.00  0.00     0.116 C 
BRANCH  33  34
ATOM     34  N   UNL A   1      42.469  21.766  25.647  1.00  0.00    -0.352 N 
ATOM     35  C   UNL A   1      42.913  22.977  25.190  1.00  0.00     0.251 C 
ATOM     36  H   UNL A   1      42.493  21.069  24.952  1.00  0.00     0.163 HD
ATOM     37  O   UNL A   1      43.372  22.974  24.044  1.00  0.00    -0.269 OA
BRANCH  35  38
ATOM     38  C   UNL A   1      42.850  24.261  25.943  1.00  0.00     0.039 A 
ATOM     39  C   UNL A   1      43.648  24.598  27.035  1.00  0.00     0.014 A 
ATOM     40  C   UNL A   1      41.852  25.170  25.540  1.00  0.00     0.014 A 
ATOM     41  C   UNL A   1      43.414  25.770  27.748  1.00  0.00     0.010 A 
ATOM     42  C   UNL A   1      41.618  26.349  26.245  1.00  0.00     0.010 A 
ATOM     43  C   UNL A   1      42.373  26.626  27.380  1.00  0.00    -0.014 A 
BRANCH  43  44
ATOM     44  C   UNL A   1      42.135  27.786  28.233  1.00  0.00     0.031 A 
ATOM     45  C   UNL A   1      43.024  28.966  28.024  1.00  0.00     0.074 A 
ATOM     46  C   UNL A   1      41.143  27.851  29.140  1.00  0.00     0.049 A 
ATOM     47  N   UNL A   1      43.887  29.485  28.838  1.00  0.00    -0.248 NA
ATOM     48  C   UNL A   1      42.992  29.598  26.700  1.00  0.00     0.031 C 
ATOM     49  C   UNL A   1      39.987  26.964  29.292  1.00  0.00     0.029 A 
ATOM     50  N   UNL A   1      40.919  28.818  30.073  1.00  0.00    -0.354 N 
ATOM     51  C   UNL A   1      44.400  30.614  28.196  1.00  0.00     0.074 A 
ATOM     52  C   UNL A   1      43.901  30.564  26.843  1.00  0.00     0.031 C 
ATOM     53  C   UNL A   1      39.075  27.560  30.093  1.00  0.00     0.029 A 
ATOM     54  C   UNL A   1      39.654  28.781  30.631  1.00  0.00     0.049 A 
ATOM     55  H   UNL A   1      41.598  29.484  30.327  1.00  0.00     0.167 HD
ATOM     56  C   UNL A   1      45.080  31.598  28.856  1.00  0.00     0.034 A 
ATOM     57  C   UNL A   1      39.088  29.733  31.409  1.00  0.00     0.034 A 
ATOM     58  C   UNL A   1      45.505  31.175  30.159  1.00  0.00     0.049 A 
ATOM     59  C   UNL A   1      40.165  30.578  31.979  1.00  0.00     0.074 A 
ATOM     60  C   UNL A   1      46.369  30.215  30.644  1.00  0.00     0.029 A 
ATOM     61  N   UNL A   1      44.785  31.607  31.245  1.00  0.00    -0.354 N 
ATOM     62  N   UNL A   1      41.016  30.182  32.883  1.00  0.00    -0.248 NA
ATOM     63  C   UNL A   1      40.541  31.780  31.251  1.00  0.00     0.031 C 
ATOM     64  C   UNL A   1      45.794  29.786  31.874  1.00  0.00     0.029 A 
ATOM     65  C   UNL A   1      44.626  30.528  32.074  1.00  0.00     0.049 A 
ATOM     66  H   UNL A   1      44.445  32.518  31.398  1.00  0.00     0.167 HD
ATOM     67  C   UNL A   1      42.206  30.808  32.542  1.00  0.00     0.074 A 
ATOM     68  C   UNL A   1      41.822  31.867  31.614  1.00  0.00     0.031 C 
ATOM     69  C   UNL A   1      43.419  30.244  32.825  1.00  0.00     0.034 A 
BRANCH  56  70
ATOM     70  C   UNL A   1      45.130  33.047  28.425  1.00  0.00     0.023 A 
ATOM     71  C   UNL A   1      46.198  33.579  27.682  1.00  0.00     0.031 A 
ATOM     72  C   UNL A   1      44.000  33.882  28.556  1.00  0.00     0.131 A 
ATOM     73  C   UNL A   1      46.145  34.868  27.136  1.00  0.00     0.055 A 
ATOM     74  C   UNL A   1      43.917  35.143  27.951  1.00  0.00     0.041 A 
ATOM     75  F   UNL A   1      42.912  33.476  29.232  1.00  0.00    -0.206 F 
ATOM     76  C   UNL A   1      44.997  35.646  27.238  1.00  0.00     0.022 A 
BRANCH  73  77
ATOM     77  S   UNL A   1      47.587  35.557  26.279  1.00  0.00     0.124 S 
ATOM     78  O   UNL A   1      47.069  36.834  25.801  1.00  0.00    -0.237 OA
ATOM     79  O   UNL A   1      48.567  35.635  27.360  1.00  0.00    -0.237 OA
ATOM     80  O   UNL A   1      47.880  34.558  25.254  1.00  0.00    -0.744 OA
ENDBRANCH  73  77
ENDBRANCH  56  70
BRANCH  57  81
ATOM     81  C   UNL A   1      37.701  30.227  31.270  1.00  0.00     0.023 A 
ATOM     82  C   UNL A   1      37.165  30.449  29.987  1.00  0.00     0.031 A 
ATOM     83  C   UNL A   1      37.009  30.766  32.365  1.00  0.00     0.131 A 
ATOM     84  C   UNL A   1      36.010  31.221  29.822  1.00  0.00     0.055 A 
ATOM     85  C   UNL A   1      35.846  31.527  32.201  1.00  0.00     0.041 A 
ATOM     86  F   UNL A   1      37.487  30.619  33.611  1.00  0.00    -0.206 F 
ATOM     87  C   UNL A   1      35.349  31.768  30.923  1.00  0.00     0.022 A 
BRANCH  84  88
ATOM     88  S   UNL A   1      35.382  31.586  28.159  1.00  0.00     0.124 S 
ATOM     89  O   UNL A   1      36.254  30.772  27.315  1.00  0.00    -0.237 OA
ATOM     90  O   UNL A   1      34.000  31.132  28.257  1.00  0.00    -0.237 OA
ATOM     91  O   UNL A   1      35.573  33.028  28.031  1.00  0.00    -0.744 OA
ENDBRANCH  84  88
ENDBRANCH  57  81
BRANCH  69  92
ATOM     92  C   UNL A   1      43.484  29.051  33.752  1.00  0.00     0.023 A 
ATOM     93  C   UNL A   1      43.961  29.267  35.059  1.00  0.00     0.031 A 
ATOM     94  C   UNL A   1      43.325  27.717  33.331  1.00  0.00     0.131 A 
ATOM     95  C   UNL A   1      44.294  28.181  35.880  1.00  0.00     0.055 A 
ATOM     96  C   UNL A   1      43.591  26.637  34.180  1.00  0.00     0.041 A 
ATOM     97  F   UNL A   1      43.000  27.415  32.068  1.00  0.00    -0.206 F 
ATOM     98  C   UNL A   1      44.094  26.866  35.455  1.00  0.00     0.022 A 
BRANCH  95  99
ATOM     99  S   UNL A   1      45.148  28.454  37.456  1.00  0.00     0.124 S 
ATOM    100  O   UNL A   1      45.010  29.899  37.635  1.00  0.00    -0.237 OA
ATOM    101  O   UNL A   1      44.360  27.636  38.380  1.00  0.00    -0.237 OA
ATOM    102  O   UNL A   1      46.501  27.979  37.215  1.00  0.00    -0.744 OA
ENDBRANCH  95  99
ENDBRANCH  69  92
ENDBRANCH  43  44
ENDBRANCH  35  38
ENDBRANCH  33  34
ENDBRANCH  32  33
ENDBRANCH  31  32
ENDBRANCH   1  31
TORSDOF 19
ENDMDL
