MODEL 1
REMARK VINA RESULT:     -11.9      0.000      0.000
REMARK SMILES C[C@H](Oc1ccccc1Cl)C(=O)N1CCCC[C@H]1C(=O)NCCCCNC(=O)c1ccc(-c2c3nc(c(-c4cc(S(=O)(=O)[O-])ccc4F)c4ccc([nH]4)c(-c4cc(S(=O)(=O)[O-])ccc4F)c4nc(c(-c5cc(S(=O)(=O)[O-])ccc5F)c5ccc2[nH]5)C=C4)C=C3)cc1
REMARK SMILES IDX 23 1 22 2 21 3 19 4 20 5 18 7 13 8 14 9 15 10 17 11 16 12
REMARK SMILES IDX 11 13 12 14 2 15 1 16 3 17 4 18 5 19 9 20 6 21 8 22 10 23
REMARK SMILES IDX 7 24 24 25 25 26 26 27 27 28 28 30 29 31 30 32 91 33 31 34
REMARK SMILES IDX 90 35 32 36 33 37 34 38 84 39 35 40 89 41 83 42 85 43 36 44
REMARK SMILES IDX 88 45 82 46 81 47 37 49 69 50 49 51 68 52 50 53 53 54 67 55
REMARK SMILES IDX 86 56 51 57 52 58 66 60 87 61 54 62 38 63 39 64 47 65 40 66
REMARK SMILES IDX 46 67 48 68 45 69 41 70 42 71 43 72 44 73 70 74 71 75 79 76
REMARK SMILES IDX 72 77 78 78 80 79 77 80 73 81 74 82 75 83 76 84 55 85 56 86
REMARK SMILES IDX 64 87 57 88 63 89 65 90 62 91 58 92 59 93 60 94 61 95
REMARK H PARENT 21 6 26 29 85 48 53 59
REMARK Flexibility Score: inf
ROOT
ATOM      1  C   UNL A   1      36.543  20.136  24.718  1.00  0.00     0.023 C 
ENDROOT
BRANCH   1   2
ATOM      2  C   UNL A   1      36.742  21.634  24.935  1.00  0.00     0.116 C 
BRANCH   2   3
ATOM      3  N   UNL A   1      36.201  22.103  26.198  1.00  0.00    -0.354 N 
ATOM      4  C   UNL A   1      35.002  22.708  26.457  1.00  0.00     0.242 C 
ATOM      5  O   UNL A   1      34.731  22.949  27.637  1.00  0.00    -0.273 OA
ATOM      6  H   UNL A   1      36.781  21.965  26.980  1.00  0.00     0.163 HD
BRANCH   4   7
ATOM      7  C   UNL A   1      34.063  23.099  25.288  1.00  0.00     0.174 C 
ATOM      8  N   UNL A   1      32.621  22.947  25.588  1.00  0.00    -0.327 N 
ATOM      9  C   UNL A   1      32.027  23.963  26.460  1.00  0.00     0.120 C 
ATOM     10  C   UNL A   1      32.332  25.384  26.008  1.00  0.00     0.022 C 
ATOM     11  C   UNL A   1      34.345  24.527  24.796  1.00  0.00     0.035 C 
ATOM     12  C   UNL A   1      33.822  25.585  25.763  1.00  0.00     0.004 C 
BRANCH   8  13
ATOM     13  C   UNL A   1      31.818  21.889  25.168  1.00  0.00     0.264 C 
ATOM     14  O   UNL A   1      30.748  21.637  25.735  1.00  0.00    -0.271 OA
BRANCH  13  15
ATOM     15  C   UNL A   1      32.372  20.879  24.124  1.00  0.00     0.259 C 
ATOM     16  C   UNL A   1      32.169  21.549  22.758  1.00  0.00     0.064 C 
BRANCH  15  17
ATOM     17  O   UNL A   1      31.817  19.579  24.295  1.00  0.00    -0.479 OA
BRANCH  17  18
ATOM     18  C   UNL A   1      32.571  18.444  24.404  1.00  0.00     0.139 A 
ATOM     19  C   UNL A   1      32.995  17.866  25.601  1.00  0.00     0.048 A 
ATOM     20  C   UNL A   1      32.976  17.840  23.199  1.00  0.00     0.083 A 
ATOM     21  C   UNL A   1      33.906  16.803  25.598  1.00  0.00     0.004 A 
ATOM     22  C   UNL A   1      33.882  16.775  23.195  1.00  0.00     0.024 A 
ATOM     23  Cl  UNL A   1      32.349  18.360  21.672  1.00  0.00    -0.080 Cl
ATOM     24  C   UNL A   1      34.369  16.273  24.397  1.00  0.00     0.002 A 
ENDBRANCH  17  18
ENDBRANCH  15  17
ENDBRANCH  13  15
ENDBRANCH   8  13
ENDBRANCH   4   7
ENDBRANCH   2   3
ENDBRANCH   1   2
BRANCH   1  25
ATOM     25  C   UNL A   1      37.764  19.265  25.011  1.00  0.00     0.023 C 
BRANCH  25  26
ATOM     26  C   UNL A   1      38.852  19.928  25.848  1.00  0.00     0.116 C 
BRANCH  26  27
ATOM     27  N   UNL A   1      40.069  19.136  25.926  1.00  0.00    -0.352 N 
ATOM     28  C   UNL A   1      41.359  19.542  26.166  1.00  0.00     0.251 C 
ATOM     29  H   UNL A   1      39.950  18.168  25.789  1.00  0.00     0.163 HD
ATOM     30  O   UNL A   1      42.279  18.735  26.048  1.00  0.00    -0.269 OA
BRANCH  28  31
ATOM     31  C   UNL A   1      41.641  20.950  26.525  1.00  0.00     0.039 A 
ATOM     32  C   UNL A   1      42.229  21.225  27.763  1.00  0.00     0.014 A 
ATOM     33  C   UNL A   1      41.344  21.994  25.645  1.00  0.00     0.014 A 
ATOM     34  C   UNL A   1      42.585  22.537  28.085  1.00  0.00     0.010 A 
ATOM     35  C   UNL A   1      41.776  23.287  25.933  1.00  0.00     0.010 A 
ATOM     36  C   UNL A   1      42.401  23.574  27.156  1.00  0.00    -0.014 A 
BRANCH  36  37
ATOM     37  C   UNL A   1      42.871  24.955  27.444  1.00  0.00     0.031 A 
ATOM     38  C   UNL A   1      41.949  25.956  28.086  1.00  0.00     0.074 A 
ATOM     39  C   UNL A   1      44.108  25.329  27.063  1.00  0.00     0.049 A 
ATOM     40  N   UNL A   1      42.158  27.218  28.364  1.00  0.00    -0.248 NA
ATOM     41  C   UNL A   1      40.602  25.479  28.426  1.00  0.00     0.031 C 
ATOM     42  C   UNL A   1      45.075  24.470  26.375  1.00  0.00     0.029 A 
ATOM     43  N   UNL A   1      44.762  26.531  27.186  1.00  0.00    -0.354 N 
ATOM     44  C   UNL A   1      40.966  27.689  28.902  1.00  0.00     0.074 A 
ATOM     45  C   UNL A   1      40.020  26.595  28.836  1.00  0.00     0.031 C 
ATOM     46  C   UNL A   1      46.202  25.164  26.156  1.00  0.00     0.029 A 
ATOM     47  C   UNL A   1      46.025  26.529  26.642  1.00  0.00     0.049 A 
ATOM     48  H   UNL A   1      44.364  27.318  27.622  1.00  0.00     0.167 HD
ATOM     49  C   UNL A   1      40.694  28.912  29.427  1.00  0.00     0.034 A 
ATOM     50  C   UNL A   1      46.935  27.517  26.528  1.00  0.00     0.034 A 
ATOM     51  C   UNL A   1      41.651  29.992  29.475  1.00  0.00     0.049 A 
ATOM     52  C   UNL A   1      46.611  28.875  27.092  1.00  0.00     0.074 A 
ATOM     53  C   UNL A   1      41.508  31.247  30.041  1.00  0.00     0.029 A 
ATOM     54  N   UNL A   1      42.925  29.955  28.918  1.00  0.00    -0.354 N 
ATOM     55  N   UNL A   1      45.505  29.287  27.670  1.00  0.00    -0.248 NA
ATOM     56  C   UNL A   1      47.661  29.896  27.002  1.00  0.00     0.031 C 
ATOM     57  C   UNL A   1      42.657  31.993  29.752  1.00  0.00     0.029 A 
ATOM     58  C   UNL A   1      43.560  31.178  29.087  1.00  0.00     0.049 A 
ATOM     59  H   UNL A   1      43.321  29.173  28.469  1.00  0.00     0.167 HD
ATOM     60  C   UNL A   1      45.736  30.612  28.029  1.00  0.00     0.074 A 
ATOM     61  C   UNL A   1      47.091  30.921  27.620  1.00  0.00     0.031 C 
ATOM     62  C   UNL A   1      44.902  31.490  28.647  1.00  0.00     0.034 A 
BRANCH  49  63
ATOM     63  C   UNL A   1      39.291  29.141  29.949  1.00  0.00     0.023 A 
ATOM     64  C   UNL A   1      38.333  29.855  29.207  1.00  0.00     0.031 A 
ATOM     65  C   UNL A   1      38.924  28.699  31.233  1.00  0.00     0.131 A 
ATOM     66  C   UNL A   1      37.108  30.207  29.793  1.00  0.00     0.055 A 
ATOM     67  C   UNL A   1      37.661  28.964  31.771  1.00  0.00     0.041 A 
ATOM     68  F   UNL A   1      39.795  28.029  32.003  1.00  0.00    -0.206 F 
ATOM     69  C   UNL A   1      36.753  29.742  31.060  1.00  0.00     0.022 A 
BRANCH  66  70
ATOM     70  S   UNL A   1      36.079  31.449  28.959  1.00  0.00     0.124 S 
ATOM     71  O   UNL A   1      37.072  32.457  28.594  1.00  0.00    -0.237 OA
ATOM     72  O   UNL A   1      35.502  30.690  27.856  1.00  0.00    -0.237 OA
ATOM     73  O   UNL A   1      35.136  31.864  29.995  1.00  0.00    -0.744 OA
ENDBRANCH  66  70
ENDBRANCH  49  63
BRANCH  50  74
ATOM     74  C   UNL A   1      48.227  27.256  25.831  1.00  0.00     0.023 A 
ATOM     75  C   UNL A   1      48.351  27.400  24.441  1.00  0.00     0.031 A 
ATOM     76  C   UNL A   1      49.365  26.867  26.561  1.00  0.00     0.131 A 
ATOM     77  C   UNL A   1      49.583  27.135  23.820  1.00  0.00     0.055 A 
ATOM     78  C   UNL A   1      50.598  26.651  25.946  1.00  0.00     0.041 A 
ATOM     79  F   UNL A   1      49.300  26.723  27.895  1.00  0.00    -0.206 F 
ATOM     80  C   UNL A   1      50.709  26.777  24.565  1.00  0.00     0.022 A 
BRANCH  77  81
ATOM     81  S   UNL A   1      49.684  27.221  22.011  1.00  0.00     0.124 S 
ATOM     82  O   UNL A   1      48.732  26.192  21.611  1.00  0.00    -0.237 OA
ATOM     83  O   UNL A   1      49.286  28.601  21.750  1.00  0.00    -0.237 OA
ATOM     84  O   UNL A   1      51.087  26.917  21.734  1.00  0.00    -0.744 OA
ENDBRANCH  77  81
ENDBRANCH  50  74
BRANCH  62  85
ATOM     85  C   UNL A   1      45.452  32.867  28.940  1.00  0.00     0.023 A 
ATOM     86  C   UNL A   1      45.317  33.930  28.027  1.00  0.00     0.031 A 
ATOM     87  C   UNL A   1      46.133  33.117  30.145  1.00  0.00     0.131 A 
ATOM     88  C   UNL A   1      45.908  35.172  28.308  1.00  0.00     0.055 A 
ATOM     89  C   UNL A   1      46.659  34.375  30.448  1.00  0.00     0.041 A 
ATOM     90  F   UNL A   1      46.299  32.141  31.052  1.00  0.00    -0.206 F 
ATOM     91  C   UNL A   1      46.560  35.406  29.520  1.00  0.00     0.022 A 
BRANCH  88  92
ATOM     92  S   UNL A   1      45.907  36.449  27.018  1.00  0.00     0.124 S 
ATOM     93  O   UNL A   1      46.831  37.435  27.570  1.00  0.00    -0.237 OA
ATOM     94  O   UNL A   1      46.382  35.713  25.851  1.00  0.00    -0.237 OA
ATOM     95  O   UNL A   1      44.511  36.874  26.958  1.00  0.00    -0.744 OA
ENDBRANCH  88  92
ENDBRANCH  62  85
ENDBRANCH  36  37
ENDBRANCH  28  31
ENDBRANCH  26  27
ENDBRANCH  25  26
ENDBRANCH   1  25
TORSDOF 18
ENDMDL
MODEL 2
REMARK VINA RESULT:     -11.4      5.164      8.251
REMARK SMILES C[C@H](Oc1ccccc1Cl)C(=O)N1CCCC[C@H]1C(=O)NCCCCNC(=O)c1ccc(-c2c3nc(c(-c4cc(S(=O)(=O)[O-])ccc4F)c4ccc([nH]4)c(-c4cc(S(=O)(=O)[O-])ccc4F)c4nc(c(-c5cc(S(=O)(=O)[O-])ccc5F)c5ccc2[nH]5)C=C4)C=C3)cc1
REMARK SMILES IDX 23 1 22 2 21 3 19 4 20 5 18 7 13 8 14 9 15 10 17 11 16 12
REMARK SMILES IDX 11 13 12 14 2 15 1 16 3 17 4 18 5 19 9 20 6 21 8 22 10 23
REMARK SMILES IDX 7 24 24 25 25 26 26 27 27 28 28 30 29 31 30 32 91 33 31 34
REMARK SMILES IDX 90 35 32 36 33 37 34 38 84 39 35 40 89 41 83 42 85 43 36 44
REMARK SMILES IDX 88 45 82 46 81 47 37 49 69 50 49 51 68 52 50 53 53 54 67 55
REMARK SMILES IDX 86 56 51 57 52 58 66 60 87 61 54 62 38 63 39 64 47 65 40 66
REMARK SMILES IDX 46 67 48 68 45 69 41 70 42 71 43 72 44 73 70 74 71 75 79 76
REMARK SMILES IDX 72 77 78 78 80 79 77 80 73 81 74 82 75 83 76 84 55 85 56 86
REMARK SMILES IDX 64 87 57 88 63 89 65 90 62 91 58 92 59 93 60 94 61 95
REMARK H PARENT 21 6 26 29 85 48 53 59
REMARK Flexibility Score: inf
ROOT
ATOM      1  C   UNL A   1      33.738  28.594  24.670  1.00  0.00     0.023 C 
ENDROOT
BRANCH   1   2
ATOM      2  C   UNL A   1      33.437  27.182  25.167  1.00  0.00     0.116 C 
BRANCH   2   3
ATOM      3  N   UNL A   1      32.134  26.698  24.750  1.00  0.00    -0.354 N 
ATOM      4  C   UNL A   1      31.703  25.412  24.570  1.00  0.00     0.242 C 
ATOM      5  O   UNL A   1      30.515  25.247  24.282  1.00  0.00    -0.273 OA
ATOM      6  H   UNL A   1      31.464  27.396  24.571  1.00  0.00     0.163 HD
BRANCH   4   7
ATOM      7  C   UNL A   1      32.705  24.236  24.690  1.00  0.00     0.174 C 
ATOM      8  N   UNL A   1      32.098  22.898  24.507  1.00  0.00    -0.327 N 
ATOM      9  C   UNL A   1      31.754  22.521  23.134  1.00  0.00     0.120 C 
ATOM     10  C   UNL A   1      32.905  22.723  22.159  1.00  0.00     0.022 C 
ATOM     11  C   UNL A   1      33.888  24.407  23.725  1.00  0.00     0.035 C 
ATOM     12  C   UNL A   1      33.500  24.120  22.278  1.00  0.00     0.004 C 
BRANCH   8  13
ATOM     13  C   UNL A   1      31.769  22.016  25.534  1.00  0.00     0.264 C 
ATOM     14  O   UNL A   1      30.983  22.346  26.430  1.00  0.00    -0.271 OA
BRANCH  13  15
ATOM     15  C   UNL A   1      32.562  20.687  25.682  1.00  0.00     0.259 C 
ATOM     16  C   UNL A   1      34.002  21.022  25.267  1.00  0.00     0.064 C 
BRANCH  15  17
ATOM     17  O   UNL A   1      31.927  19.610  25.002  1.00  0.00    -0.479 OA
BRANCH  17  18
ATOM     18  C   UNL A   1      32.531  18.408  24.762  1.00  0.00     0.139 A 
ATOM     19  C   UNL A   1      32.935  17.495  25.737  1.00  0.00     0.048 A 
ATOM     20  C   UNL A   1      32.793  18.093  23.416  1.00  0.00     0.083 A 
ATOM     21  C   UNL A   1      33.698  16.373  25.395  1.00  0.00     0.004 A 
ATOM     22  C   UNL A   1      33.551  16.969  23.071  1.00  0.00     0.024 A 
ATOM     23  Cl  UNL A   1      32.163  19.057  22.123  1.00  0.00    -0.080 Cl
ATOM     24  C   UNL A   1      34.028  16.122  24.066  1.00  0.00     0.002 A 
ENDBRANCH  17  18
ENDBRANCH  15  17
ENDBRANCH  13  15
ENDBRANCH   8  13
ENDBRANCH   4   7
ENDBRANCH   2   3
ENDBRANCH   1   2
BRANCH   1  25
ATOM     25  C   UNL A   1      32.616  29.612  24.872  1.00  0.00     0.023 C 
BRANCH  25  26
ATOM     26  C   UNL A   1      32.317  29.973  26.322  1.00  0.00     0.116 C 
BRANCH  26  27
ATOM     27  N   UNL A   1      32.265  31.409  26.550  1.00  0.00    -0.352 N 
ATOM     28  C   UNL A   1      33.112  32.206  27.282  1.00  0.00     0.251 C 
ATOM     29  H   UNL A   1      31.516  31.877  26.115  1.00  0.00     0.163 HD
ATOM     30  O   UNL A   1      32.817  33.383  27.475  1.00  0.00    -0.269 OA
BRANCH  28  31
ATOM     31  C   UNL A   1      34.350  31.639  27.862  1.00  0.00     0.039 A 
ATOM     32  C   UNL A   1      35.440  32.486  28.084  1.00  0.00     0.014 A 
ATOM     33  C   UNL A   1      34.436  30.287  28.202  1.00  0.00     0.014 A 
ATOM     34  C   UNL A   1      36.585  31.992  28.713  1.00  0.00     0.010 A 
ATOM     35  C   UNL A   1      35.544  29.817  28.904  1.00  0.00     0.010 A 
ATOM     36  C   UNL A   1      36.631  30.664  29.167  1.00  0.00    -0.014 A 
BRANCH  36  37
ATOM     37  C   UNL A   1      37.802  30.154  29.931  1.00  0.00     0.031 A 
ATOM     38  C   UNL A   1      38.064  30.630  31.333  1.00  0.00     0.074 A 
ATOM     39  C   UNL A   1      38.669  29.312  29.334  1.00  0.00     0.049 A 
ATOM     40  N   UNL A   1      39.059  30.343  32.135  1.00  0.00    -0.248 NA
ATOM     41  C   UNL A   1      37.096  31.583  31.892  1.00  0.00     0.031 C 
ATOM     42  C   UNL A   1      38.559  28.826  27.957  1.00  0.00     0.029 A 
ATOM     43  N   UNL A   1      39.820  28.728  29.801  1.00  0.00    -0.354 N 
ATOM     44  C   UNL A   1      38.842  31.088  33.289  1.00  0.00     0.074 A 
ATOM     45  C   UNL A   1      37.664  31.896  33.046  1.00  0.00     0.031 C 
ATOM     46  C   UNL A   1      39.587  28.003  27.698  1.00  0.00     0.029 A 
ATOM     47  C   UNL A   1      40.454  27.939  28.870  1.00  0.00     0.049 A 
ATOM     48  H   UNL A   1      40.158  28.860  30.715  1.00  0.00     0.167 HD
ATOM     49  C   UNL A   1      39.543  31.081  34.451  1.00  0.00     0.034 A 
ATOM     50  C   UNL A   1      41.613  27.254  28.940  1.00  0.00     0.034 A 
ATOM     51  C   UNL A   1      40.720  30.273  34.669  1.00  0.00     0.049 A 
ATOM     52  C   UNL A   1      42.394  27.272  30.227  1.00  0.00     0.074 A 
ATOM     53  C   UNL A   1      41.470  30.134  35.824  1.00  0.00     0.029 A 
ATOM     54  N   UNL A   1      41.335  29.480  33.704  1.00  0.00    -0.354 N 
ATOM     55  N   UNL A   1      42.136  27.922  31.340  1.00  0.00    -0.248 NA
ATOM     56  C   UNL A   1      43.613  26.457  30.273  1.00  0.00     0.031 C 
ATOM     57  C   UNL A   1      42.580  29.330  35.534  1.00  0.00     0.029 A 
ATOM     58  C   UNL A   1      42.477  28.888  34.224  1.00  0.00     0.049 A 
ATOM     59  H   UNL A   1      41.006  29.357  32.784  1.00  0.00     0.167 HD
ATOM     60  C   UNL A   1      43.154  27.577  32.225  1.00  0.00     0.074 A 
ATOM     61  C   UNL A   1      44.015  26.647  31.522  1.00  0.00     0.031 C 
ATOM     62  C   UNL A   1      43.351  27.987  33.505  1.00  0.00     0.034 A 
BRANCH  49  63
ATOM     63  C   UNL A   1      39.066  32.006  35.551  1.00  0.00     0.023 A 
ATOM     64  C   UNL A   1      39.503  33.340  35.635  1.00  0.00     0.031 A 
ATOM     65  C   UNL A   1      38.216  31.532  36.567  1.00  0.00     0.131 A 
ATOM     66  C   UNL A   1      39.189  34.113  36.764  1.00  0.00     0.055 A 
ATOM     67  C   UNL A   1      37.822  32.342  37.635  1.00  0.00     0.041 A 
ATOM     68  F   UNL A   1      37.777  30.264  36.558  1.00  0.00    -0.206 F 
ATOM     69  C   UNL A   1      38.327  33.634  37.751  1.00  0.00     0.022 A 
BRANCH  66  70
ATOM     70  S   UNL A   1      40.088  35.670  37.019  1.00  0.00     0.124 S 
ATOM     71  O   UNL A   1      39.652  36.454  35.865  1.00  0.00    -0.237 OA
ATOM     72  O   UNL A   1      39.590  36.111  38.316  1.00  0.00    -0.237 OA
ATOM     73  O   UNL A   1      41.490  35.264  36.991  1.00  0.00    -0.744 OA
ENDBRANCH  66  70
ENDBRANCH  49  63
BRANCH  50  74
ATOM     74  C   UNL A   1      42.108  26.514  27.745  1.00  0.00     0.023 A 
ATOM     75  C   UNL A   1      41.875  25.139  27.585  1.00  0.00     0.031 A 
ATOM     76  C   UNL A   1      42.818  27.187  26.732  1.00  0.00     0.131 A 
ATOM     77  C   UNL A   1      42.367  24.475  26.449  1.00  0.00     0.055 A 
ATOM     78  C   UNL A   1      43.263  26.532  25.584  1.00  0.00     0.041 A 
ATOM     79  F   UNL A   1      43.059  28.504  26.833  1.00  0.00    -0.206 F 
ATOM     80  C   UNL A   1      43.044  25.166  25.441  1.00  0.00     0.022 A 
BRANCH  77  81
ATOM     81  S   UNL A   1      42.148  22.679  26.325  1.00  0.00     0.124 S 
ATOM     82  O   UNL A   1      40.704  22.545  26.477  1.00  0.00    -0.237 OA
ATOM     83  O   UNL A   1      42.683  22.399  24.997  1.00  0.00    -0.237 OA
ATOM     84  O   UNL A   1      42.944  22.162  27.437  1.00  0.00    -0.744 OA
ENDBRANCH  77  81
ENDBRANCH  50  74
BRANCH  62  85
ATOM     85  C   UNL A   1      44.541  27.406  34.236  1.00  0.00     0.023 A 
ATOM     86  C   UNL A   1      44.454  26.200  34.955  1.00  0.00     0.031 A 
ATOM     87  C   UNL A   1      45.776  28.077  34.225  1.00  0.00     0.131 A 
ATOM     88  C   UNL A   1      45.563  25.735  35.680  1.00  0.00     0.055 A 
ATOM     89  C   UNL A   1      46.895  27.575  34.892  1.00  0.00     0.041 A 
ATOM     90  F   UNL A   1      45.919  29.237  33.562  1.00  0.00    -0.206 F 
ATOM     91  C   UNL A   1      46.788  26.405  35.637  1.00  0.00     0.022 A 
BRANCH  88  92
ATOM     92  S   UNL A   1      45.353  24.301  36.771  1.00  0.00     0.124 S 
ATOM     93  O   UNL A   1      44.541  24.857  37.849  1.00  0.00    -0.237 OA
ATOM     94  O   UNL A   1      44.683  23.341  35.899  1.00  0.00    -0.237 OA
ATOM     95  O   UNL A   1      46.721  23.950  37.144  1.00  0.00    -0.744 OA
ENDBRANCH  88  92
ENDBRANCH  62  85
ENDBRANCH  36  37
ENDBRANCH  28  31
ENDBRANCH  26  27
ENDBRANCH  25  26
ENDBRANCH   1  25
TORSDOF 18
ENDMDL
MODEL 3
REMARK VINA RESULT:     -11.4      3.107      8.768
REMARK SMILES C[C@H](Oc1ccccc1Cl)C(=O)N1CCCC[C@H]1C(=O)NCCCCNC(=O)c1ccc(-c2c3nc(c(-c4cc(S(=O)(=O)[O-])ccc4F)c4ccc([nH]4)c(-c4cc(S(=O)(=O)[O-])ccc4F)c4nc(c(-c5cc(S(=O)(=O)[O-])ccc5F)c5ccc2[nH]5)C=C4)C=C3)cc1
REMARK SMILES IDX 23 1 22 2 21 3 19 4 20 5 18 7 13 8 14 9 15 10 17 11 16 12
REMARK SMILES IDX 11 13 12 14 2 15 1 16 3 17 4 18 5 19 9 20 6 21 8 22 10 23
REMARK SMILES IDX 7 24 24 25 25 26 26 27 27 28 28 30 29 31 30 32 91 33 31 34
REMARK SMILES IDX 90 35 32 36 33 37 34 38 84 39 35 40 89 41 83 42 85 43 36 44
REMARK SMILES IDX 88 45 82 46 81 47 37 49 69 50 49 51 68 52 50 53 53 54 67 55
REMARK SMILES IDX 86 56 51 57 52 58 66 60 87 61 54 62 38 63 39 64 47 65 40 66
REMARK SMILES IDX 46 67 48 68 45 69 41 70 42 71 43 72 44 73 70 74 71 75 79 76
REMARK SMILES IDX 72 77 78 78 80 79 77 80 73 81 74 82 75 83 76 84 55 85 56 86
REMARK SMILES IDX 64 87 57 88 63 89 65 90 62 91 58 92 59 93 60 94 61 95
REMARK H PARENT 21 6 26 29 85 48 53 59
REMARK Flexibility Score: inf
ROOT
ATOM      1  C   UNL A   1      34.158  20.896  25.956  1.00  0.00     0.023 C 
ENDROOT
BRANCH   1   2
ATOM      2  C   UNL A   1      32.920  21.579  25.381  1.00  0.00     0.116 C 
BRANCH   2   3
ATOM      3  N   UNL A   1      32.245  22.436  26.339  1.00  0.00    -0.354 N 
ATOM      4  C   UNL A   1      31.819  23.728  26.197  1.00  0.00     0.242 C 
ATOM      5  O   UNL A   1      31.196  24.226  27.138  1.00  0.00    -0.273 OA
ATOM      6  H   UNL A   1      32.069  22.028  27.216  1.00  0.00     0.163 HD
BRANCH   4   7
ATOM      7  C   UNL A   1      32.160  24.519  24.908  1.00  0.00     0.174 C 
ATOM      8  N   UNL A   1      31.552  25.867  24.842  1.00  0.00    -0.327 N 
ATOM      9  C   UNL A   1      32.160  26.898  25.686  1.00  0.00     0.120 C 
ATOM     10  C   UNL A   1      33.670  26.985  25.520  1.00  0.00     0.022 C 
ATOM     11  C   UNL A   1      33.679  24.623  24.699  1.00  0.00     0.035 C 
ATOM     12  C   UNL A   1      34.327  25.617  25.656  1.00  0.00     0.004 C 
BRANCH   8  13
ATOM     13  C   UNL A   1      30.419  26.204  24.105  1.00  0.00     0.264 C 
ATOM     14  O   UNL A   1      29.338  25.637  24.302  1.00  0.00    -0.271 OA
BRANCH  13  15
ATOM     15  C   UNL A   1      30.562  27.142  22.873  1.00  0.00     0.259 C 
ATOM     16  C   UNL A   1      31.679  26.527  22.018  1.00  0.00     0.064 C 
BRANCH  15  17
ATOM     17  O   UNL A   1      30.717  28.504  23.256  1.00  0.00    -0.479 OA
BRANCH  17  18
ATOM     18  C   UNL A   1      29.697  29.413  23.241  1.00  0.00     0.139 A 
ATOM     19  C   UNL A   1      28.539  29.319  22.468  1.00  0.00     0.048 A 
ATOM     20  C   UNL A   1      29.858  30.553  24.051  1.00  0.00     0.083 A 
ATOM     21  C   UNL A   1      27.636  30.387  22.397  1.00  0.00     0.004 A 
ATOM     22  C   UNL A   1      28.955  31.619  23.986  1.00  0.00     0.024 A 
ATOM     23  Cl  UNL A   1      31.156  30.676  25.189  1.00  0.00    -0.080 Cl
ATOM     24  C   UNL A   1      27.856  31.546  23.136  1.00  0.00     0.002 A 
ENDBRANCH  17  18
ENDBRANCH  15  17
ENDBRANCH  13  15
ENDBRANCH   8  13
ENDBRANCH   4   7
ENDBRANCH   2   3
ENDBRANCH   1   2
BRANCH   1  25
ATOM     25  C   UNL A   1      35.323  21.827  26.287  1.00  0.00     0.023 C 
BRANCH  25  26
ATOM     26  C   UNL A   1      36.441  21.867  25.252  1.00  0.00     0.116 C 
BRANCH  26  27
ATOM     27  N   UNL A   1      37.428  20.816  25.442  1.00  0.00    -0.352 N 
ATOM     28  C   UNL A   1      38.727  20.910  25.879  1.00  0.00     0.251 C 
ATOM     29  H   UNL A   1      37.119  19.906  25.227  1.00  0.00     0.163 HD
ATOM     30  O   UNL A   1      39.453  19.919  25.834  1.00  0.00    -0.269 OA
BRANCH  28  31
ATOM     31  C   UNL A   1      39.257  22.204  26.364  1.00  0.00     0.039 A 
ATOM     32  C   UNL A   1      40.385  22.205  27.189  1.00  0.00     0.014 A 
ATOM     33  C   UNL A   1      38.659  23.413  25.998  1.00  0.00     0.014 A 
ATOM     34  C   UNL A   1      40.954  23.418  27.585  1.00  0.00     0.010 A 
ATOM     35  C   UNL A   1      39.276  24.619  26.324  1.00  0.00     0.010 A 
ATOM     36  C   UNL A   1      40.430  24.635  27.120  1.00  0.00    -0.014 A 
BRANCH  36  37
ATOM     37  C   UNL A   1      41.088  25.929  27.448  1.00  0.00     0.031 A 
ATOM     38  C   UNL A   1      42.512  26.186  27.036  1.00  0.00     0.074 A 
ATOM     39  C   UNL A   1      40.423  26.846  28.179  1.00  0.00     0.049 A 
ATOM     40  N   UNL A   1      43.270  27.225  27.278  1.00  0.00    -0.248 NA
ATOM     41  C   UNL A   1      43.178  25.116  26.285  1.00  0.00     0.031 C 
ATOM     42  C   UNL A   1      39.061  26.688  28.692  1.00  0.00     0.029 A 
ATOM     43  N   UNL A   1      40.806  28.084  28.630  1.00  0.00    -0.354 N 
ATOM     44  C   UNL A   1      44.507  26.930  26.716  1.00  0.00     0.074 A 
ATOM     45  C   UNL A   1      44.414  25.583  26.193  1.00  0.00     0.031 C 
ATOM     46  C   UNL A   1      38.715  27.794  29.368  1.00  0.00     0.029 A 
ATOM     47  C   UNL A   1      39.844  28.720  29.379  1.00  0.00     0.049 A 
ATOM     48  H   UNL A   1      41.685  28.480  28.434  1.00  0.00     0.167 HD
ATOM     49  C   UNL A   1      45.610  27.717  26.622  1.00  0.00     0.034 A 
ATOM     50  C   UNL A   1      39.868  29.905  30.021  1.00  0.00     0.034 A 
ATOM     51  C   UNL A   1      45.684  29.056  27.159  1.00  0.00     0.049 A 
ATOM     52  C   UNL A   1      41.105  30.758  29.929  1.00  0.00     0.074 A 
ATOM     53  C   UNL A   1      46.721  29.968  27.065  1.00  0.00     0.029 A 
ATOM     54  N   UNL A   1      44.687  29.672  27.910  1.00  0.00    -0.354 N 
ATOM     55  N   UNL A   1      42.245  30.499  29.327  1.00  0.00    -0.248 NA
ATOM     56  C   UNL A   1      41.056  32.068  30.589  1.00  0.00     0.031 C 
ATOM     57  C   UNL A   1      46.388  31.094  27.827  1.00  0.00     0.029 A 
ATOM     58  C   UNL A   1      45.104  30.929  28.323  1.00  0.00     0.049 A 
ATOM     59  H   UNL A   1      43.812  29.272  28.118  1.00  0.00     0.167 HD
ATOM     60  C   UNL A   1      43.041  31.624  29.522  1.00  0.00     0.074 A 
ATOM     61  C   UNL A   1      42.244  32.568  30.279  1.00  0.00     0.031 C 
ATOM     62  C   UNL A   1      44.314  31.855  29.106  1.00  0.00     0.034 A 
BRANCH  49  63
ATOM     63  C   UNL A   1      46.826  27.122  25.946  1.00  0.00     0.023 A 
ATOM     64  C   UNL A   1      47.801  26.411  26.669  1.00  0.00     0.031 A 
ATOM     65  C   UNL A   1      47.053  27.324  24.572  1.00  0.00     0.131 A 
ATOM     66  C   UNL A   1      49.002  26.033  26.049  1.00  0.00     0.055 A 
ATOM     67  C   UNL A   1      48.205  26.851  23.938  1.00  0.00     0.041 A 
ATOM     68  F   UNL A   1      46.174  28.009  23.826  1.00  0.00    -0.206 F 
ATOM     69  C   UNL A   1      49.199  26.222  24.681  1.00  0.00     0.022 A 
BRANCH  66  70
ATOM     70  S   UNL A   1      50.377  25.481  27.099  1.00  0.00     0.124 S 
ATOM     71  O   UNL A   1      49.811  24.285  27.721  1.00  0.00    -0.237 OA
ATOM     72  O   UNL A   1      51.441  25.254  26.128  1.00  0.00    -0.237 OA
ATOM     73  O   UNL A   1      50.586  26.605  28.007  1.00  0.00    -0.744 OA
ENDBRANCH  66  70
ENDBRANCH  49  63
BRANCH  50  74
ATOM     74  C   UNL A   1      38.688  30.337  30.823  1.00  0.00     0.023 A 
ATOM     75  C   UNL A   1      37.646  31.081  30.250  1.00  0.00     0.031 A 
ATOM     76  C   UNL A   1      38.585  29.992  32.184  1.00  0.00     0.131 A 
ATOM     77  C   UNL A   1      36.555  31.477  31.041  1.00  0.00     0.055 A 
ATOM     78  C   UNL A   1      37.478  30.348  32.953  1.00  0.00     0.041 A 
ATOM     79  F   UNL A   1      39.552  29.273  32.776  1.00  0.00    -0.206 F 
ATOM     80  C   UNL A   1      36.457  31.102  32.383  1.00  0.00     0.022 A 
BRANCH  77  81
ATOM     81  S   UNL A   1      35.279  32.534  30.302  1.00  0.00     0.124 S 
ATOM     82  O   UNL A   1      34.789  31.692  29.217  1.00  0.00    -0.237 OA
ATOM     83  O   UNL A   1      34.365  32.735  31.422  1.00  0.00    -0.237 OA
ATOM     84  O   UNL A   1      36.021  33.723  29.886  1.00  0.00    -0.744 OA
ENDBRANCH  77  81
ENDBRANCH  50  74
BRANCH  62  85
ATOM     85  C   UNL A   1      44.912  33.201  29.444  1.00  0.00     0.023 A 
ATOM     86  C   UNL A   1      44.776  34.310  28.589  1.00  0.00     0.031 A 
ATOM     87  C   UNL A   1      45.642  33.374  30.634  1.00  0.00     0.131 A 
ATOM     88  C   UNL A   1      45.412  35.521  28.906  1.00  0.00     0.055 A 
ATOM     89  C   UNL A   1      46.214  34.601  30.977  1.00  0.00     0.041 A 
ATOM     90  F   UNL A   1      45.813  32.350  31.487  1.00  0.00    -0.206 F 
ATOM     91  C   UNL A   1      46.113  35.679  30.104  1.00  0.00     0.022 A 
BRANCH  88  92
ATOM     92  S   UNL A   1      45.401  36.859  27.680  1.00  0.00     0.124 S 
ATOM     93  O   UNL A   1      43.994  36.905  27.296  1.00  0.00    -0.237 OA
ATOM     94  O   UNL A   1      45.889  37.995  28.454  1.00  0.00    -0.237 OA
ATOM     95  O   UNL A   1      46.311  36.379  26.642  1.00  0.00    -0.744 OA
ENDBRANCH  88  92
ENDBRANCH  62  85
ENDBRANCH  36  37
ENDBRANCH  28  31
ENDBRANCH  26  27
ENDBRANCH  25  26
ENDBRANCH   1  25
TORSDOF 18
ENDMDL
