MODEL 1
REMARK VINA RESULT:     -11.8      0.000      0.000
REMARK SMILES COc1ccc(CSc2ncccc2C(=O)NCCCCNC(=O)c2ccc(-c3c4nc(c(-c5cc(S(=O)(=O)[O-])ccc5F)c5ccc([nH]5)c(-c5cc(S(=O)(=O)[O-])ccc5F)c5nc(c(-c6cc(S(=O)(=O)[O-])ccc6F)c6ccc3[nH]6)C=C5)C=C4)cc2)cc1
REMARK SMILES IDX 19 1 18 2 17 3 15 4 16 5 14 7 9 8 10 9 11 10 13 11 12 12
REMARK SMILES IDX 8 13 7 14 6 15 3 16 4 17 89 18 5 19 88 20 2 21 1 22 20 23
REMARK SMILES IDX 21 24 22 25 23 26 24 28 25 29 26 30 87 31 27 32 86 33 28 34
REMARK SMILES IDX 29 35 30 36 80 37 31 38 85 39 79 40 81 41 32 42 84 43 78 44
REMARK SMILES IDX 77 45 33 47 65 48 45 49 64 50 46 51 49 52 63 53 82 54 47 55
REMARK SMILES IDX 48 56 62 58 83 59 50 60 34 61 35 62 43 63 36 64 42 65 44 66
REMARK SMILES IDX 41 67 37 68 38 69 39 70 40 71 66 72 67 73 75 74 68 75 74 76
REMARK SMILES IDX 76 77 73 78 69 79 70 80 71 81 72 82 51 83 52 84 60 85 53 86
REMARK SMILES IDX 59 87 61 88 58 89 54 90 55 91 56 92 57 93
REMARK H PARENT 17 6 22 27 81 46 49 57
REMARK Flexibility Score: inf
ROOT
ATOM      1  C   UNL A   1      31.361  30.552  25.413  1.00  0.00     0.023 C 
ENDROOT
BRANCH   1   2
ATOM      2  C   UNL A   1      32.469  29.592  25.827  1.00  0.00     0.116 C 
BRANCH   2   3
ATOM      3  N   UNL A   1      33.470  29.361  24.805  1.00  0.00    -0.352 N 
ATOM      4  C   UNL A   1      33.668  28.323  23.921  1.00  0.00     0.254 C 
ATOM      5  O   UNL A   1      34.021  28.635  22.784  1.00  0.00    -0.269 OA
ATOM      6  H   UNL A   1      34.135  30.082  24.729  1.00  0.00     0.163 HD
BRANCH   4   7
ATOM      7  C   UNL A   1      33.539  26.882  24.279  1.00  0.00     0.072 A 
ATOM      8  C   UNL A   1      32.604  26.056  23.627  1.00  0.00     0.109 A 
ATOM      9  N   UNL A   1      32.394  24.754  23.989  1.00  0.00    -0.249 NA
ATOM     10  C   UNL A   1      33.092  24.254  25.024  1.00  0.00     0.112 A 
ATOM     11  C   UNL A   1      34.252  26.304  25.337  1.00  0.00     0.018 A 
ATOM     12  C   UNL A   1      34.034  24.980  25.715  1.00  0.00     0.021 A 
BRANCH   8  13
ATOM     13  S   UNL A   1      31.493  26.536  22.314  1.00  0.00    -0.101 SA
BRANCH  13  14
ATOM     14  C   UNL A   1      30.005  26.949  23.274  1.00  0.00     0.112 C 
BRANCH  14  15
ATOM     15  C   UNL A   1      29.361  28.262  22.902  1.00  0.00    -0.037 A 
ATOM     16  C   UNL A   1      28.140  30.712  22.207  1.00  0.00     0.118 A 
ATOM     17  C   UNL A   1      29.468  30.461  21.865  1.00  0.00     0.047 A 
ATOM     18  C   UNL A   1      27.428  29.747  22.918  1.00  0.00     0.047 A 
ATOM     19  C   UNL A   1      30.081  29.260  22.228  1.00  0.00     0.008 A 
ATOM     20  C   UNL A   1      28.032  28.528  23.257  1.00  0.00     0.008 A 
BRANCH  16  21
ATOM     21  O   UNL A   1      27.643  31.891  21.727  1.00  0.00    -0.497 OA
ATOM     22  C   UNL A   1      28.020  32.281  20.413  1.00  0.00     0.278 C 
ENDBRANCH  16  21
ENDBRANCH  14  15
ENDBRANCH  13  14
ENDBRANCH   8  13
ENDBRANCH   4   7
ENDBRANCH   2   3
ENDBRANCH   1   2
BRANCH   1  23
ATOM     23  C   UNL A   1      31.258  31.818  26.264  1.00  0.00     0.023 C 
BRANCH  23  24
ATOM     24  C   UNL A   1      32.455  32.143  27.150  1.00  0.00     0.116 C 
BRANCH  24  25
ATOM     25  N   UNL A   1      32.569  33.558  27.458  1.00  0.00    -0.352 N 
ATOM     26  C   UNL A   1      33.510  34.191  28.233  1.00  0.00     0.251 C 
ATOM     27  H   UNL A   1      31.881  34.140  27.059  1.00  0.00     0.163 HD
ATOM     28  O   UNL A   1      33.378  35.385  28.495  1.00  0.00    -0.269 OA
BRANCH  26  29
ATOM     29  C   UNL A   1      34.647  33.421  28.780  1.00  0.00     0.039 A 
ATOM     30  C   UNL A   1      35.935  33.698  28.316  1.00  0.00     0.014 A 
ATOM     31  C   UNL A   1      34.449  32.439  29.756  1.00  0.00     0.014 A 
ATOM     32  C   UNL A   1      37.028  33.025  28.865  1.00  0.00     0.010 A 
ATOM     33  C   UNL A   1      35.544  31.825  30.355  1.00  0.00     0.010 A 
ATOM     34  C   UNL A   1      36.846  32.101  29.908  1.00  0.00    -0.014 A 
BRANCH  34  35
ATOM     35  C   UNL A   1      38.003  31.392  30.515  1.00  0.00     0.031 A 
ATOM     36  C   UNL A   1      38.426  31.715  31.923  1.00  0.00     0.074 A 
ATOM     37  C   UNL A   1      38.693  30.490  29.788  1.00  0.00     0.049 A 
ATOM     38  N   UNL A   1      39.430  31.241  32.616  1.00  0.00    -0.248 NA
ATOM     39  C   UNL A   1      37.631  32.726  32.634  1.00  0.00     0.031 C 
ATOM     40  C   UNL A   1      38.402  30.122  28.400  1.00  0.00     0.029 A 
ATOM     41  N   UNL A   1      39.782  29.720  30.113  1.00  0.00    -0.354 N 
ATOM     42  C   UNL A   1      39.392  31.903  33.840  1.00  0.00     0.074 A 
ATOM     43  C   UNL A   1      38.311  32.862  33.762  1.00  0.00     0.031 C 
ATOM     44  C   UNL A   1      39.269  29.175  28.006  1.00  0.00     0.029 A 
ATOM     45  C   UNL A   1      40.206  28.901  29.091  1.00  0.00     0.049 A 
ATOM     46  H   UNL A   1      40.218  29.750  30.994  1.00  0.00     0.167 HD
ATOM     47  C   UNL A   1      40.169  31.711  34.935  1.00  0.00     0.034 A 
ATOM     48  C   UNL A   1      41.237  28.035  29.033  1.00  0.00     0.034 A 
ATOM     49  C   UNL A   1      41.238  30.744  34.995  1.00  0.00     0.049 A 
ATOM     50  C   UNL A   1      42.103  27.854  30.255  1.00  0.00     0.074 A 
ATOM     51  C   UNL A   1      42.062  30.435  36.064  1.00  0.00     0.029 A 
ATOM     52  N   UNL A   1      41.639  29.934  33.940  1.00  0.00    -0.354 N 
ATOM     53  N   UNL A   1      42.024  28.454  31.421  1.00  0.00    -0.248 NA
ATOM     54  C   UNL A   1      43.187  26.869  30.158  1.00  0.00     0.031 C 
ATOM     55  C   UNL A   1      43.004  29.494  35.635  1.00  0.00     0.029 A 
ATOM     56  C   UNL A   1      42.715  29.147  34.325  1.00  0.00     0.049 A 
ATOM     57  H   UNL A   1      41.222  29.920  33.048  1.00  0.00     0.167 HD
ATOM     58  C   UNL A   1      43.024  27.887  32.208  1.00  0.00     0.074 A 
ATOM     59  C   UNL A   1      43.680  26.890  31.387  1.00  0.00     0.031 C 
ATOM     60  C   UNL A   1      43.364  28.159  33.495  1.00  0.00     0.034 A 
BRANCH  47  61
ATOM     61  C   UNL A   1      39.901  32.585  36.139  1.00  0.00     0.023 A 
ATOM     62  C   UNL A   1      39.019  32.186  37.159  1.00  0.00     0.031 A 
ATOM     63  C   UNL A   1      40.510  33.846  36.255  1.00  0.00     0.131 A 
ATOM     64  C   UNL A   1      38.707  33.071  38.204  1.00  0.00     0.055 A 
ATOM     65  C   UNL A   1      40.265  34.685  37.344  1.00  0.00     0.041 A 
ATOM     66  F   UNL A   1      41.344  34.293  35.304  1.00  0.00    -0.206 F 
ATOM     67  C   UNL A   1      39.346  34.307  38.318  1.00  0.00     0.022 A 
BRANCH  64  68
ATOM     68  S   UNL A   1      37.343  32.645  39.320  1.00  0.00     0.124 S 
ATOM     69  O   UNL A   1      36.187  32.779  38.437  1.00  0.00    -0.237 OA
ATOM     70  O   UNL A   1      37.681  31.288  39.730  1.00  0.00    -0.237 OA
ATOM     71  O   UNL A   1      37.432  33.656  40.372  1.00  0.00    -0.744 OA
ENDBRANCH  64  68
ENDBRANCH  47  61
BRANCH  48  72
ATOM     72  C   UNL A   1      41.515  27.268  27.782  1.00  0.00     0.023 A 
ATOM     73  C   UNL A   1      41.297  25.883  27.716  1.00  0.00     0.031 A 
ATOM     74  C   UNL A   1      42.050  27.905  26.647  1.00  0.00     0.131 A 
ATOM     75  C   UNL A   1      41.663  25.169  26.564  1.00  0.00     0.055 A 
ATOM     76  C   UNL A   1      42.356  27.200  25.482  1.00  0.00     0.041 A 
ATOM     77  F   UNL A   1      42.272  29.229  26.652  1.00  0.00    -0.206 F 
ATOM     78  C   UNL A   1      42.177  25.821  25.441  1.00  0.00     0.022 A 
BRANCH  75  79
ATOM     79  S   UNL A   1      41.544  23.359  26.587  1.00  0.00     0.124 S 
ATOM     80  O   UNL A   1      42.129  23.041  27.884  1.00  0.00    -0.237 OA
ATOM     81  O   UNL A   1      40.106  23.149  26.462  1.00  0.00    -0.237 OA
ATOM     82  O   UNL A   1      42.335  22.953  25.427  1.00  0.00    -0.744 OA
ENDBRANCH  75  79
ENDBRANCH  48  72
BRANCH  60  83
ATOM     83  C   UNL A   1      44.457  27.318  34.111  1.00  0.00     0.023 A 
ATOM     84  C   UNL A   1      44.212  26.028  34.615  1.00  0.00     0.031 A 
ATOM     85  C   UNL A   1      45.766  27.825  34.209  1.00  0.00     0.131 A 
ATOM     86  C   UNL A   1      45.242  25.319  35.252  1.00  0.00     0.055 A 
ATOM     87  C   UNL A   1      46.802  27.087  34.779  1.00  0.00     0.041 A 
ATOM     88  F   UNL A   1      46.059  29.052  33.748  1.00  0.00    -0.206 F 
ATOM     89  C   UNL A   1      46.539  25.832  35.320  1.00  0.00     0.022 A 
BRANCH  86  90
ATOM     90  S   UNL A   1      44.837  23.763  36.092  1.00  0.00     0.124 S 
ATOM     91  O   UNL A   1      44.910  24.151  37.498  1.00  0.00    -0.237 OA
ATOM     92  O   UNL A   1      43.503  23.470  35.581  1.00  0.00    -0.237 OA
ATOM     93  O   UNL A   1      45.887  22.850  35.646  1.00  0.00    -0.744 OA
ENDBRANCH  86  90
ENDBRANCH  60  83
ENDBRANCH  34  35
ENDBRANCH  26  29
ENDBRANCH  24  25
ENDBRANCH  23  24
ENDBRANCH   1  23
TORSDOF 18
ENDMDL
MODEL 2
REMARK VINA RESULT:     -11.8      6.369     10.184
REMARK SMILES COc1ccc(CSc2ncccc2C(=O)NCCCCNC(=O)c2ccc(-c3c4nc(c(-c5cc(S(=O)(=O)[O-])ccc5F)c5ccc([nH]5)c(-c5cc(S(=O)(=O)[O-])ccc5F)c5nc(c(-c6cc(S(=O)(=O)[O-])ccc6F)c6ccc3[nH]6)C=C5)C=C4)cc2)cc1
REMARK SMILES IDX 19 1 18 2 17 3 15 4 16 5 14 7 9 8 10 9 11 10 13 11 12 12
REMARK SMILES IDX 8 13 7 14 6 15 3 16 4 17 89 18 5 19 88 20 2 21 1 22 20 23
REMARK SMILES IDX 21 24 22 25 23 26 24 28 25 29 26 30 87 31 27 32 86 33 28 34
REMARK SMILES IDX 29 35 30 36 80 37 31 38 85 39 79 40 81 41 32 42 84 43 78 44
REMARK SMILES IDX 77 45 33 47 65 48 45 49 64 50 46 51 49 52 63 53 82 54 47 55
REMARK SMILES IDX 48 56 62 58 83 59 50 60 34 61 35 62 43 63 36 64 42 65 44 66
REMARK SMILES IDX 41 67 37 68 38 69 39 70 40 71 66 72 67 73 75 74 68 75 74 76
REMARK SMILES IDX 76 77 73 78 69 79 70 80 71 81 72 82 51 83 52 84 60 85 53 86
REMARK SMILES IDX 59 87 61 88 58 89 54 90 55 91 56 92 57 93
REMARK H PARENT 17 6 22 27 81 46 49 57
REMARK Flexibility Score: inf
ROOT
ATOM      1  C   UNL A   1      37.225  21.313  24.658  1.00  0.00     0.023 C 
ENDROOT
BRANCH   1   2
ATOM      2  C   UNL A   1      35.792  21.200  25.160  1.00  0.00     0.116 C 
BRANCH   2   3
ATOM      3  N   UNL A   1      35.537  21.905  26.400  1.00  0.00    -0.352 N 
ATOM      4  C   UNL A   1      34.477  22.674  26.827  1.00  0.00     0.254 C 
ATOM      5  O   UNL A   1      34.139  22.532  28.002  1.00  0.00    -0.269 OA
ATOM      6  H   UNL A   1      36.260  21.819  27.063  1.00  0.00     0.163 HD
BRANCH   4   7
ATOM      7  C   UNL A   1      33.780  23.683  25.981  1.00  0.00     0.072 A 
ATOM      8  C   UNL A   1      32.568  23.372  25.337  1.00  0.00     0.109 A 
ATOM      9  N   UNL A   1      31.945  24.239  24.481  1.00  0.00    -0.249 NA
ATOM     10  C   UNL A   1      32.529  25.424  24.229  1.00  0.00     0.112 A 
ATOM     11  C   UNL A   1      34.334  24.938  25.697  1.00  0.00     0.018 A 
ATOM     12  C   UNL A   1      33.707  25.820  24.818  1.00  0.00     0.021 A 
BRANCH   8  13
ATOM     13  S   UNL A   1      31.677  21.827  25.431  1.00  0.00    -0.101 SA
BRANCH  13  14
ATOM     14  C   UNL A   1      32.265  21.013  23.916  1.00  0.00     0.112 C 
BRANCH  14  15
ATOM     15  C   UNL A   1      32.579  19.545  24.072  1.00  0.00    -0.037 A 
ATOM     16  C   UNL A   1      33.160  16.796  24.349  1.00  0.00     0.118 A 
ATOM     17  C   UNL A   1      33.150  17.632  25.463  1.00  0.00     0.047 A 
ATOM     18  C   UNL A   1      32.904  17.337  23.090  1.00  0.00     0.047 A 
ATOM     19  C   UNL A   1      32.886  18.997  25.326  1.00  0.00     0.008 A 
ATOM     20  C   UNL A   1      32.609  18.701  22.954  1.00  0.00     0.008 A 
BRANCH  16  21
ATOM     21  O   UNL A   1      33.358  15.473  24.632  1.00  0.00    -0.497 OA
ATOM     22  C   UNL A   1      32.522  14.876  25.616  1.00  0.00     0.278 C 
ENDBRANCH  16  21
ENDBRANCH  14  15
ENDBRANCH  13  14
ENDBRANCH   8  13
ENDBRANCH   4   7
ENDBRANCH   2   3
ENDBRANCH   1   2
BRANCH   1  23
ATOM     23  C   UNL A   1      38.144  20.167  25.079  1.00  0.00     0.023 C 
BRANCH  23  24
ATOM     24  C   UNL A   1      39.267  20.513  26.050  1.00  0.00     0.116 C 
BRANCH  24  25
ATOM     25  N   UNL A   1      40.289  19.483  26.131  1.00  0.00    -0.352 N 
ATOM     26  C   UNL A   1      41.645  19.636  26.289  1.00  0.00     0.251 C 
ATOM     27  H   UNL A   1      39.967  18.555  26.063  1.00  0.00     0.163 HD
ATOM     28  O   UNL A   1      42.380  18.654  26.206  1.00  0.00    -0.269 OA
BRANCH  26  29
ATOM     29  C   UNL A   1      42.209  20.983  26.516  1.00  0.00     0.039 A 
ATOM     30  C   UNL A   1      42.413  21.822  25.418  1.00  0.00     0.014 A 
ATOM     31  C   UNL A   1      42.525  21.424  27.804  1.00  0.00     0.014 A 
ATOM     32  C   UNL A   1      42.886  23.120  25.617  1.00  0.00     0.010 A 
ATOM     33  C   UNL A   1      42.923  22.742  28.008  1.00  0.00     0.010 A 
ATOM     34  C   UNL A   1      43.121  23.602  26.917  1.00  0.00    -0.014 A 
BRANCH  34  35
ATOM     35  C   UNL A   1      43.607  24.988  27.144  1.00  0.00     0.031 A 
ATOM     36  C   UNL A   1      42.667  26.033  27.683  1.00  0.00     0.074 A 
ATOM     37  C   UNL A   1      44.877  25.314  26.831  1.00  0.00     0.049 A 
ATOM     38  N   UNL A   1      42.882  27.303  27.911  1.00  0.00    -0.248 NA
ATOM     39  C   UNL A   1      41.294  25.596  27.976  1.00  0.00     0.031 C 
ATOM     40  C   UNL A   1      45.870  24.397  26.267  1.00  0.00     0.029 A 
ATOM     41  N   UNL A   1      45.552  26.504  26.941  1.00  0.00    -0.354 N 
ATOM     42  C   UNL A   1      41.671  27.818  28.365  1.00  0.00     0.074 A 
ATOM     43  C   UNL A   1      40.710  26.738  28.308  1.00  0.00     0.031 C 
ATOM     44  C   UNL A   1      47.033  25.050  26.111  1.00  0.00     0.029 A 
ATOM     45  C   UNL A   1      46.860  26.441  26.518  1.00  0.00     0.049 A 
ATOM     46  H   UNL A   1      45.138  27.326  27.291  1.00  0.00     0.167 HD
ATOM     47  C   UNL A   1      41.393  29.068  28.811  1.00  0.00     0.034 A 
ATOM     48  C   UNL A   1      47.808  27.396  26.458  1.00  0.00     0.034 A 
ATOM     49  C   UNL A   1      42.367  30.131  28.867  1.00  0.00     0.049 A 
ATOM     50  C   UNL A   1      47.470  28.787  26.938  1.00  0.00     0.074 A 
ATOM     51  C   UNL A   1      42.208  31.423  29.340  1.00  0.00     0.029 A 
ATOM     52  N   UNL A   1      43.681  30.030  28.429  1.00  0.00    -0.354 N 
ATOM     53  N   UNL A   1      46.332  29.245  27.409  1.00  0.00    -0.248 NA
ATOM     54  C   UNL A   1      48.547  29.782  26.893  1.00  0.00     0.031 C 
ATOM     55  C   UNL A   1      43.400  32.121  29.121  1.00  0.00     0.029 A 
ATOM     56  C   UNL A   1      44.334  31.243  28.594  1.00  0.00     0.049 A 
ATOM     57  H   UNL A   1      44.091  29.217  28.055  1.00  0.00     0.167 HD
ATOM     58  C   UNL A   1      46.573  30.573  27.754  1.00  0.00     0.074 A 
ATOM     59  C   UNL A   1      47.965  30.834  27.449  1.00  0.00     0.031 C 
ATOM     60  C   UNL A   1      45.723  31.492  28.282  1.00  0.00     0.034 A 
BRANCH  47  61
ATOM     61  C   UNL A   1      39.973  29.351  29.247  1.00  0.00     0.023 A 
ATOM     62  C   UNL A   1      39.630  29.492  30.604  1.00  0.00     0.031 A 
ATOM     63  C   UNL A   1      38.942  29.449  28.297  1.00  0.00     0.131 A 
ATOM     64  C   UNL A   1      38.285  29.640  30.977  1.00  0.00     0.055 A 
ATOM     65  C   UNL A   1      37.617  29.686  28.669  1.00  0.00     0.041 A 
ATOM     66  F   UNL A   1      39.200  29.300  26.988  1.00  0.00    -0.206 F 
ATOM     67  C   UNL A   1      37.279  29.766  30.017  1.00  0.00     0.022 A 
BRANCH  64  68
ATOM     68  S   UNL A   1      37.855  29.509  32.734  1.00  0.00     0.124 S 
ATOM     69  O   UNL A   1      39.135  29.807  33.373  1.00  0.00    -0.237 OA
ATOM     70  O   UNL A   1      36.816  30.520  32.881  1.00  0.00    -0.237 OA
ATOM     71  O   UNL A   1      37.406  28.125  32.875  1.00  0.00    -0.744 OA
ENDBRANCH  64  68
ENDBRANCH  47  61
BRANCH  48  72
ATOM     72  C   UNL A   1      49.168  27.085  25.926  1.00  0.00     0.023 A 
ATOM     73  C   UNL A   1      49.546  27.470  24.630  1.00  0.00     0.031 A 
ATOM     74  C   UNL A   1      50.095  26.355  26.692  1.00  0.00     0.131 A 
ATOM     75  C   UNL A   1      50.792  27.077  24.117  1.00  0.00     0.055 A 
ATOM     76  C   UNL A   1      51.356  26.017  26.198  1.00  0.00     0.041 A 
ATOM     77  F   UNL A   1      49.790  25.966  27.940  1.00  0.00    -0.206 F 
ATOM     78  C   UNL A   1      51.705  26.365  24.897  1.00  0.00     0.022 A 
BRANCH  75  79
ATOM     79  S   UNL A   1      51.166  27.428  22.377  1.00  0.00     0.124 S 
ATOM     80  O   UNL A   1      51.093  28.885  22.347  1.00  0.00    -0.237 OA
ATOM     81  O   UNL A   1      52.495  26.847  22.230  1.00  0.00    -0.237 OA
ATOM     82  O   UNL A   1      50.101  26.734  21.654  1.00  0.00    -0.744 OA
ENDBRANCH  75  79
ENDBRANCH  48  72
BRANCH  60  83
ATOM     83  C   UNL A   1      46.298  32.847  28.622  1.00  0.00     0.023 A 
ATOM     84  C   UNL A   1      46.284  33.914  27.707  1.00  0.00     0.031 A 
ATOM     85  C   UNL A   1      46.885  33.066  29.882  1.00  0.00     0.131 A 
ATOM     86  C   UNL A   1      46.903  35.128  28.040  1.00  0.00     0.055 A 
ATOM     87  C   UNL A   1      47.436  34.299  30.233  1.00  0.00     0.041 A 
ATOM     88  F   UNL A   1      46.930  32.083  30.795  1.00  0.00    -0.206 F 
ATOM     89  C   UNL A   1      47.462  35.334  29.304  1.00  0.00     0.022 A 
BRANCH  86  90
ATOM     90  S   UNL A   1      47.070  36.402  26.758  1.00  0.00     0.124 S 
ATOM     91  O   UNL A   1      48.215  37.169  27.241  1.00  0.00    -0.237 OA
ATOM     92  O   UNL A   1      47.298  35.606  25.557  1.00  0.00    -0.237 OA
ATOM     93  O   UNL A   1      45.790  37.104  26.803  1.00  0.00    -0.744 OA
ENDBRANCH  86  90
ENDBRANCH  60  83
ENDBRANCH  34  35
ENDBRANCH  26  29
ENDBRANCH  24  25
ENDBRANCH  23  24
ENDBRANCH   1  23
TORSDOF 18
ENDMDL
MODEL 3
REMARK VINA RESULT:     -11.7      1.607      7.747
REMARK SMILES COc1ccc(CSc2ncccc2C(=O)NCCCCNC(=O)c2ccc(-c3c4nc(c(-c5cc(S(=O)(=O)[O-])ccc5F)c5ccc([nH]5)c(-c5cc(S(=O)(=O)[O-])ccc5F)c5nc(c(-c6cc(S(=O)(=O)[O-])ccc6F)c6ccc3[nH]6)C=C5)C=C4)cc2)cc1
REMARK SMILES IDX 19 1 18 2 17 3 15 4 16 5 14 7 9 8 10 9 11 10 13 11 12 12
REMARK SMILES IDX 8 13 7 14 6 15 3 16 4 17 89 18 5 19 88 20 2 21 1 22 20 23
REMARK SMILES IDX 21 24 22 25 23 26 24 28 25 29 26 30 87 31 27 32 86 33 28 34
REMARK SMILES IDX 29 35 30 36 80 37 31 38 85 39 79 40 81 41 32 42 84 43 78 44
REMARK SMILES IDX 77 45 33 47 65 48 45 49 64 50 46 51 49 52 63 53 82 54 47 55
REMARK SMILES IDX 48 56 62 58 83 59 50 60 34 61 35 62 43 63 36 64 42 65 44 66
REMARK SMILES IDX 41 67 37 68 38 69 39 70 40 71 66 72 67 73 75 74 68 75 74 76
REMARK SMILES IDX 76 77 73 78 69 79 70 80 71 81 72 82 51 83 52 84 60 85 53 86
REMARK SMILES IDX 59 87 61 88 58 89 54 90 55 91 56 92 57 93
REMARK H PARENT 17 6 22 27 81 46 49 57
REMARK Flexibility Score: inf
ROOT
ATOM      1  C   UNL A   1      31.456  30.622  25.777  1.00  0.00     0.023 C 
ENDROOT
BRANCH   1   2
ATOM      2  C   UNL A   1      32.687  29.762  26.031  1.00  0.00     0.116 C 
BRANCH   2   3
ATOM      3  N   UNL A   1      33.505  29.532  24.857  1.00  0.00    -0.352 N 
ATOM      4  C   UNL A   1      33.533  28.509  23.935  1.00  0.00     0.254 C 
ATOM      5  O   UNL A   1      33.706  28.837  22.761  1.00  0.00    -0.269 OA
ATOM      6  H   UNL A   1      34.166  30.241  24.687  1.00  0.00     0.163 HD
BRANCH   4   7
ATOM      7  C   UNL A   1      33.430  27.064  24.285  1.00  0.00     0.072 A 
ATOM      8  C   UNL A   1      32.495  26.230  23.644  1.00  0.00     0.109 A 
ATOM      9  N   UNL A   1      32.308  24.922  23.999  1.00  0.00    -0.249 NA
ATOM     10  C   UNL A   1      33.031  24.424  25.017  1.00  0.00     0.112 A 
ATOM     11  C   UNL A   1      34.170  26.487  25.325  1.00  0.00     0.018 A 
ATOM     12  C   UNL A   1      33.976  25.157  25.697  1.00  0.00     0.021 A 
BRANCH   8  13
ATOM     13  S   UNL A   1      31.354  26.705  22.354  1.00  0.00    -0.101 SA
BRANCH  13  14
ATOM     14  C   UNL A   1      29.890  27.124  23.346  1.00  0.00     0.112 C 
BRANCH  14  15
ATOM     15  C   UNL A   1      29.279  28.468  23.029  1.00  0.00    -0.037 A 
ATOM     16  C   UNL A   1      28.123  30.974  22.433  1.00  0.00     0.118 A 
ATOM     17  C   UNL A   1      29.498  30.784  22.316  1.00  0.00     0.047 A 
ATOM     18  C   UNL A   1      27.326  29.918  22.872  1.00  0.00     0.047 A 
ATOM     19  C   UNL A   1      30.076  29.553  22.632  1.00  0.00     0.008 A 
ATOM     20  C   UNL A   1      27.899  28.672  23.162  1.00  0.00     0.008 A 
BRANCH  16  21
ATOM     21  O   UNL A   1      27.681  32.200  22.022  1.00  0.00    -0.497 OA
ATOM     22  C   UNL A   1      27.887  32.554  20.660  1.00  0.00     0.278 C 
ENDBRANCH  16  21
ENDBRANCH  14  15
ENDBRANCH  13  14
ENDBRANCH   8  13
ENDBRANCH   4   7
ENDBRANCH   2   3
ENDBRANCH   1   2
BRANCH   1  23
ATOM     23  C   UNL A   1      31.340  31.855  26.673  1.00  0.00     0.023 C 
BRANCH  23  24
ATOM     24  C   UNL A   1      32.645  32.448  27.190  1.00  0.00     0.116 C 
BRANCH  24  25
ATOM     25  N   UNL A   1      32.517  33.836  27.603  1.00  0.00    -0.352 N 
ATOM     26  C   UNL A   1      33.240  34.514  28.553  1.00  0.00     0.251 C 
ATOM     27  H   UNL A   1      31.821  34.357  27.141  1.00  0.00     0.163 HD
ATOM     28  O   UNL A   1      32.909  35.656  28.868  1.00  0.00    -0.269 OA
BRANCH  26  29
ATOM     29  C   UNL A   1      34.381  33.851  29.218  1.00  0.00     0.039 A 
ATOM     30  C   UNL A   1      35.674  34.311  28.959  1.00  0.00     0.014 A 
ATOM     31  C   UNL A   1      34.179  32.787  30.104  1.00  0.00     0.014 A 
ATOM     32  C   UNL A   1      36.760  33.738  29.625  1.00  0.00     0.010 A 
ATOM     33  C   UNL A   1      35.253  32.270  30.823  1.00  0.00     0.010 A 
ATOM     34  C   UNL A   1      36.557  32.730  30.582  1.00  0.00    -0.014 A 
BRANCH  34  35
ATOM     35  C   UNL A   1      37.702  32.125  31.312  1.00  0.00     0.031 A 
ATOM     36  C   UNL A   1      38.493  31.013  30.676  1.00  0.00     0.074 A 
ATOM     37  C   UNL A   1      38.004  32.548  32.556  1.00  0.00     0.049 A 
ATOM     38  N   UNL A   1      39.496  30.327  31.162  1.00  0.00    -0.248 NA
ATOM     39  C   UNL A   1      38.081  30.600  29.327  1.00  0.00     0.031 C 
ATOM     40  C   UNL A   1      37.286  33.592  33.291  1.00  0.00     0.029 A 
ATOM     41  N   UNL A   1      38.991  32.153  33.424  1.00  0.00    -0.354 N 
ATOM     42  C   UNL A   1      39.827  29.395  30.182  1.00  0.00     0.074 A 
ATOM     43  C   UNL A   1      38.870  29.559  29.109  1.00  0.00     0.031 C 
ATOM     44  C   UNL A   1      37.877  33.775  34.483  1.00  0.00     0.029 A 
ATOM     45  C   UNL A   1      38.984  32.835  34.620  1.00  0.00     0.049 A 
ATOM     46  H   UNL A   1      39.644  31.448  33.210  1.00  0.00     0.167 HD
ATOM     47  C   UNL A   1      40.850  28.504  30.168  1.00  0.00     0.034 A 
ATOM     48  C   UNL A   1      39.774  32.709  35.704  1.00  0.00     0.034 A 
ATOM     49  C   UNL A   1      41.799  28.361  31.246  1.00  0.00     0.049 A 
ATOM     50  C   UNL A   1      40.891  31.695  35.676  1.00  0.00     0.074 A 
ATOM     51  C   UNL A   1      42.898  27.522  31.321  1.00  0.00     0.029 A 
ATOM     52  N   UNL A   1      41.759  29.067  32.441  1.00  0.00    -0.354 N 
ATOM     53  N   UNL A   1      41.221  30.854  34.722  1.00  0.00    -0.248 NA
ATOM     54  C   UNL A   1      41.750  31.625  36.863  1.00  0.00     0.031 C 
ATOM     55  C   UNL A   1      43.476  27.669  32.586  1.00  0.00     0.029 A 
ATOM     56  C   UNL A   1      42.795  28.663  33.269  1.00  0.00     0.049 A 
ATOM     57  H   UNL A   1      41.091  29.755  32.669  1.00  0.00     0.167 HD
ATOM     58  C   UNL A   1      42.353  30.185  35.181  1.00  0.00     0.074 A 
ATOM     59  C   UNL A   1      42.653  30.730  36.489  1.00  0.00     0.031 C 
ATOM     60  C   UNL A   1      43.082  29.213  34.575  1.00  0.00     0.034 A 
BRANCH  47  61
ATOM     61  C   UNL A   1      40.971  27.605  28.959  1.00  0.00     0.023 A 
ATOM     62  C   UNL A   1      41.968  27.804  27.987  1.00  0.00     0.031 A 
ATOM     63  C   UNL A   1      40.060  26.554  28.758  1.00  0.00     0.131 A 
ATOM     64  C   UNL A   1      41.979  27.021  26.822  1.00  0.00     0.055 A 
ATOM     65  C   UNL A   1      40.132  25.720  27.640  1.00  0.00     0.041 A 
ATOM     66  F   UNL A   1      39.073  26.326  29.638  1.00  0.00    -0.206 F 
ATOM     67  C   UNL A   1      41.085  25.962  26.655  1.00  0.00     0.022 A 
BRANCH  64  68
ATOM     68  S   UNL A   1      43.077  27.506  25.463  1.00  0.00     0.124 S 
ATOM     69  O   UNL A   1      44.083  28.299  26.167  1.00  0.00    -0.237 OA
ATOM     70  O   UNL A   1      43.525  26.220  24.943  1.00  0.00    -0.237 OA
ATOM     71  O   UNL A   1      42.205  28.271  24.573  1.00  0.00    -0.744 OA
ENDBRANCH  64  68
ENDBRANCH  47  61
BRANCH  48  72
ATOM     72  C   UNL A   1      39.547  33.558  36.911  1.00  0.00     0.023 A 
ATOM     73  C   UNL A   1      38.883  33.051  38.040  1.00  0.00     0.031 A 
ATOM     74  C   UNL A   1      39.950  34.905  36.935  1.00  0.00     0.131 A 
ATOM     75  C   UNL A   1      38.592  33.898  39.121  1.00  0.00     0.055 A 
ATOM     76  C   UNL A   1      39.711  35.728  38.037  1.00  0.00     0.041 A 
ATOM     77  F   UNL A   1      40.594  35.441  35.886  1.00  0.00    -0.206 F 
ATOM     78  C   UNL A   1      39.015  35.229  39.133  1.00  0.00     0.022 A 
BRANCH  75  79
ATOM     79  S   UNL A   1      37.569  33.259  40.476  1.00  0.00     0.124 S 
ATOM     80  O   UNL A   1      36.391  32.785  39.759  1.00  0.00    -0.237 OA
ATOM     81  O   UNL A   1      38.431  32.230  41.047  1.00  0.00    -0.237 OA
ATOM     82  O   UNL A   1      37.356  34.432  41.323  1.00  0.00    -0.744 OA
ENDBRANCH  75  79
ENDBRANCH  48  72
BRANCH  60  83
ATOM     83  C   UNL A   1      44.316  28.725  35.298  1.00  0.00     0.023 A 
ATOM     84  C   UNL A   1      44.298  27.578  36.112  1.00  0.00     0.031 A 
ATOM     85  C   UNL A   1      45.526  29.432  35.181  1.00  0.00     0.131 A 
ATOM     86  C   UNL A   1      45.448  27.212  36.827  1.00  0.00     0.055 A 
ATOM     87  C   UNL A   1      46.686  29.022  35.839  1.00  0.00     0.041 A 
ATOM     88  F   UNL A   1      45.602  30.536  34.420  1.00  0.00    -0.206 F 
ATOM     89  C   UNL A   1      46.647  27.915  36.682  1.00  0.00     0.022 A 
BRANCH  86  90
ATOM     90  S   UNL A   1      45.328  25.870  38.042  1.00  0.00     0.124 S 
ATOM     91  O   UNL A   1      45.352  26.601  39.305  1.00  0.00    -0.237 OA
ATOM     92  O   UNL A   1      44.057  25.245  37.691  1.00  0.00    -0.237 OA
ATOM     93  O   UNL A   1      46.513  25.057  37.773  1.00  0.00    -0.744 OA
ENDBRANCH  86  90
ENDBRANCH  60  83
ENDBRANCH  34  35
ENDBRANCH  26  29
ENDBRANCH  24  25
ENDBRANCH  23  24
ENDBRANCH   1  23
TORSDOF 18
ENDMDL
