MODEL 1
REMARK VINA RESULT:     -11.8      0.000      0.000
REMARK SMILES O=C(NCCCCNC(=O)c1cc(Cl)c2c(c1)[C@H]1C=CC[C@H]1[C@H](c1ccc(S(=O)(=O)N3CCOCC3)cc1)N2)c1ccc(-c2c3nc(c(-c4cc(S(=O)(=O)[O-])ccc4F)c4ccc([nH]4)c(-c4cc(S(=O)(=O)[O-])ccc4F)c4nc(c(-c5cc(S(=O)(=O)[O-])ccc5F)c5ccc2[nH]5)C=C4)C=C3)cc1
REMARK SMILES IDX 5 1 4 2 3 3 1 4 2 5 40 7 41 8 102 9 42 10 101 11 43 12 44 13
REMARK SMILES IDX 45 14 95 15 46 16 100 17 94 18 96 19 47 20 99 21 93 22 92 23
REMARK SMILES IDX 48 25 80 26 60 27 79 28 61 29 64 30 78 31 97 32 62 33 63 34
REMARK SMILES IDX 77 36 98 37 65 38 49 39 50 40 58 41 51 42 57 43 59 44 56 45
REMARK SMILES IDX 52 46 53 47 54 48 55 49 81 50 82 51 90 52 83 53 89 54 91 55
REMARK SMILES IDX 88 56 84 57 85 58 86 59 87 60 66 61 67 62 75 63 68 64 74 65
REMARK SMILES IDX 76 66 73 67 69 68 70 69 71 70 72 71 6 72 7 73 8 74 9 75
REMARK SMILES IDX 10 77 11 78 12 79 17 80 13 81 16 82 14 83 15 84 18 85 39 86
REMARK SMILES IDX 19 87 22 88 23 89 20 91 21 92 24 93 25 94 38 95 26 96 37 97
REMARK SMILES IDX 27 98 28 99 29 100 30 101 31 102 32 103 36 104 33 105 35 106
REMARK SMILES IDX 34 107
REMARK H PARENT 3 6 96 24 64 35 8 76 39 90
REMARK Flexibility Score: inf
ROOT
ATOM      1  C   UNL A   1      36.086  32.310  33.129  1.00  0.00     0.023 C 
ENDROOT
BRANCH   1   2
ATOM      2  C   UNL A   1      36.337  31.238  32.075  1.00  0.00     0.116 C 
BRANCH   2   3
ATOM      3  N   UNL A   1      36.741  29.967  32.657  1.00  0.00    -0.352 N 
ATOM      4  O   UNL A   1      38.083  28.186  32.993  1.00  0.00    -0.269 OA
ATOM      5  C   UNL A   1      37.959  29.333  32.579  1.00  0.00     0.251 C 
ATOM      6  H   UNL A   1      36.050  29.498  33.176  1.00  0.00     0.163 HD
BRANCH   5   7
ATOM      7  C   UNL A   1      39.100  30.039  31.962  1.00  0.00     0.039 A 
ATOM      8  C   UNL A   1      39.247  30.065  30.572  1.00  0.00     0.014 A 
ATOM      9  C   UNL A   1      40.047  30.649  32.788  1.00  0.00     0.014 A 
ATOM     10  C   UNL A   1      40.411  30.582  30.012  1.00  0.00     0.010 A 
ATOM     11  C   UNL A   1      41.187  31.219  32.220  1.00  0.00     0.010 A 
ATOM     12  C   UNL A   1      41.394  31.156  30.833  1.00  0.00    -0.014 A 
BRANCH  12  13
ATOM     13  C   UNL A   1      42.619  31.730  30.226  1.00  0.00     0.031 A 
ATOM     14  C   UNL A   1      42.729  33.205  29.962  1.00  0.00     0.074 A 
ATOM     15  C   UNL A   1      43.632  30.905  29.908  1.00  0.00     0.049 A 
ATOM     16  N   UNL A   1      43.717  33.868  29.422  1.00  0.00    -0.248 NA
ATOM     17  C   UNL A   1      41.587  34.046  30.355  1.00  0.00     0.031 C 
ATOM     18  C   UNL A   1      43.625  29.456  30.115  1.00  0.00     0.029 A 
ATOM     19  N   UNL A   1      44.853  31.156  29.335  1.00  0.00    -0.354 N 
ATOM     20  C   UNL A   1      43.317  35.198  29.397  1.00  0.00     0.074 A 
ATOM     21  C   UNL A   1      41.985  35.248  29.958  1.00  0.00     0.031 C 
ATOM     22  C   UNL A   1      44.786  28.947  29.680  1.00  0.00     0.029 A 
ATOM     23  C   UNL A   1      45.598  30.022  29.115  1.00  0.00     0.049 A 
ATOM     24  H   UNL A   1      45.166  32.061  29.105  1.00  0.00     0.167 HD
ATOM     25  C   UNL A   1      44.009  36.274  28.957  1.00  0.00     0.034 A 
ATOM     26  C   UNL A   1      46.788  29.857  28.503  1.00  0.00     0.034 A 
ATOM     27  C   UNL A   1      45.342  36.209  28.418  1.00  0.00     0.049 A 
ATOM     28  C   UNL A   1      47.522  31.066  27.992  1.00  0.00     0.074 A 
ATOM     29  C   UNL A   1      46.146  37.258  28.007  1.00  0.00     0.029 A 
ATOM     30  N   UNL A   1      46.064  35.045  28.205  1.00  0.00    -0.354 N 
ATOM     31  N   UNL A   1      47.165  32.327  28.054  1.00  0.00    -0.248 NA
ATOM     32  C   UNL A   1      48.815  30.840  27.332  1.00  0.00     0.031 C 
ATOM     33  C   UNL A   1      47.330  36.726  27.498  1.00  0.00     0.029 A 
ATOM     34  C   UNL A   1      47.289  35.347  27.638  1.00  0.00     0.049 A 
ATOM     35  H   UNL A   1      45.750  34.137  28.425  1.00  0.00     0.167 HD
ATOM     36  C   UNL A   1      48.194  33.045  27.454  1.00  0.00     0.074 A 
ATOM     37  C   UNL A   1      49.197  32.081  27.053  1.00  0.00     0.031 C 
ATOM     38  C   UNL A   1      48.291  34.383  27.253  1.00  0.00     0.034 A 
BRANCH  25  39
ATOM     39  C   UNL A   1      43.372  37.636  29.045  1.00  0.00     0.023 A 
ATOM     40  C   UNL A   1      42.661  38.150  27.944  1.00  0.00     0.031 A 
ATOM     41  C   UNL A   1      43.607  38.478  30.144  1.00  0.00     0.131 A 
ATOM     42  C   UNL A   1      42.244  39.488  27.952  1.00  0.00     0.055 A 
ATOM     43  C   UNL A   1      43.164  39.801  30.159  1.00  0.00     0.041 A 
ATOM     44  F   UNL A   1      44.281  38.029  31.215  1.00  0.00    -0.206 F 
ATOM     45  C   UNL A   1      42.489  40.314  29.054  1.00  0.00     0.022 A 
BRANCH  42  46
ATOM     46  S   UNL A   1      41.407  40.214  26.517  1.00  0.00     0.124 S 
ATOM     47  O   UNL A   1      42.522  40.824  25.795  1.00  0.00    -0.237 OA
ATOM     48  O   UNL A   1      40.820  39.040  25.881  1.00  0.00    -0.237 OA
ATOM     49  O   UNL A   1      40.463  41.158  27.104  1.00  0.00    -0.744 OA
ENDBRANCH  42  46
ENDBRANCH  25  39
BRANCH  26  50
ATOM     50  C   UNL A   1      47.340  28.480  28.374  1.00  0.00     0.023 A 
ATOM     51  C   UNL A   1      47.058  27.700  27.238  1.00  0.00     0.031 A 
ATOM     52  C   UNL A   1      48.045  27.884  29.431  1.00  0.00     0.131 A 
ATOM     53  C   UNL A   1      47.419  26.347  27.215  1.00  0.00     0.055 A 
ATOM     54  C   UNL A   1      48.459  26.553  29.379  1.00  0.00     0.041 A 
ATOM     55  F   UNL A   1      48.324  28.589  30.539  1.00  0.00    -0.206 F 
ATOM     56  C   UNL A   1      48.131  25.773  28.273  1.00  0.00     0.022 A 
BRANCH  53  57
ATOM     57  S   UNL A   1      46.876  25.262  25.867  1.00  0.00     0.124 S 
ATOM     58  O   UNL A   1      47.920  25.468  24.870  1.00  0.00    -0.237 OA
ATOM     59  O   UNL A   1      46.877  23.956  26.523  1.00  0.00    -0.237 OA
ATOM     60  O   UNL A   1      45.558  25.782  25.517  1.00  0.00    -0.744 OA
ENDBRANCH  53  57
ENDBRANCH  26  50
BRANCH  38  61
ATOM     61  C   UNL A   1      49.516  34.924  26.563  1.00  0.00     0.023 A 
ATOM     62  C   UNL A   1      50.656  35.262  27.316  1.00  0.00     0.031 A 
ATOM     63  C   UNL A   1      49.484  35.272  25.202  1.00  0.00     0.131 A 
ATOM     64  C   UNL A   1      51.699  35.976  26.714  1.00  0.00     0.055 A 
ATOM     65  C   UNL A   1      50.545  35.945  24.597  1.00  0.00     0.041 A 
ATOM     66  F   UNL A   1      48.413  34.975  24.448  1.00  0.00    -0.206 F 
ATOM     67  C   UNL A   1      51.652  36.314  25.358  1.00  0.00     0.022 A 
BRANCH  64  68
ATOM     68  S   UNL A   1      53.118  36.551  27.686  1.00  0.00     0.124 S 
ATOM     69  O   UNL A   1      52.564  36.598  29.038  1.00  0.00    -0.237 OA
ATOM     70  O   UNL A   1      54.098  35.494  27.450  1.00  0.00    -0.237 OA
ATOM     71  O   UNL A   1      53.438  37.850  27.105  1.00  0.00    -0.744 OA
ENDBRANCH  64  68
ENDBRANCH  38  61
ENDBRANCH  12  13
ENDBRANCH   5   7
ENDBRANCH   2   3
ENDBRANCH   1   2
BRANCH   1  72
ATOM     72  C   UNL A   1      34.908  33.237  32.840  1.00  0.00     0.023 C 
BRANCH  72  73
ATOM     73  C   UNL A   1      34.227  33.014  31.495  1.00  0.00     0.116 C 
BRANCH  73  74
ATOM     74  N   UNL A   1      34.522  34.064  30.530  1.00  0.00    -0.352 N 
ATOM     75  C   UNL A   1      34.814  33.930  29.195  1.00  0.00     0.251 C 
ATOM     76  H   UNL A   1      34.511  34.985  30.878  1.00  0.00     0.163 HD
ATOM     77  O   UNL A   1      35.148  34.887  28.507  1.00  0.00    -0.269 OA
BRANCH  75  78
ATOM     78  C   UNL A   1      34.757  32.584  28.603  1.00  0.00     0.041 A 
ATOM     79  C   UNL A   1      35.921  31.830  28.474  1.00  0.00     0.036 A 
ATOM     80  C   UNL A   1      33.538  32.117  28.114  1.00  0.00     0.020 A 
ATOM     81  C   UNL A   1      35.878  30.655  27.735  1.00  0.00     0.065 A 
ATOM     82  C   UNL A   1      33.489  30.919  27.386  1.00  0.00    -0.015 A 
ATOM     83  Cl  UNL A   1      37.355  29.783  27.502  1.00  0.00    -0.082 Cl
ATOM     84  C   UNL A   1      34.679  30.211  27.138  1.00  0.00     0.057 A 
ATOM     85  C   UNL A   1      32.159  30.388  26.913  1.00  0.00     0.049 C 
ATOM     86  N   UNL A   1      34.661  29.061  26.360  1.00  0.00    -0.376 N 
ATOM     87  C   UNL A   1      31.474  31.214  25.857  1.00  0.00    -0.023 C 
ATOM     88  C   UNL A   1      32.214  28.997  26.242  1.00  0.00     0.031 C 
ATOM     89  C   UNL A   1      33.539  28.824  25.468  1.00  0.00     0.114 C 
ATOM     90  H   UNL A   1      35.400  28.413  26.410  1.00  0.00     0.161 HD
ATOM     91  C   UNL A   1      30.814  30.440  24.987  1.00  0.00    -0.030 C 
ATOM     92  C   UNL A   1      30.983  28.991  25.317  1.00  0.00     0.034 C 
BRANCH  89  93
ATOM     93  C   UNL A   1      33.695  27.426  24.886  1.00  0.00    -0.025 A 
ATOM     94  C   UNL A   1      33.578  27.205  23.502  1.00  0.00     0.007 A 
ATOM     95  C   UNL A   1      33.964  26.334  25.728  1.00  0.00     0.007 A 
ATOM     96  C   UNL A   1      33.780  25.937  22.965  1.00  0.00     0.022 A 
ATOM     97  C   UNL A   1      34.154  25.058  25.195  1.00  0.00     0.022 A 
ATOM     98  C   UNL A   1      34.104  24.876  23.813  1.00  0.00     0.082 A 
BRANCH  98  99
ATOM     99  S   UNL A   1      34.553  23.303  23.113  1.00  0.00     0.243 S 
ATOM    100  O   UNL A   1      33.734  23.103  21.942  1.00  0.00    -0.207 OA
ATOM    101  O   UNL A   1      36.002  23.263  23.046  1.00  0.00    -0.207 OA
BRANCH  99 102
ATOM    102  N   UNL A   1      34.094  22.225  24.306  1.00  0.00    -0.193 NA
ATOM    103  C   UNL A   1      35.066  21.408  25.056  1.00  0.00     0.131 C 
ATOM    104  C   UNL A   1      32.684  21.832  24.494  1.00  0.00     0.131 C 
ATOM    105  C   UNL A   1      34.790  19.914  24.871  1.00  0.00     0.177 C 
ATOM    106  C   UNL A   1      32.534  20.319  24.289  1.00  0.00     0.177 C 
ATOM    107  O   UNL A   1      33.420  19.585  25.148  1.00  0.00    -0.379 OA
ENDBRANCH  99 102
ENDBRANCH  98  99
ENDBRANCH  89  93
ENDBRANCH  75  78
ENDBRANCH  73  74
ENDBRANCH  72  73
ENDBRANCH   1  72
TORSDOF 17
ENDMDL
MODEL 2
REMARK VINA RESULT:     -11.7      1.417      7.195
REMARK SMILES O=C(NCCCCNC(=O)c1cc(Cl)c2c(c1)[C@H]1C=CC[C@H]1[C@H](c1ccc(S(=O)(=O)N3CCOCC3)cc1)N2)c1ccc(-c2c3nc(c(-c4cc(S(=O)(=O)[O-])ccc4F)c4ccc([nH]4)c(-c4cc(S(=O)(=O)[O-])ccc4F)c4nc(c(-c5cc(S(=O)(=O)[O-])ccc5F)c5ccc2[nH]5)C=C4)C=C3)cc1
REMARK SMILES IDX 5 1 4 2 3 3 1 4 2 5 40 7 41 8 102 9 42 10 101 11 43 12 44 13
REMARK SMILES IDX 45 14 95 15 46 16 100 17 94 18 96 19 47 20 99 21 93 22 92 23
REMARK SMILES IDX 48 25 80 26 60 27 79 28 61 29 64 30 78 31 97 32 62 33 63 34
REMARK SMILES IDX 77 36 98 37 65 38 49 39 50 40 58 41 51 42 57 43 59 44 56 45
REMARK SMILES IDX 52 46 53 47 54 48 55 49 81 50 82 51 90 52 83 53 89 54 91 55
REMARK SMILES IDX 88 56 84 57 85 58 86 59 87 60 66 61 67 62 75 63 68 64 74 65
REMARK SMILES IDX 76 66 73 67 69 68 70 69 71 70 72 71 6 72 7 73 8 74 9 75
REMARK SMILES IDX 10 77 11 78 12 79 17 80 13 81 16 82 14 83 15 84 18 85 39 86
REMARK SMILES IDX 19 87 22 88 23 89 20 91 21 92 24 93 25 94 38 95 26 96 37 97
REMARK SMILES IDX 27 98 28 99 29 100 30 101 31 102 32 103 36 104 33 105 35 106
REMARK SMILES IDX 34 107
REMARK H PARENT 3 6 96 24 64 35 8 76 39 90
REMARK Flexibility Score: inf
ROOT
ATOM      1  C   UNL A   1      36.425  32.478  33.063  1.00  0.00     0.023 C 
ENDROOT
BRANCH   1   2
ATOM      2  C   UNL A   1      36.648  31.342  32.071  1.00  0.00     0.116 C 
BRANCH   2   3
ATOM      3  N   UNL A   1      37.131  30.128  32.712  1.00  0.00    -0.352 N 
ATOM      4  O   UNL A   1      38.571  28.440  33.114  1.00  0.00    -0.269 OA
ATOM      5  C   UNL A   1      38.378  29.554  32.641  1.00  0.00     0.251 C 
ATOM      6  H   UNL A   1      36.476  29.654  33.272  1.00  0.00     0.163 HD
BRANCH   5   7
ATOM      7  C   UNL A   1      39.468  30.282  31.960  1.00  0.00     0.039 A 
ATOM      8  C   UNL A   1      39.603  30.211  30.570  1.00  0.00     0.014 A 
ATOM      9  C   UNL A   1      40.379  31.011  32.726  1.00  0.00     0.014 A 
ATOM     10  C   UNL A   1      40.729  30.757  29.960  1.00  0.00     0.010 A 
ATOM     11  C   UNL A   1      41.477  31.608  32.104  1.00  0.00     0.010 A 
ATOM     12  C   UNL A   1      41.679  31.453  30.723  1.00  0.00    -0.014 A 
BRANCH  12  13
ATOM     13  C   UNL A   1      42.860  32.055  30.061  1.00  0.00     0.031 A 
ATOM     14  C   UNL A   1      44.101  31.246  29.816  1.00  0.00     0.074 A 
ATOM     15  C   UNL A   1      42.804  33.347  29.687  1.00  0.00     0.049 A 
ATOM     16  N   UNL A   1      45.227  31.621  29.269  1.00  0.00    -0.248 NA
ATOM     17  C   UNL A   1      44.079  29.836  30.236  1.00  0.00     0.031 C 
ATOM     18  C   UNL A   1      41.649  34.224  29.884  1.00  0.00     0.029 A 
ATOM     19  N   UNL A   1      43.735  34.149  29.077  1.00  0.00    -0.354 N 
ATOM     20  C   UNL A   1      46.052  30.504  29.288  1.00  0.00     0.074 A 
ATOM     21  C   UNL A   1      45.306  29.439  29.921  1.00  0.00     0.031 C 
ATOM     22  C   UNL A   1      41.939  35.441  29.403  1.00  0.00     0.029 A 
ATOM     23  C   UNL A   1      43.315  35.447  28.911  1.00  0.00     0.049 A 
ATOM     24  H   UNL A   1      44.619  33.826  28.787  1.00  0.00     0.167 HD
ATOM     25  C   UNL A   1      47.312  30.381  28.808  1.00  0.00     0.034 A 
ATOM     26  C   UNL A   1      43.967  36.530  28.443  1.00  0.00     0.034 A 
ATOM     27  C   UNL A   1      48.034  31.447  28.163  1.00  0.00     0.049 A 
ATOM     28  C   UNL A   1      45.378  36.375  27.946  1.00  0.00     0.074 A 
ATOM     29  C   UNL A   1      49.292  31.396  27.587  1.00  0.00     0.029 A 
ATOM     30  N   UNL A   1      47.580  32.748  28.017  1.00  0.00    -0.354 N 
ATOM     31  N   UNL A   1      46.113  35.289  27.893  1.00  0.00    -0.248 NA
ATOM     32  C   UNL A   1      46.051  37.580  27.443  1.00  0.00     0.031 C 
ATOM     33  C   UNL A   1      49.618  32.676  27.140  1.00  0.00     0.029 A 
ATOM     34  C   UNL A   1      48.544  33.516  27.389  1.00  0.00     0.049 A 
ATOM     35  H   UNL A   1      46.700  33.077  28.315  1.00  0.00     0.167 HD
ATOM     36  C   UNL A   1      47.329  35.677  27.341  1.00  0.00     0.074 A 
ATOM     37  C   UNL A   1      47.225  37.093  27.057  1.00  0.00     0.031 C 
ATOM     38  C   UNL A   1      48.430  34.925  27.096  1.00  0.00     0.034 A 
BRANCH  25  39
ATOM     39  C   UNL A   1      48.011  29.054  28.925  1.00  0.00     0.023 A 
ATOM     40  C   UNL A   1      47.903  28.109  27.888  1.00  0.00     0.031 A 
ATOM     41  C   UNL A   1      48.639  28.667  30.121  1.00  0.00     0.131 A 
ATOM     42  C   UNL A   1      48.382  26.807  28.082  1.00  0.00     0.055 A 
ATOM     43  C   UNL A   1      49.140  27.377  30.299  1.00  0.00     0.041 A 
ATOM     44  F   UNL A   1      48.764  29.536  31.137  1.00  0.00    -0.206 F 
ATOM     45  C   UNL A   1      49.002  26.438  29.281  1.00  0.00     0.022 A 
BRANCH  42  46
ATOM     46  S   UNL A   1      48.180  25.536  26.805  1.00  0.00     0.124 S 
ATOM     47  O   UNL A   1      46.748  25.253  26.885  1.00  0.00    -0.237 OA
ATOM     48  O   UNL A   1      48.609  26.243  25.603  1.00  0.00    -0.237 OA
ATOM     49  O   UNL A   1      49.048  24.452  27.250  1.00  0.00    -0.744 OA
ENDBRANCH  42  46
ENDBRANCH  25  39
BRANCH  26  50
ATOM     50  C   UNL A   1      43.255  37.836  28.417  1.00  0.00     0.023 A 
ATOM     51  C   UNL A   1      43.432  38.767  29.457  1.00  0.00     0.031 A 
ATOM     52  C   UNL A   1      42.301  38.119  27.428  1.00  0.00     0.131 A 
ATOM     53  C   UNL A   1      42.615  39.903  29.520  1.00  0.00     0.055 A 
ATOM     54  C   UNL A   1      41.533  39.283  27.459  1.00  0.00     0.041 A 
ATOM     55  F   UNL A   1      42.092  37.252  26.424  1.00  0.00    -0.206 F 
ATOM     56  C   UNL A   1      41.677  40.174  28.519  1.00  0.00     0.022 A 
BRANCH  53  57
ATOM     57  S   UNL A   1      42.663  41.004  30.961  1.00  0.00     0.124 S 
ATOM     58  O   UNL A   1      41.439  41.779  30.795  1.00  0.00    -0.237 OA
ATOM     59  O   UNL A   1      42.658  40.045  32.064  1.00  0.00    -0.237 OA
ATOM     60  O   UNL A   1      43.907  41.746  30.787  1.00  0.00    -0.744 OA
ENDBRANCH  53  57
ENDBRANCH  26  50
BRANCH  38  61
ATOM     61  C   UNL A   1      49.641  35.587  26.494  1.00  0.00     0.023 A 
ATOM     62  C   UNL A   1      50.573  36.239  27.324  1.00  0.00     0.031 A 
ATOM     63  C   UNL A   1      49.770  35.728  25.101  1.00  0.00     0.131 A 
ATOM     64  C   UNL A   1      51.563  37.047  26.753  1.00  0.00     0.055 A 
ATOM     65  C   UNL A   1      50.785  36.500  24.538  1.00  0.00     0.041 A 
ATOM     66  F   UNL A   1      48.899  35.129  24.273  1.00  0.00    -0.206 F 
ATOM     67  C   UNL A   1      51.678  37.176  25.365  1.00  0.00     0.022 A 
BRANCH  64  68
ATOM     68  S   UNL A   1      52.692  38.013  27.795  1.00  0.00     0.124 S 
ATOM     69  O   UNL A   1      52.097  37.854  29.120  1.00  0.00    -0.237 OA
ATOM     70  O   UNL A   1      53.961  37.321  27.593  1.00  0.00    -0.237 OA
ATOM     71  O   UNL A   1      52.613  39.361  27.241  1.00  0.00    -0.744 OA
ENDBRANCH  64  68
ENDBRANCH  38  61
ENDBRANCH  12  13
ENDBRANCH   5   7
ENDBRANCH   2   3
ENDBRANCH   1   2
BRANCH   1  72
ATOM     72  C   UNL A   1      35.157  33.297  32.831  1.00  0.00     0.023 C 
BRANCH  72  73
ATOM     73  C   UNL A   1      34.407  32.976  31.544  1.00  0.00     0.116 C 
BRANCH  73  74
ATOM     74  N   UNL A   1      34.465  34.056  30.570  1.00  0.00    -0.352 N 
ATOM     75  C   UNL A   1      34.584  33.961  29.205  1.00  0.00     0.251 C 
ATOM     76  H   UNL A   1      34.412  34.969  30.935  1.00  0.00     0.163 HD
ATOM     77  O   UNL A   1      34.726  34.951  28.498  1.00  0.00    -0.269 OA
BRANCH  75  78
ATOM     78  C   UNL A   1      34.578  32.621  28.599  1.00  0.00     0.041 A 
ATOM     79  C   UNL A   1      35.764  31.899  28.492  1.00  0.00     0.036 A 
ATOM     80  C   UNL A   1      33.384  32.126  28.074  1.00  0.00     0.020 A 
ATOM     81  C   UNL A   1      35.771  30.731  27.741  1.00  0.00     0.065 A 
ATOM     82  C   UNL A   1      33.386  30.935  27.334  1.00  0.00    -0.015 A 
ATOM     83  Cl  UNL A   1      37.277  29.900  27.538  1.00  0.00    -0.082 Cl
ATOM     84  C   UNL A   1      34.601  30.261  27.110  1.00  0.00     0.057 A 
ATOM     85  C   UNL A   1      32.084  30.375  26.821  1.00  0.00     0.049 C 
ATOM     86  N   UNL A   1      34.633  29.119  26.320  1.00  0.00    -0.376 N 
ATOM     87  C   UNL A   1      31.404  31.193  25.756  1.00  0.00    -0.023 C 
ATOM     88  C   UNL A   1      32.192  28.992  26.139  1.00  0.00     0.031 C 
ATOM     89  C   UNL A   1      33.541  28.862  25.397  1.00  0.00     0.114 C 
ATOM     90  H   UNL A   1      35.388  28.491  26.383  1.00  0.00     0.161 HD
ATOM     91  C   UNL A   1      30.787  30.411  24.862  1.00  0.00    -0.030 C 
ATOM     92  C   UNL A   1      30.986  28.963  25.183  1.00  0.00     0.034 C 
BRANCH  89  93
ATOM     93  C   UNL A   1      33.749  27.474  24.806  1.00  0.00    -0.025 A 
ATOM     94  C   UNL A   1      34.024  26.373  25.635  1.00  0.00     0.007 A 
ATOM     95  C   UNL A   1      33.664  27.277  23.418  1.00  0.00     0.007 A 
ATOM     96  C   UNL A   1      34.155  25.094  25.098  1.00  0.00     0.022 A 
ATOM     97  C   UNL A   1      33.808  25.999  22.874  1.00  0.00     0.022 A 
ATOM     98  C   UNL A   1      34.009  24.910  23.722  1.00  0.00     0.082 A 
BRANCH  98  99
ATOM     99  S   UNL A   1      33.981  23.259  23.060  1.00  0.00     0.243 S 
ATOM    100  O   UNL A   1      33.774  23.368  21.637  1.00  0.00    -0.207 OA
ATOM    101  O   UNL A   1      35.125  22.558  23.613  1.00  0.00    -0.207 OA
BRANCH  99 102
ATOM    102  N   UNL A   1      32.620  22.599  23.774  1.00  0.00    -0.193 NA
ATOM    103  C   UNL A   1      31.272  23.167  23.592  1.00  0.00     0.131 C 
ATOM    104  C   UNL A   1      32.721  21.578  24.836  1.00  0.00     0.131 C 
ATOM    105  C   UNL A   1      30.662  23.579  24.934  1.00  0.00     0.177 C 
ATOM    106  C   UNL A   1      32.073  22.102  26.124  1.00  0.00     0.177 C 
ATOM    107  O   UNL A   1      30.717  22.515  25.896  1.00  0.00    -0.379 OA
ENDBRANCH  99 102
ENDBRANCH  98  99
ENDBRANCH  89  93
ENDBRANCH  75  78
ENDBRANCH  73  74
ENDBRANCH  72  73
ENDBRANCH   1  72
TORSDOF 17
ENDMDL
MODEL 3
REMARK VINA RESULT:     -11.7      4.229      8.785
REMARK SMILES O=C(NCCCCNC(=O)c1cc(Cl)c2c(c1)[C@H]1C=CC[C@H]1[C@H](c1ccc(S(=O)(=O)N3CCOCC3)cc1)N2)c1ccc(-c2c3nc(c(-c4cc(S(=O)(=O)[O-])ccc4F)c4ccc([nH]4)c(-c4cc(S(=O)(=O)[O-])ccc4F)c4nc(c(-c5cc(S(=O)(=O)[O-])ccc5F)c5ccc2[nH]5)C=C4)C=C3)cc1
REMARK SMILES IDX 5 1 4 2 3 3 1 4 2 5 40 7 41 8 102 9 42 10 101 11 43 12 44 13
REMARK SMILES IDX 45 14 95 15 46 16 100 17 94 18 96 19 47 20 99 21 93 22 92 23
REMARK SMILES IDX 48 25 80 26 60 27 79 28 61 29 64 30 78 31 97 32 62 33 63 34
REMARK SMILES IDX 77 36 98 37 65 38 49 39 50 40 58 41 51 42 57 43 59 44 56 45
REMARK SMILES IDX 52 46 53 47 54 48 55 49 81 50 82 51 90 52 83 53 89 54 91 55
REMARK SMILES IDX 88 56 84 57 85 58 86 59 87 60 66 61 67 62 75 63 68 64 74 65
REMARK SMILES IDX 76 66 73 67 69 68 70 69 71 70 72 71 6 72 7 73 8 74 9 75
REMARK SMILES IDX 10 77 11 78 12 79 17 80 13 81 16 82 14 83 15 84 18 85 39 86
REMARK SMILES IDX 19 87 22 88 23 89 20 91 21 92 24 93 25 94 38 95 26 96 37 97
REMARK SMILES IDX 27 98 28 99 29 100 30 101 31 102 32 103 36 104 33 105 35 106
REMARK SMILES IDX 34 107
REMARK H PARENT 3 6 96 24 64 35 8 76 39 90
REMARK Flexibility Score: inf
ROOT
ATOM      1  C   UNL A   1      45.174  24.394  25.829  1.00  0.00     0.023 C 
ENDROOT
BRANCH   1   2
ATOM      2  C   UNL A   1      44.458  25.718  25.590  1.00  0.00     0.116 C 
BRANCH   2   3
ATOM      3  N   UNL A   1      43.104  25.538  25.088  1.00  0.00    -0.352 N 
ATOM      4  O   UNL A   1      40.864  25.799  25.053  1.00  0.00    -0.269 OA
ATOM      5  C   UNL A   1      41.952  26.187  25.464  1.00  0.00     0.251 C 
ATOM      6  H   UNL A   1      42.999  24.861  24.383  1.00  0.00     0.163 HD
BRANCH   5   7
ATOM      7  C   UNL A   1      42.042  27.332  26.394  1.00  0.00     0.039 A 
ATOM      8  C   UNL A   1      41.851  28.636  25.928  1.00  0.00     0.014 A 
ATOM      9  C   UNL A   1      42.354  27.094  27.734  1.00  0.00     0.014 A 
ATOM     10  C   UNL A   1      42.107  29.712  26.773  1.00  0.00     0.010 A 
ATOM     11  C   UNL A   1      42.553  28.175  28.594  1.00  0.00     0.010 A 
ATOM     12  C   UNL A   1      42.468  29.490  28.110  1.00  0.00    -0.014 A 
BRANCH  12  13
ATOM     13  C   UNL A   1      42.712  30.643  29.010  1.00  0.00     0.031 A 
ATOM     14  C   UNL A   1      41.635  31.140  29.932  1.00  0.00     0.074 A 
ATOM     15  C   UNL A   1      43.916  31.242  28.983  1.00  0.00     0.049 A 
ATOM     16  N   UNL A   1      41.674  32.145  30.767  1.00  0.00    -0.248 NA
ATOM     17  C   UNL A   1      40.352  30.421  29.918  1.00  0.00     0.031 C 
ATOM     18  C   UNL A   1      45.029  30.843  28.120  1.00  0.00     0.029 A 
ATOM     19  N   UNL A   1      44.404  32.316  29.685  1.00  0.00    -0.354 N 
ATOM     20  C   UNL A   1      40.424  32.189  31.371  1.00  0.00     0.074 A 
ATOM     21  C   UNL A   1      39.637  31.122  30.790  1.00  0.00     0.031 C 
ATOM     22  C   UNL A   1      46.069  31.657  28.345  1.00  0.00     0.029 A 
ATOM     23  C   UNL A   1      45.683  32.668  29.327  1.00  0.00     0.049 A 
ATOM     24  H   UNL A   1      43.887  32.788  30.378  1.00  0.00     0.167 HD
ATOM     25  C   UNL A   1      39.982  33.036  32.329  1.00  0.00     0.034 A 
ATOM     26  C   UNL A   1      46.454  33.701  29.721  1.00  0.00     0.034 A 
ATOM     27  C   UNL A   1      40.784  34.082  32.909  1.00  0.00     0.049 A 
ATOM     28  C   UNL A   1      45.928  34.650  30.763  1.00  0.00     0.074 A 
ATOM     29  C   UNL A   1      40.442  34.948  33.933  1.00  0.00     0.029 A 
ATOM     30  N   UNL A   1      42.073  34.412  32.520  1.00  0.00    -0.354 N 
ATOM     31  N   UNL A   1      44.772  34.625  31.384  1.00  0.00    -0.248 NA
ATOM     32  C   UNL A   1      46.800  35.762  31.163  1.00  0.00     0.031 C 
ATOM     33  C   UNL A   1      41.501  35.834  34.127  1.00  0.00     0.029 A 
ATOM     34  C   UNL A   1      42.527  35.489  33.260  1.00  0.00     0.049 A 
ATOM     35  H   UNL A   1      42.589  33.948  31.820  1.00  0.00     0.167 HD
ATOM     36  C   UNL A   1      44.785  35.707  32.257  1.00  0.00     0.074 A 
ATOM     37  C   UNL A   1      46.069  36.356  32.099  1.00  0.00     0.031 C 
ATOM     38  C   UNL A   1      43.814  36.124  33.108  1.00  0.00     0.034 A 
BRANCH  25  39
ATOM     39  C   UNL A   1      38.578  32.882  32.849  1.00  0.00     0.023 A 
ATOM     40  C   UNL A   1      37.503  33.461  32.148  1.00  0.00     0.031 A 
ATOM     41  C   UNL A   1      38.328  32.311  34.107  1.00  0.00     0.131 A 
ATOM     42  C   UNL A   1      36.231  33.490  32.733  1.00  0.00     0.055 A 
ATOM     43  C   UNL A   1      37.052  32.318  34.672  1.00  0.00     0.041 A 
ATOM     44  F   UNL A   1      39.324  31.748  34.811  1.00  0.00    -0.206 F 
ATOM     45  C   UNL A   1      36.000  32.920  33.988  1.00  0.00     0.022 A 
BRANCH  42  46
ATOM     46  S   UNL A   1      34.840  34.307  31.903  1.00  0.00     0.124 S 
ATOM     47  O   UNL A   1      35.235  34.223  30.498  1.00  0.00    -0.237 OA
ATOM     48  O   UNL A   1      33.717  33.458  32.287  1.00  0.00    -0.237 OA
ATOM     49  O   UNL A   1      34.840  35.653  32.463  1.00  0.00    -0.744 OA
ENDBRANCH  42  46
ENDBRANCH  25  39
BRANCH  26  50
ATOM     50  C   UNL A   1      47.807  33.853  29.121  1.00  0.00     0.023 A 
ATOM     51  C   UNL A   1      47.960  34.382  27.826  1.00  0.00     0.031 A 
ATOM     52  C   UNL A   1      48.946  33.358  29.775  1.00  0.00     0.131 A 
ATOM     53  C   UNL A   1      49.212  34.340  27.200  1.00  0.00     0.055 A 
ATOM     54  C   UNL A   1      50.205  33.377  29.173  1.00  0.00     0.041 A 
ATOM     55  F   UNL A   1      48.842  32.834  31.006  1.00  0.00    -0.206 F 
ATOM     56  C   UNL A   1      50.339  33.854  27.872  1.00  0.00     0.022 A 
BRANCH  53  57
ATOM     57  S   UNL A   1      49.397  34.806  25.457  1.00  0.00     0.124 S 
ATOM     58  O   UNL A   1      49.832  36.195  25.557  1.00  0.00    -0.237 OA
ATOM     59  O   UNL A   1      50.413  33.858  25.005  1.00  0.00    -0.237 OA
ATOM     60  O   UNL A   1      48.063  34.602  24.903  1.00  0.00    -0.744 OA
ENDBRANCH  53  57
ENDBRANCH  26  50
BRANCH  38  61
ATOM     61  C   UNL A   1      44.066  37.346  33.952  1.00  0.00     0.023 A 
ATOM     62  C   UNL A   1      43.781  38.626  33.440  1.00  0.00     0.031 A 
ATOM     63  C   UNL A   1      44.752  37.250  35.175  1.00  0.00     0.131 A 
ATOM     64  C   UNL A   1      44.229  39.762  34.124  1.00  0.00     0.055 A 
ATOM     65  C   UNL A   1      45.157  38.387  35.874  1.00  0.00     0.041 A 
ATOM     66  F   UNL A   1      45.050  36.049  35.696  1.00  0.00    -0.206 F 
ATOM     67  C   UNL A   1      44.909  39.649  35.341  1.00  0.00     0.022 A 
BRANCH  64  68
ATOM     68  S   UNL A   1      44.004  41.420  33.425  1.00  0.00     0.124 S 
ATOM     69  O   UNL A   1      45.334  41.710  32.892  1.00  0.00    -0.237 OA
ATOM     70  O   UNL A   1      42.967  41.191  32.422  1.00  0.00    -0.237 OA
ATOM     71  O   UNL A   1      43.606  42.233  34.569  1.00  0.00    -0.744 OA
ENDBRANCH  64  68
ENDBRANCH  38  61
ENDBRANCH  12  13
ENDBRANCH   5   7
ENDBRANCH   2   3
ENDBRANCH   1   2
BRANCH   1  72
ATOM     72  C   UNL A   1      44.382  23.369  26.637  1.00  0.00     0.023 C 
BRANCH  72  73
ATOM     73  C   UNL A   1      43.507  22.433  25.813  1.00  0.00     0.116 C 
BRANCH  73  74
ATOM     74  N   UNL A   1      43.213  21.182  26.497  1.00  0.00    -0.352 N 
ATOM     75  C   UNL A   1      42.004  20.739  26.972  1.00  0.00     0.251 C 
ATOM     76  H   UNL A   1      43.978  20.577  26.635  1.00  0.00     0.163 HD
ATOM     77  O   UNL A   1      41.903  19.707  27.625  1.00  0.00    -0.269 OA
BRANCH  75  78
ATOM     78  C   UNL A   1      40.812  21.562  26.713  1.00  0.00     0.041 A 
ATOM     79  C   UNL A   1      40.666  22.795  27.345  1.00  0.00     0.036 A 
ATOM     80  C   UNL A   1      39.810  21.053  25.887  1.00  0.00     0.020 A 
ATOM     81  C   UNL A   1      39.451  23.459  27.244  1.00  0.00     0.065 A 
ATOM     82  C   UNL A   1      38.590  21.734  25.766  1.00  0.00    -0.015 A 
ATOM     83  Cl  UNL A   1      39.255  24.941  28.117  1.00  0.00    -0.082 Cl
ATOM     84  C   UNL A   1      38.382  22.916  26.501  1.00  0.00     0.057 A 
ATOM     85  C   UNL A   1      37.535  21.211  24.825  1.00  0.00     0.049 C 
ATOM     86  N   UNL A   1      37.155  23.565  26.449  1.00  0.00    -0.376 N 
ATOM     87  C   UNL A   1      36.916  19.896  25.216  1.00  0.00    -0.023 C 
ATOM     88  C   UNL A   1      36.291  22.115  24.673  1.00  0.00     0.031 C 
ATOM     89  C   UNL A   1      35.982  22.834  26.005  1.00  0.00     0.114 C 
ATOM     90  H   UNL A   1      37.081  24.511  26.712  1.00  0.00     0.161 HD
ATOM     91  C   UNL A   1      35.620  19.852  24.888  1.00  0.00    -0.030 C 
ATOM     92  C   UNL A   1      35.178  21.135  24.257  1.00  0.00     0.034 C 
BRANCH  89  93
ATOM     93  C   UNL A   1      34.835  23.828  25.878  1.00  0.00    -0.025 A 
ATOM     94  C   UNL A   1      33.555  23.516  26.369  1.00  0.00     0.007 A 
ATOM     95  C   UNL A   1      35.044  25.076  25.269  1.00  0.00     0.007 A 
ATOM     96  C   UNL A   1      32.522  24.448  26.306  1.00  0.00     0.022 A 
ATOM     97  C   UNL A   1      34.009  26.009  25.192  1.00  0.00     0.022 A 
ATOM     98  C   UNL A   1      32.766  25.705  25.750  1.00  0.00     0.082 A 
BRANCH  98  99
ATOM     99  S   UNL A   1      31.510  26.961  25.844  1.00  0.00     0.243 S 
ATOM    100  O   UNL A   1      30.445  26.444  26.668  1.00  0.00    -0.207 OA
ATOM    101  O   UNL A   1      32.177  28.211  26.156  1.00  0.00    -0.207 OA
BRANCH  99 102
ATOM    102  N   UNL A   1      30.985  27.076  24.260  1.00  0.00    -0.193 NA
ATOM    103  C   UNL A   1      31.789  27.713  23.201  1.00  0.00     0.131 C 
ATOM    104  C   UNL A   1      29.586  26.791  23.886  1.00  0.00     0.131 C 
ATOM    105  C   UNL A   1      31.041  28.893  22.577  1.00  0.00     0.177 C 
ATOM    106  C   UNL A   1      28.947  28.042  23.270  1.00  0.00     0.177 C 
ATOM    107  O   UNL A   1      29.716  28.528  22.159  1.00  0.00    -0.379 OA
ENDBRANCH  99 102
ENDBRANCH  98  99
ENDBRANCH  89  93
ENDBRANCH  75  78
ENDBRANCH  73  74
ENDBRANCH  72  73
ENDBRANCH   1  72
TORSDOF 17
ENDMDL
