MODEL 1
REMARK VINA RESULT:     -12.7      0.000      0.000
REMARK SMILES O=C(CCCN1C(=O)C(=O)/C(=C(/[O-])c2ccc(Cl)cc2)[C@@H]1c1ccccc1[N+](=O)[O-])NCCCCNC(=O)c1ccc(-c2c3nc(c(-c4cc(S(=O)(=O)[O-])ccc4F)c4ccc([nH]4)c(-c4cc(S(=O)(=O)[O-])ccc4F)c4nc(c(-c5cc(S(=O)(=O)[O-])ccc5F)c5ccc2[nH]5)C=C4)C=C3)cc1
REMARK SMILES IDX 32 1 31 2 1 3 2 4 3 6 4 7 5 8 6 9 7 10 21 11 8 12 9 13 11 14
REMARK SMILES IDX 10 15 12 16 13 17 22 18 23 19 27 20 24 21 26 22 25 23 28 24
REMARK SMILES IDX 29 25 30 26 14 27 15 28 20 29 16 30 19 31 17 32 18 33 33 34
REMARK SMILES IDX 34 35 35 36 36 37 37 38 38 40 39 41 40 42 101 43 41 44
REMARK SMILES IDX 100 45 42 46 43 47 44 48 94 49 45 50 99 51 93 52 95 53 46 54
REMARK SMILES IDX 98 55 92 56 91 57 47 59 79 60 59 61 78 62 60 63 63 64 77 65
REMARK SMILES IDX 96 66 61 67 62 68 76 70 97 71 64 72 48 73 49 74 57 75 50 76
REMARK SMILES IDX 56 77 58 78 55 79 51 80 52 81 53 82 54 83 80 84 81 85 89 86
REMARK SMILES IDX 82 87 88 88 90 89 87 90 83 91 84 92 85 93 86 94 65 95 66 96
REMARK SMILES IDX 74 97 67 98 73 99 75 100 72 101 68 102 69 103 70 104 71 105
REMARK H PARENT 31 5 36 39 95 58 63 69
REMARK Flexibility Score: inf
ROOT
ATOM      1  C   UNL A   1      32.279  29.558  27.194  1.00  0.00     0.116 C 
ENDROOT
BRANCH   1   2
ATOM      2  N   UNL A   1      31.618  29.069  25.990  1.00  0.00    -0.356 N 
ATOM      3  O   UNL A   1      31.088  27.041  26.870  1.00  0.00    -0.275 OA
ATOM      4  C   UNL A   1      31.091  27.804  25.903  1.00  0.00     0.220 C 
ATOM      5  H   UNL A   1      31.546  29.668  25.212  1.00  0.00     0.163 HD
BRANCH   4   6
ATOM      6  C   UNL A   1      30.445  27.376  24.585  1.00  0.00     0.102 C 
BRANCH   6   7
ATOM      7  C   UNL A   1      29.565  26.131  24.452  1.00  0.00     0.031 C 
BRANCH   7   8
ATOM      8  C   UNL A   1      30.161  24.762  24.065  1.00  0.00     0.121 C 
BRANCH   8   9
ATOM      9  N   UNL A   1      31.485  24.378  24.545  1.00  0.00    -0.324 N 
ATOM     10  C   UNL A   1      31.658  23.486  25.598  1.00  0.00     0.295 C 
ATOM     11  C   UNL A   1      32.631  24.348  23.626  1.00  0.00     0.157 C 
ATOM     12  O   UNL A   1      30.823  23.066  26.378  1.00  0.00    -0.265 OA
ATOM     13  C   UNL A   1      33.099  22.978  25.546  1.00  0.00     0.248 C 
ATOM     14  C   UNL A   1      33.643  23.403  24.238  1.00  0.00     0.025 C 
ATOM     15  O   UNL A   1      33.612  22.256  26.378  1.00  0.00    -0.283 OA
ATOM     16  C   UNL A   1      34.838  23.081  23.714  1.00  0.00    -0.092 C 
ATOM     17  O   UNL A   1      35.145  23.397  22.407  1.00  0.00    -0.872 OA
BRANCH  11  18
ATOM     18  C   UNL A   1      33.276  25.710  23.347  1.00  0.00     0.057 A 
ATOM     19  C   UNL A   1      33.905  26.379  24.425  1.00  0.00     0.013 A 
ATOM     20  C   UNL A   1      33.163  26.448  22.155  1.00  0.00     0.275 A 
ATOM     21  C   UNL A   1      34.333  27.709  24.324  1.00  0.00     0.001 A 
ATOM     22  C   UNL A   1      33.634  27.767  22.030  1.00  0.00     0.086 A 
ATOM     23  C   UNL A   1      34.202  28.403  23.126  1.00  0.00     0.007 A 
BRANCH  20  24
ATOM     24  N   UNL A   1      32.539  25.910  20.969  1.00  0.00     0.063 N 
ATOM     25  O   UNL A   1      31.325  26.095  20.855  1.00  0.00    -0.258 OA
ATOM     26  O   UNL A   1      33.251  25.262  20.194  1.00  0.00    -0.258 OA
ENDBRANCH  20  24
ENDBRANCH  11  18
BRANCH  16  27
ATOM     27  C   UNL A   1      36.018  22.839  24.555  1.00  0.00    -0.033 A 
ATOM     28  C   UNL A   1      36.636  23.820  25.328  1.00  0.00     0.009 A 
ATOM     29  C   UNL A   1      36.577  21.546  24.509  1.00  0.00     0.009 A 
ATOM     30  C   UNL A   1      37.820  23.525  26.013  1.00  0.00     0.021 A 
ATOM     31  C   UNL A   1      37.756  21.251  25.192  1.00  0.00     0.021 A 
ATOM     32  C   UNL A   1      38.379  22.248  25.934  1.00  0.00     0.041 A 
ATOM     33  Cl  UNL A   1      39.858  21.903  26.744  1.00  0.00    -0.084 Cl
ENDBRANCH  16  27
ENDBRANCH   8   9
ENDBRANCH   7   8
ENDBRANCH   6   7
ENDBRANCH   4   6
ENDBRANCH   1   2
BRANCH   1  34
ATOM     34  C   UNL A   1      33.626  30.234  26.929  1.00  0.00     0.023 C 
BRANCH  34  35
ATOM     35  C   UNL A   1      33.681  31.725  27.248  1.00  0.00     0.023 C 
BRANCH  35  36
ATOM     36  C   UNL A   1      32.364  32.454  27.479  1.00  0.00     0.116 C 
BRANCH  36  37
ATOM     37  N   UNL A   1      32.547  33.883  27.642  1.00  0.00    -0.352 N 
ATOM     38  C   UNL A   1      33.397  34.612  28.442  1.00  0.00     0.251 C 
ATOM     39  H   UNL A   1      31.955  34.432  27.079  1.00  0.00     0.163 HD
ATOM     40  O   UNL A   1      33.203  35.824  28.517  1.00  0.00    -0.269 OA
BRANCH  38  41
ATOM     41  C   UNL A   1      34.513  34.002  29.225  1.00  0.00     0.039 A 
ATOM     42  C   UNL A   1      35.825  34.230  28.783  1.00  0.00     0.014 A 
ATOM     43  C   UNL A   1      34.319  33.150  30.314  1.00  0.00     0.014 A 
ATOM     44  C   UNL A   1      36.918  33.645  29.439  1.00  0.00     0.010 A 
ATOM     45  C   UNL A   1      35.413  32.633  31.021  1.00  0.00     0.010 A 
ATOM     46  C   UNL A   1      36.729  32.858  30.583  1.00  0.00    -0.014 A 
BRANCH  46  47
ATOM     47  C   UNL A   1      37.882  32.236  31.301  1.00  0.00     0.031 A 
ATOM     48  C   UNL A   1      38.664  31.113  30.665  1.00  0.00     0.074 A 
ATOM     49  C   UNL A   1      38.212  32.649  32.544  1.00  0.00     0.049 A 
ATOM     50  N   UNL A   1      39.637  30.390  31.162  1.00  0.00    -0.248 NA
ATOM     51  C   UNL A   1      38.277  30.736  29.298  1.00  0.00     0.031 C 
ATOM     52  C   UNL A   1      37.536  33.714  33.286  1.00  0.00     0.029 A 
ATOM     53  N   UNL A   1      39.193  32.219  33.404  1.00  0.00    -0.354 N 
ATOM     54  C   UNL A   1      39.969  29.463  30.176  1.00  0.00     0.074 A 
ATOM     55  C   UNL A   1      39.046  29.679  29.080  1.00  0.00     0.031 C 
ATOM     56  C   UNL A   1      38.135  33.869  34.478  1.00  0.00     0.029 A 
ATOM     57  C   UNL A   1      39.205  32.882  34.611  1.00  0.00     0.049 A 
ATOM     58  H   UNL A   1      39.829  31.501  33.180  1.00  0.00     0.167 HD
ATOM     59  C   UNL A   1      40.961  28.538  30.170  1.00  0.00     0.034 A 
ATOM     60  C   UNL A   1      39.975  32.713  35.705  1.00  0.00     0.034 A 
ATOM     61  C   UNL A   1      41.891  28.343  31.259  1.00  0.00     0.049 A 
ATOM     62  C   UNL A   1      41.050  31.655  35.693  1.00  0.00     0.074 A 
ATOM     63  C   UNL A   1      42.962  27.467  31.333  1.00  0.00     0.029 A 
ATOM     64  N   UNL A   1      41.863  29.030  32.466  1.00  0.00    -0.354 N 
ATOM     65  N   UNL A   1      41.366  30.809  34.738  1.00  0.00    -0.248 NA
ATOM     66  C   UNL A   1      41.879  31.536  36.900  1.00  0.00     0.031 C 
ATOM     67  C   UNL A   1      43.531  27.571  32.606  1.00  0.00     0.029 A 
ATOM     68  C   UNL A   1      42.872  28.572  33.300  1.00  0.00     0.049 A 
ATOM     69  H   UNL A   1      41.219  29.739  32.696  1.00  0.00     0.167 HD
ATOM     70  C   UNL A   1      42.452  30.081  35.222  1.00  0.00     0.074 A 
ATOM     71  C   UNL A   1      42.742  30.597  36.544  1.00  0.00     0.031 C 
ATOM     72  C   UNL A   1      43.148  29.081  34.624  1.00  0.00     0.034 A 
BRANCH  59  73
ATOM     73  C   UNL A   1      41.073  27.642  28.956  1.00  0.00     0.023 A 
ATOM     74  C   UNL A   1      42.084  27.823  27.994  1.00  0.00     0.031 A 
ATOM     75  C   UNL A   1      40.142  26.610  28.741  1.00  0.00     0.131 A 
ATOM     76  C   UNL A   1      42.086  27.047  26.825  1.00  0.00     0.055 A 
ATOM     77  C   UNL A   1      40.206  25.780  27.619  1.00  0.00     0.041 A 
ATOM     78  F   UNL A   1      39.143  26.398  29.611  1.00  0.00    -0.206 F 
ATOM     79  C   UNL A   1      41.171  26.008  26.643  1.00  0.00     0.022 A 
BRANCH  76  80
ATOM     80  S   UNL A   1      43.198  27.527  25.474  1.00  0.00     0.124 S 
ATOM     81  O   UNL A   1      42.281  28.221  24.573  1.00  0.00    -0.237 OA
ATOM     82  O   UNL A   1      44.179  28.363  26.156  1.00  0.00    -0.237 OA
ATOM     83  O   UNL A   1      43.701  26.249  24.975  1.00  0.00    -0.744 OA
ENDBRANCH  76  80
ENDBRANCH  59  73
BRANCH  60  84
ATOM     84  C   UNL A   1      39.751  33.551  36.919  1.00  0.00     0.023 A 
ATOM     85  C   UNL A   1      39.086  33.036  38.043  1.00  0.00     0.031 A 
ATOM     86  C   UNL A   1      40.167  34.894  36.958  1.00  0.00     0.131 A 
ATOM     87  C   UNL A   1      38.817  33.870  39.140  1.00  0.00     0.055 A 
ATOM     88  C   UNL A   1      39.944  35.705  38.073  1.00  0.00     0.041 A 
ATOM     89  F   UNL A   1      40.816  35.436  35.914  1.00  0.00    -0.206 F 
ATOM     90  C   UNL A   1      39.252  35.196  39.168  1.00  0.00     0.022 A 
BRANCH  87  91
ATOM     91  S   UNL A   1      37.812  33.216  40.501  1.00  0.00     0.124 S 
ATOM     92  O   UNL A   1      37.857  34.317  41.456  1.00  0.00    -0.237 OA
ATOM     93  O   UNL A   1      36.530  32.986  39.845  1.00  0.00    -0.237 OA
ATOM     94  O   UNL A   1      38.531  32.009  40.904  1.00  0.00    -0.744 OA
ENDBRANCH  87  91
ENDBRANCH  60  84
BRANCH  72  95
ATOM     95  C   UNL A   1      44.323  28.508  35.382  1.00  0.00     0.023 A 
ATOM     96  C   UNL A   1      44.165  27.484  36.332  1.00  0.00     0.031 A 
ATOM     97  C   UNL A   1      45.620  29.003  35.156  1.00  0.00     0.131 A 
ATOM     98  C   UNL A   1      45.274  27.027  37.060  1.00  0.00     0.055 A 
ATOM     99  C   UNL A   1      46.729  28.502  35.839  1.00  0.00     0.041 A 
ATOM    100  F   UNL A   1      45.831  29.983  34.262  1.00  0.00    -0.206 F 
ATOM    101  C   UNL A   1      46.558  27.518  36.808  1.00  0.00     0.022 A 
BRANCH  98 102
ATOM    102  S   UNL A   1      45.003  25.849  38.413  1.00  0.00     0.124 S 
ATOM    103  O   UNL A   1      46.210  26.025  39.214  1.00  0.00    -0.237 OA
ATOM    104  O   UNL A   1      43.766  26.339  39.010  1.00  0.00    -0.237 OA
ATOM    105  O   UNL A   1      44.895  24.561  37.730  1.00  0.00    -0.744 OA
ENDBRANCH  98 102
ENDBRANCH  72  95
ENDBRANCH  46  47
ENDBRANCH  38  41
ENDBRANCH  36  37
ENDBRANCH  35  36
ENDBRANCH  34  35
ENDBRANCH   1  34
TORSDOF 20
ENDMDL
MODEL 2
REMARK VINA RESULT:     -11.7      0.993      7.353
REMARK SMILES O=C(CCCN1C(=O)C(=O)/C(=C(/[O-])c2ccc(Cl)cc2)[C@@H]1c1ccccc1[N+](=O)[O-])NCCCCNC(=O)c1ccc(-c2c3nc(c(-c4cc(S(=O)(=O)[O-])ccc4F)c4ccc([nH]4)c(-c4cc(S(=O)(=O)[O-])ccc4F)c4nc(c(-c5cc(S(=O)(=O)[O-])ccc5F)c5ccc2[nH]5)C=C4)C=C3)cc1
REMARK SMILES IDX 32 1 31 2 1 3 2 4 3 6 4 7 5 8 6 9 7 10 21 11 8 12 9 13 11 14
REMARK SMILES IDX 10 15 12 16 13 17 22 18 23 19 27 20 24 21 26 22 25 23 28 24
REMARK SMILES IDX 29 25 30 26 14 27 15 28 20 29 16 30 19 31 17 32 18 33 33 34
REMARK SMILES IDX 34 35 35 36 36 37 37 38 38 40 39 41 40 42 101 43 41 44
REMARK SMILES IDX 100 45 42 46 43 47 44 48 94 49 45 50 99 51 93 52 95 53 46 54
REMARK SMILES IDX 98 55 92 56 91 57 47 59 79 60 59 61 78 62 60 63 63 64 77 65
REMARK SMILES IDX 96 66 61 67 62 68 76 70 97 71 64 72 48 73 49 74 57 75 50 76
REMARK SMILES IDX 56 77 58 78 55 79 51 80 52 81 53 82 54 83 80 84 81 85 89 86
REMARK SMILES IDX 82 87 88 88 90 89 87 90 83 91 84 92 85 93 86 94 65 95 66 96
REMARK SMILES IDX 74 97 67 98 73 99 75 100 72 101 68 102 69 103 70 104 71 105
REMARK H PARENT 31 5 36 39 95 58 63 69
REMARK Flexibility Score: inf
ROOT
ATOM      1  C   UNL A   1      31.432  30.258  25.627  1.00  0.00     0.116 C 
ENDROOT
BRANCH   1   2
ATOM      2  N   UNL A   1      31.160  29.146  24.723  1.00  0.00    -0.356 N 
ATOM      3  O   UNL A   1      29.348  30.120  23.756  1.00  0.00    -0.275 OA
ATOM      4  C   UNL A   1      30.092  29.144  23.861  1.00  0.00     0.220 C 
ATOM      5  H   UNL A   1      31.765  28.369  24.732  1.00  0.00     0.163 HD
BRANCH   4   6
ATOM      6  C   UNL A   1      29.877  27.916  22.975  1.00  0.00     0.102 C 
BRANCH   6   7
ATOM      7  C   UNL A   1      29.690  26.504  23.536  1.00  0.00     0.031 C 
BRANCH   7   8
ATOM      8  C   UNL A   1      30.155  26.136  24.960  1.00  0.00     0.121 C 
BRANCH   8   9
ATOM      9  N   UNL A   1      31.440  25.473  25.162  1.00  0.00    -0.324 N 
ATOM     10  C   UNL A   1      31.667  24.613  26.231  1.00  0.00     0.295 C 
ATOM     11  C   UNL A   1      32.292  25.134  24.014  1.00  0.00     0.157 C 
ATOM     12  O   UNL A   1      30.976  24.435  27.218  1.00  0.00    -0.265 OA
ATOM     13  C   UNL A   1      32.905  23.778  25.903  1.00  0.00     0.248 C 
ATOM     14  C   UNL A   1      33.192  24.006  24.471  1.00  0.00     0.025 C 
ATOM     15  O   UNL A   1      33.436  22.994  26.665  1.00  0.00    -0.283 OA
ATOM     16  C   UNL A   1      34.124  23.389  23.724  1.00  0.00    -0.092 C 
ATOM     17  O   UNL A   1      34.164  23.566  22.356  1.00  0.00    -0.872 OA
BRANCH  11  18
ATOM     18  C   UNL A   1      33.130  26.292  23.463  1.00  0.00     0.057 A 
ATOM     19  C   UNL A   1      33.807  27.121  24.389  1.00  0.00     0.013 A 
ATOM     20  C   UNL A   1      33.165  26.722  22.123  1.00  0.00     0.275 A 
ATOM     21  C   UNL A   1      34.419  28.321  24.003  1.00  0.00     0.001 A 
ATOM     22  C   UNL A   1      33.818  27.899  21.719  1.00  0.00     0.086 A 
ATOM     23  C   UNL A   1      34.429  28.709  22.666  1.00  0.00     0.007 A 
BRANCH  20  24
ATOM     24  N   UNL A   1      32.515  25.990  21.060  1.00  0.00     0.063 N 
ATOM     25  O   UNL A   1      33.254  25.438  20.242  1.00  0.00    -0.258 OA
ATOM     26  O   UNL A   1      31.280  26.020  21.020  1.00  0.00    -0.258 OA
ENDBRANCH  20  24
ENDBRANCH  11  18
BRANCH  16  27
ATOM     27  C   UNL A   1      35.391  22.914  24.294  1.00  0.00    -0.033 A 
ATOM     28  C   UNL A   1      35.707  21.568  24.474  1.00  0.00     0.009 A 
ATOM     29  C   UNL A   1      36.299  23.898  24.736  1.00  0.00     0.009 A 
ATOM     30  C   UNL A   1      36.893  21.212  25.125  1.00  0.00     0.021 A 
ATOM     31  C   UNL A   1      37.482  23.543  25.382  1.00  0.00     0.021 A 
ATOM     32  C   UNL A   1      37.768  22.197  25.584  1.00  0.00     0.041 A 
ATOM     33  Cl  UNL A   1      39.205  21.754  26.421  1.00  0.00    -0.084 Cl
ENDBRANCH  16  27
ENDBRANCH   8   9
ENDBRANCH   7   8
ENDBRANCH   6   7
ENDBRANCH   4   6
ENDBRANCH   1   2
BRANCH   1  34
ATOM     34  C   UNL A   1      32.830  30.225  26.247  1.00  0.00     0.023 C 
BRANCH  34  35
ATOM     35  C   UNL A   1      33.267  31.511  26.939  1.00  0.00     0.023 C 
BRANCH  35  36
ATOM     36  C   UNL A   1      32.197  32.353  27.622  1.00  0.00     0.116 C 
BRANCH  36  37
ATOM     37  N   UNL A   1      32.566  33.752  27.705  1.00  0.00    -0.352 N 
ATOM     38  C   UNL A   1      33.561  34.397  28.404  1.00  0.00     0.251 C 
ATOM     39  H   UNL A   1      32.003  34.350  27.163  1.00  0.00     0.163 HD
ATOM     40  O   UNL A   1      33.524  35.626  28.438  1.00  0.00    -0.269 OA
BRANCH  38  41
ATOM     41  C   UNL A   1      34.652  33.681  29.129  1.00  0.00     0.039 A 
ATOM     42  C   UNL A   1      35.971  33.889  28.699  1.00  0.00     0.014 A 
ATOM     43  C   UNL A   1      34.425  32.754  30.148  1.00  0.00     0.014 A 
ATOM     44  C   UNL A   1      37.041  33.209  29.299  1.00  0.00     0.010 A 
ATOM     45  C   UNL A   1      35.500  32.138  30.805  1.00  0.00     0.010 A 
ATOM     46  C   UNL A   1      36.822  32.342  30.379  1.00  0.00    -0.014 A 
BRANCH  46  47
ATOM     47  C   UNL A   1      37.951  31.618  31.038  1.00  0.00     0.031 A 
ATOM     48  C   UNL A   1      38.419  32.023  32.415  1.00  0.00     0.074 A 
ATOM     49  C   UNL A   1      38.587  30.619  30.392  1.00  0.00     0.049 A 
ATOM     50  N   UNL A   1      39.433  31.577  33.114  1.00  0.00    -0.248 NA
ATOM     51  C   UNL A   1      37.661  33.094  33.078  1.00  0.00     0.031 C 
ATOM     52  C   UNL A   1      38.251  30.130  29.053  1.00  0.00     0.029 A 
ATOM     53  N   UNL A   1      39.654  29.838  30.769  1.00  0.00    -0.354 N 
ATOM     54  C   UNL A   1      39.445  32.321  34.291  1.00  0.00     0.074 A 
ATOM     55  C   UNL A   1      38.374  33.290  34.177  1.00  0.00     0.031 C 
ATOM     56  C   UNL A   1      39.078  29.121  28.732  1.00  0.00     0.029 A 
ATOM     57  C   UNL A   1      40.037  28.921  29.816  1.00  0.00     0.049 A 
ATOM     58  H   UNL A   1      40.103  29.926  31.641  1.00  0.00     0.167 HD
ATOM     59  C   UNL A   1      40.253  32.197  35.375  1.00  0.00     0.034 A 
ATOM     60  C   UNL A   1      41.049  28.031  29.803  1.00  0.00     0.034 A 
ATOM     61  C   UNL A   1      41.305  31.214  35.489  1.00  0.00     0.049 A 
ATOM     62  C   UNL A   1      41.958  27.930  31.003  1.00  0.00     0.074 A 
ATOM     63  C   UNL A   1      42.147  30.973  36.563  1.00  0.00     0.029 A 
ATOM     64  N   UNL A   1      41.666  30.311  34.497  1.00  0.00    -0.354 N 
ATOM     65  N   UNL A   1      41.933  28.624  32.119  1.00  0.00    -0.248 NA
ATOM     66  C   UNL A   1      43.024  26.921  30.947  1.00  0.00     0.031 C 
ATOM     67  C   UNL A   1      43.061  29.980  36.194  1.00  0.00     0.029 A 
ATOM     68  C   UNL A   1      42.738  29.539  34.921  1.00  0.00     0.049 A 
ATOM     69  H   UNL A   1      41.225  30.231  33.621  1.00  0.00     0.167 HD
ATOM     70  C   UNL A   1      42.961  28.110  32.907  1.00  0.00     0.074 A 
ATOM     71  C   UNL A   1      43.574  27.042  32.145  1.00  0.00     0.031 C 
ATOM     72  C   UNL A   1      43.356  28.484  34.151  1.00  0.00     0.034 A 
BRANCH  59  73
ATOM     73  C   UNL A   1      40.046  33.170  36.515  1.00  0.00     0.023 A 
ATOM     74  C   UNL A   1      39.407  32.787  37.708  1.00  0.00     0.031 A 
ATOM     75  C   UNL A   1      40.469  34.507  36.399  1.00  0.00     0.131 A 
ATOM     76  C   UNL A   1      39.131  33.745  38.695  1.00  0.00     0.055 A 
ATOM     77  C   UNL A   1      40.273  35.435  37.425  1.00  0.00     0.041 A 
ATOM     78  F   UNL A   1      41.067  34.939  35.279  1.00  0.00    -0.206 F 
ATOM     79  C   UNL A   1      39.584  35.061  38.574  1.00  0.00     0.022 A 
BRANCH  76  80
ATOM     80  S   UNL A   1      38.027  33.285  40.059  1.00  0.00     0.124 S 
ATOM     81  O   UNL A   1      38.059  34.492  40.881  1.00  0.00    -0.237 OA
ATOM     82  O   UNL A   1      36.771  33.013  39.369  1.00  0.00    -0.237 OA
ATOM     83  O   UNL A   1      38.683  32.120  40.651  1.00  0.00    -0.744 OA
ENDBRANCH  76  80
ENDBRANCH  59  73
BRANCH  60  84
ATOM     84  C   UNL A   1      41.277  27.167  28.607  1.00  0.00     0.023 A 
ATOM     85  C   UNL A   1      42.311  27.445  27.699  1.00  0.00     0.031 A 
ATOM     86  C   UNL A   1      40.437  26.072  28.335  1.00  0.00     0.131 A 
ATOM     87  C   UNL A   1      42.452  26.667  26.540  1.00  0.00     0.055 A 
ATOM     88  C   UNL A   1      40.615  25.268  27.207  1.00  0.00     0.041 A 
ATOM     89  F   UNL A   1      39.438  25.756  29.175  1.00  0.00    -0.206 F 
ATOM     90  C   UNL A   1      41.620  25.572  26.294  1.00  0.00     0.022 A 
BRANCH  87  91
ATOM     91  S   UNL A   1      43.692  27.156  25.310  1.00  0.00     0.124 S 
ATOM     92  O   UNL A   1      44.513  28.089  26.075  1.00  0.00    -0.237 OA
ATOM     93  O   UNL A   1      44.311  25.877  24.982  1.00  0.00    -0.237 OA
ATOM     94  O   UNL A   1      42.894  27.755  24.243  1.00  0.00    -0.744 OA
ENDBRANCH  87  91
ENDBRANCH  60  84
BRANCH  72  95
ATOM     95  C   UNL A   1      44.482  27.700  34.783  1.00  0.00     0.023 A 
ATOM     96  C   UNL A   1      44.276  26.427  35.344  1.00  0.00     0.031 A 
ATOM     97  C   UNL A   1      45.779  28.240  34.833  1.00  0.00     0.131 A 
ATOM     98  C   UNL A   1      45.336  25.762  35.980  1.00  0.00     0.055 A 
ATOM     99  C   UNL A   1      46.843  27.548  35.412  1.00  0.00     0.041 A 
ATOM    100  F   UNL A   1      46.034  29.453  34.315  1.00  0.00    -0.206 F 
ATOM    101  C   UNL A   1      46.623  26.308  36.002  1.00  0.00     0.022 A 
BRANCH  98 102
ATOM    102  S   UNL A   1      44.991  24.216  36.864  1.00  0.00     0.124 S 
ATOM    103  O   UNL A   1      46.318  23.614  36.949  1.00  0.00    -0.237 OA
ATOM    104  O   UNL A   1      44.427  24.695  38.121  1.00  0.00    -0.237 OA
ATOM    105  O   UNL A   1      44.050  23.522  35.986  1.00  0.00    -0.744 OA
ENDBRANCH  98 102
ENDBRANCH  72  95
ENDBRANCH  46  47
ENDBRANCH  38  41
ENDBRANCH  36  37
ENDBRANCH  35  36
ENDBRANCH  34  35
ENDBRANCH   1  34
TORSDOF 20
ENDMDL
MODEL 3
REMARK VINA RESULT:     -11.1      2.012      2.341
REMARK SMILES O=C(CCCN1C(=O)C(=O)/C(=C(/[O-])c2ccc(Cl)cc2)[C@@H]1c1ccccc1[N+](=O)[O-])NCCCCNC(=O)c1ccc(-c2c3nc(c(-c4cc(S(=O)(=O)[O-])ccc4F)c4ccc([nH]4)c(-c4cc(S(=O)(=O)[O-])ccc4F)c4nc(c(-c5cc(S(=O)(=O)[O-])ccc5F)c5ccc2[nH]5)C=C4)C=C3)cc1
REMARK SMILES IDX 32 1 31 2 1 3 2 4 3 6 4 7 5 8 6 9 7 10 21 11 8 12 9 13 11 14
REMARK SMILES IDX 10 15 12 16 13 17 22 18 23 19 27 20 24 21 26 22 25 23 28 24
REMARK SMILES IDX 29 25 30 26 14 27 15 28 20 29 16 30 19 31 17 32 18 33 33 34
REMARK SMILES IDX 34 35 35 36 36 37 37 38 38 40 39 41 40 42 101 43 41 44
REMARK SMILES IDX 100 45 42 46 43 47 44 48 94 49 45 50 99 51 93 52 95 53 46 54
REMARK SMILES IDX 98 55 92 56 91 57 47 59 79 60 59 61 78 62 60 63 63 64 77 65
REMARK SMILES IDX 96 66 61 67 62 68 76 70 97 71 64 72 48 73 49 74 57 75 50 76
REMARK SMILES IDX 56 77 58 78 55 79 51 80 52 81 53 82 54 83 80 84 81 85 89 86
REMARK SMILES IDX 82 87 88 88 90 89 87 90 83 91 84 92 85 93 86 94 65 95 66 96
REMARK SMILES IDX 74 97 67 98 73 99 75 100 72 101 68 102 69 103 70 104 71 105
REMARK H PARENT 31 5 36 39 95 58 63 69
REMARK Flexibility Score: inf
ROOT
ATOM      1  C   UNL A   1      32.050  30.494  27.102  1.00  0.00     0.116 C 
ENDROOT
BRANCH   1   2
ATOM      2  N   UNL A   1      31.671  29.899  25.826  1.00  0.00    -0.356 N 
ATOM      3  O   UNL A   1      31.112  27.881  26.711  1.00  0.00    -0.275 OA
ATOM      4  C   UNL A   1      31.255  28.595  25.718  1.00  0.00     0.220 C 
ATOM      5  H   UNL A   1      31.714  30.453  25.013  1.00  0.00     0.163 HD
BRANCH   4   6
ATOM      6  C   UNL A   1      30.909  28.057  24.329  1.00  0.00     0.102 C 
BRANCH   6   7
ATOM      7  C   UNL A   1      30.026  26.826  24.106  1.00  0.00     0.031 C 
BRANCH   7   8
ATOM      8  C   UNL A   1      30.212  25.542  24.939  1.00  0.00     0.121 C 
BRANCH   8   9
ATOM      9  N   UNL A   1      31.551  25.011  25.179  1.00  0.00    -0.324 N 
ATOM     10  C   UNL A   1      31.826  24.153  26.239  1.00  0.00     0.295 C 
ATOM     11  C   UNL A   1      32.477  24.792  24.060  1.00  0.00     0.157 C 
ATOM     12  O   UNL A   1      31.120  23.880  27.193  1.00  0.00    -0.265 OA
ATOM     13  C   UNL A   1      33.157  23.460  25.944  1.00  0.00     0.248 C 
ATOM     14  C   UNL A   1      33.472  23.752  24.530  1.00  0.00     0.025 C 
ATOM     15  O   UNL A   1      33.737  22.717  26.710  1.00  0.00    -0.283 OA
ATOM     16  C   UNL A   1      34.491  23.255  23.808  1.00  0.00    -0.092 C 
ATOM     17  O   UNL A   1      34.565  23.469  22.447  1.00  0.00    -0.872 OA
BRANCH  11  18
ATOM     18  C   UNL A   1      33.209  26.045  23.568  1.00  0.00     0.057 A 
ATOM     19  C   UNL A   1      33.906  26.824  24.522  1.00  0.00     0.013 A 
ATOM     20  C   UNL A   1      33.123  26.597  22.276  1.00  0.00     0.275 A 
ATOM     21  C   UNL A   1      34.423  28.089  24.212  1.00  0.00     0.001 A 
ATOM     22  C   UNL A   1      33.681  27.843  21.944  1.00  0.00     0.086 A 
ATOM     23  C   UNL A   1      34.314  28.598  22.921  1.00  0.00     0.007 A 
BRANCH  20  24
ATOM     24  N   UNL A   1      32.438  25.928  21.194  1.00  0.00     0.063 N 
ATOM     25  O   UNL A   1      33.141  25.273  20.421  1.00  0.00    -0.258 OA
ATOM     26  O   UNL A   1      31.220  26.108  21.093  1.00  0.00    -0.258 OA
ENDBRANCH  20  24
ENDBRANCH  11  18
BRANCH  16  27
ATOM     27  C   UNL A   1      35.779  22.900  24.419  1.00  0.00    -0.033 A 
ATOM     28  C   UNL A   1      36.294  21.606  24.450  1.00  0.00     0.009 A 
ATOM     29  C   UNL A   1      36.486  23.937  25.061  1.00  0.00     0.009 A 
ATOM     30  C   UNL A   1      37.478  21.343  25.149  1.00  0.00     0.021 A 
ATOM     31  C   UNL A   1      37.666  23.676  25.756  1.00  0.00     0.021 A 
ATOM     32  C   UNL A   1      38.152  22.374  25.805  1.00  0.00     0.041 A 
ATOM     33  Cl  UNL A   1      39.584  22.038  26.698  1.00  0.00    -0.084 Cl
ENDBRANCH  16  27
ENDBRANCH   8   9
ENDBRANCH   7   8
ENDBRANCH   6   7
ENDBRANCH   4   6
ENDBRANCH   1   2
BRANCH   1  34
ATOM     34  C   UNL A   1      33.462  31.084  27.115  1.00  0.00     0.023 C 
BRANCH  34  35
ATOM     35  C   UNL A   1      33.666  32.266  28.056  1.00  0.00     0.023 C 
BRANCH  35  36
ATOM     36  C   UNL A   1      33.455  33.668  27.497  1.00  0.00     0.116 C 
BRANCH  36  37
ATOM     37  N   UNL A   1      32.981  34.597  28.504  1.00  0.00    -0.352 N 
ATOM     38  C   UNL A   1      33.345  34.788  29.817  1.00  0.00     0.251 C 
ATOM     39  H   UNL A   1      32.269  35.201  28.191  1.00  0.00     0.163 HD
ATOM     40  O   UNL A   1      32.636  35.527  30.499  1.00  0.00    -0.269 OA
BRANCH  38  41
ATOM     41  C   UNL A   1      34.529  34.131  30.445  1.00  0.00     0.039 A 
ATOM     42  C   UNL A   1      35.802  34.480  29.968  1.00  0.00     0.014 A 
ATOM     43  C   UNL A   1      34.436  33.130  31.414  1.00  0.00     0.014 A 
ATOM     44  C   UNL A   1      36.955  33.864  30.475  1.00  0.00     0.010 A 
ATOM     45  C   UNL A   1      35.591  32.575  31.981  1.00  0.00     0.010 A 
ATOM     46  C   UNL A   1      36.868  32.919  31.508  1.00  0.00    -0.014 A 
BRANCH  46  47
ATOM     47  C   UNL A   1      38.087  32.262  32.068  1.00  0.00     0.031 A 
ATOM     48  C   UNL A   1      38.767  31.145  31.314  1.00  0.00     0.074 A 
ATOM     49  C   UNL A   1      38.568  32.635  33.272  1.00  0.00     0.049 A 
ATOM     50  N   UNL A   1      39.779  30.394  31.674  1.00  0.00    -0.248 NA
ATOM     51  C   UNL A   1      38.215  30.810  29.994  1.00  0.00     0.031 C 
ATOM     52  C   UNL A   1      38.004  33.691  34.116  1.00  0.00     0.029 A 
ATOM     53  N   UNL A   1      39.636  32.168  33.999  1.00  0.00    -0.354 N 
ATOM     54  C   UNL A   1      39.975  29.490  30.633  1.00  0.00     0.074 A 
ATOM     55  C   UNL A   1      38.933  29.748  29.661  1.00  0.00     0.031 C 
ATOM     56  C   UNL A   1      38.743  33.804  35.232  1.00  0.00     0.029 A 
ATOM     57  C   UNL A   1      39.803  32.798  35.211  1.00  0.00     0.049 A 
ATOM     58  H   UNL A   1      40.228  31.447  33.682  1.00  0.00     0.167 HD
ATOM     59  C   UNL A   1      40.943  28.550  30.486  1.00  0.00     0.034 A 
ATOM     60  C   UNL A   1      40.694  32.588  36.202  1.00  0.00     0.034 A 
ATOM     61  C   UNL A   1      41.991  28.312  31.451  1.00  0.00     0.049 A 
ATOM     62  C   UNL A   1      41.741  31.514  36.036  1.00  0.00     0.074 A 
ATOM     63  C   UNL A   1      43.047  27.418  31.375  1.00  0.00     0.029 A 
ATOM     64  N   UNL A   1      42.118  28.966  32.670  1.00  0.00    -0.354 N 
ATOM     65  N   UNL A   1      41.927  30.691  35.029  1.00  0.00    -0.248 NA
ATOM     66  C   UNL A   1      42.705  31.351  37.133  1.00  0.00     0.031 C 
ATOM     67  C   UNL A   1      43.765  27.479  32.575  1.00  0.00     0.029 A 
ATOM     68  C   UNL A   1      43.211  28.471  33.367  1.00  0.00     0.049 A 
ATOM     69  H   UNL A   1      41.519  29.678  32.993  1.00  0.00     0.167 HD
ATOM     70  C   UNL A   1      43.049  29.933  35.363  1.00  0.00     0.074 A 
ATOM     71  C   UNL A   1      43.502  30.409  36.653  1.00  0.00     0.031 C 
ATOM     72  C   UNL A   1      43.651  28.939  34.661  1.00  0.00     0.034 A 
BRANCH  59  73
ATOM     73  C   UNL A   1      40.894  27.685  29.245  1.00  0.00     0.023 A 
ATOM     74  C   UNL A   1      41.802  27.861  28.185  1.00  0.00     0.031 A 
ATOM     75  C   UNL A   1      39.911  26.689  29.106  1.00  0.00     0.131 A 
ATOM     76  C   UNL A   1      41.654  27.119  27.004  1.00  0.00     0.055 A 
ATOM     77  C   UNL A   1      39.826  25.890  27.963  1.00  0.00     0.041 A 
ATOM     78  F   UNL A   1      39.004  26.485  30.073  1.00  0.00    -0.206 F 
ATOM     79  C   UNL A   1      40.689  26.115  26.896  1.00  0.00     0.022 A 
BRANCH  76  80
ATOM     80  S   UNL A   1      42.631  27.602  25.554  1.00  0.00     0.124 S 
ATOM     81  O   UNL A   1      43.929  27.893  26.159  1.00  0.00    -0.237 OA
ATOM     82  O   UNL A   1      42.567  26.408  24.719  1.00  0.00    -0.237 OA
ATOM     83  O   UNL A   1      41.919  28.769  25.035  1.00  0.00    -0.744 OA
ENDBRANCH  76  80
ENDBRANCH  59  73
BRANCH  60  84
ATOM     84  C   UNL A   1      40.631  33.396  37.455  1.00  0.00     0.023 A 
ATOM     85  C   UNL A   1      41.533  34.446  37.686  1.00  0.00     0.031 A 
ATOM     86  C   UNL A   1      39.689  33.103  38.458  1.00  0.00     0.131 A 
ATOM     87  C   UNL A   1      41.505  35.136  38.908  1.00  0.00     0.055 A 
ATOM     88  C   UNL A   1      39.631  33.828  39.650  1.00  0.00     0.041 A 
ATOM     89  F   UNL A   1      38.797  32.115  38.286  1.00  0.00    -0.206 F 
ATOM     90  C   UNL A   1      40.552  34.844  39.886  1.00  0.00     0.022 A 
BRANCH  87  91
ATOM     91  S   UNL A   1      42.791  36.374  39.235  1.00  0.00     0.124 S 
ATOM     92  O   UNL A   1      42.991  36.949  37.910  1.00  0.00    -0.237 OA
ATOM     93  O   UNL A   1      42.137  37.233  40.217  1.00  0.00    -0.237 OA
ATOM     94  O   UNL A   1      43.905  35.579  39.747  1.00  0.00    -0.744 OA
ENDBRANCH  87  91
ENDBRANCH  60  84
BRANCH  72  95
ATOM     95  C   UNL A   1      44.897  28.329  35.259  1.00  0.00     0.023 A 
ATOM     96  C   UNL A   1      46.178  28.842  34.989  1.00  0.00     0.031 A 
ATOM     97  C   UNL A   1      44.800  27.209  36.104  1.00  0.00     0.131 A 
ATOM     98  C   UNL A   1      47.313  28.203  35.513  1.00  0.00     0.055 A 
ATOM     99  C   UNL A   1      45.928  26.615  36.672  1.00  0.00     0.041 A 
ATOM    100  F   UNL A   1      43.603  26.674  36.395  1.00  0.00    -0.206 F 
ATOM    101  C   UNL A   1      47.195  27.103  36.367  1.00  0.00     0.022 A 
BRANCH  98 102
ATOM    102  S   UNL A   1      48.953  28.771  34.986  1.00  0.00     0.124 S 
ATOM    103  O   UNL A   1      49.738  28.602  36.205  1.00  0.00    -0.237 OA
ATOM    104  O   UNL A   1      49.265  27.853  33.896  1.00  0.00    -0.237 OA
ATOM    105  O   UNL A   1      48.724  30.157  34.583  1.00  0.00    -0.744 OA
ENDBRANCH  98 102
ENDBRANCH  72  95
ENDBRANCH  46  47
ENDBRANCH  38  41
ENDBRANCH  36  37
ENDBRANCH  35  36
ENDBRANCH  34  35
ENDBRANCH   1  34
TORSDOF 20
ENDMDL
