MODEL 1
REMARK VINA RESULT:     -12.3      0.000      0.000
REMARK SMILES CC(C)CCc1cc2c(cc1Cl)C=C(C(=O)NCCCCNC(=O)c1ccc(-c3c4nc(c(-c5cc(S(=O)(=O)[O-])ccc5F)c5ccc([nH]5)c(-c5cc(S(=O)(=O)[O-])ccc5F)c5nc(c(-c6cc(S(=O)(=O)[O-])ccc6F)c6ccc3[nH]6)C=C5)C=C4)cc1)[C@H](C(F)(F)F)O2
REMARK SMILES IDX 19 1 18 2 17 3 15 4 16 5 14 7 6 8 7 9 11 10 8 11 10 12 12 13
REMARK SMILES IDX 9 14 93 15 13 16 88 17 5 18 4 19 2 20 1 21 3 22 89 23 90 24
REMARK SMILES IDX 91 25 92 26 20 27 21 28 22 29 23 30 24 32 25 33 26 34 87 35
REMARK SMILES IDX 27 36 86 37 28 38 29 39 30 40 80 41 31 42 85 43 79 44 81 45
REMARK SMILES IDX 32 46 84 47 78 48 77 49 33 51 65 52 45 53 64 54 46 55 49 56
REMARK SMILES IDX 63 57 82 58 47 59 48 60 62 62 83 63 50 64 34 65 35 66 43 67
REMARK SMILES IDX 36 68 42 69 44 70 41 71 37 72 38 73 39 74 40 75 66 76 67 77
REMARK SMILES IDX 75 78 68 79 74 80 76 81 73 82 69 83 70 84 71 85 72 86 51 87
REMARK SMILES IDX 52 88 60 89 53 90 59 91 61 92 58 93 54 94 55 95 56 96 57 97
REMARK H PARENT 17 6 22 31 81 50 49 61
REMARK Flexibility Score: inf
ROOT
ATOM      1  C   UNL A   1      32.081  29.598  26.855  1.00  0.00     0.023 C 
ENDROOT
BRANCH   1   2
ATOM      2  C   UNL A   1      31.978  28.642  25.667  1.00  0.00     0.116 C 
BRANCH   2   3
ATOM      3  N   UNL A   1      33.012  28.901  24.682  1.00  0.00    -0.352 N 
ATOM      4  C   UNL A   1      33.716  28.151  23.801  1.00  0.00     0.251 C 
ATOM      5  O   UNL A   1      34.448  28.775  23.027  1.00  0.00    -0.270 OA
ATOM      6  H   UNL A   1      33.262  29.852  24.646  1.00  0.00     0.163 HD
BRANCH   4   7
ATOM      7  C   UNL A   1      33.661  26.664  23.716  1.00  0.00     0.067 C 
ATOM      8  C   UNL A   1      33.888  21.736  24.826  1.00  0.00    -0.026 A 
ATOM      9  C   UNL A   1      33.685  22.484  23.653  1.00  0.00     0.052 A 
ATOM     10  C   UNL A   1      34.035  22.438  26.036  1.00  0.00     0.045 A 
ATOM     11  C   UNL A   1      33.713  23.876  23.676  1.00  0.00     0.128 A 
ATOM     12  C   UNL A   1      34.062  23.840  26.055  1.00  0.00     0.032 A 
ATOM     13  Cl  UNL A   1      34.204  21.631  27.556  1.00  0.00    -0.084 Cl
ATOM     14  C   UNL A   1      33.923  24.562  24.868  1.00  0.00     0.019 A 
ATOM     15  O   UNL A   1      33.583  24.510  22.472  1.00  0.00    -0.475 OA
ATOM     16  C   UNL A   1      34.025  26.013  24.839  1.00  0.00     0.025 C 
ATOM     17  C   UNL A   1      33.122  25.890  22.541  1.00  0.00     0.314 C 
BRANCH   8  18
ATOM     18  C   UNL A   1      33.932  20.223  24.741  1.00  0.00     0.037 C 
BRANCH  18  19
ATOM     19  C   UNL A   1      32.556  19.529  24.698  1.00  0.00     0.008 C 
BRANCH  19  20
ATOM     20  C   UNL A   1      32.600  18.008  24.432  1.00  0.00    -0.017 C 
ATOM     21  C   UNL A   1      33.697  17.629  23.438  1.00  0.00     0.007 C 
ATOM     22  C   UNL A   1      32.794  17.254  25.749  1.00  0.00     0.007 C 
ENDBRANCH  19  20
ENDBRANCH  18  19
ENDBRANCH   8  18
BRANCH  17  23
ATOM     23  C   UNL A   1      31.590  25.932  22.419  1.00  0.00     0.429 C 
ATOM     24  F   UNL A   1      30.989  26.428  23.522  1.00  0.00    -0.167 F 
ATOM     25  F   UNL A   1      31.171  26.677  21.372  1.00  0.00    -0.167 F 
ATOM     26  F   UNL A   1      31.106  24.677  22.230  1.00  0.00    -0.167 F 
ENDBRANCH  17  23
ENDBRANCH   4   7
ENDBRANCH   2   3
ENDBRANCH   1   2
BRANCH   1  27
ATOM     27  C   UNL A   1      31.396  30.949  26.645  1.00  0.00     0.023 C 
BRANCH  27  28
ATOM     28  C   UNL A   1      32.331  32.089  26.269  1.00  0.00     0.116 C 
BRANCH  28  29
ATOM     29  N   UNL A   1      32.116  33.311  27.034  1.00  0.00    -0.352 N 
ATOM     30  C   UNL A   1      32.934  33.848  28.007  1.00  0.00     0.251 C 
ATOM     31  H   UNL A   1      31.291  33.809  26.834  1.00  0.00     0.163 HD
ATOM     32  O   UNL A   1      32.598  34.847  28.624  1.00  0.00    -0.269 OA
BRANCH  30  33
ATOM     33  C   UNL A   1      34.194  33.141  28.317  1.00  0.00     0.039 A 
ATOM     34  C   UNL A   1      34.151  31.851  28.845  1.00  0.00     0.014 A 
ATOM     35  C   UNL A   1      35.403  33.832  28.217  1.00  0.00     0.014 A 
ATOM     36  C   UNL A   1      35.283  31.329  29.453  1.00  0.00     0.010 A 
ATOM     37  C   UNL A   1      36.564  33.259  28.744  1.00  0.00     0.010 A 
ATOM     38  C   UNL A   1      36.500  32.032  29.422  1.00  0.00    -0.014 A 
BRANCH  38  39
ATOM     39  C   UNL A   1      37.683  31.457  30.114  1.00  0.00     0.031 A 
ATOM     40  C   UNL A   1      37.984  31.797  31.549  1.00  0.00     0.074 A 
ATOM     41  C   UNL A   1      38.445  30.562  29.455  1.00  0.00     0.049 A 
ATOM     42  N   UNL A   1      38.949  31.352  32.313  1.00  0.00    -0.248 NA
ATOM     43  C   UNL A   1      37.095  32.762  32.216  1.00  0.00     0.031 C 
ATOM     44  C   UNL A   1      38.232  30.154  28.066  1.00  0.00     0.029 A 
ATOM     45  N   UNL A   1      39.516  29.810  29.863  1.00  0.00    -0.354 N 
ATOM     46  C   UNL A   1      38.800  31.994  33.536  1.00  0.00     0.074 A 
ATOM     47  C   UNL A   1      37.667  32.884  33.407  1.00  0.00     0.031 C 
ATOM     48  C   UNL A   1      39.094  29.176  27.761  1.00  0.00     0.029 A 
ATOM     49  C   UNL A   1      39.976  28.943  28.901  1.00  0.00     0.049 A 
ATOM     50  H   UNL A   1      39.917  29.884  30.760  1.00  0.00     0.167 HD
ATOM     51  C   UNL A   1      39.536  31.846  34.664  1.00  0.00     0.034 A 
ATOM     52  C   UNL A   1      40.998  28.064  28.922  1.00  0.00     0.034 A 
ATOM     53  C   UNL A   1      40.647  30.934  34.782  1.00  0.00     0.049 A 
ATOM     54  C   UNL A   1      41.808  27.929  30.183  1.00  0.00     0.074 A 
ATOM     55  C   UNL A   1      41.443  30.698  35.889  1.00  0.00     0.029 A 
ATOM     56  N   UNL A   1      41.110  30.103  33.774  1.00  0.00    -0.354 N 
ATOM     57  N   UNL A   1      41.640  28.532  31.336  1.00  0.00    -0.248 NA
ATOM     58  C   UNL A   1      42.947  27.002  30.150  1.00  0.00     0.031 C 
ATOM     59  C   UNL A   1      42.418  29.764  35.535  1.00  0.00     0.029 A 
ATOM     60  C   UNL A   1      42.195  29.369  34.225  1.00  0.00     0.049 A 
ATOM     61  H   UNL A   1      40.725  30.043  32.868  1.00  0.00     0.167 HD
ATOM     62  C   UNL A   1      42.648  28.056  32.168  1.00  0.00     0.074 A 
ATOM     63  C   UNL A   1      43.398  27.087  31.396  1.00  0.00     0.031 C 
ATOM     64  C   UNL A   1      42.933  28.401  33.449  1.00  0.00     0.034 A 
BRANCH  51  65
ATOM     65  C   UNL A   1      39.178  32.671  35.877  1.00  0.00     0.023 A 
ATOM     66  C   UNL A   1      39.675  33.982  36.007  1.00  0.00     0.031 A 
ATOM     67  C   UNL A   1      38.459  32.122  36.952  1.00  0.00     0.131 A 
ATOM     68  C   UNL A   1      39.473  34.689  37.200  1.00  0.00     0.055 A 
ATOM     69  C   UNL A   1      38.229  32.842  38.125  1.00  0.00     0.041 A 
ATOM     70  F   UNL A   1      37.963  30.877  36.874  1.00  0.00    -0.206 F 
ATOM     71  C   UNL A   1      38.748  34.128  38.257  1.00  0.00     0.022 A 
BRANCH  68  72
ATOM     72  S   UNL A   1      40.187  36.336  37.451  1.00  0.00     0.124 S 
ATOM     73  O   UNL A   1      40.046  36.929  36.123  1.00  0.00    -0.237 OA
ATOM     74  O   UNL A   1      39.315  36.895  38.480  1.00  0.00    -0.237 OA
ATOM     75  O   UNL A   1      41.559  36.064  37.866  1.00  0.00    -0.744 OA
ENDBRANCH  68  72
ENDBRANCH  51  65
BRANCH  52  76
ATOM     76  C   UNL A   1      41.259  27.231  27.712  1.00  0.00     0.023 A 
ATOM     77  C   UNL A   1      40.916  25.866  27.689  1.00  0.00     0.031 A 
ATOM     78  C   UNL A   1      41.976  27.750  26.623  1.00  0.00     0.131 A 
ATOM     79  C   UNL A   1      41.369  25.051  26.645  1.00  0.00     0.055 A 
ATOM     80  C   UNL A   1      42.357  26.950  25.544  1.00  0.00     0.041 A 
ATOM     81  F   UNL A   1      42.337  29.043  26.604  1.00  0.00    -0.206 F 
ATOM     82  C   UNL A   1      42.073  25.587  25.564  1.00  0.00     0.022 A 
BRANCH  79  83
ATOM     83  S   UNL A   1      41.207  23.246  26.744  1.00  0.00     0.124 S 
ATOM     84  O   UNL A   1      41.598  22.982  28.125  1.00  0.00    -0.237 OA
ATOM     85  O   UNL A   1      39.790  23.055  26.440  1.00  0.00    -0.237 OA
ATOM     86  O   UNL A   1      42.128  22.760  25.721  1.00  0.00    -0.744 OA
ENDBRANCH  79  83
ENDBRANCH  52  76
BRANCH  64  87
ATOM     87  C   UNL A   1      44.114  27.746  34.119  1.00  0.00     0.023 A 
ATOM     88  C   UNL A   1      43.964  26.503  34.760  1.00  0.00     0.031 A 
ATOM     89  C   UNL A   1      45.343  28.418  34.242  1.00  0.00     0.131 A 
ATOM     90  C   UNL A   1      45.016  25.985  35.528  1.00  0.00     0.055 A 
ATOM     91  C   UNL A   1      46.402  27.878  34.973  1.00  0.00     0.041 A 
ATOM     92  F   UNL A   1      45.530  29.610  33.655  1.00  0.00    -0.206 F 
ATOM     93  C   UNL A   1      46.235  26.662  35.632  1.00  0.00     0.022 A 
BRANCH  90  94
ATOM     94  S   UNL A   1      44.811  24.459  36.486  1.00  0.00     0.124 S 
ATOM     95  O   UNL A   1      44.551  24.978  37.827  1.00  0.00    -0.237 OA
ATOM     96  O   UNL A   1      43.667  23.833  35.827  1.00  0.00    -0.237 OA
ATOM     97  O   UNL A   1      46.084  23.766  36.324  1.00  0.00    -0.744 OA
ENDBRANCH  90  94
ENDBRANCH  64  87
ENDBRANCH  38  39
ENDBRANCH  30  33
ENDBRANCH  28  29
ENDBRANCH  27  28
ENDBRANCH   1  27
TORSDOF 18
ENDMDL
MODEL 2
REMARK VINA RESULT:     -12.2      5.322     10.714
REMARK SMILES CC(C)CCc1cc2c(cc1Cl)C=C(C(=O)NCCCCNC(=O)c1ccc(-c3c4nc(c(-c5cc(S(=O)(=O)[O-])ccc5F)c5ccc([nH]5)c(-c5cc(S(=O)(=O)[O-])ccc5F)c5nc(c(-c6cc(S(=O)(=O)[O-])ccc6F)c6ccc3[nH]6)C=C5)C=C4)cc1)[C@H](C(F)(F)F)O2
REMARK SMILES IDX 19 1 18 2 17 3 15 4 16 5 14 7 6 8 7 9 11 10 8 11 10 12 12 13
REMARK SMILES IDX 9 14 93 15 13 16 88 17 5 18 4 19 2 20 1 21 3 22 89 23 90 24
REMARK SMILES IDX 91 25 92 26 20 27 21 28 22 29 23 30 24 32 25 33 26 34 87 35
REMARK SMILES IDX 27 36 86 37 28 38 29 39 30 40 80 41 31 42 85 43 79 44 81 45
REMARK SMILES IDX 32 46 84 47 78 48 77 49 33 51 65 52 45 53 64 54 46 55 49 56
REMARK SMILES IDX 63 57 82 58 47 59 48 60 62 62 83 63 50 64 34 65 35 66 43 67
REMARK SMILES IDX 36 68 42 69 44 70 41 71 37 72 38 73 39 74 40 75 66 76 67 77
REMARK SMILES IDX 75 78 68 79 74 80 76 81 73 82 69 83 70 84 71 85 72 86 51 87
REMARK SMILES IDX 52 88 60 89 53 90 59 91 61 92 58 93 54 94 55 95 56 96 57 97
REMARK H PARENT 17 6 22 31 81 50 49 61
REMARK Flexibility Score: inf
ROOT
ATOM      1  C   UNL A   1      36.447  22.946  23.709  1.00  0.00     0.023 C 
ENDROOT
BRANCH   1   2
ATOM      2  C   UNL A   1      35.153  23.308  22.981  1.00  0.00     0.116 C 
BRANCH   2   3
ATOM      3  N   UNL A   1      33.996  22.700  23.612  1.00  0.00    -0.352 N 
ATOM      4  C   UNL A   1      32.762  23.120  23.976  1.00  0.00     0.251 C 
ATOM      5  O   UNL A   1      31.997  22.246  24.393  1.00  0.00    -0.270 OA
ATOM      6  H   UNL A   1      34.146  21.751  23.828  1.00  0.00     0.163 HD
BRANCH   4   7
ATOM      7  C   UNL A   1      32.289  24.532  23.904  1.00  0.00     0.067 C 
ATOM      8  C   UNL A   1      29.386  28.656  23.538  1.00  0.00    -0.026 A 
ATOM      9  C   UNL A   1      30.770  28.411  23.560  1.00  0.00     0.052 A 
ATOM     10  C   UNL A   1      28.522  27.555  23.683  1.00  0.00     0.045 A 
ATOM     11  C   UNL A   1      31.268  27.114  23.640  1.00  0.00     0.128 A 
ATOM     12  C   UNL A   1      29.028  26.251  23.764  1.00  0.00     0.032 A 
ATOM     13  Cl  UNL A   1      26.804  27.735  23.758  1.00  0.00    -0.084 Cl
ATOM     14  C   UNL A   1      30.405  26.026  23.720  1.00  0.00     0.019 A 
ATOM     15  O   UNL A   1      32.627  26.976  23.576  1.00  0.00    -0.475 OA
ATOM     16  C   UNL A   1      30.962  24.682  23.721  1.00  0.00     0.025 C 
ATOM     17  C   UNL A   1      33.154  25.741  24.143  1.00  0.00     0.314 C 
BRANCH   8  18
ATOM     18  C   UNL A   1      28.887  30.077  23.366  1.00  0.00     0.037 C 
BRANCH  18  19
ATOM     19  C   UNL A   1      28.865  30.593  21.914  1.00  0.00     0.008 C 
BRANCH  19  20
ATOM     20  C   UNL A   1      28.108  31.922  21.704  1.00  0.00    -0.017 C 
ATOM     21  C   UNL A   1      28.753  33.079  22.466  1.00  0.00     0.007 C 
ATOM     22  C   UNL A   1      28.030  32.249  20.211  1.00  0.00     0.007 C 
ENDBRANCH  19  20
ENDBRANCH  18  19
ENDBRANCH   8  18
BRANCH  17  23
ATOM     23  C   UNL A   1      33.521  25.962  25.620  1.00  0.00     0.429 C 
ATOM     24  F   UNL A   1      33.909  27.230  25.880  1.00  0.00    -0.167 F 
ATOM     25  F   UNL A   1      32.498  25.682  26.458  1.00  0.00    -0.167 F 
ATOM     26  F   UNL A   1      34.551  25.149  25.968  1.00  0.00    -0.167 F 
ENDBRANCH  17  23
ENDBRANCH   4   7
ENDBRANCH   2   3
ENDBRANCH   1   2
BRANCH   1  27
ATOM     27  C   UNL A   1      36.476  21.530  24.286  1.00  0.00     0.023 C 
BRANCH  27  28
ATOM     28  C   UNL A   1      37.180  21.401  25.629  1.00  0.00     0.116 C 
BRANCH  28  29
ATOM     29  N   UNL A   1      38.276  20.440  25.635  1.00  0.00    -0.352 N 
ATOM     30  C   UNL A   1      39.552  20.623  26.126  1.00  0.00     0.251 C 
ATOM     31  H   UNL A   1      38.083  19.559  25.241  1.00  0.00     0.163 HD
ATOM     32  O   UNL A   1      40.400  19.753  26.003  1.00  0.00    -0.269 OA
BRANCH  30  33
ATOM     33  C   UNL A   1      39.873  21.926  26.747  1.00  0.00     0.039 A 
ATOM     34  C   UNL A   1      39.325  23.095  26.221  1.00  0.00     0.014 A 
ATOM     35  C   UNL A   1      40.836  21.979  27.756  1.00  0.00     0.014 A 
ATOM     36  C   UNL A   1      39.882  24.318  26.564  1.00  0.00     0.010 A 
ATOM     37  C   UNL A   1      41.326  23.221  28.170  1.00  0.00     0.010 A 
ATOM     38  C   UNL A   1      40.898  24.396  27.532  1.00  0.00    -0.014 A 
BRANCH  38  39
ATOM     39  C   UNL A   1      41.494  25.719  27.849  1.00  0.00     0.031 A 
ATOM     40  C   UNL A   1      42.850  26.107  27.321  1.00  0.00     0.074 A 
ATOM     41  C   UNL A   1      40.766  26.603  28.559  1.00  0.00     0.049 A 
ATOM     42  N   UNL A   1      43.496  27.235  27.468  1.00  0.00    -0.248 NA
ATOM     43  C   UNL A   1      43.580  25.102  26.531  1.00  0.00     0.031 C 
ATOM     44  C   UNL A   1      39.436  26.332  29.107  1.00  0.00     0.029 A 
ATOM     45  N   UNL A   1      41.012  27.905  28.909  1.00  0.00    -0.354 N 
ATOM     46  C   UNL A   1      44.711  27.071  26.813  1.00  0.00     0.074 A 
ATOM     47  C   UNL A   1      44.727  25.723  26.289  1.00  0.00     0.031 C 
ATOM     48  C   UNL A   1      38.954  27.453  29.658  1.00  0.00     0.029 A 
ATOM     49  C   UNL A   1      39.969  28.499  29.580  1.00  0.00     0.049 A 
ATOM     50  H   UNL A   1      41.855  28.370  28.701  1.00  0.00     0.167 HD
ATOM     51  C   UNL A   1      45.714  27.969  26.656  1.00  0.00     0.034 A 
ATOM     52  C   UNL A   1      39.841  29.742  30.087  1.00  0.00     0.034 A 
ATOM     53  C   UNL A   1      45.669  29.318  27.162  1.00  0.00     0.049 A 
ATOM     54  C   UNL A   1      40.975  30.714  29.910  1.00  0.00     0.074 A 
ATOM     55  C   UNL A   1      46.627  30.309  27.038  1.00  0.00     0.029 A 
ATOM     56  N   UNL A   1      44.615  29.871  27.873  1.00  0.00    -0.354 N 
ATOM     57  N   UNL A   1      42.109  30.547  29.271  1.00  0.00    -0.248 NA
ATOM     58  C   UNL A   1      40.821  32.040  30.523  1.00  0.00     0.031 C 
ATOM     59  C   UNL A   1      46.176  31.442  27.717  1.00  0.00     0.029 A 
ATOM     60  C   UNL A   1      44.908  31.181  28.213  1.00  0.00     0.049 A 
ATOM     61  H   UNL A   1      43.780  29.401  28.103  1.00  0.00     0.167 HD
ATOM     62  C   UNL A   1      42.802  31.746  29.400  1.00  0.00     0.074 A 
ATOM     63  C   UNL A   1      41.944  32.642  30.147  1.00  0.00     0.031 C 
ATOM     64  C   UNL A   1      44.042  32.068  28.954  1.00  0.00     0.034 A 
BRANCH  51  65
ATOM     65  C   UNL A   1      46.952  27.547  25.902  1.00  0.00     0.023 A 
ATOM     66  C   UNL A   1      47.096  27.883  24.542  1.00  0.00     0.031 A 
ATOM     67  C   UNL A   1      47.918  26.711  26.487  1.00  0.00     0.131 A 
ATOM     68  C   UNL A   1      48.167  27.359  23.805  1.00  0.00     0.055 A 
ATOM     69  C   UNL A   1      49.002  26.220  25.758  1.00  0.00     0.041 A 
ATOM     70  F   UNL A   1      47.825  26.364  27.781  1.00  0.00    -0.206 F 
ATOM     71  C   UNL A   1      49.123  26.534  24.407  1.00  0.00     0.022 A 
BRANCH  68  72
ATOM     72  S   UNL A   1      48.330  27.678  22.027  1.00  0.00     0.124 S 
ATOM     73  O   UNL A   1      47.046  28.302  21.716  1.00  0.00    -0.237 OA
ATOM     74  O   UNL A   1      49.485  28.571  21.981  1.00  0.00    -0.237 OA
ATOM     75  O   UNL A   1      48.533  26.354  21.450  1.00  0.00    -0.744 OA
ENDBRANCH  68  72
ENDBRANCH  51  65
BRANCH  52  76
ATOM     76  C   UNL A   1      38.565  30.117  30.764  1.00  0.00     0.023 A 
ATOM     77  C   UNL A   1      37.542  30.778  30.059  1.00  0.00     0.031 A 
ATOM     78  C   UNL A   1      38.409  29.947  32.148  1.00  0.00     0.131 A 
ATOM     79  C   UNL A   1      36.455  31.322  30.754  1.00  0.00     0.055 A 
ATOM     80  C   UNL A   1      37.285  30.421  32.826  1.00  0.00     0.041 A 
ATOM     81  F   UNL A   1      39.363  29.334  32.867  1.00  0.00    -0.206 F 
ATOM     82  C   UNL A   1      36.312  31.134  32.131  1.00  0.00     0.022 A 
BRANCH  79  83
ATOM     83  S   UNL A   1      35.288  32.435  29.920  1.00  0.00     0.124 S 
ATOM     84  O   UNL A   1      34.749  31.577  28.870  1.00  0.00    -0.237 OA
ATOM     85  O   UNL A   1      34.364  32.765  31.003  1.00  0.00    -0.237 OA
ATOM     86  O   UNL A   1      36.128  33.538  29.467  1.00  0.00    -0.744 OA
ENDBRANCH  79  83
ENDBRANCH  52  76
BRANCH  64  87
ATOM     87  C   UNL A   1      44.575  33.445  29.259  1.00  0.00     0.023 A 
ATOM     88  C   UNL A   1      44.315  34.515  28.384  1.00  0.00     0.031 A 
ATOM     89  C   UNL A   1      45.454  33.661  30.336  1.00  0.00     0.131 A 
ATOM     90  C   UNL A   1      44.956  35.746  28.579  1.00  0.00     0.055 A 
ATOM     91  C   UNL A   1      46.057  34.900  30.550  1.00  0.00     0.041 A 
ATOM     92  F   UNL A   1      45.739  32.668  31.192  1.00  0.00    -0.206 F 
ATOM     93  C   UNL A   1      45.820  35.945  29.661  1.00  0.00     0.022 A 
BRANCH  90  94
ATOM     94  S   UNL A   1      44.759  37.102  27.392  1.00  0.00     0.124 S 
ATOM     95  O   UNL A   1      43.502  36.747  26.736  1.00  0.00    -0.237 OA
ATOM     96  O   UNL A   1      44.698  38.270  28.266  1.00  0.00    -0.237 OA
ATOM     97  O   UNL A   1      45.947  37.010  26.550  1.00  0.00    -0.744 OA
ENDBRANCH  90  94
ENDBRANCH  64  87
ENDBRANCH  38  39
ENDBRANCH  30  33
ENDBRANCH  28  29
ENDBRANCH  27  28
ENDBRANCH   1  27
TORSDOF 18
ENDMDL
MODEL 3
REMARK VINA RESULT:     -12.1      2.118      2.614
REMARK SMILES CC(C)CCc1cc2c(cc1Cl)C=C(C(=O)NCCCCNC(=O)c1ccc(-c3c4nc(c(-c5cc(S(=O)(=O)[O-])ccc5F)c5ccc([nH]5)c(-c5cc(S(=O)(=O)[O-])ccc5F)c5nc(c(-c6cc(S(=O)(=O)[O-])ccc6F)c6ccc3[nH]6)C=C5)C=C4)cc1)[C@H](C(F)(F)F)O2
REMARK SMILES IDX 19 1 18 2 17 3 15 4 16 5 14 7 6 8 7 9 11 10 8 11 10 12 12 13
REMARK SMILES IDX 9 14 93 15 13 16 88 17 5 18 4 19 2 20 1 21 3 22 89 23 90 24
REMARK SMILES IDX 91 25 92 26 20 27 21 28 22 29 23 30 24 32 25 33 26 34 87 35
REMARK SMILES IDX 27 36 86 37 28 38 29 39 30 40 80 41 31 42 85 43 79 44 81 45
REMARK SMILES IDX 32 46 84 47 78 48 77 49 33 51 65 52 45 53 64 54 46 55 49 56
REMARK SMILES IDX 63 57 82 58 47 59 48 60 62 62 83 63 50 64 34 65 35 66 43 67
REMARK SMILES IDX 36 68 42 69 44 70 41 71 37 72 38 73 39 74 40 75 66 76 67 77
REMARK SMILES IDX 75 78 68 79 74 80 76 81 73 82 69 83 70 84 71 85 72 86 51 87
REMARK SMILES IDX 52 88 60 89 53 90 59 91 61 92 58 93 54 94 55 95 56 96 57 97
REMARK H PARENT 17 6 22 31 81 50 49 61
REMARK Flexibility Score: inf
ROOT
ATOM      1  C   UNL A   1      32.160  27.893  26.815  1.00  0.00     0.023 C 
ENDROOT
BRANCH   1   2
ATOM      2  C   UNL A   1      31.193  27.103  25.934  1.00  0.00     0.116 C 
BRANCH   2   3
ATOM      3  N   UNL A   1      31.629  27.080  24.549  1.00  0.00    -0.352 N 
ATOM      4  C   UNL A   1      32.015  26.122  23.674  1.00  0.00     0.251 C 
ATOM      5  O   UNL A   1      32.204  26.498  22.514  1.00  0.00    -0.270 OA
ATOM      6  H   UNL A   1      31.648  27.980  24.151  1.00  0.00     0.163 HD
BRANCH   4   7
ATOM      7  C   UNL A   1      32.219  24.686  24.021  1.00  0.00     0.067 C 
ATOM      8  C   UNL A   1      32.447  19.639  23.818  1.00  0.00    -0.026 A 
ATOM      9  C   UNL A   1      32.608  20.604  24.828  1.00  0.00     0.052 A 
ATOM     10  C   UNL A   1      32.197  20.094  22.511  1.00  0.00     0.045 A 
ATOM     11  C   UNL A   1      32.443  21.959  24.559  1.00  0.00     0.128 A 
ATOM     12  C   UNL A   1      32.032  21.460  22.243  1.00  0.00     0.032 A 
ATOM     13  Cl  UNL A   1      32.065  19.012  21.168  1.00  0.00    -0.084 Cl
ATOM     14  C   UNL A   1      32.133  22.395  23.275  1.00  0.00     0.019 A 
ATOM     15  O   UNL A   1      32.544  22.811  25.623  1.00  0.00    -0.475 OA
ATOM     16  C   UNL A   1      31.889  23.812  23.050  1.00  0.00     0.025 C 
ATOM     17  C   UNL A   1      32.865  24.192  25.288  1.00  0.00     0.314 C 
BRANCH   8  18
ATOM     18  C   UNL A   1      32.554  18.169  24.173  1.00  0.00     0.037 C 
BRANCH  18  19
ATOM     19  C   UNL A   1      33.961  17.697  24.591  1.00  0.00     0.008 C 
BRANCH  19  20
ATOM     20  C   UNL A   1      34.122  16.168  24.730  1.00  0.00    -0.017 C 
ATOM     21  C   UNL A   1      35.470  15.783  25.339  1.00  0.00     0.007 C 
ATOM     22  C   UNL A   1      32.979  15.597  25.571  1.00  0.00     0.007 C 
ENDBRANCH  19  20
ENDBRANCH  18  19
ENDBRANCH   8  18
BRANCH  17  23
ATOM     23  C   UNL A   1      34.388  24.396  25.331  1.00  0.00     0.429 C 
ATOM     24  F   UNL A   1      35.021  23.848  24.271  1.00  0.00    -0.167 F 
ATOM     25  F   UNL A   1      34.739  25.701  25.370  1.00  0.00    -0.167 F 
ATOM     26  F   UNL A   1      34.902  23.816  26.447  1.00  0.00    -0.167 F 
ENDBRANCH  17  23
ENDBRANCH   4   7
ENDBRANCH   2   3
ENDBRANCH   1   2
BRANCH   1  27
ATOM     27  C   UNL A   1      31.761  29.350  27.049  1.00  0.00     0.023 C 
BRANCH  27  28
ATOM     28  C   UNL A   1      32.711  30.378  26.452  1.00  0.00     0.116 C 
BRANCH  28  29
ATOM     29  N   UNL A   1      32.503  31.734  26.942  1.00  0.00    -0.352 N 
ATOM     30  C   UNL A   1      33.391  32.518  27.650  1.00  0.00     0.251 C 
ATOM     31  H   UNL A   1      31.626  32.138  26.747  1.00  0.00     0.163 HD
ATOM     32  O   UNL A   1      33.061  33.619  28.064  1.00  0.00    -0.269 OA
BRANCH  30  33
ATOM     33  C   UNL A   1      34.727  31.957  27.941  1.00  0.00     0.039 A 
ATOM     34  C   UNL A   1      34.846  30.621  28.323  1.00  0.00     0.014 A 
ATOM     35  C   UNL A   1      35.830  32.811  27.973  1.00  0.00     0.014 A 
ATOM     36  C   UNL A   1      36.020  30.191  28.924  1.00  0.00     0.010 A 
ATOM     37  C   UNL A   1      37.042  32.344  28.490  1.00  0.00     0.010 A 
ATOM     38  C   UNL A   1      37.128  31.050  29.027  1.00  0.00    -0.014 A 
BRANCH  38  39
ATOM     39  C   UNL A   1      38.357  30.565  29.708  1.00  0.00     0.031 A 
ATOM     40  C   UNL A   1      38.683  30.988  31.115  1.00  0.00     0.074 A 
ATOM     41  C   UNL A   1      39.141  29.676  29.068  1.00  0.00     0.049 A 
ATOM     42  N   UNL A   1      39.690  30.626  31.868  1.00  0.00    -0.248 NA
ATOM     43  C   UNL A   1      37.769  31.943  31.763  1.00  0.00     0.031 C 
ATOM     44  C   UNL A   1      38.908  29.192  27.707  1.00  0.00     0.029 A 
ATOM     45  N   UNL A   1      40.259  28.995  29.477  1.00  0.00    -0.354 N 
ATOM     46  C   UNL A   1      39.547  31.320  33.063  1.00  0.00     0.074 A 
ATOM     47  C   UNL A   1      38.369  32.149  32.929  1.00  0.00     0.031 C 
ATOM     48  C   UNL A   1      39.806  28.240  27.422  1.00  0.00     0.029 A 
ATOM     49  C   UNL A   1      40.731  28.105  28.543  1.00  0.00     0.049 A 
ATOM     50  H   UNL A   1      40.682  29.131  30.356  1.00  0.00     0.167 HD
ATOM     51  C   UNL A   1      40.321  31.261  34.174  1.00  0.00     0.034 A 
ATOM     52  C   UNL A   1      41.795  27.276  28.574  1.00  0.00     0.034 A 
ATOM     53  C   UNL A   1      41.477  30.409  34.300  1.00  0.00     0.049 A 
ATOM     54  C   UNL A   1      42.646  27.241  29.813  1.00  0.00     0.074 A 
ATOM     55  C   UNL A   1      42.316  30.264  35.391  1.00  0.00     0.029 A 
ATOM     56  N   UNL A   1      41.950  29.552  33.318  1.00  0.00    -0.354 N 
ATOM     57  N   UNL A   1      42.484  27.891  30.942  1.00  0.00    -0.248 NA
ATOM     58  C   UNL A   1      43.827  26.367  29.789  1.00  0.00     0.031 C 
ATOM     59  C   UNL A   1      43.324  29.360  35.051  1.00  0.00     0.029 A 
ATOM     60  C   UNL A   1      43.081  28.892  33.769  1.00  0.00     0.049 A 
ATOM     61  H   UNL A   1      41.542  29.430  32.429  1.00  0.00     0.167 HD
ATOM     62  C   UNL A   1      43.536  27.503  31.763  1.00  0.00     0.074 A 
ATOM     63  C   UNL A   1      44.310  26.533  31.015  1.00  0.00     0.031 C 
ATOM     64  C   UNL A   1      43.842  27.923  33.016  1.00  0.00     0.034 A 
BRANCH  51  65
ATOM     65  C   UNL A   1      39.960  32.127  35.357  1.00  0.00     0.023 A 
ATOM     66  C   UNL A   1      39.024  31.669  36.304  1.00  0.00     0.031 A 
ATOM     67  C   UNL A   1      40.438  33.443  35.476  1.00  0.00     0.131 A 
ATOM     68  C   UNL A   1      38.573  32.532  37.311  1.00  0.00     0.055 A 
ATOM     69  C   UNL A   1      40.012  34.288  36.502  1.00  0.00     0.041 A 
ATOM     70  F   UNL A   1      41.333  33.925  34.599  1.00  0.00    -0.206 F 
ATOM     71  C   UNL A   1      39.066  33.837  37.419  1.00  0.00     0.022 A 
BRANCH  68  72
ATOM     72  S   UNL A   1      37.289  32.018  38.485  1.00  0.00     0.124 S 
ATOM     73  O   UNL A   1      37.174  30.590  38.197  1.00  0.00    -0.237 OA
ATOM     74  O   UNL A   1      37.899  32.348  39.770  1.00  0.00    -0.237 OA
ATOM     75  O   UNL A   1      36.131  32.822  38.112  1.00  0.00    -0.744 OA
ENDBRANCH  68  72
ENDBRANCH  51  65
BRANCH  52  76
ATOM     76  C   UNL A   1      42.060  26.398  27.396  1.00  0.00     0.023 A 
ATOM     77  C   UNL A   1      41.590  25.072  27.366  1.00  0.00     0.031 A 
ATOM     78  C   UNL A   1      42.899  26.826  26.356  1.00  0.00     0.131 A 
ATOM     79  C   UNL A   1      42.035  24.197  26.368  1.00  0.00     0.055 A 
ATOM     80  C   UNL A   1      43.277  25.972  25.318  1.00  0.00     0.041 A 
ATOM     81  F   UNL A   1      43.383  28.077  26.346  1.00  0.00    -0.206 F 
ATOM     82  C   UNL A   1      42.863  24.642  25.335  1.00  0.00     0.022 A 
BRANCH  79  83
ATOM     83  S   UNL A   1      41.694  22.418  26.479  1.00  0.00     0.124 S 
ATOM     84  O   UNL A   1      42.270  22.078  27.775  1.00  0.00    -0.237 OA
ATOM     85  O   UNL A   1      40.234  22.388  26.408  1.00  0.00    -0.237 OA
ATOM     86  O   UNL A   1      42.379  21.862  25.316  1.00  0.00    -0.744 OA
ENDBRANCH  79  83
ENDBRANCH  52  76
BRANCH  64  87
ATOM     87  C   UNL A   1      45.072  27.357  33.679  1.00  0.00     0.023 A 
ATOM     88  C   UNL A   1      44.976  26.210  34.488  1.00  0.00     0.031 A 
ATOM     89  C   UNL A   1      46.304  28.033  33.622  1.00  0.00     0.131 A 
ATOM     90  C   UNL A   1      46.083  25.793  35.239  1.00  0.00     0.055 A 
ATOM     91  C   UNL A   1      47.415  27.590  34.339  1.00  0.00     0.041 A 
ATOM     92  F   UNL A   1      46.441  29.136  32.870  1.00  0.00    -0.206 F 
ATOM     93  C   UNL A   1      47.303  26.473  35.163  1.00  0.00     0.022 A 
BRANCH  90  94
ATOM     94  S   UNL A   1      45.957  24.408  36.403  1.00  0.00     0.124 S 
ATOM     95  O   UNL A   1      44.654  23.844  36.058  1.00  0.00    -0.237 OA
ATOM     96  O   UNL A   1      47.109  23.590  36.034  1.00  0.00    -0.237 OA
ATOM     97  O   UNL A   1      46.032  25.042  37.715  1.00  0.00    -0.744 OA
ENDBRANCH  90  94
ENDBRANCH  64  87
ENDBRANCH  38  39
ENDBRANCH  30  33
ENDBRANCH  28  29
ENDBRANCH  27  28
ENDBRANCH   1  27
TORSDOF 18
ENDMDL
