MODEL 1
REMARK VINA RESULT:     -11.1      0.000      0.000
REMARK SMILES CC(=O)Oc1ccccc1C(=O)NCCCCNC(=O)c1ccc(-c2c3nc(c(-c4cc(S(=O)(=O)[O-])ccc4F)c4ccc([nH]4)c(-c4cc(S(=O)(=O)[O-])ccc4F)c4nc(c(-c5cc(S(=O)(=O)[O-])ccc5F)c5ccc2[nH]5)C=C4)C=C3)cc1
REMARK SMILES IDX 16 1 15 2 14 3 13 4 11 5 12 6 10 8 5 9 6 10 7 11 9 12 8 13
REMARK SMILES IDX 4 14 2 15 1 16 3 17 17 18 18 19 19 20 20 22 21 23 22 24
REMARK SMILES IDX 83 25 23 26 82 27 24 28 25 29 26 30 76 31 27 32 81 33 75 34
REMARK SMILES IDX 77 35 28 36 80 37 74 38 73 39 29 41 61 42 41 43 60 44 42 45
REMARK SMILES IDX 45 46 59 47 78 48 43 49 44 50 58 52 79 53 46 54 30 55 31 56
REMARK SMILES IDX 39 57 32 58 38 59 40 60 37 61 33 62 34 63 35 64 36 65 62 66
REMARK SMILES IDX 63 67 71 68 64 69 70 70 72 71 69 72 65 73 66 74 67 75 68 76
REMARK SMILES IDX 47 77 48 78 56 79 49 80 55 81 57 82 54 83 50 84 51 85 52 86
REMARK SMILES IDX 53 87
REMARK H PARENT 13 7 18 21 77 40 45 51
REMARK Flexibility Score: inf
ROOT
ATOM      1  C   UNL A   1      32.100  28.725  26.836  1.00  0.00     0.023 C 
ENDROOT
BRANCH   1   2
ATOM      2  C   UNL A   1      32.539  27.301  26.502  1.00  0.00     0.023 C 
BRANCH   2   3
ATOM      3  C   UNL A   1      31.463  26.349  26.005  1.00  0.00     0.116 C 
BRANCH   3   4
ATOM      4  N   UNL A   1      31.326  25.095  26.702  1.00  0.00    -0.352 N 
ATOM      5  C   UNL A   1      32.144  23.984  26.676  1.00  0.00     0.255 C 
ATOM      6  O   UNL A   1      31.857  23.050  27.429  1.00  0.00    -0.269 OA
ATOM      7  H   UNL A   1      30.534  25.020  27.282  1.00  0.00     0.163 HD
BRANCH   5   8
ATOM      8  C   UNL A   1      33.271  23.799  25.708  1.00  0.00     0.082 A 
ATOM      9  C   UNL A   1      33.260  23.111  24.487  1.00  0.00     0.143 A 
ATOM     10  C   UNL A   1      34.443  22.918  23.755  1.00  0.00     0.048 A 
ATOM     11  C   UNL A   1      35.642  23.475  24.193  1.00  0.00     0.004 A 
ATOM     12  C   UNL A   1      34.488  24.395  26.103  1.00  0.00     0.018 A 
ATOM     13  C   UNL A   1      35.660  24.235  25.356  1.00  0.00     0.001 A 
BRANCH   9  14
ATOM     14  O   UNL A   1      32.140  22.476  23.932  1.00  0.00    -0.426 OA
BRANCH  14  15
ATOM     15  C   UNL A   1      32.049  21.097  24.079  1.00  0.00     0.308 C 
ATOM     16  C   UNL A   1      32.167  20.459  22.721  1.00  0.00     0.139 C 
ATOM     17  O   UNL A   1      31.870  20.489  25.129  1.00  0.00    -0.252 OA
ENDBRANCH  14  15
ENDBRANCH   9  14
ENDBRANCH   5   8
ENDBRANCH   3   4
ENDBRANCH   2   3
ENDBRANCH   1   2
BRANCH   1  18
ATOM     18  C   UNL A   1      32.838  29.878  26.157  1.00  0.00     0.116 C 
BRANCH  18  19
ATOM     19  N   UNL A   1      32.701  31.170  26.816  1.00  0.00    -0.352 N 
ATOM     20  C   UNL A   1      33.610  31.866  27.586  1.00  0.00     0.251 C 
ATOM     21  H   UNL A   1      31.830  31.611  26.694  1.00  0.00     0.163 HD
ATOM     22  O   UNL A   1      33.290  32.956  28.052  1.00  0.00    -0.269 OA
BRANCH  20  23
ATOM     23  C   UNL A   1      34.931  31.276  27.908  1.00  0.00     0.039 A 
ATOM     24  C   UNL A   1      36.048  32.116  27.923  1.00  0.00     0.014 A 
ATOM     25  C   UNL A   1      35.070  29.929  28.254  1.00  0.00     0.014 A 
ATOM     26  C   UNL A   1      37.272  31.635  28.396  1.00  0.00     0.010 A 
ATOM     27  C   UNL A   1      36.270  29.475  28.804  1.00  0.00     0.010 A 
ATOM     28  C   UNL A   1      37.378  30.329  28.905  1.00  0.00    -0.014 A 
BRANCH  28  29
ATOM     29  C   UNL A   1      38.621  29.891  29.599  1.00  0.00     0.031 A 
ATOM     30  C   UNL A   1      38.981  30.421  30.960  1.00  0.00     0.074 A 
ATOM     31  C   UNL A   1      39.450  29.028  28.977  1.00  0.00     0.049 A 
ATOM     32  N   UNL A   1      39.997  30.110  31.726  1.00  0.00    -0.248 NA
ATOM     33  C   UNL A   1      38.101  31.453  31.520  1.00  0.00     0.031 C 
ATOM     34  C   UNL A   1      39.248  28.493  27.627  1.00  0.00     0.029 A 
ATOM     35  N   UNL A   1      40.618  28.438  29.392  1.00  0.00    -0.354 N 
ATOM     36  C   UNL A   1      39.876  30.904  32.862  1.00  0.00     0.074 A 
ATOM     37  C   UNL A   1      38.731  31.765  32.642  1.00  0.00     0.031 C 
ATOM     38  C   UNL A   1      40.222  27.611  27.352  1.00  0.00     0.029 A 
ATOM     39  C   UNL A   1      41.144  27.550  28.480  1.00  0.00     0.049 A 
ATOM     40  H   UNL A   1      41.040  28.630  30.260  1.00  0.00     0.167 HD
ATOM     41  C   UNL A   1      40.628  30.896  33.991  1.00  0.00     0.034 A 
ATOM     42  C   UNL A   1      42.240  26.769  28.544  1.00  0.00     0.034 A 
ATOM     43  C   UNL A   1      41.779  30.042  34.184  1.00  0.00     0.049 A 
ATOM     44  C   UNL A   1      43.080  26.799  29.795  1.00  0.00     0.074 A 
ATOM     45  C   UNL A   1      42.584  29.918  35.304  1.00  0.00     0.029 A 
ATOM     46  N   UNL A   1      42.303  29.180  33.227  1.00  0.00    -0.354 N 
ATOM     47  N   UNL A   1      42.906  27.499  30.892  1.00  0.00    -0.248 NA
ATOM     48  C   UNL A   1      44.255  25.921  29.817  1.00  0.00     0.031 C 
ATOM     49  C   UNL A   1      43.638  29.049  34.995  1.00  0.00     0.029 A 
ATOM     50  C   UNL A   1      43.443  28.555  33.715  1.00  0.00     0.049 A 
ATOM     51  H   UNL A   1      41.921  29.034  32.331  1.00  0.00     0.167 HD
ATOM     52  C   UNL A   1      43.941  27.127  31.747  1.00  0.00     0.074 A 
ATOM     53  C   UNL A   1      44.711  26.118  31.044  1.00  0.00     0.031 C 
ATOM     54  C   UNL A   1      44.230  27.577  32.996  1.00  0.00     0.034 A 
BRANCH  41  55
ATOM     55  C   UNL A   1      40.240  31.867  35.086  1.00  0.00     0.023 A 
ATOM     56  C   UNL A   1      39.406  31.479  36.153  1.00  0.00     0.031 A 
ATOM     57  C   UNL A   1      40.662  33.206  35.042  1.00  0.00     0.131 A 
ATOM     58  C   UNL A   1      38.943  32.438  37.067  1.00  0.00     0.055 A 
ATOM     59  C   UNL A   1      40.276  34.135  36.013  1.00  0.00     0.041 A 
ATOM     60  F   UNL A   1      41.442  33.646  34.042  1.00  0.00    -0.206 F 
ATOM     61  C   UNL A   1      39.394  33.757  37.021  1.00  0.00     0.022 A 
BRANCH  58  62
ATOM     62  S   UNL A   1      37.602  31.974  38.198  1.00  0.00     0.124 S 
ATOM     63  O   UNL A   1      38.258  32.092  39.497  1.00  0.00    -0.237 OA
ATOM     64  O   UNL A   1      36.581  32.973  37.904  1.00  0.00    -0.237 OA
ATOM     65  O   UNL A   1      37.273  30.608  37.797  1.00  0.00    -0.744 OA
ENDBRANCH  58  62
ENDBRANCH  41  55
BRANCH  42  66
ATOM     66  C   UNL A   1      42.605  25.884  27.399  1.00  0.00     0.023 A 
ATOM     67  C   UNL A   1      42.159  24.554  27.340  1.00  0.00     0.031 A 
ATOM     68  C   UNL A   1      43.427  26.350  26.358  1.00  0.00     0.131 A 
ATOM     69  C   UNL A   1      42.566  23.725  26.283  1.00  0.00     0.055 A 
ATOM     70  C   UNL A   1      43.785  25.538  25.280  1.00  0.00     0.041 A 
ATOM     71  F   UNL A   1      43.879  27.614  26.362  1.00  0.00    -0.206 F 
ATOM     72  C   UNL A   1      43.363  24.213  25.245  1.00  0.00     0.022 A 
BRANCH  69  73
ATOM     73  S   UNL A   1      42.096  21.972  26.318  1.00  0.00     0.124 S 
ATOM     74  O   UNL A   1      40.658  22.046  26.095  1.00  0.00    -0.237 OA
ATOM     75  O   UNL A   1      42.889  21.424  25.223  1.00  0.00    -0.237 OA
ATOM     76  O   UNL A   1      42.501  21.539  27.654  1.00  0.00    -0.744 OA
ENDBRANCH  69  73
ENDBRANCH  42  66
BRANCH  54  77
ATOM     77  C   UNL A   1      45.425  26.956  33.682  1.00  0.00     0.023 A 
ATOM     78  C   UNL A   1      45.295  25.828  34.515  1.00  0.00     0.031 A 
ATOM     79  C   UNL A   1      46.703  27.528  33.548  1.00  0.00     0.131 A 
ATOM     80  C   UNL A   1      46.400  25.367  35.248  1.00  0.00     0.055 A 
ATOM     81  C   UNL A   1      47.815  27.012  34.216  1.00  0.00     0.041 A 
ATOM     82  F   UNL A   1      46.892  28.608  32.773  1.00  0.00    -0.206 F 
ATOM     83  C   UNL A   1      47.663  25.938  35.089  1.00  0.00     0.022 A 
BRANCH  80  84
ATOM     84  S   UNL A   1      46.126  24.106  36.524  1.00  0.00     0.124 S 
ATOM     85  O   UNL A   1      46.079  22.881  35.732  1.00  0.00    -0.237 OA
ATOM     86  O   UNL A   1      47.298  24.267  37.379  1.00  0.00    -0.237 OA
ATOM     87  O   UNL A   1      44.857  24.501  37.131  1.00  0.00    -0.744 OA
ENDBRANCH  80  84
ENDBRANCH  54  77
ENDBRANCH  28  29
ENDBRANCH  20  23
ENDBRANCH  18  19
ENDBRANCH   1  18
TORSDOF 16
ENDMDL
MODEL 2
REMARK VINA RESULT:     -11.0      5.212      7.681
REMARK SMILES CC(=O)Oc1ccccc1C(=O)NCCCCNC(=O)c1ccc(-c2c3nc(c(-c4cc(S(=O)(=O)[O-])ccc4F)c4ccc([nH]4)c(-c4cc(S(=O)(=O)[O-])ccc4F)c4nc(c(-c5cc(S(=O)(=O)[O-])ccc5F)c5ccc2[nH]5)C=C4)C=C3)cc1
REMARK SMILES IDX 16 1 15 2 14 3 13 4 11 5 12 6 10 8 5 9 6 10 7 11 9 12 8 13
REMARK SMILES IDX 4 14 2 15 1 16 3 17 17 18 18 19 19 20 20 22 21 23 22 24
REMARK SMILES IDX 83 25 23 26 82 27 24 28 25 29 26 30 76 31 27 32 81 33 75 34
REMARK SMILES IDX 77 35 28 36 80 37 74 38 73 39 29 41 61 42 41 43 60 44 42 45
REMARK SMILES IDX 45 46 59 47 78 48 43 49 44 50 58 52 79 53 46 54 30 55 31 56
REMARK SMILES IDX 39 57 32 58 38 59 40 60 37 61 33 62 34 63 35 64 36 65 62 66
REMARK SMILES IDX 63 67 71 68 64 69 70 70 72 71 69 72 65 73 66 74 67 75 68 76
REMARK SMILES IDX 47 77 48 78 56 79 49 80 55 81 57 82 54 83 50 84 51 85 52 86
REMARK SMILES IDX 53 87
REMARK H PARENT 13 7 18 21 77 40 45 51
REMARK Flexibility Score: inf
ROOT
ATOM      1  C   UNL A   1      35.895  20.847  25.013  1.00  0.00     0.023 C 
ENDROOT
BRANCH   1   2
ATOM      2  C   UNL A   1      34.985  21.561  26.012  1.00  0.00     0.023 C 
BRANCH   2   3
ATOM      3  C   UNL A   1      33.493  21.299  25.891  1.00  0.00     0.116 C 
BRANCH   3   4
ATOM      4  N   UNL A   1      32.632  21.981  26.825  1.00  0.00    -0.352 N 
ATOM      5  C   UNL A   1      31.770  23.036  26.612  1.00  0.00     0.255 C 
ATOM      6  O   UNL A   1      31.072  23.399  27.561  1.00  0.00    -0.269 OA
ATOM      7  H   UNL A   1      32.663  21.643  27.749  1.00  0.00     0.163 HD
BRANCH   5   8
ATOM      8  C   UNL A   1      31.727  23.837  25.348  1.00  0.00     0.082 A 
ATOM      9  C   UNL A   1      32.336  25.072  25.083  1.00  0.00     0.143 A 
ATOM     10  C   UNL A   1      32.088  25.757  23.882  1.00  0.00     0.048 A 
ATOM     11  C   UNL A   1      31.290  25.184  22.894  1.00  0.00     0.004 A 
ATOM     12  C   UNL A   1      30.963  23.258  24.311  1.00  0.00     0.018 A 
ATOM     13  C   UNL A   1      30.746  23.922  23.099  1.00  0.00     0.001 A 
BRANCH   9  14
ATOM     14  O   UNL A   1      33.140  25.782  25.985  1.00  0.00    -0.426 OA
BRANCH  14  15
ATOM     15  C   UNL A   1      32.575  26.883  26.616  1.00  0.00     0.308 C 
ATOM     16  C   UNL A   1      33.551  28.027  26.554  1.00  0.00     0.139 C 
ATOM     17  O   UNL A   1      31.478  26.923  27.164  1.00  0.00    -0.252 OA
ENDBRANCH  14  15
ENDBRANCH   9  14
ENDBRANCH   5   8
ENDBRANCH   3   4
ENDBRANCH   2   3
ENDBRANCH   1   2
BRANCH   1  18
ATOM     18  C   UNL A   1      37.332  21.347  24.872  1.00  0.00     0.116 C 
BRANCH  18  19
ATOM     19  N   UNL A   1      38.358  20.388  25.256  1.00  0.00    -0.352 N 
ATOM     20  C   UNL A   1      39.480  20.566  26.040  1.00  0.00     0.251 C 
ATOM     21  H   UNL A   1      38.233  19.477  24.904  1.00  0.00     0.163 HD
ATOM     22  O   UNL A   1      40.224  19.610  26.247  1.00  0.00    -0.269 OA
BRANCH  20  23
ATOM     23  C   UNL A   1      39.824  21.907  26.569  1.00  0.00     0.039 A 
ATOM     24  C   UNL A   1      40.904  22.017  27.450  1.00  0.00     0.014 A 
ATOM     25  C   UNL A   1      39.140  23.055  26.161  1.00  0.00     0.014 A 
ATOM     26  C   UNL A   1      41.368  23.281  27.825  1.00  0.00     0.010 A 
ATOM     27  C   UNL A   1      39.656  24.315  26.468  1.00  0.00     0.010 A 
ATOM     28  C   UNL A   1      40.791  24.443  27.284  1.00  0.00    -0.014 A 
BRANCH  28  29
ATOM     29  C   UNL A   1      41.420  25.773  27.518  1.00  0.00     0.031 A 
ATOM     30  C   UNL A   1      40.719  26.835  28.320  1.00  0.00     0.074 A 
ATOM     31  C   UNL A   1      42.625  26.034  26.971  1.00  0.00     0.049 A 
ATOM     32  N   UNL A   1      41.141  28.027  28.660  1.00  0.00    -0.248 NA
ATOM     33  C   UNL A   1      39.357  26.528  28.773  1.00  0.00     0.031 C 
ATOM     34  C   UNL A   1      43.378  25.111  26.117  1.00  0.00     0.029 A 
ATOM     35  N   UNL A   1      43.437  27.137  27.058  1.00  0.00    -0.354 N 
ATOM     36  C   UNL A   1      40.100  28.612  29.374  1.00  0.00     0.074 A 
ATOM     37  C   UNL A   1      39.000  27.669  29.343  1.00  0.00     0.031 C 
ATOM     38  C   UNL A   1      44.563  25.662  25.809  1.00  0.00     0.029 A 
ATOM     39  C   UNL A   1      44.639  26.993  26.401  1.00  0.00     0.049 A 
ATOM     40  H   UNL A   1      43.185  27.955  27.544  1.00  0.00     0.167 HD
ATOM     41  C   UNL A   1      40.073  29.807  30.017  1.00  0.00     0.034 A 
ATOM     42  C   UNL A   1      45.688  27.832  26.292  1.00  0.00     0.034 A 
ATOM     43  C   UNL A   1      41.175  30.742  30.019  1.00  0.00     0.049 A 
ATOM     44  C   UNL A   1      45.625  29.167  26.987  1.00  0.00     0.074 A 
ATOM     45  C   UNL A   1      41.274  31.958  30.675  1.00  0.00     0.029 A 
ATOM     46  N   UNL A   1      42.363  30.579  29.316  1.00  0.00    -0.354 N 
ATOM     47  N   UNL A   1      44.662  29.672  27.724  1.00  0.00    -0.248 NA
ATOM     48  C   UNL A   1      46.798  30.037  26.845  1.00  0.00     0.031 C 
ATOM     49  C   UNL A   1      42.480  32.563  30.302  1.00  0.00     0.029 A 
ATOM     50  C   UNL A   1      43.180  31.688  29.488  1.00  0.00     0.049 A 
ATOM     51  H   UNL A   1      42.592  29.790  28.774  1.00  0.00     0.167 HD
ATOM     52  C   UNL A   1      45.125  30.913  28.153  1.00  0.00     0.074 A 
ATOM     53  C   UNL A   1      46.465  31.060  27.616  1.00  0.00     0.031 C 
ATOM     54  C   UNL A   1      44.501  31.846  28.919  1.00  0.00     0.034 A 
BRANCH  41  55
ATOM     55  C   UNL A   1      38.794  30.172  30.741  1.00  0.00     0.023 A 
ATOM     56  C   UNL A   1      37.814  30.985  30.140  1.00  0.00     0.031 A 
ATOM     57  C   UNL A   1      38.570  29.748  32.062  1.00  0.00     0.131 A 
ATOM     58  C   UNL A   1      36.713  31.428  30.889  1.00  0.00     0.055 A 
ATOM     59  C   UNL A   1      37.422  30.113  32.769  1.00  0.00     0.041 A 
ATOM     60  F   UNL A   1      39.473  28.987  32.700  1.00  0.00    -0.206 F 
ATOM     61  C   UNL A   1      36.496  30.976  32.190  1.00  0.00     0.022 A 
BRANCH  58  62
ATOM     62  S   UNL A   1      35.676  32.747  30.198  1.00  0.00     0.124 S 
ATOM     63  O   UNL A   1      36.358  33.944  30.684  1.00  0.00    -0.237 OA
ATOM     64  O   UNL A   1      35.763  32.499  28.764  1.00  0.00    -0.237 OA
ATOM     65  O   UNL A   1      34.366  32.501  30.797  1.00  0.00    -0.744 OA
ENDBRANCH  58  62
ENDBRANCH  41  55
BRANCH  42  66
ATOM     66  C   UNL A   1      46.893  27.436  25.505  1.00  0.00     0.023 A 
ATOM     67  C   UNL A   1      47.041  27.820  24.162  1.00  0.00     0.031 A 
ATOM     68  C   UNL A   1      47.903  26.645  26.079  1.00  0.00     0.131 A 
ATOM     69  C   UNL A   1      48.154  27.383  23.427  1.00  0.00     0.055 A 
ATOM     70  C   UNL A   1      49.036  26.258  25.360  1.00  0.00     0.041 A 
ATOM     71  F   UNL A   1      47.815  26.252  27.360  1.00  0.00    -0.206 F 
ATOM     72  C   UNL A   1      49.160  26.618  24.022  1.00  0.00     0.022 A 
BRANCH  69  73
ATOM     73  S   UNL A   1      48.237  27.771  21.657  1.00  0.00     0.124 S 
ATOM     74  O   UNL A   1      46.932  28.377  21.424  1.00  0.00    -0.237 OA
ATOM     75  O   UNL A   1      49.383  28.671  21.597  1.00  0.00    -0.237 OA
ATOM     76  O   UNL A   1      48.441  26.466  21.032  1.00  0.00    -0.744 OA
ENDBRANCH  69  73
ENDBRANCH  42  66
BRANCH  54  77
ATOM     77  C   UNL A   1      45.285  33.101  29.233  1.00  0.00     0.023 A 
ATOM     78  C   UNL A   1      45.212  34.242  28.411  1.00  0.00     0.031 A 
ATOM     79  C   UNL A   1      46.157  33.142  30.335  1.00  0.00     0.131 A 
ATOM     80  C   UNL A   1      46.061  35.333  28.651  1.00  0.00     0.055 A 
ATOM     81  C   UNL A   1      46.938  34.265  30.616  1.00  0.00     0.041 A 
ATOM     82  F   UNL A   1      46.275  32.085  31.154  1.00  0.00    -0.206 F 
ATOM     83  C   UNL A   1      46.908  35.361  29.759  1.00  0.00     0.022 A 
BRANCH  80  84
ATOM     84  S   UNL A   1      46.148  36.653  27.407  1.00  0.00     0.124 S 
ATOM     85  O   UNL A   1      46.022  35.901  26.162  1.00  0.00    -0.237 OA
ATOM     86  O   UNL A   1      45.008  37.492  27.762  1.00  0.00    -0.237 OA
ATOM     87  O   UNL A   1      47.459  37.255  27.638  1.00  0.00    -0.744 OA
ENDBRANCH  80  84
ENDBRANCH  54  77
ENDBRANCH  28  29
ENDBRANCH  20  23
ENDBRANCH  18  19
ENDBRANCH   1  18
TORSDOF 16
ENDMDL
MODEL 3
REMARK VINA RESULT:     -11.0      4.988     10.134
REMARK SMILES CC(=O)Oc1ccccc1C(=O)NCCCCNC(=O)c1ccc(-c2c3nc(c(-c4cc(S(=O)(=O)[O-])ccc4F)c4ccc([nH]4)c(-c4cc(S(=O)(=O)[O-])ccc4F)c4nc(c(-c5cc(S(=O)(=O)[O-])ccc5F)c5ccc2[nH]5)C=C4)C=C3)cc1
REMARK SMILES IDX 16 1 15 2 14 3 13 4 11 5 12 6 10 8 5 9 6 10 7 11 9 12 8 13
REMARK SMILES IDX 4 14 2 15 1 16 3 17 17 18 18 19 19 20 20 22 21 23 22 24
REMARK SMILES IDX 83 25 23 26 82 27 24 28 25 29 26 30 76 31 27 32 81 33 75 34
REMARK SMILES IDX 77 35 28 36 80 37 74 38 73 39 29 41 61 42 41 43 60 44 42 45
REMARK SMILES IDX 45 46 59 47 78 48 43 49 44 50 58 52 79 53 46 54 30 55 31 56
REMARK SMILES IDX 39 57 32 58 38 59 40 60 37 61 33 62 34 63 35 64 36 65 62 66
REMARK SMILES IDX 63 67 71 68 64 69 70 70 72 71 69 72 65 73 66 74 67 75 68 76
REMARK SMILES IDX 47 77 48 78 56 79 49 80 55 81 57 82 54 83 50 84 51 85 52 86
REMARK SMILES IDX 53 87
REMARK H PARENT 13 7 18 21 77 40 45 51
REMARK Flexibility Score: inf
ROOT
ATOM      1  C   UNL A   1      35.729  21.057  25.457  1.00  0.00     0.023 C 
ENDROOT
BRANCH   1   2
ATOM      2  C   UNL A   1      34.508  21.492  24.648  1.00  0.00     0.023 C 
BRANCH   2   3
ATOM      3  C   UNL A   1      33.884  22.830  25.012  1.00  0.00     0.116 C 
BRANCH   3   4
ATOM      4  N   UNL A   1      33.119  22.885  26.233  1.00  0.00    -0.352 N 
ATOM      5  C   UNL A   1      31.945  23.558  26.502  1.00  0.00     0.255 C 
ATOM      6  O   UNL A   1      31.434  23.385  27.611  1.00  0.00    -0.269 OA
ATOM      7  H   UNL A   1      33.488  22.366  26.983  1.00  0.00     0.163 HD
BRANCH   5   8
ATOM      8  C   UNL A   1      31.333  24.569  25.584  1.00  0.00     0.082 A 
ATOM      9  C   UNL A   1      31.125  25.936  25.816  1.00  0.00     0.143 A 
ATOM     10  C   UNL A   1      30.415  26.725  24.897  1.00  0.00     0.048 A 
ATOM     11  C   UNL A   1      29.968  26.179  23.695  1.00  0.00     0.004 A 
ATOM     12  C   UNL A   1      30.914  24.054  24.338  1.00  0.00     0.018 A 
ATOM     13  C   UNL A   1      30.238  24.848  23.405  1.00  0.00     0.001 A 
BRANCH   9  14
ATOM     14  O   UNL A   1      31.492  26.618  26.984  1.00  0.00    -0.426 OA
BRANCH  14  15
ATOM     15  C   UNL A   1      32.451  27.617  26.868  1.00  0.00     0.308 C 
ATOM     16  C   UNL A   1      33.623  27.071  26.096  1.00  0.00     0.139 C 
ATOM     17  O   UNL A   1      32.382  28.748  27.336  1.00  0.00    -0.252 OA
ENDBRANCH  14  15
ENDBRANCH   9  14
ENDBRANCH   5   8
ENDBRANCH   3   4
ENDBRANCH   2   3
ENDBRANCH   1   2
BRANCH   1  18
ATOM     18  C   UNL A   1      37.111  21.431  24.920  1.00  0.00     0.116 C 
BRANCH  18  19
ATOM     19  N   UNL A   1      38.162  20.465  25.205  1.00  0.00    -0.352 N 
ATOM     20  C   UNL A   1      39.311  20.610  25.956  1.00  0.00     0.251 C 
ATOM     21  H   UNL A   1      38.035  19.576  24.802  1.00  0.00     0.163 HD
ATOM     22  O   UNL A   1      40.074  19.655  26.074  1.00  0.00    -0.269 OA
BRANCH  20  23
ATOM     23  C   UNL A   1      39.658  21.921  26.554  1.00  0.00     0.039 A 
ATOM     24  C   UNL A   1      40.662  21.963  27.526  1.00  0.00     0.014 A 
ATOM     25  C   UNL A   1      39.055  23.107  26.127  1.00  0.00     0.014 A 
ATOM     26  C   UNL A   1      41.139  23.196  27.979  1.00  0.00     0.010 A 
ATOM     27  C   UNL A   1      39.590  24.336  26.516  1.00  0.00     0.010 A 
ATOM     28  C   UNL A   1      40.654  24.395  27.428  1.00  0.00    -0.014 A 
BRANCH  28  29
ATOM     29  C   UNL A   1      41.310  25.692  27.757  1.00  0.00     0.031 A 
ATOM     30  C   UNL A   1      42.712  25.993  27.303  1.00  0.00     0.074 A 
ATOM     31  C   UNL A   1      40.639  26.595  28.502  1.00  0.00     0.049 A 
ATOM     32  N   UNL A   1      43.414  27.087  27.460  1.00  0.00    -0.248 NA
ATOM     33  C   UNL A   1      43.427  24.915  26.610  1.00  0.00     0.031 C 
ATOM     34  C   UNL A   1      39.298  26.395  29.060  1.00  0.00     0.029 A 
ATOM     35  N   UNL A   1      40.979  27.860  28.910  1.00  0.00    -0.354 N 
ATOM     36  C   UNL A   1      44.651  26.833  26.879  1.00  0.00     0.074 A 
ATOM     37  C   UNL A   1      44.625  25.452  26.441  1.00  0.00     0.031 C 
ATOM     38  C   UNL A   1      38.909  27.518  29.683  1.00  0.00     0.029 A 
ATOM     39  C   UNL A   1      39.984  28.501  29.614  1.00  0.00     0.049 A 
ATOM     40  H   UNL A   1      41.852  28.273  28.717  1.00  0.00     0.167 HD
ATOM     41  C   UNL A   1      45.699  27.678  26.701  1.00  0.00     0.034 A 
ATOM     42  C   UNL A   1      39.935  29.741  30.139  1.00  0.00     0.034 A 
ATOM     43  C   UNL A   1      45.714  29.047  27.163  1.00  0.00     0.049 A 
ATOM     44  C   UNL A   1      41.122  30.652  29.958  1.00  0.00     0.074 A 
ATOM     45  C   UNL A   1      46.701  30.004  26.996  1.00  0.00     0.029 A 
ATOM     46  N   UNL A   1      44.703  29.652  27.901  1.00  0.00    -0.354 N 
ATOM     47  N   UNL A   1      42.256  30.422  29.336  1.00  0.00    -0.248 NA
ATOM     48  C   UNL A   1      41.013  31.995  30.539  1.00  0.00     0.031 C 
ATOM     49  C   UNL A   1      46.325  31.153  27.702  1.00  0.00     0.029 A 
ATOM     50  C   UNL A   1      45.061  30.952  28.233  1.00  0.00     0.049 A 
ATOM     51  H   UNL A   1      43.855  29.221  28.153  1.00  0.00     0.167 HD
ATOM     52  C   UNL A   1      42.988  31.602  29.433  1.00  0.00     0.074 A 
ATOM     53  C   UNL A   1      42.149  32.548  30.144  1.00  0.00     0.031 C 
ATOM     54  C   UNL A   1      44.237  31.880  28.976  1.00  0.00     0.034 A 
BRANCH  41  55
ATOM     55  C   UNL A   1      46.923  27.122  26.004  1.00  0.00     0.023 A 
ATOM     56  C   UNL A   1      47.903  26.394  26.704  1.00  0.00     0.031 A 
ATOM     57  C   UNL A   1      47.142  27.362  24.636  1.00  0.00     0.131 A 
ATOM     58  C   UNL A   1      49.096  26.023  26.064  1.00  0.00     0.055 A 
ATOM     59  C   UNL A   1      48.288  26.903  23.980  1.00  0.00     0.041 A 
ATOM     60  F   UNL A   1      46.256  28.065  23.913  1.00  0.00    -0.206 F 
ATOM     61  C   UNL A   1      49.283  26.248  24.700  1.00  0.00     0.022 A 
BRANCH  58  62
ATOM     62  S   UNL A   1      50.468  25.411  27.082  1.00  0.00     0.124 S 
ATOM     63  O   UNL A   1      49.803  24.395  27.893  1.00  0.00    -0.237 OA
ATOM     64  O   UNL A   1      51.406  24.917  26.082  1.00  0.00    -0.237 OA
ATOM     65  O   UNL A   1      50.903  26.597  27.817  1.00  0.00    -0.744 OA
ENDBRANCH  58  62
ENDBRANCH  41  55
BRANCH  42  66
ATOM     66  C   UNL A   1      38.722  30.203  30.875  1.00  0.00     0.023 A 
ATOM     67  C   UNL A   1      37.699  30.906  30.218  1.00  0.00     0.031 A 
ATOM     68  C   UNL A   1      38.580  29.969  32.254  1.00  0.00     0.131 A 
ATOM     69  C   UNL A   1      36.597  31.382  30.946  1.00  0.00     0.055 A 
ATOM     70  C   UNL A   1      37.456  30.397  32.963  1.00  0.00     0.041 A 
ATOM     71  F   UNL A   1      39.526  29.299  32.931  1.00  0.00    -0.206 F 
ATOM     72  C   UNL A   1      36.462  31.118  32.311  1.00  0.00     0.022 A 
BRANCH  69  73
ATOM     73  S   UNL A   1      35.371  32.416  30.097  1.00  0.00     0.124 S 
ATOM     74  O   UNL A   1      34.369  32.604  31.138  1.00  0.00    -0.237 OA
ATOM     75  O   UNL A   1      36.159  33.591  29.743  1.00  0.00    -0.237 OA
ATOM     76  O   UNL A   1      34.953  31.588  28.968  1.00  0.00    -0.744 OA
ENDBRANCH  69  73
ENDBRANCH  42  66
BRANCH  54  77
ATOM     77  C   UNL A   1      44.755  33.279  29.223  1.00  0.00     0.023 A 
ATOM     78  C   UNL A   1      44.437  34.347  28.363  1.00  0.00     0.031 A 
ATOM     79  C   UNL A   1      45.620  33.540  30.300  1.00  0.00     0.131 A 
ATOM     80  C   UNL A   1      45.050  35.596  28.541  1.00  0.00     0.055 A 
ATOM     81  C   UNL A   1      46.161  34.809  30.520  1.00  0.00     0.041 A 
ATOM     82  F   UNL A   1      45.966  32.563  31.154  1.00  0.00    -0.206 F 
ATOM     83  C   UNL A   1      45.894  35.840  29.625  1.00  0.00     0.022 A 
BRANCH  80  84
ATOM     84  S   UNL A   1      44.844  36.854  27.248  1.00  0.00     0.124 S 
ATOM     85  O   UNL A   1      46.046  36.659  26.444  1.00  0.00    -0.237 OA
ATOM     86  O   UNL A   1      43.587  36.457  26.623  1.00  0.00    -0.237 OA
ATOM     87  O   UNL A   1      44.796  38.109  27.996  1.00  0.00    -0.744 OA
ENDBRANCH  80  84
ENDBRANCH  54  77
ENDBRANCH  28  29
ENDBRANCH  20  23
ENDBRANCH  18  19
ENDBRANCH   1  18
TORSDOF 16
ENDMDL
