MODEL 1
REMARK VINA RESULT:     -13.7      0.000      0.000
REMARK SMILES Cc1ccc(C)c([C@H]2[NH2+][C@@H](C(=O)NCCCCNC(=O)c3ccc(-c4c5nc(c(-c6cc(S(=O)(=O)[O-])ccc6F)c6ccc([nH]6)c(-c6cc(S(=O)(=O)[O-])ccc6F)c6nc(c(-c7cc(S(=O)(=O)[O-])ccc7F)c7ccc4[nH]7)C=C6)C=C5)cc3)Cc3c2[nH]c2ccccc32)c1
REMARK SMILES IDX 16 1 15 2 14 3 13 4 11 5 12 6 10 8 8 9 9 10 86 11 85 14
REMARK SMILES IDX 87 15 84 16 93 17 88 18 92 20 89 21 91 22 90 23 7 24 1 25
REMARK SMILES IDX 2 26 3 27 94 28 4 29 5 30 6 31 17 32 18 33 19 34 20 36 21 37
REMARK SMILES IDX 22 38 83 39 23 40 82 41 24 42 25 43 26 44 76 45 27 46 81 47
REMARK SMILES IDX 75 48 77 49 28 50 80 51 74 52 73 53 29 55 61 56 41 57 60 58
REMARK SMILES IDX 42 59 45 60 59 61 78 62 43 63 44 64 58 66 79 67 46 68 30 69
REMARK SMILES IDX 31 70 39 71 32 72 38 73 40 74 37 75 33 76 34 77 35 78 36 79
REMARK SMILES IDX 62 80 63 81 71 82 64 83 70 84 72 85 69 86 65 87 66 88 67 89
REMARK SMILES IDX 68 90 47 91 48 92 56 93 49 94 55 95 57 96 54 97 50 98 51 99
REMARK SMILES IDX 52 100 53 101
REMARK H PARENT 13 7 9 12 9 13 87 19 18 35 77 54 45 65
REMARK Flexibility Score: inf
ROOT
ATOM      1  C   UNL A   1      36.714  23.420  25.523  1.00  0.00     0.023 C 
ENDROOT
BRANCH   1   2
ATOM      2  C   UNL A   1      35.424  23.615  26.338  1.00  0.00     0.023 C 
BRANCH   2   3
ATOM      3  C   UNL A   1      34.180  22.973  25.717  1.00  0.00     0.116 C 
BRANCH   3   4
ATOM      4  N   UNL A   1      32.973  23.196  26.473  1.00  0.00    -0.351 N 
ATOM      5  C   UNL A   1      32.032  24.167  26.491  1.00  0.00     0.278 C 
ATOM      6  O   UNL A   1      31.079  23.956  27.261  1.00  0.00    -0.268 OA
ATOM      7  H   UNL A   1      32.792  22.480  27.124  1.00  0.00     0.163 HD
BRANCH   5   8
ATOM      8  C   UNL A   1      32.018  25.446  25.629  1.00  0.00     0.277 C 
ATOM      9  C   UNL A   1      33.269  27.616  25.479  1.00  0.00     0.262 C 
ATOM     10  N   UNL A   1      32.950  26.403  26.263  1.00  0.00    -0.325 N 
ATOM     11  C   UNL A   1      32.046  28.069  24.703  1.00  0.00     0.083 A 
ATOM     12  H   UNL A   1      32.536  26.702  27.146  1.00  0.00     0.347 HD
ATOM     13  H   UNL A   1      33.831  25.900  26.363  1.00  0.00     0.347 HD
ATOM     14  C   UNL A   1      30.871  27.356  24.588  1.00  0.00    -0.006 A 
ATOM     15  N   UNL A   1      31.891  29.213  23.958  1.00  0.00    -0.353 N 
ATOM     16  C   UNL A   1      30.670  26.110  25.359  1.00  0.00     0.114 C 
ATOM     17  C   UNL A   1      29.974  28.063  23.765  1.00  0.00     0.003 A 
ATOM     18  C   UNL A   1      30.625  29.237  23.387  1.00  0.00     0.046 A 
ATOM     19  H   UNL A   1      32.575  29.913  23.845  1.00  0.00     0.166 HD
ATOM     20  C   UNL A   1      28.652  27.826  23.343  1.00  0.00     0.010 A 
ATOM     21  C   UNL A   1      29.986  30.203  22.597  1.00  0.00     0.026 A 
ATOM     22  C   UNL A   1      28.006  28.778  22.557  1.00  0.00     0.001 A 
ATOM     23  C   UNL A   1      28.665  29.950  22.193  1.00  0.00     0.002 A 
BRANCH   9  24
ATOM     24  C   UNL A   1      33.900  28.612  26.457  1.00  0.00     0.019 A 
ATOM     25  C   UNL A   1      37.399  29.912  27.354  1.00  0.00     0.044 C 
ATOM     26  C   UNL A   1      35.907  29.742  27.330  1.00  0.00    -0.051 A 
ATOM     27  C   UNL A   1      35.100  30.659  28.001  1.00  0.00     0.004 A 
ATOM     28  C   UNL A   1      35.303  28.738  26.556  1.00  0.00     0.014 A 
ATOM     29  C   UNL A   1      33.714  30.561  27.921  1.00  0.00     0.004 A 
ATOM     30  C   UNL A   1      33.097  29.557  27.153  1.00  0.00    -0.042 A 
ATOM     31  C   UNL A   1      31.601  29.661  26.996  1.00  0.00     0.045 C 
ENDBRANCH   9  24
ENDBRANCH   5   8
ENDBRANCH   3   4
ENDBRANCH   2   3
ENDBRANCH   1   2
BRANCH   1  32
ATOM     32  C   UNL A   1      38.017  23.980  26.126  1.00  0.00     0.116 C 
BRANCH  32  33
ATOM     33  N   UNL A   1      38.836  22.995  26.854  1.00  0.00    -0.352 N 
ATOM     34  C   UNL A   1      40.079  23.131  27.484  1.00  0.00     0.251 C 
ATOM     35  H   UNL A   1      38.444  22.092  26.907  1.00  0.00     0.163 HD
ATOM     36  O   UNL A   1      40.804  22.159  27.614  1.00  0.00    -0.269 OA
BRANCH  34  37
ATOM     37  C   UNL A   1      40.484  24.449  28.033  1.00  0.00     0.039 A 
ATOM     38  C   UNL A   1      41.784  24.864  28.324  1.00  0.00     0.014 A 
ATOM     39  C   UNL A   1      39.449  25.313  28.297  1.00  0.00     0.014 A 
ATOM     40  C   UNL A   1      41.970  26.150  28.859  1.00  0.00     0.010 A 
ATOM     41  C   UNL A   1      39.667  26.651  28.403  1.00  0.00     0.010 A 
ATOM     42  C   UNL A   1      40.883  27.038  28.907  1.00  0.00    -0.014 A 
BRANCH  42  43
ATOM     43  C   UNL A   1      40.944  28.422  29.360  1.00  0.00     0.031 A 
ATOM     44  C   UNL A   1      41.968  29.208  28.647  1.00  0.00     0.074 A 
ATOM     45  C   UNL A   1      39.971  29.039  30.075  1.00  0.00     0.049 A 
ATOM     46  N   UNL A   1      43.146  29.518  29.066  1.00  0.00    -0.248 NA
ATOM     47  C   UNL A   1      41.749  29.484  27.217  1.00  0.00     0.031 C 
ATOM     48  C   UNL A   1      38.672  28.508  30.513  1.00  0.00     0.029 A 
ATOM     49  N   UNL A   1      39.895  30.343  30.466  1.00  0.00    -0.354 N 
ATOM     50  C   UNL A   1      43.690  30.297  28.056  1.00  0.00     0.074 A 
ATOM     51  C   UNL A   1      42.944  29.967  26.874  1.00  0.00     0.031 C 
ATOM     52  C   UNL A   1      37.869  29.528  30.905  1.00  0.00     0.029 A 
ATOM     53  C   UNL A   1      38.637  30.762  30.897  1.00  0.00     0.049 A 
ATOM     54  H   UNL A   1      40.674  30.946  30.445  1.00  0.00     0.167 HD
ATOM     55  C   UNL A   1      44.473  31.373  28.348  1.00  0.00     0.034 A 
ATOM     56  C   UNL A   1      38.248  32.037  31.183  1.00  0.00     0.034 A 
ATOM     57  C   UNL A   1      44.852  31.363  29.751  1.00  0.00     0.049 A 
ATOM     58  C   UNL A   1      39.488  32.809  31.454  1.00  0.00     0.074 A 
ATOM     59  C   UNL A   1      45.440  30.427  30.586  1.00  0.00     0.029 A 
ATOM     60  N   UNL A   1      44.233  32.260  30.600  1.00  0.00    -0.354 N 
ATOM     61  N   UNL A   1      40.279  32.564  32.464  1.00  0.00    -0.248 NA
ATOM     62  C   UNL A   1      40.114  33.503  30.337  1.00  0.00     0.031 C 
ATOM     63  C   UNL A   1      44.698  30.506  31.804  1.00  0.00     0.029 A 
ATOM     64  C   UNL A   1      43.782  31.554  31.691  1.00  0.00     0.049 A 
ATOM     65  H   UNL A   1      44.133  33.228  30.451  1.00  0.00     0.167 HD
ATOM     66  C   UNL A   1      41.561  32.643  31.939  1.00  0.00     0.074 A 
ATOM     67  C   UNL A   1      41.400  33.324  30.653  1.00  0.00     0.031 C 
ATOM     68  C   UNL A   1      42.584  31.888  32.442  1.00  0.00     0.034 A 
BRANCH  55  69
ATOM     69  C   UNL A   1      44.578  32.626  27.501  1.00  0.00     0.023 A 
ATOM     70  C   UNL A   1      43.911  33.766  27.982  1.00  0.00     0.031 A 
ATOM     71  C   UNL A   1      45.048  32.717  26.169  1.00  0.00     0.131 A 
ATOM     72  C   UNL A   1      43.627  34.852  27.139  1.00  0.00     0.055 A 
ATOM     73  C   UNL A   1      44.828  33.832  25.355  1.00  0.00     0.041 A 
ATOM     74  F   UNL A   1      45.668  31.715  25.537  1.00  0.00    -0.206 F 
ATOM     75  C   UNL A   1      44.080  34.894  25.826  1.00  0.00     0.022 A 
BRANCH  72  76
ATOM     76  S   UNL A   1      42.490  36.121  27.746  1.00  0.00     0.124 S 
ATOM     77  O   UNL A   1      41.202  35.455  27.583  1.00  0.00    -0.237 OA
ATOM     78  O   UNL A   1      42.953  36.306  29.116  1.00  0.00    -0.237 OA
ATOM     79  O   UNL A   1      42.731  37.247  26.847  1.00  0.00    -0.744 OA
ENDBRANCH  72  76
ENDBRANCH  55  69
BRANCH  56  80
ATOM     80  C   UNL A   1      36.947  32.683  30.829  1.00  0.00     0.023 A 
ATOM     81  C   UNL A   1      35.997  33.103  31.789  1.00  0.00     0.031 A 
ATOM     82  C   UNL A   1      36.744  33.131  29.505  1.00  0.00     0.131 A 
ATOM     83  C   UNL A   1      34.913  33.935  31.405  1.00  0.00     0.055 A 
ATOM     84  C   UNL A   1      35.678  33.955  29.135  1.00  0.00     0.041 A 
ATOM     85  F   UNL A   1      37.633  32.859  28.536  1.00  0.00    -0.206 F 
ATOM     86  C   UNL A   1      34.763  34.370  30.087  1.00  0.00     0.022 A 
BRANCH  83  87
ATOM     87  S   UNL A   1      33.681  34.493  32.630  1.00  0.00     0.124 S 
ATOM     88  O   UNL A   1      33.311  33.246  33.290  1.00  0.00    -0.237 OA
ATOM     89  O   UNL A   1      34.442  35.450  33.426  1.00  0.00    -0.237 OA
ATOM     90  O   UNL A   1      32.624  35.083  31.808  1.00  0.00    -0.744 OA
ENDBRANCH  83  87
ENDBRANCH  56  80
BRANCH  68  91
ATOM     91  C   UNL A   1      42.385  31.180  33.773  1.00  0.00     0.023 A 
ATOM     92  C   UNL A   1      42.131  29.797  33.937  1.00  0.00     0.031 A 
ATOM     93  C   UNL A   1      42.589  31.942  34.938  1.00  0.00     0.131 A 
ATOM     94  C   UNL A   1      42.082  29.235  35.230  1.00  0.00     0.055 A 
ATOM     95  C   UNL A   1      42.562  31.378  36.213  1.00  0.00     0.041 A 
ATOM     96  F   UNL A   1      42.855  33.256  34.854  1.00  0.00    -0.206 F 
ATOM     97  C   UNL A   1      42.303  30.022  36.365  1.00  0.00     0.022 A 
BRANCH  94  98
ATOM     98  S   UNL A   1      41.713  27.464  35.471  1.00  0.00     0.124 S 
ATOM     99  O   UNL A   1      40.787  27.154  34.387  1.00  0.00    -0.237 OA
ATOM    100  O   UNL A   1      43.035  26.849  35.381  1.00  0.00    -0.237 OA
ATOM    101  O   UNL A   1      41.116  27.421  36.808  1.00  0.00    -0.744 OA
ENDBRANCH  94  98
ENDBRANCH  68  91
ENDBRANCH  42  43
ENDBRANCH  34  37
ENDBRANCH  32  33
ENDBRANCH   1  32
TORSDOF 15
ENDMDL
MODEL 2
REMARK VINA RESULT:     -13.3      6.362     13.066
REMARK SMILES Cc1ccc(C)c([C@H]2[NH2+][C@@H](C(=O)NCCCCNC(=O)c3ccc(-c4c5nc(c(-c6cc(S(=O)(=O)[O-])ccc6F)c6ccc([nH]6)c(-c6cc(S(=O)(=O)[O-])ccc6F)c6nc(c(-c7cc(S(=O)(=O)[O-])ccc7F)c7ccc4[nH]7)C=C6)C=C5)cc3)Cc3c2[nH]c2ccccc32)c1
REMARK SMILES IDX 16 1 15 2 14 3 13 4 11 5 12 6 10 8 8 9 9 10 86 11 85 14
REMARK SMILES IDX 87 15 84 16 93 17 88 18 92 20 89 21 91 22 90 23 7 24 1 25
REMARK SMILES IDX 2 26 3 27 94 28 4 29 5 30 6 31 17 32 18 33 19 34 20 36 21 37
REMARK SMILES IDX 22 38 83 39 23 40 82 41 24 42 25 43 26 44 76 45 27 46 81 47
REMARK SMILES IDX 75 48 77 49 28 50 80 51 74 52 73 53 29 55 61 56 41 57 60 58
REMARK SMILES IDX 42 59 45 60 59 61 78 62 43 63 44 64 58 66 79 67 46 68 30 69
REMARK SMILES IDX 31 70 39 71 32 72 38 73 40 74 37 75 33 76 34 77 35 78 36 79
REMARK SMILES IDX 62 80 63 81 71 82 64 83 70 84 72 85 69 86 65 87 66 88 67 89
REMARK SMILES IDX 68 90 47 91 48 92 56 93 49 94 55 95 57 96 54 97 50 98 51 99
REMARK SMILES IDX 52 100 53 101
REMARK H PARENT 13 7 9 12 9 13 87 19 18 35 77 54 45 65
REMARK Flexibility Score: inf
ROOT
ATOM      1  C   UNL A   1      41.693  39.131  26.898  1.00  0.00     0.023 C 
ENDROOT
BRANCH   1   2
ATOM      2  C   UNL A   1      41.188  40.523  26.482  1.00  0.00     0.023 C 
BRANCH   2   3
ATOM      3  C   UNL A   1      41.890  41.111  25.255  1.00  0.00     0.116 C 
BRANCH   3   4
ATOM      4  N   UNL A   1      42.906  42.081  25.577  1.00  0.00    -0.351 N 
ATOM      5  C   UNL A   1      43.774  42.821  24.851  1.00  0.00     0.278 C 
ATOM      6  O   UNL A   1      44.462  43.618  25.513  1.00  0.00    -0.268 OA
ATOM      7  H   UNL A   1      42.987  42.242  26.545  1.00  0.00     0.163 HD
BRANCH   5   8
ATOM      8  C   UNL A   1      43.941  42.798  23.318  1.00  0.00     0.277 C 
ATOM      9  C   UNL A   1      45.800  42.917  21.636  1.00  0.00     0.262 C 
ATOM     10  N   UNL A   1      45.358  43.110  23.035  1.00  0.00    -0.325 N 
ATOM     11  C   UNL A   1      44.680  43.292  20.682  1.00  0.00     0.083 A 
ATOM     12  H   UNL A   1      45.516  44.088  23.279  1.00  0.00     0.347 HD
ATOM     13  H   UNL A   1      45.900  42.447  23.588  1.00  0.00     0.347 HD
ATOM     14  C   UNL A   1      43.385  43.584  21.056  1.00  0.00    -0.006 A 
ATOM     15  N   UNL A   1      44.725  43.371  19.311  1.00  0.00    -0.353 N 
ATOM     16  C   UNL A   1      43.019  43.685  22.485  1.00  0.00     0.114 C 
ATOM     17  C   UNL A   1      42.615  43.849  19.907  1.00  0.00     0.003 A 
ATOM     18  C   UNL A   1      43.476  43.725  18.817  1.00  0.00     0.046 A 
ATOM     19  H   UNL A   1      45.524  43.201  18.760  1.00  0.00     0.166 HD
ATOM     20  C   UNL A   1      41.274  44.223  19.703  1.00  0.00     0.010 A 
ATOM     21  C   UNL A   1      43.038  43.975  17.508  1.00  0.00     0.026 A 
ATOM     22  C   UNL A   1      40.826  44.475  18.407  1.00  0.00     0.001 A 
ATOM     23  C   UNL A   1      41.698  44.355  17.328  1.00  0.00     0.002 A 
BRANCH   9  24
ATOM     24  C   UNL A   1      47.133  43.657  21.494  1.00  0.00     0.019 A 
ATOM     25  C   UNL A   1      50.581  43.059  19.915  1.00  0.00     0.044 C 
ATOM     26  C   UNL A   1      49.436  43.726  20.623  1.00  0.00    -0.051 A 
ATOM     27  C   UNL A   1      49.506  45.087  20.915  1.00  0.00     0.004 A 
ATOM     28  C   UNL A   1      48.250  43.027  20.902  1.00  0.00     0.014 A 
ATOM     29  C   UNL A   1      48.421  45.734  21.497  1.00  0.00     0.004 A 
ATOM     30  C   UNL A   1      47.229  45.046  21.786  1.00  0.00    -0.042 A 
ATOM     31  C   UNL A   1      46.066  45.887  22.246  1.00  0.00     0.045 C 
ENDBRANCH   9  24
ENDBRANCH   5   8
ENDBRANCH   3   4
ENDBRANCH   2   3
ENDBRANCH   1   2
BRANCH   1  32
ATOM     32  C   UNL A   1      43.125  39.042  27.461  1.00  0.00     0.116 C 
BRANCH  32  33
ATOM     33  N   UNL A   1      44.004  38.082  26.769  1.00  0.00    -0.352 N 
ATOM     34  C   UNL A   1      44.535  36.860  27.199  1.00  0.00     0.251 C 
ATOM     35  H   UNL A   1      44.259  38.342  25.854  1.00  0.00     0.163 HD
ATOM     36  O   UNL A   1      45.575  36.446  26.716  1.00  0.00    -0.269 OA
BRANCH  34  37
ATOM     37  C   UNL A   1      43.802  36.054  28.207  1.00  0.00     0.039 A 
ATOM     38  C   UNL A   1      44.303  35.591  29.425  1.00  0.00     0.014 A 
ATOM     39  C   UNL A   1      42.513  35.724  27.863  1.00  0.00     0.014 A 
ATOM     40  C   UNL A   1      43.459  34.823  30.244  1.00  0.00     0.010 A 
ATOM     41  C   UNL A   1      41.609  35.363  28.812  1.00  0.00     0.010 A 
ATOM     42  C   UNL A   1      42.100  34.703  29.911  1.00  0.00    -0.014 A 
BRANCH  42  43
ATOM     43  C   UNL A   1      41.094  34.007  30.704  1.00  0.00     0.031 A 
ATOM     44  C   UNL A   1      41.436  33.960  32.137  1.00  0.00     0.074 A 
ATOM     45  C   UNL A   1      39.833  33.742  30.284  1.00  0.00     0.049 A 
ATOM     46  N   UNL A   1      41.946  32.971  32.787  1.00  0.00    -0.248 NA
ATOM     47  C   UNL A   1      41.427  35.227  32.887  1.00  0.00     0.031 C 
ATOM     48  C   UNL A   1      39.190  34.104  29.012  1.00  0.00     0.029 A 
ATOM     49  N   UNL A   1      38.802  33.181  30.977  1.00  0.00    -0.354 N 
ATOM     50  C   UNL A   1      42.027  33.410  34.100  1.00  0.00     0.074 A 
ATOM     51  C   UNL A   1      42.008  34.844  34.025  1.00  0.00     0.031 C 
ATOM     52  C   UNL A   1      37.847  33.952  29.117  1.00  0.00     0.029 A 
ATOM     53  C   UNL A   1      37.543  33.336  30.399  1.00  0.00     0.049 A 
ATOM     54  H   UNL A   1      38.937  32.700  31.826  1.00  0.00     0.167 HD
ATOM     55  C   UNL A   1      41.772  32.564  35.136  1.00  0.00     0.034 A 
ATOM     56  C   UNL A   1      36.338  33.021  30.954  1.00  0.00     0.034 A 
ATOM     57  C   UNL A   1      41.717  31.188  34.672  1.00  0.00     0.049 A 
ATOM     58  C   UNL A   1      36.611  32.035  32.031  1.00  0.00     0.074 A 
ATOM     59  C   UNL A   1      42.569  30.383  33.934  1.00  0.00     0.029 A 
ATOM     60  N   UNL A   1      40.480  30.582  34.575  1.00  0.00    -0.354 N 
ATOM     61  N   UNL A   1      37.093  30.843  31.806  1.00  0.00    -0.248 NA
ATOM     62  C   UNL A   1      36.832  32.544  33.378  1.00  0.00     0.031 C 
ATOM     63  C   UNL A   1      41.718  29.688  33.022  1.00  0.00     0.029 A 
ATOM     64  C   UNL A   1      40.394  30.014  33.324  1.00  0.00     0.049 A 
ATOM     65  H   UNL A   1      39.786  30.561  35.272  1.00  0.00     0.167 HD
ATOM     66  C   UNL A   1      38.052  30.654  32.791  1.00  0.00     0.074 A 
ATOM     67  C   UNL A   1      37.774  31.689  33.788  1.00  0.00     0.031 C 
ATOM     68  C   UNL A   1      39.160  29.885  32.568  1.00  0.00     0.034 A 
BRANCH  55  69
ATOM     69  C   UNL A   1      41.188  32.981  36.472  1.00  0.00     0.023 A 
ATOM     70  C   UNL A   1      40.023  32.309  36.884  1.00  0.00     0.031 A 
ATOM     71  C   UNL A   1      41.524  34.129  37.228  1.00  0.00     0.131 A 
ATOM     72  C   UNL A   1      39.198  32.836  37.890  1.00  0.00     0.055 A 
ATOM     73  C   UNL A   1      40.738  34.609  38.280  1.00  0.00     0.041 A 
ATOM     74  F   UNL A   1      42.574  34.910  36.953  1.00  0.00    -0.206 F 
ATOM     75  C   UNL A   1      39.546  33.984  38.593  1.00  0.00     0.022 A 
BRANCH  72  76
ATOM     76  S   UNL A   1      37.568  32.090  38.126  1.00  0.00     0.124 S 
ATOM     77  O   UNL A   1      36.690  33.166  37.681  1.00  0.00    -0.237 OA
ATOM     78  O   UNL A   1      37.647  30.920  37.258  1.00  0.00    -0.237 OA
ATOM     79  O   UNL A   1      37.532  31.803  39.559  1.00  0.00    -0.744 OA
ENDBRANCH  72  76
ENDBRANCH  55  69
BRANCH  56  80
ATOM     80  C   UNL A   1      35.076  33.820  30.882  1.00  0.00     0.023 A 
ATOM     81  C   UNL A   1      34.721  34.807  31.831  1.00  0.00     0.031 A 
ATOM     82  C   UNL A   1      34.310  33.784  29.695  1.00  0.00     0.131 A 
ATOM     83  C   UNL A   1      33.650  35.700  31.567  1.00  0.00     0.055 A 
ATOM     84  C   UNL A   1      33.261  34.670  29.439  1.00  0.00     0.041 A 
ATOM     85  F   UNL A   1      34.618  32.942  28.696  1.00  0.00    -0.206 F 
ATOM     86  C   UNL A   1      32.934  35.641  30.370  1.00  0.00     0.022 A 
BRANCH  83  87
ATOM     87  S   UNL A   1      33.182  36.985  32.776  1.00  0.00     0.124 S 
ATOM     88  O   UNL A   1      34.136  36.759  33.855  1.00  0.00    -0.237 OA
ATOM     89  O   UNL A   1      33.347  38.213  32.006  1.00  0.00    -0.237 OA
ATOM     90  O   UNL A   1      31.797  36.652  33.109  1.00  0.00    -0.744 OA
ENDBRANCH  83  87
ENDBRANCH  56  80
BRANCH  68  91
ATOM     91  C   UNL A   1      39.195  28.991  31.338  1.00  0.00     0.023 A 
ATOM     92  C   UNL A   1      39.832  29.306  30.113  1.00  0.00     0.031 A 
ATOM     93  C   UNL A   1      38.654  27.700  31.472  1.00  0.00     0.131 A 
ATOM     94  C   UNL A   1      39.898  28.345  29.083  1.00  0.00     0.055 A 
ATOM     95  C   UNL A   1      38.741  26.745  30.460  1.00  0.00     0.041 A 
ATOM     96  F   UNL A   1      38.055  27.328  32.615  1.00  0.00    -0.206 F 
ATOM     97  C   UNL A   1      39.360  27.066  29.257  1.00  0.00     0.022 A 
BRANCH  94  98
ATOM     98  S   UNL A   1      40.673  28.739  27.479  1.00  0.00     0.124 S 
ATOM     99  O   UNL A   1      39.591  29.345  26.712  1.00  0.00    -0.237 OA
ATOM    100  O   UNL A   1      41.764  29.631  27.864  1.00  0.00    -0.237 OA
ATOM    101  O   UNL A   1      41.108  27.431  26.981  1.00  0.00    -0.744 OA
ENDBRANCH  94  98
ENDBRANCH  68  91
ENDBRANCH  42  43
ENDBRANCH  34  37
ENDBRANCH  32  33
ENDBRANCH   1  32
TORSDOF 15
ENDMDL
MODEL 3
REMARK VINA RESULT:     -13.1      3.561      5.614
REMARK SMILES Cc1ccc(C)c([C@H]2[NH2+][C@@H](C(=O)NCCCCNC(=O)c3ccc(-c4c5nc(c(-c6cc(S(=O)(=O)[O-])ccc6F)c6ccc([nH]6)c(-c6cc(S(=O)(=O)[O-])ccc6F)c6nc(c(-c7cc(S(=O)(=O)[O-])ccc7F)c7ccc4[nH]7)C=C6)C=C5)cc3)Cc3c2[nH]c2ccccc32)c1
REMARK SMILES IDX 16 1 15 2 14 3 13 4 11 5 12 6 10 8 8 9 9 10 86 11 85 14
REMARK SMILES IDX 87 15 84 16 93 17 88 18 92 20 89 21 91 22 90 23 7 24 1 25
REMARK SMILES IDX 2 26 3 27 94 28 4 29 5 30 6 31 17 32 18 33 19 34 20 36 21 37
REMARK SMILES IDX 22 38 83 39 23 40 82 41 24 42 25 43 26 44 76 45 27 46 81 47
REMARK SMILES IDX 75 48 77 49 28 50 80 51 74 52 73 53 29 55 61 56 41 57 60 58
REMARK SMILES IDX 42 59 45 60 59 61 78 62 43 63 44 64 58 66 79 67 46 68 30 69
REMARK SMILES IDX 31 70 39 71 32 72 38 73 40 74 37 75 33 76 34 77 35 78 36 79
REMARK SMILES IDX 62 80 63 81 71 82 64 83 70 84 72 85 69 86 65 87 66 88 67 89
REMARK SMILES IDX 68 90 47 91 48 92 56 93 49 94 55 95 57 96 54 97 50 98 51 99
REMARK SMILES IDX 52 100 53 101
REMARK H PARENT 13 7 9 12 9 13 87 19 18 35 77 54 45 65
REMARK Flexibility Score: inf
ROOT
ATOM      1  C   UNL A   1      41.579  19.592  26.127  1.00  0.00     0.023 C 
ENDROOT
BRANCH   1   2
ATOM      2  C   UNL A   1      40.757  20.645  26.890  1.00  0.00     0.023 C 
BRANCH   2   3
ATOM      3  C   UNL A   1      39.539  21.173  26.125  1.00  0.00     0.116 C 
BRANCH   3   4
ATOM      4  N   UNL A   1      39.212  22.543  26.431  1.00  0.00    -0.351 N 
ATOM      5  C   UNL A   1      38.172  23.356  26.142  1.00  0.00     0.278 C 
ATOM      6  O   UNL A   1      38.229  24.483  26.662  1.00  0.00    -0.268 OA
ATOM      7  H   UNL A   1      39.903  22.988  26.974  1.00  0.00     0.163 HD
BRANCH   5   8
ATOM      8  C   UNL A   1      36.937  22.997  25.290  1.00  0.00     0.277 C 
ATOM      9  C   UNL A   1      34.900  24.141  24.372  1.00  0.00     0.262 C 
ATOM     10  N   UNL A   1      36.042  24.174  25.311  1.00  0.00    -0.325 N 
ATOM     11  C   UNL A   1      34.372  22.724  24.248  1.00  0.00     0.083 A 
ATOM     12  H   UNL A   1      35.666  24.263  26.256  1.00  0.00     0.347 HD
ATOM     13  H   UNL A   1      36.619  24.961  25.015  1.00  0.00     0.347 HD
ATOM     14  C   UNL A   1      34.978  21.603  24.776  1.00  0.00    -0.006 A 
ATOM     15  N   UNL A   1      33.253  22.291  23.577  1.00  0.00    -0.353 N 
ATOM     16  C   UNL A   1      36.164  21.731  25.649  1.00  0.00     0.114 C 
ATOM     17  C   UNL A   1      34.229  20.461  24.432  1.00  0.00     0.003 A 
ATOM     18  C   UNL A   1      33.138  20.912  23.689  1.00  0.00     0.046 A 
ATOM     19  H   UNL A   1      32.626  22.873  23.089  1.00  0.00     0.166 HD
ATOM     20  C   UNL A   1      34.362  19.090  24.723  1.00  0.00     0.010 A 
ATOM     21  C   UNL A   1      32.154  20.026  23.227  1.00  0.00     0.026 A 
ATOM     22  C   UNL A   1      33.391  18.200  24.269  1.00  0.00     0.001 A 
ATOM     23  C   UNL A   1      32.302  18.663  23.535  1.00  0.00     0.002 A 
BRANCH   9  24
ATOM     24  C   UNL A   1      33.924  25.226  24.834  1.00  0.00     0.019 A 
ATOM     25  C   UNL A   1      32.419  28.486  23.477  1.00  0.00     0.044 C 
ATOM     26  C   UNL A   1      32.701  27.314  24.373  1.00  0.00    -0.051 A 
ATOM     27  C   UNL A   1      31.894  27.088  25.486  1.00  0.00     0.004 A 
ATOM     28  C   UNL A   1      33.697  26.378  24.049  1.00  0.00     0.014 A 
ATOM     29  C   UNL A   1      32.093  25.962  26.278  1.00  0.00     0.004 A 
ATOM     30  C   UNL A   1      33.090  25.020  25.969  1.00  0.00    -0.042 A 
ATOM     31  C   UNL A   1      33.092  23.755  26.790  1.00  0.00     0.045 C 
ENDBRANCH   9  24
ENDBRANCH   5   8
ENDBRANCH   3   4
ENDBRANCH   2   3
ENDBRANCH   1   2
BRANCH   1  32
ATOM     32  C   UNL A   1      42.997  19.294  26.650  1.00  0.00     0.116 C 
BRANCH  32  33
ATOM     33  N   UNL A   1      44.076  19.502  25.668  1.00  0.00    -0.352 N 
ATOM     34  C   UNL A   1      44.403  20.626  24.898  1.00  0.00     0.251 C 
ATOM     35  H   UNL A   1      44.664  18.724  25.531  1.00  0.00     0.163 HD
ATOM     36  O   UNL A   1      44.991  20.487  23.840  1.00  0.00    -0.269 OA
BRANCH  34  37
ATOM     37  C   UNL A   1      44.073  21.983  25.402  1.00  0.00     0.039 A 
ATOM     38  C   UNL A   1      43.027  22.798  24.967  1.00  0.00     0.014 A 
ATOM     39  C   UNL A   1      44.918  22.466  26.371  1.00  0.00     0.014 A 
ATOM     40  C   UNL A   1      42.883  24.067  25.554  1.00  0.00     0.010 A 
ATOM     41  C   UNL A   1      44.528  23.473  27.198  1.00  0.00     0.010 A 
ATOM     42  C   UNL A   1      43.663  24.399  26.674  1.00  0.00    -0.014 A 
BRANCH  42  43
ATOM     43  C   UNL A   1      43.567  25.641  27.430  1.00  0.00     0.031 A 
ATOM     44  C   UNL A   1      44.573  26.636  27.016  1.00  0.00     0.074 A 
ATOM     45  C   UNL A   1      42.490  26.011  28.166  1.00  0.00     0.049 A 
ATOM     46  N   UNL A   1      45.683  26.918  27.608  1.00  0.00    -0.248 NA
ATOM     47  C   UNL A   1      44.447  27.220  25.670  1.00  0.00     0.031 C 
ATOM     48  C   UNL A   1      41.211  25.309  28.344  1.00  0.00     0.029 A 
ATOM     49  N   UNL A   1      42.271  27.181  28.830  1.00  0.00    -0.354 N 
ATOM     50  C   UNL A   1      46.237  27.943  26.857  1.00  0.00     0.074 A 
ATOM     51  C   UNL A   1      45.621  27.847  25.564  1.00  0.00     0.031 C 
ATOM     52  C   UNL A   1      40.293  26.155  28.873  1.00  0.00     0.029 A 
ATOM     53  C   UNL A   1      40.951  27.405  29.219  1.00  0.00     0.049 A 
ATOM     54  H   UNL A   1      42.994  27.822  29.022  1.00  0.00     0.167 HD
ATOM     55  C   UNL A   1      46.899  28.971  27.459  1.00  0.00     0.034 A 
ATOM     56  C   UNL A   1      40.431  28.551  29.745  1.00  0.00     0.034 A 
ATOM     57  C   UNL A   1      47.163  28.661  28.855  1.00  0.00     0.049 A 
ATOM     58  C   UNL A   1      41.574  29.319  30.302  1.00  0.00     0.074 A 
ATOM     59  C   UNL A   1      47.759  27.597  29.512  1.00  0.00     0.029 A 
ATOM     60  N   UNL A   1      46.402  29.295  29.817  1.00  0.00    -0.354 N 
ATOM     61  N   UNL A   1      42.299  28.900  31.304  1.00  0.00    -0.248 NA
ATOM     62  C   UNL A   1      42.226  30.292  29.437  1.00  0.00     0.031 C 
ATOM     63  C   UNL A   1      46.918  27.344  30.637  1.00  0.00     0.029 A 
ATOM     64  C   UNL A   1      45.927  28.327  30.673  1.00  0.00     0.049 A 
ATOM     65  H   UNL A   1      46.232  30.262  29.881  1.00  0.00     0.167 HD
ATOM     66  C   UNL A   1      43.607  29.181  30.939  1.00  0.00     0.074 A 
ATOM     67  C   UNL A   1      43.493  30.129  29.830  1.00  0.00     0.031 C 
ATOM     68  C   UNL A   1      44.648  28.399  31.358  1.00  0.00     0.034 A 
BRANCH  55  69
ATOM     69  C   UNL A   1      46.963  30.390  26.930  1.00  0.00     0.023 A 
ATOM     70  C   UNL A   1      48.231  30.998  26.917  1.00  0.00     0.031 A 
ATOM     71  C   UNL A   1      45.873  31.259  26.688  1.00  0.00     0.131 A 
ATOM     72  C   UNL A   1      48.368  32.390  26.803  1.00  0.00     0.055 A 
ATOM     73  C   UNL A   1      46.020  32.636  26.500  1.00  0.00     0.041 A 
ATOM     74  F   UNL A   1      44.596  30.860  26.702  1.00  0.00    -0.206 F 
ATOM     75  C   UNL A   1      47.270  33.217  26.595  1.00  0.00     0.022 A 
BRANCH  72  76
ATOM     76  S   UNL A   1      49.995  33.111  27.124  1.00  0.00     0.124 S 
ATOM     77  O   UNL A   1      49.632  34.377  27.751  1.00  0.00    -0.237 OA
ATOM     78  O   UNL A   1      50.598  32.108  27.996  1.00  0.00    -0.237 OA
ATOM     79  O   UNL A   1      50.586  33.216  25.792  1.00  0.00    -0.744 OA
ENDBRANCH  72  76
ENDBRANCH  55  69
BRANCH  56  80
ATOM     80  C   UNL A   1      39.112  29.175  29.419  1.00  0.00     0.023 A 
ATOM     81  C   UNL A   1      38.307  29.843  30.371  1.00  0.00     0.031 A 
ATOM     82  C   UNL A   1      38.748  29.337  28.063  1.00  0.00     0.131 A 
ATOM     83  C   UNL A   1      37.205  30.629  29.949  1.00  0.00     0.055 A 
ATOM     84  C   UNL A   1      37.665  30.119  27.654  1.00  0.00     0.041 A 
ATOM     85  F   UNL A   1      39.495  28.816  27.077  1.00  0.00    -0.206 F 
ATOM     86  C   UNL A   1      36.894  30.779  28.596  1.00  0.00     0.022 A 
BRANCH  83  87
ATOM     87  S   UNL A   1      36.159  31.504  31.162  1.00  0.00     0.124 S 
ATOM     88  O   UNL A   1      37.042  32.569  31.624  1.00  0.00    -0.237 OA
ATOM     89  O   UNL A   1      35.015  31.911  30.354  1.00  0.00    -0.237 OA
ATOM     90  O   UNL A   1      35.866  30.478  32.164  1.00  0.00    -0.744 OA
ENDBRANCH  83  87
ENDBRANCH  56  80
BRANCH  68  91
ATOM     91  C   UNL A   1      44.404  27.391  32.470  1.00  0.00     0.023 A 
ATOM     92  C   UNL A   1      44.326  25.987  32.302  1.00  0.00     0.031 A 
ATOM     93  C   UNL A   1      44.372  27.887  33.786  1.00  0.00     0.131 A 
ATOM     94  C   UNL A   1      44.214  25.145  33.428  1.00  0.00     0.055 A 
ATOM     95  C   UNL A   1      44.284  27.050  34.897  1.00  0.00     0.041 A 
ATOM     96  F   UNL A   1      44.463  29.207  34.018  1.00  0.00    -0.206 F 
ATOM     97  C   UNL A   1      44.199  25.674  34.723  1.00  0.00     0.022 A 
BRANCH  94  98
ATOM     98  S   UNL A   1      44.068  23.336  33.238  1.00  0.00     0.124 S 
ATOM     99  O   UNL A   1      45.380  22.840  33.639  1.00  0.00    -0.237 OA
ATOM    100  O   UNL A   1      42.960  23.011  34.131  1.00  0.00    -0.237 OA
ATOM    101  O   UNL A   1      43.767  23.167  31.814  1.00  0.00    -0.744 OA
ENDBRANCH  94  98
ENDBRANCH  68  91
ENDBRANCH  42  43
ENDBRANCH  34  37
ENDBRANCH  32  33
ENDBRANCH   1  32
TORSDOF 15
ENDMDL
