MODEL 1
REMARK VINA RESULT:     -11.5      0.000      0.000
REMARK SMILES COC[C@H](C)Oc1cnc2ccccc2c1C(=O)NCCCCNC(=O)c1ccc(-c2c3nc(c(-c4cc(S(=O)(=O)[O-])ccc4F)c4ccc([nH]4)c(-c4cc(S(=O)(=O)[O-])ccc4F)c4nc(c(-c5cc(S(=O)(=O)[O-])ccc5F)c5ccc2[nH]5)C=C4)C=C3)cc1
REMARK SMILES IDX 21 1 20 2 19 3 17 4 18 5 16 7 7 8 8 9 9 10 15 11 10 12 14 13
REMARK SMILES IDX 11 14 13 15 12 16 6 17 4 18 5 19 3 20 2 21 1 22 22 23 23 24
REMARK SMILES IDX 24 25 25 26 26 28 27 29 28 30 89 31 29 32 88 33 30 34 31 35
REMARK SMILES IDX 32 36 82 37 33 38 87 39 81 40 83 41 34 42 86 43 80 44 79 45
REMARK SMILES IDX 35 47 67 48 47 49 66 50 48 51 51 52 65 53 84 54 49 55 50 56
REMARK SMILES IDX 64 58 85 59 52 60 36 61 37 62 45 63 38 64 44 65 46 66 43 67
REMARK SMILES IDX 39 68 40 69 41 70 42 71 68 72 69 73 77 74 70 75 76 76 78 77
REMARK SMILES IDX 75 78 71 79 72 80 73 81 74 82 53 83 54 84 62 85 55 86 61 87
REMARK SMILES IDX 63 88 60 89 56 90 57 91 58 92 59 93
REMARK H PARENT 19 6 24 27 83 46 51 57
REMARK Flexibility Score: inf
ROOT
ATOM      1  C   UNL A   1      32.306  29.690  27.096  1.00  0.00     0.023 C 
ENDROOT
BRANCH   1   2
ATOM      2  C   UNL A   1      33.452  28.959  26.373  1.00  0.00     0.116 C 
BRANCH   2   3
ATOM      3  N   UNL A   1      33.439  29.339  24.971  1.00  0.00    -0.352 N 
ATOM      4  C   UNL A   1      32.746  28.972  23.841  1.00  0.00     0.255 C 
ATOM      5  O   UNL A   1      33.326  29.306  22.802  1.00  0.00    -0.269 OA
ATOM      6  H   UNL A   1      34.098  30.045  24.779  1.00  0.00     0.163 HD
BRANCH   4   7
ATOM      7  C   UNL A   1      31.371  28.336  23.764  1.00  0.00     0.092 A 
ATOM      8  C   UNL A   1      31.343  26.923  23.871  1.00  0.00     0.151 A 
ATOM      9  C   UNL A   1      30.132  26.274  23.720  1.00  0.00     0.159 A 
ATOM     10  N   UNL A   1      28.970  26.888  23.429  1.00  0.00    -0.252 NA
ATOM     11  C   UNL A   1      30.119  29.009  23.606  1.00  0.00     0.017 A 
ATOM     12  C   UNL A   1      28.967  28.218  23.378  1.00  0.00     0.071 A 
ATOM     13  C   UNL A   1      29.884  30.393  23.735  1.00  0.00     0.011 A 
ATOM     14  C   UNL A   1      27.740  28.817  23.125  1.00  0.00     0.029 A 
ATOM     15  C   UNL A   1      28.658  30.995  23.445  1.00  0.00     0.001 A 
ATOM     16  C   UNL A   1      27.580  30.199  23.114  1.00  0.00     0.002 A 
BRANCH   8  17
ATOM     17  O   UNL A   1      32.462  26.248  24.261  1.00  0.00    -0.486 OA
BRANCH  17  18
ATOM     18  C   UNL A   1      33.117  25.285  23.423  1.00  0.00     0.196 C 
ATOM     19  C   UNL A   1      33.243  25.798  21.990  1.00  0.00     0.055 C 
BRANCH  18  20
ATOM     20  C   UNL A   1      34.372  24.629  24.030  1.00  0.00     0.204 C 
BRANCH  20  21
ATOM     21  O   UNL A   1      35.088  23.838  23.077  1.00  0.00    -0.381 OA
ATOM     22  C   UNL A   1      35.740  22.724  23.677  1.00  0.00     0.195 C 
ENDBRANCH  20  21
ENDBRANCH  18  20
ENDBRANCH  17  18
ENDBRANCH   8  17
ENDBRANCH   4   7
ENDBRANCH   2   3
ENDBRANCH   1   2
BRANCH   1  23
ATOM     23  C   UNL A   1      32.147  31.174  26.786  1.00  0.00     0.023 C 
BRANCH  23  24
ATOM     24  C   UNL A   1      33.218  32.065  27.393  1.00  0.00     0.116 C 
BRANCH  24  25
ATOM     25  N   UNL A   1      32.797  33.447  27.593  1.00  0.00    -0.352 N 
ATOM     26  C   UNL A   1      33.284  34.369  28.490  1.00  0.00     0.251 C 
ATOM     27  H   UNL A   1      32.069  33.761  27.009  1.00  0.00     0.163 HD
ATOM     28  O   UNL A   1      32.765  35.477  28.576  1.00  0.00    -0.269 OA
BRANCH  26  29
ATOM     29  C   UNL A   1      34.395  33.978  29.380  1.00  0.00     0.039 A 
ATOM     30  C   UNL A   1      34.114  33.220  30.517  1.00  0.00     0.014 A 
ATOM     31  C   UNL A   1      35.714  34.280  29.034  1.00  0.00     0.014 A 
ATOM     32  C   UNL A   1      35.169  32.690  31.261  1.00  0.00     0.010 A 
ATOM     33  C   UNL A   1      36.757  33.667  29.714  1.00  0.00     0.010 A 
ATOM     34  C   UNL A   1      36.495  32.869  30.836  1.00  0.00    -0.014 A 
BRANCH  34  35
ATOM     35  C   UNL A   1      37.623  32.226  31.555  1.00  0.00     0.031 A 
ATOM     36  C   UNL A   1      38.404  31.122  30.897  1.00  0.00     0.074 A 
ATOM     37  C   UNL A   1      37.899  32.594  32.821  1.00  0.00     0.049 A 
ATOM     38  N   UNL A   1      39.409  30.427  31.361  1.00  0.00    -0.248 NA
ATOM     39  C   UNL A   1      37.962  30.719  29.554  1.00  0.00     0.031 C 
ATOM     40  C   UNL A   1      37.162  33.602  33.589  1.00  0.00     0.029 A 
ATOM     41  N   UNL A   1      38.875  32.169  33.684  1.00  0.00    -0.354 N 
ATOM     42  C   UNL A   1      39.711  29.495  30.374  1.00  0.00     0.074 A 
ATOM     43  C   UNL A   1      38.721  29.659  29.331  1.00  0.00     0.031 C 
ATOM     44  C   UNL A   1      37.748  33.756  34.788  1.00  0.00     0.029 A 
ATOM     45  C   UNL A   1      38.875  32.835  34.887  1.00  0.00     0.049 A 
ATOM     46  H   UNL A   1      39.514  31.454  33.464  1.00  0.00     0.167 HD
ATOM     47  C   UNL A   1      40.740  28.612  30.323  1.00  0.00     0.034 A 
ATOM     48  C   UNL A   1      39.704  32.726  35.942  1.00  0.00     0.034 A 
ATOM     49  C   UNL A   1      41.720  28.475  31.372  1.00  0.00     0.049 A 
ATOM     50  C   UNL A   1      40.839  31.739  35.871  1.00  0.00     0.074 A 
ATOM     51  C   UNL A   1      42.842  27.666  31.409  1.00  0.00     0.029 A 
ATOM     52  N   UNL A   1      41.688  29.161  32.582  1.00  0.00    -0.354 N 
ATOM     53  N   UNL A   1      41.161  30.915  34.900  1.00  0.00    -0.248 NA
ATOM     54  C   UNL A   1      41.728  31.680  37.035  1.00  0.00     0.031 C 
ATOM     55  C   UNL A   1      43.450  27.815  32.663  1.00  0.00     0.029 A 
ATOM     56  C   UNL A   1      42.751  28.771  33.384  1.00  0.00     0.049 A 
ATOM     57  H   UNL A   1      41.009  29.828  32.832  1.00  0.00     0.167 HD
ATOM     58  C   UNL A   1      42.310  30.258  35.327  1.00  0.00     0.074 A 
ATOM     59  C   UNL A   1      42.631  30.798  36.635  1.00  0.00     0.031 C 
ATOM     60  C   UNL A   1      43.038  29.298  34.698  1.00  0.00     0.034 A 
BRANCH  47  61
ATOM     61  C   UNL A   1      40.819  27.724  29.100  1.00  0.00     0.023 A 
ATOM     62  C   UNL A   1      41.753  27.966  28.076  1.00  0.00     0.031 A 
ATOM     63  C   UNL A   1      39.899  26.680  28.911  1.00  0.00     0.131 A 
ATOM     64  C   UNL A   1      41.668  27.261  26.865  1.00  0.00     0.055 A 
ATOM     65  C   UNL A   1      39.885  25.912  27.744  1.00  0.00     0.041 A 
ATOM     66  F   UNL A   1      38.970  26.409  29.841  1.00  0.00    -0.206 F 
ATOM     67  C   UNL A   1      40.757  26.217  26.702  1.00  0.00     0.022 A 
BRANCH  64  68
ATOM     68  S   UNL A   1      42.621  27.869  25.446  1.00  0.00     0.124 S 
ATOM     69  O   UNL A   1      43.884  28.244  26.076  1.00  0.00    -0.237 OA
ATOM     70  O   UNL A   1      42.664  26.703  24.571  1.00  0.00    -0.237 OA
ATOM     71  O   UNL A   1      41.823  28.991  24.953  1.00  0.00    -0.744 OA
ENDBRANCH  64  68
ENDBRANCH  47  61
BRANCH  48  72
ATOM     72  C   UNL A   1      39.520  33.595  37.136  1.00  0.00     0.023 A 
ATOM     73  C   UNL A   1      38.985  33.074  38.324  1.00  0.00     0.031 A 
ATOM     74  C   UNL A   1      39.858  34.959  37.104  1.00  0.00     0.131 A 
ATOM     75  C   UNL A   1      38.770  33.918  39.424  1.00  0.00     0.055 A 
ATOM     76  C   UNL A   1      39.681  35.787  38.214  1.00  0.00     0.041 A 
ATOM     77  F   UNL A   1      40.385  35.503  35.995  1.00  0.00    -0.206 F 
ATOM     78  C   UNL A   1      39.124  35.269  39.381  1.00  0.00     0.022 A 
BRANCH  75  79
ATOM     79  S   UNL A   1      37.973  33.233  40.902  1.00  0.00     0.124 S 
ATOM     80  O   UNL A   1      38.628  31.937  41.020  1.00  0.00    -0.237 OA
ATOM     81  O   UNL A   1      38.317  34.222  41.919  1.00  0.00    -0.237 OA
ATOM     82  O   UNL A   1      36.558  33.190  40.536  1.00  0.00    -0.744 OA
ENDBRANCH  75  79
ENDBRANCH  48  72
BRANCH  60  83
ATOM     83  C   UNL A   1      44.266  28.802  35.422  1.00  0.00     0.023 A 
ATOM     84  C   UNL A   1      44.190  27.782  36.387  1.00  0.00     0.031 A 
ATOM     85  C   UNL A   1      45.520  29.387  35.177  1.00  0.00     0.131 A 
ATOM     86  C   UNL A   1      45.331  27.431  37.125  1.00  0.00     0.055 A 
ATOM     87  C   UNL A   1      46.666  28.987  35.865  1.00  0.00     0.041 A 
ATOM     88  F   UNL A   1      45.651  30.367  34.268  1.00  0.00    -0.206 F 
ATOM     89  C   UNL A   1      46.572  28.015  36.858  1.00  0.00     0.022 A 
BRANCH  86  90
ATOM     90  S   UNL A   1      45.145  26.288  38.521  1.00  0.00     0.124 S 
ATOM     91  O   UNL A   1      46.176  26.760  39.439  1.00  0.00    -0.237 OA
ATOM     92  O   UNL A   1      43.766  26.525  38.936  1.00  0.00    -0.237 OA
ATOM     93  O   UNL A   1      45.397  24.977  37.927  1.00  0.00    -0.744 OA
ENDBRANCH  86  90
ENDBRANCH  60  83
ENDBRANCH  34  35
ENDBRANCH  26  29
ENDBRANCH  24  25
ENDBRANCH  23  24
ENDBRANCH   1  23
TORSDOF 18
ENDMDL
MODEL 2
REMARK VINA RESULT:     -11.5      3.029      8.764
REMARK SMILES COC[C@H](C)Oc1cnc2ccccc2c1C(=O)NCCCCNC(=O)c1ccc(-c2c3nc(c(-c4cc(S(=O)(=O)[O-])ccc4F)c4ccc([nH]4)c(-c4cc(S(=O)(=O)[O-])ccc4F)c4nc(c(-c5cc(S(=O)(=O)[O-])ccc5F)c5ccc2[nH]5)C=C4)C=C3)cc1
REMARK SMILES IDX 21 1 20 2 19 3 17 4 18 5 16 7 7 8 8 9 9 10 15 11 10 12 14 13
REMARK SMILES IDX 11 14 13 15 12 16 6 17 4 18 5 19 3 20 2 21 1 22 22 23 23 24
REMARK SMILES IDX 24 25 25 26 26 28 27 29 28 30 89 31 29 32 88 33 30 34 31 35
REMARK SMILES IDX 32 36 82 37 33 38 87 39 81 40 83 41 34 42 86 43 80 44 79 45
REMARK SMILES IDX 35 47 67 48 47 49 66 50 48 51 51 52 65 53 84 54 49 55 50 56
REMARK SMILES IDX 64 58 85 59 52 60 36 61 37 62 45 63 38 64 44 65 46 66 43 67
REMARK SMILES IDX 39 68 40 69 41 70 42 71 68 72 69 73 77 74 70 75 76 76 78 77
REMARK SMILES IDX 75 78 71 79 72 80 73 81 74 82 53 83 54 84 62 85 55 86 61 87
REMARK SMILES IDX 63 88 60 89 56 90 57 91 58 92 59 93
REMARK H PARENT 19 6 24 27 83 46 51 57
REMARK Flexibility Score: inf
ROOT
ATOM      1  C   UNL A   1      32.430  28.199  27.422  1.00  0.00     0.023 C 
ENDROOT
BRANCH   1   2
ATOM      2  C   UNL A   1      31.207  27.824  26.564  1.00  0.00     0.116 C 
BRANCH   2   3
ATOM      3  N   UNL A   1      30.981  26.393  26.673  1.00  0.00    -0.352 N 
ATOM      4  C   UNL A   1      31.175  25.286  25.880  1.00  0.00     0.255 C 
ATOM      5  O   UNL A   1      30.495  24.320  26.243  1.00  0.00    -0.269 OA
ATOM      6  H   UNL A   1      30.584  26.153  27.541  1.00  0.00     0.163 HD
BRANCH   4   7
ATOM      7  C   UNL A   1      32.167  25.122  24.744  1.00  0.00     0.092 A 
ATOM      8  C   UNL A   1      31.733  25.591  23.480  1.00  0.00     0.151 A 
ATOM      9  C   UNL A   1      32.554  25.391  22.385  1.00  0.00     0.159 A 
ATOM     10  N   UNL A   1      33.729  24.737  22.424  1.00  0.00    -0.252 NA
ATOM     11  C   UNL A   1      33.480  24.560  24.823  1.00  0.00     0.017 A 
ATOM     12  C   UNL A   1      34.178  24.337  23.612  1.00  0.00     0.071 A 
ATOM     13  C   UNL A   1      34.205  24.273  25.999  1.00  0.00     0.011 A 
ATOM     14  C   UNL A   1      35.417  23.709  23.617  1.00  0.00     0.029 A 
ATOM     15  C   UNL A   1      35.434  23.610  26.000  1.00  0.00     0.001 A 
ATOM     16  C   UNL A   1      36.035  23.305  24.796  1.00  0.00     0.002 A 
BRANCH   8  17
ATOM     17  O   UNL A   1      30.603  26.348  23.386  1.00  0.00    -0.486 OA
BRANCH  17  18
ATOM     18  C   UNL A   1      30.611  27.696  22.898  1.00  0.00     0.196 C 
ATOM     19  C   UNL A   1      29.206  28.296  22.916  1.00  0.00     0.055 C 
BRANCH  18  20
ATOM     20  C   UNL A   1      31.745  28.588  23.442  1.00  0.00     0.204 C 
BRANCH  20  21
ATOM     21  O   UNL A   1      32.648  29.007  22.415  1.00  0.00    -0.381 OA
ATOM     22  C   UNL A   1      34.004  28.720  22.736  1.00  0.00     0.195 C 
ENDBRANCH  20  21
ENDBRANCH  18  20
ENDBRANCH  17  18
ENDBRANCH   8  17
ENDBRANCH   4   7
ENDBRANCH   2   3
ENDBRANCH   1   2
BRANCH   1  23
ATOM     23  C   UNL A   1      33.797  27.917  26.811  1.00  0.00     0.023 C 
BRANCH  23  24
ATOM     24  C   UNL A   1      34.498  29.138  26.241  1.00  0.00     0.116 C 
BRANCH  24  25
ATOM     25  N   UNL A   1      33.949  30.409  26.701  1.00  0.00    -0.352 N 
ATOM     26  C   UNL A   1      34.416  31.232  27.698  1.00  0.00     0.251 C 
ATOM     27  H   UNL A   1      33.138  30.717  26.236  1.00  0.00     0.163 HD
ATOM     28  O   UNL A   1      33.787  32.240  28.008  1.00  0.00    -0.269 OA
BRANCH  26  29
ATOM     29  C   UNL A   1      35.643  30.849  28.422  1.00  0.00     0.039 A 
ATOM     30  C   UNL A   1      35.572  29.844  29.387  1.00  0.00     0.014 A 
ATOM     31  C   UNL A   1      36.872  31.416  28.075  1.00  0.00     0.014 A 
ATOM     32  C   UNL A   1      36.752  29.346  29.941  1.00  0.00     0.010 A 
ATOM     33  C   UNL A   1      38.046  30.850  28.550  1.00  0.00     0.010 A 
ATOM     34  C   UNL A   1      37.998  29.811  29.490  1.00  0.00    -0.014 A 
BRANCH  34  35
ATOM     35  C   UNL A   1      39.264  29.221  29.992  1.00  0.00     0.031 A 
ATOM     36  C   UNL A   1      39.892  29.748  31.252  1.00  0.00     0.074 A 
ATOM     37  C   UNL A   1      39.876  28.257  29.276  1.00  0.00     0.049 A 
ATOM     38  N   UNL A   1      40.998  29.378  31.844  1.00  0.00    -0.248 NA
ATOM     39  C   UNL A   1      39.205  30.870  31.906  1.00  0.00     0.031 C 
ATOM     40  C   UNL A   1      39.399  27.718  28.000  1.00  0.00     0.029 A 
ATOM     41  N   UNL A   1      41.027  27.556  29.522  1.00  0.00    -0.354 N 
ATOM     42  C   UNL A   1      41.146  30.232  32.932  1.00  0.00     0.074 A 
ATOM     43  C   UNL A   1      40.065  31.192  32.858  1.00  0.00     0.031 C 
ATOM     44  C   UNL A   1      40.220  26.733  27.604  1.00  0.00     0.029 A 
ATOM     45  C   UNL A   1      41.299  26.595  28.577  1.00  0.00     0.049 A 
ATOM     46  H   UNL A   1      41.605  27.724  30.301  1.00  0.00     0.167 HD
ATOM     47  C   UNL A   1      42.073  30.196  33.922  1.00  0.00     0.034 A 
ATOM     48  C   UNL A   1      42.298  25.694  28.513  1.00  0.00     0.034 A 
ATOM     49  C   UNL A   1      43.136  29.222  33.979  1.00  0.00     0.049 A 
ATOM     50  C   UNL A   1      43.320  25.670  29.618  1.00  0.00     0.074 A 
ATOM     51  C   UNL A   1      44.094  29.042  34.960  1.00  0.00     0.029 A 
ATOM     52  N   UNL A   1      43.388  28.265  33.001  1.00  0.00    -0.354 N 
ATOM     53  N   UNL A   1      43.407  26.432  30.684  1.00  0.00    -0.248 NA
ATOM     54  C   UNL A   1      44.369  24.650  29.516  1.00  0.00     0.031 C 
ATOM     55  C   UNL A   1      44.961  28.021  34.545  1.00  0.00     0.029 A 
ATOM     56  C   UNL A   1      44.504  27.514  33.340  1.00  0.00     0.049 A 
ATOM     57  H   UNL A   1      42.850  28.139  32.186  1.00  0.00     0.167 HD
ATOM     58  C   UNL A   1      44.509  25.966  31.394  1.00  0.00     0.074 A 
ATOM     59  C   UNL A   1      45.038  24.844  30.641  1.00  0.00     0.031 C 
ATOM     60  C   UNL A   1      45.035  26.418  32.562  1.00  0.00     0.034 A 
BRANCH  47  61
ATOM     61  C   UNL A   1      41.973  31.261  34.992  1.00  0.00     0.023 A 
ATOM     62  C   UNL A   1      40.900  31.289  35.903  1.00  0.00     0.031 A 
ATOM     63  C   UNL A   1      42.906  32.310  35.051  1.00  0.00     0.131 A 
ATOM     64  C   UNL A   1      40.720  32.398  36.745  1.00  0.00     0.055 A 
ATOM     65  C   UNL A   1      42.777  33.361  35.962  1.00  0.00     0.041 A 
ATOM     66  F   UNL A   1      43.942  32.353  34.198  1.00  0.00    -0.206 F 
ATOM     67  C   UNL A   1      41.666  33.422  36.799  1.00  0.00     0.022 A 
BRANCH  64  68
ATOM     68  S   UNL A   1      39.133  32.576  37.606  1.00  0.00     0.124 S 
ATOM     69  O   UNL A   1      39.566  32.763  38.988  1.00  0.00    -0.237 OA
ATOM     70  O   UNL A   1      38.550  33.744  36.955  1.00  0.00    -0.237 OA
ATOM     71  O   UNL A   1      38.454  31.308  37.340  1.00  0.00    -0.744 OA
ENDBRANCH  64  68
ENDBRANCH  47  61
BRANCH  48  72
ATOM     72  C   UNL A   1      42.360  24.718  27.392  1.00  0.00     0.023 A 
ATOM     73  C   UNL A   1      41.619  23.526  27.440  1.00  0.00     0.031 A 
ATOM     74  C   UNL A   1      43.168  24.950  26.266  1.00  0.00     0.131 A 
ATOM     75  C   UNL A   1      41.728  22.592  26.399  1.00  0.00     0.055 A 
ATOM     76  C   UNL A   1      43.242  24.037  25.212  1.00  0.00     0.041 A 
ATOM     77  F   UNL A   1      43.885  26.080  26.166  1.00  0.00    -0.206 F 
ATOM     78  C   UNL A   1      42.526  22.844  25.280  1.00  0.00     0.022 A 
BRANCH  75  79
ATOM     79  S   UNL A   1      40.846  21.015  26.551  1.00  0.00     0.124 S 
ATOM     80  O   UNL A   1      40.868  20.799  27.993  1.00  0.00    -0.237 OA
ATOM     81  O   UNL A   1      39.546  21.336  25.970  1.00  0.00    -0.237 OA
ATOM     82  O   UNL A   1      41.663  20.091  25.767  1.00  0.00    -0.744 OA
ENDBRANCH  75  79
ENDBRANCH  48  72
BRANCH  60  83
ATOM     83  C   UNL A   1      46.231  25.669  33.097  1.00  0.00     0.023 A 
ATOM     84  C   UNL A   1      46.084  24.521  33.897  1.00  0.00     0.031 A 
ATOM     85  C   UNL A   1      47.533  26.135  32.843  1.00  0.00     0.131 A 
ATOM     86  C   UNL A   1      47.214  23.922  34.475  1.00  0.00     0.055 A 
ATOM     87  C   UNL A   1      48.658  25.495  33.365  1.00  0.00     0.041 A 
ATOM     88  F   UNL A   1      47.733  27.227  32.089  1.00  0.00    -0.206 F 
ATOM     89  C   UNL A   1      48.501  24.392  34.201  1.00  0.00     0.022 A 
BRANCH  86  90
ATOM     90  S   UNL A   1      46.968  22.597  35.688  1.00  0.00     0.124 S 
ATOM     91  O   UNL A   1      48.331  22.344  36.143  1.00  0.00    -0.237 OA
ATOM     92  O   UNL A   1      46.079  23.225  36.660  1.00  0.00    -0.237 OA
ATOM     93  O   UNL A   1      46.366  21.520  34.904  1.00  0.00    -0.744 OA
ENDBRANCH  86  90
ENDBRANCH  60  83
ENDBRANCH  34  35
ENDBRANCH  26  29
ENDBRANCH  24  25
ENDBRANCH  23  24
ENDBRANCH   1  23
TORSDOF 18
ENDMDL
MODEL 3
REMARK VINA RESULT:     -11.5      2.389      8.526
REMARK SMILES COC[C@H](C)Oc1cnc2ccccc2c1C(=O)NCCCCNC(=O)c1ccc(-c2c3nc(c(-c4cc(S(=O)(=O)[O-])ccc4F)c4ccc([nH]4)c(-c4cc(S(=O)(=O)[O-])ccc4F)c4nc(c(-c5cc(S(=O)(=O)[O-])ccc5F)c5ccc2[nH]5)C=C4)C=C3)cc1
REMARK SMILES IDX 21 1 20 2 19 3 17 4 18 5 16 7 7 8 8 9 9 10 15 11 10 12 14 13
REMARK SMILES IDX 11 14 13 15 12 16 6 17 4 18 5 19 3 20 2 21 1 22 22 23 23 24
REMARK SMILES IDX 24 25 25 26 26 28 27 29 28 30 89 31 29 32 88 33 30 34 31 35
REMARK SMILES IDX 32 36 82 37 33 38 87 39 81 40 83 41 34 42 86 43 80 44 79 45
REMARK SMILES IDX 35 47 67 48 47 49 66 50 48 51 51 52 65 53 84 54 49 55 50 56
REMARK SMILES IDX 64 58 85 59 52 60 36 61 37 62 45 63 38 64 44 65 46 66 43 67
REMARK SMILES IDX 39 68 40 69 41 70 42 71 68 72 69 73 77 74 70 75 76 76 78 77
REMARK SMILES IDX 75 78 71 79 72 80 73 81 74 82 53 83 54 84 62 85 55 86 61 87
REMARK SMILES IDX 63 88 60 89 56 90 57 91 58 92 59 93
REMARK H PARENT 19 6 24 27 83 46 51 57
REMARK Flexibility Score: inf
ROOT
ATOM      1  C   UNL A   1      33.410  29.125  24.825  1.00  0.00     0.023 C 
ENDROOT
BRANCH   1   2
ATOM      2  C   UNL A   1      33.803  27.637  24.782  1.00  0.00     0.116 C 
BRANCH   2   3
ATOM      3  N   UNL A   1      33.598  27.137  23.434  1.00  0.00    -0.352 N 
ATOM      4  C   UNL A   1      33.550  25.908  22.819  1.00  0.00     0.255 C 
ATOM      5  O   UNL A   1      33.716  25.985  21.597  1.00  0.00    -0.269 OA
ATOM      6  H   UNL A   1      33.456  27.870  22.792  1.00  0.00     0.163 HD
BRANCH   4   7
ATOM      7  C   UNL A   1      33.221  24.568  23.450  1.00  0.00     0.092 A 
ATOM      8  C   UNL A   1      31.854  24.358  23.761  1.00  0.00     0.151 A 
ATOM      9  C   UNL A   1      31.501  23.194  24.419  1.00  0.00     0.159 A 
ATOM     10  N   UNL A   1      32.373  22.257  24.832  1.00  0.00    -0.252 NA
ATOM     11  C   UNL A   1      34.135  23.510  23.750  1.00  0.00     0.017 A 
ATOM     12  C   UNL A   1      33.653  22.412  24.502  1.00  0.00     0.071 A 
ATOM     13  C   UNL A   1      35.468  23.396  23.302  1.00  0.00     0.011 A 
ATOM     14  C   UNL A   1      34.515  21.399  24.903  1.00  0.00     0.029 A 
ATOM     15  C   UNL A   1      36.341  22.396  23.736  1.00  0.00     0.001 A 
ATOM     16  C   UNL A   1      35.864  21.400  24.564  1.00  0.00     0.002 A 
BRANCH   8  17
ATOM     17  O   UNL A   1      30.909  25.217  23.286  1.00  0.00    -0.486 OA
BRANCH  17  18
ATOM     18  C   UNL A   1      30.055  25.982  24.148  1.00  0.00     0.196 C 
ATOM     19  C   UNL A   1      30.455  25.809  25.612  1.00  0.00     0.055 C 
BRANCH  18  20
ATOM     20  C   UNL A   1      29.766  27.423  23.681  1.00  0.00     0.204 C 
BRANCH  20  21
ATOM     21  O   UNL A   1      30.746  27.901  22.754  1.00  0.00    -0.381 OA
ATOM     22  C   UNL A   1      30.423  29.187  22.240  1.00  0.00     0.195 C 
ENDBRANCH  20  21
ENDBRANCH  18  20
ENDBRANCH  17  18
ENDBRANCH   8  17
ENDBRANCH   4   7
ENDBRANCH   2   3
ENDBRANCH   1   2
BRANCH   1  23
ATOM     23  C   UNL A   1      32.164  29.473  25.631  1.00  0.00     0.023 C 
BRANCH  23  24
ATOM     24  C   UNL A   1      32.441  29.998  27.029  1.00  0.00     0.116 C 
BRANCH  24  25
ATOM     25  N   UNL A   1      32.436  31.453  27.130  1.00  0.00    -0.352 N 
ATOM     26  C   UNL A   1      33.446  32.287  27.548  1.00  0.00     0.251 C 
ATOM     27  H   UNL A   1      31.598  31.897  26.863  1.00  0.00     0.163 HD
ATOM     28  O   UNL A   1      33.249  33.495  27.640  1.00  0.00    -0.269 OA
BRANCH  26  29
ATOM     29  C   UNL A   1      34.741  31.696  27.938  1.00  0.00     0.039 A 
ATOM     30  C   UNL A   1      35.867  32.517  27.998  1.00  0.00     0.014 A 
ATOM     31  C   UNL A   1      34.813  30.359  28.336  1.00  0.00     0.014 A 
ATOM     32  C   UNL A   1      37.050  32.015  28.542  1.00  0.00     0.010 A 
ATOM     33  C   UNL A   1      35.957  29.894  28.970  1.00  0.00     0.010 A 
ATOM     34  C   UNL A   1      37.088  30.716  29.077  1.00  0.00    -0.014 A 
BRANCH  34  35
ATOM     35  C   UNL A   1      38.304  30.201  29.753  1.00  0.00     0.031 A 
ATOM     36  C   UNL A   1      38.643  30.659  31.144  1.00  0.00     0.074 A 
ATOM     37  C   UNL A   1      39.133  29.373  29.087  1.00  0.00     0.049 A 
ATOM     38  N   UNL A   1      39.664  30.340  31.896  1.00  0.00    -0.248 NA
ATOM     39  C   UNL A   1      37.735  31.644  31.748  1.00  0.00     0.031 C 
ATOM     40  C   UNL A   1      38.946  28.919  27.706  1.00  0.00     0.029 A 
ATOM     41  N   UNL A   1      40.294  28.762  29.482  1.00  0.00    -0.354 N 
ATOM     42  C   UNL A   1      39.527  31.093  33.057  1.00  0.00     0.074 A 
ATOM     43  C   UNL A   1      38.377  31.950  32.863  1.00  0.00     0.031 C 
ATOM     44  C   UNL A   1      39.927  28.058  27.390  1.00  0.00     0.029 A 
ATOM     45  C   UNL A   1      40.829  27.927  28.529  1.00  0.00     0.049 A 
ATOM     46  H   UNL A   1      40.706  28.908  30.364  1.00  0.00     0.167 HD
ATOM     47  C   UNL A   1      40.267  31.048  34.193  1.00  0.00     0.034 A 
ATOM     48  C   UNL A   1      41.916  27.135  28.578  1.00  0.00     0.034 A 
ATOM     49  C   UNL A   1      41.404  30.178  34.366  1.00  0.00     0.049 A 
ATOM     50  C   UNL A   1      42.728  27.099  29.845  1.00  0.00     0.074 A 
ATOM     51  C   UNL A   1      42.192  29.993  35.488  1.00  0.00     0.029 A 
ATOM     52  N   UNL A   1      41.924  29.348  33.377  1.00  0.00    -0.354 N 
ATOM     53  N   UNL A   1      42.545  27.759  30.966  1.00  0.00    -0.248 NA
ATOM     54  C   UNL A   1      43.884  26.197  29.855  1.00  0.00     0.031 C 
ATOM     55  C   UNL A   1      43.224  29.103  35.159  1.00  0.00     0.029 A 
ATOM     56  C   UNL A   1      43.040  28.675  33.854  1.00  0.00     0.049 A 
ATOM     57  H   UNL A   1      41.553  29.252  32.471  1.00  0.00     0.167 HD
ATOM     58  C   UNL A   1      43.552  27.331  31.825  1.00  0.00     0.074 A 
ATOM     59  C   UNL A   1      44.323  26.342  31.096  1.00  0.00     0.031 C 
ATOM     60  C   UNL A   1      43.815  27.715  33.102  1.00  0.00     0.034 A 
BRANCH  47  61
ATOM     61  C   UNL A   1      39.867  31.991  35.308  1.00  0.00     0.023 A 
ATOM     62  C   UNL A   1      39.137  31.540  36.424  1.00  0.00     0.031 A 
ATOM     63  C   UNL A   1      40.138  33.366  35.217  1.00  0.00     0.131 A 
ATOM     64  C   UNL A   1      38.601  32.465  37.334  1.00  0.00     0.055 A 
ATOM     65  C   UNL A   1      39.689  34.271  36.182  1.00  0.00     0.041 A 
ATOM     66  F   UNL A   1      40.814  33.863  34.169  1.00  0.00    -0.206 F 
ATOM     67  C   UNL A   1      38.894  33.826  37.235  1.00  0.00     0.022 A 
BRANCH  64  68
ATOM     68  S   UNL A   1      37.352  31.886  38.516  1.00  0.00     0.124 S 
ATOM     69  O   UNL A   1      37.091  30.533  38.031  1.00  0.00    -0.237 OA
ATOM     70  O   UNL A   1      38.054  31.985  39.790  1.00  0.00    -0.237 OA
ATOM     71  O   UNL A   1      36.247  32.826  38.335  1.00  0.00    -0.744 OA
ENDBRANCH  64  68
ENDBRANCH  47  61
BRANCH  48  72
ATOM     72  C   UNL A   1      42.278  26.282  27.413  1.00  0.00     0.023 A 
ATOM     73  C   UNL A   1      41.894  24.933  27.369  1.00  0.00     0.031 A 
ATOM     74  C   UNL A   1      43.024  26.794  26.338  1.00  0.00     0.131 A 
ATOM     75  C   UNL A   1      42.287  24.129  26.288  1.00  0.00     0.055 A 
ATOM     76  C   UNL A   1      43.377  26.002  25.244  1.00  0.00     0.041 A 
ATOM     77  F   UNL A   1      43.404  28.081  26.327  1.00  0.00    -0.206 F 
ATOM     78  C   UNL A   1      43.017  24.656  25.220  1.00  0.00     0.022 A 
BRANCH  75  79
ATOM     79  S   UNL A   1      41.870  22.364  26.322  1.00  0.00     0.124 S 
ATOM     80  O   UNL A   1      42.643  21.853  25.196  1.00  0.00    -0.237 OA
ATOM     81  O   UNL A   1      42.330  21.968  27.649  1.00  0.00    -0.237 OA
ATOM     82  O   UNL A   1      40.419  22.354  26.141  1.00  0.00    -0.744 OA
ENDBRANCH  75  79
ENDBRANCH  48  72
BRANCH  60  83
ATOM     83  C   UNL A   1      44.975  27.032  33.785  1.00  0.00     0.023 A 
ATOM     84  C   UNL A   1      44.803  25.847  34.522  1.00  0.00     0.031 A 
ATOM     85  C   UNL A   1      46.261  27.600  33.739  1.00  0.00     0.131 A 
ATOM     86  C   UNL A   1      45.879  25.308  35.242  1.00  0.00     0.055 A 
ATOM     87  C   UNL A   1      47.344  27.021  34.401  1.00  0.00     0.041 A 
ATOM     88  F   UNL A   1      46.483  28.732  33.053  1.00  0.00    -0.206 F 
ATOM     89  C   UNL A   1      47.152  25.879  35.173  1.00  0.00     0.022 A 
BRANCH  86  90
ATOM     90  S   UNL A   1      45.563  23.922  36.368  1.00  0.00     0.124 S 
ATOM     91  O   UNL A   1      45.007  24.598  37.535  1.00  0.00    -0.237 OA
ATOM     92  O   UNL A   1      44.630  23.103  35.601  1.00  0.00    -0.237 OA
ATOM     93  O   UNL A   1      46.886  23.332  36.566  1.00  0.00    -0.744 OA
ENDBRANCH  86  90
ENDBRANCH  60  83
ENDBRANCH  34  35
ENDBRANCH  26  29
ENDBRANCH  24  25
ENDBRANCH  23  24
ENDBRANCH   1  23
TORSDOF 18
ENDMDL
