MODEL 1
REMARK VINA RESULT:     -11.8      0.000      0.000
REMARK SMILES CC(C)(C(=O)NCCCCNC(=O)c1ccc(-c2c3nc(c(-c4cc(S(=O)(=O)[O-])ccc4F)c4ccc([nH]4)c(-c4cc(S(=O)(=O)[O-])ccc4F)c4nc(c(-c5cc(S(=O)(=O)[O-])ccc5F)c5ccc2[nH]5)C=C4)C=C3)cc1)N1C(=O)/C(=C/c2ccc(C=O)cc2)SC1=S
REMARK SMILES IDX 8 1 7 2 6 3 4 4 5 5 2 7 1 8 3 9 77 10 78 11 91 12 79 13
REMARK SMILES IDX 80 14 90 15 92 16 81 17 82 18 83 19 89 20 84 21 88 22 85 23
REMARK SMILES IDX 86 24 87 25 9 26 10 27 11 28 12 29 13 31 14 32 15 33 76 34
REMARK SMILES IDX 16 35 75 36 17 37 18 38 19 39 69 40 20 41 74 42 68 43 70 44
REMARK SMILES IDX 21 45 73 46 67 47 66 48 22 50 54 51 34 52 53 53 35 54 38 55
REMARK SMILES IDX 52 56 71 57 36 58 37 59 51 61 72 62 39 63 23 64 24 65 32 66
REMARK SMILES IDX 25 67 31 68 33 69 30 70 26 71 27 72 28 73 29 74 55 75 56 76
REMARK SMILES IDX 64 77 57 78 63 79 65 80 62 81 58 82 59 83 60 84 61 85 40 86
REMARK SMILES IDX 41 87 49 88 42 89 48 90 50 91 47 92 43 93 44 94 45 95 46 96
REMARK H PARENT 6 6 11 30 70 49 38 60
REMARK Flexibility Score: inf
ROOT
ATOM      1  C   UNL A   1      31.820  29.231  27.095  1.00  0.00     0.023 C 
ENDROOT
BRANCH   1   2
ATOM      2  C   UNL A   1      32.629  28.159  26.376  1.00  0.00     0.116 C 
BRANCH   2   3
ATOM      3  N   UNL A   1      32.384  28.120  24.946  1.00  0.00    -0.354 N 
ATOM      4  C   UNL A   1      31.641  27.267  24.179  1.00  0.00     0.245 C 
ATOM      5  O   UNL A   1      31.304  27.693  23.068  1.00  0.00    -0.272 OA
ATOM      6  H   UNL A   1      32.832  28.835  24.438  1.00  0.00     0.163 HD
BRANCH   4   7
ATOM      7  C   UNL A   1      31.116  25.891  24.703  1.00  0.00     0.122 C 
ATOM      8  C   UNL A   1      30.121  25.969  25.873  1.00  0.00     0.046 C 
ATOM      9  C   UNL A   1      30.422  25.285  23.451  1.00  0.00     0.046 C 
BRANCH   7  10
ATOM     10  N   UNL A   1      32.298  25.055  25.164  1.00  0.00    -0.278 N 
ATOM     11  C   UNL A   1      33.502  25.120  24.474  1.00  0.00     0.267 C 
ATOM     12  C   UNL A   1      32.221  23.981  26.047  1.00  0.00     0.149 C 
ATOM     13  O   UNL A   1      33.736  25.744  23.446  1.00  0.00    -0.268 OA
ATOM     14  C   UNL A   1      34.511  24.195  25.046  1.00  0.00     0.081 C 
ATOM     15  S   UNL A   1      33.830  23.316  26.339  1.00  0.00    -0.054 SA
ATOM     16  S   UNL A   1      30.894  23.248  26.755  1.00  0.00    -0.052 S 
ATOM     17  C   UNL A   1      35.741  24.104  24.522  1.00  0.00     0.029 C 
BRANCH  17  18
ATOM     18  C   UNL A   1      36.811  23.200  24.953  1.00  0.00    -0.024 A 
ATOM     19  C   UNL A   1      36.825  21.886  24.472  1.00  0.00     0.009 A 
ATOM     20  C   UNL A   1      37.787  23.609  25.870  1.00  0.00     0.009 A 
ATOM     21  C   UNL A   1      37.827  21.001  24.873  1.00  0.00     0.012 A 
ATOM     22  C   UNL A   1      38.795  22.730  26.270  1.00  0.00     0.012 A 
ATOM     23  C   UNL A   1      38.814  21.428  25.764  1.00  0.00     0.014 A 
BRANCH  23  24
ATOM     24  C   UNL A   1      39.891  20.508  26.181  1.00  0.00     0.260 C 
ATOM     25  O   UNL A   1      41.046  20.882  26.336  1.00  0.00    -0.298 OA
ENDBRANCH  23  24
ENDBRANCH  17  18
ENDBRANCH   7  10
ENDBRANCH   4   7
ENDBRANCH   2   3
ENDBRANCH   1   2
BRANCH   1  26
ATOM     26  C   UNL A   1      32.030  30.653  26.572  1.00  0.00     0.023 C 
BRANCH  26  27
ATOM     27  C   UNL A   1      33.107  31.469  27.282  1.00  0.00     0.116 C 
BRANCH  27  28
ATOM     28  N   UNL A   1      32.772  32.878  27.419  1.00  0.00    -0.352 N 
ATOM     29  C   UNL A   1      33.342  33.824  28.238  1.00  0.00     0.251 C 
ATOM     30  H   UNL A   1      32.037  33.198  26.846  1.00  0.00     0.163 HD
ATOM     31  O   UNL A   1      32.861  34.953  28.293  1.00  0.00    -0.269 OA
BRANCH  29  32
ATOM     32  C   UNL A   1      34.502  33.460  29.079  1.00  0.00     0.039 A 
ATOM     33  C   UNL A   1      34.297  32.639  30.191  1.00  0.00     0.014 A 
ATOM     34  C   UNL A   1      35.790  33.891  28.748  1.00  0.00     0.014 A 
ATOM     35  C   UNL A   1      35.394  32.186  30.926  1.00  0.00     0.010 A 
ATOM     36  C   UNL A   1      36.886  33.382  29.440  1.00  0.00     0.010 A 
ATOM     37  C   UNL A   1      36.700  32.519  30.532  1.00  0.00    -0.014 A 
BRANCH  37  38
ATOM     38  C   UNL A   1      37.885  31.971  31.241  1.00  0.00     0.031 A 
ATOM     39  C   UNL A   1      38.707  30.884  30.605  1.00  0.00     0.074 A 
ATOM     40  C   UNL A   1      38.176  32.400  32.486  1.00  0.00     0.049 A 
ATOM     41  N   UNL A   1      39.720  30.216  31.095  1.00  0.00    -0.248 NA
ATOM     42  C   UNL A   1      38.315  30.473  29.249  1.00  0.00     0.031 C 
ATOM     43  C   UNL A   1      37.426  33.418  33.225  1.00  0.00     0.029 A 
ATOM     44  N   UNL A   1      39.169  32.026  33.355  1.00  0.00    -0.354 N 
ATOM     45  C   UNL A   1      40.074  29.293  30.117  1.00  0.00     0.074 A 
ATOM     46  C   UNL A   1      39.130  29.452  29.031  1.00  0.00     0.031 C 
ATOM     47  C   UNL A   1      38.000  33.603  34.425  1.00  0.00     0.029 A 
ATOM     48  C   UNL A   1      39.130  32.689  34.560  1.00  0.00     0.049 A 
ATOM     49  H   UNL A   1      39.848  31.347  33.137  1.00  0.00     0.167 HD
ATOM     50  C   UNL A   1      41.104  28.411  30.116  1.00  0.00     0.034 A 
ATOM     51  C   UNL A   1      39.908  32.566  35.654  1.00  0.00     0.034 A 
ATOM     52  C   UNL A   1      42.048  28.278  31.200  1.00  0.00     0.049 A 
ATOM     53  C   UNL A   1      41.039  31.570  35.634  1.00  0.00     0.074 A 
ATOM     54  C   UNL A   1      43.166  27.467  31.276  1.00  0.00     0.029 A 
ATOM     55  N   UNL A   1      41.981  28.972  32.402  1.00  0.00    -0.354 N 
ATOM     56  N   UNL A   1      41.395  30.741  34.680  1.00  0.00    -0.248 NA
ATOM     57  C   UNL A   1      41.879  31.500  36.837  1.00  0.00     0.031 C 
ATOM     58  C   UNL A   1      43.738  27.622  32.544  1.00  0.00     0.029 A 
ATOM     59  C   UNL A   1      43.019  28.584  33.235  1.00  0.00     0.049 A 
ATOM     60  H   UNL A   1      41.295  29.642  32.629  1.00  0.00     0.167 HD
ATOM     61  C   UNL A   1      42.520  30.075  35.156  1.00  0.00     0.074 A 
ATOM     62  C   UNL A   1      42.788  30.607  36.478  1.00  0.00     0.031 C 
ATOM     63  C   UNL A   1      43.268  29.116  34.555  1.00  0.00     0.034 A 
BRANCH  50  64
ATOM     64  C   UNL A   1      41.240  27.505  28.915  1.00  0.00     0.023 A 
ATOM     65  C   UNL A   1      42.233  27.711  27.942  1.00  0.00     0.031 A 
ATOM     66  C   UNL A   1      40.341  26.441  28.720  1.00  0.00     0.131 A 
ATOM     67  C   UNL A   1      42.255  26.922  26.782  1.00  0.00     0.055 A 
ATOM     68  C   UNL A   1      40.419  25.605  27.604  1.00  0.00     0.041 A 
ATOM     69  F   UNL A   1      39.358  26.205  29.604  1.00  0.00    -0.206 F 
ATOM     70  C   UNL A   1      41.370  25.854  26.619  1.00  0.00     0.022 A 
BRANCH  67  71
ATOM     71  S   UNL A   1      43.355  27.407  25.426  1.00  0.00     0.124 S 
ATOM     72  O   UNL A   1      42.433  28.105  24.533  1.00  0.00    -0.237 OA
ATOM     73  O   UNL A   1      44.342  28.241  26.102  1.00  0.00    -0.237 OA
ATOM     74  O   UNL A   1      43.857  26.133  24.917  1.00  0.00    -0.744 OA
ENDBRANCH  67  71
ENDBRANCH  50  64
BRANCH  51  75
ATOM     75  C   UNL A   1      39.650  33.399  36.862  1.00  0.00     0.023 A 
ATOM     76  C   UNL A   1      38.960  32.874  37.966  1.00  0.00     0.031 A 
ATOM     77  C   UNL A   1      40.054  34.746  36.915  1.00  0.00     0.131 A 
ATOM     78  C   UNL A   1      38.655  33.701  39.058  1.00  0.00     0.055 A 
ATOM     79  C   UNL A   1      39.790  35.550  38.024  1.00  0.00     0.041 A 
ATOM     80  F   UNL A   1      40.722  35.295  35.889  1.00  0.00    -0.206 F 
ATOM     81  C   UNL A   1      39.075  35.032  39.100  1.00  0.00     0.022 A 
BRANCH  78  82
ATOM     82  S   UNL A   1      37.630  33.028  40.396  1.00  0.00     0.124 S 
ATOM     83  O   UNL A   1      38.508  32.008  40.958  1.00  0.00    -0.237 OA
ATOM     84  O   UNL A   1      37.403  34.207  41.224  1.00  0.00    -0.237 OA
ATOM     85  O   UNL A   1      36.450  32.521  39.698  1.00  0.00    -0.744 OA
ENDBRANCH  78  82
ENDBRANCH  51  75
BRANCH  63  86
ATOM     86  C   UNL A   1      44.475  28.617  35.310  1.00  0.00     0.023 A 
ATOM     87  C   UNL A   1      44.379  27.596  36.271  1.00  0.00     0.031 A 
ATOM     88  C   UNL A   1      45.739  29.186  35.071  1.00  0.00     0.131 A 
ATOM     89  C   UNL A   1      45.516  27.211  36.998  1.00  0.00     0.055 A 
ATOM     90  C   UNL A   1      46.877  28.759  35.756  1.00  0.00     0.041 A 
ATOM     91  F   UNL A   1      45.887  30.165  34.165  1.00  0.00    -0.206 F 
ATOM     92  C   UNL A   1      46.767  27.774  36.735  1.00  0.00     0.022 A 
BRANCH  89  93
ATOM     93  S   UNL A   1      45.323  26.022  38.354  1.00  0.00     0.124 S 
ATOM     94  O   UNL A   1      44.303  26.664  39.177  1.00  0.00    -0.237 OA
ATOM     95  O   UNL A   1      44.907  24.812  37.652  1.00  0.00    -0.237 OA
ATOM     96  O   UNL A   1      46.655  25.964  38.952  1.00  0.00    -0.744 OA
ENDBRANCH  89  93
ENDBRANCH  63  86
ENDBRANCH  37  38
ENDBRANCH  29  32
ENDBRANCH  27  28
ENDBRANCH  26  27
ENDBRANCH   1  26
TORSDOF 17
ENDMDL
MODEL 2
REMARK VINA RESULT:     -11.8      1.888      2.297
REMARK SMILES CC(C)(C(=O)NCCCCNC(=O)c1ccc(-c2c3nc(c(-c4cc(S(=O)(=O)[O-])ccc4F)c4ccc([nH]4)c(-c4cc(S(=O)(=O)[O-])ccc4F)c4nc(c(-c5cc(S(=O)(=O)[O-])ccc5F)c5ccc2[nH]5)C=C4)C=C3)cc1)N1C(=O)/C(=C/c2ccc(C=O)cc2)SC1=S
REMARK SMILES IDX 8 1 7 2 6 3 4 4 5 5 2 7 1 8 3 9 77 10 78 11 91 12 79 13
REMARK SMILES IDX 80 14 90 15 92 16 81 17 82 18 83 19 89 20 84 21 88 22 85 23
REMARK SMILES IDX 86 24 87 25 9 26 10 27 11 28 12 29 13 31 14 32 15 33 76 34
REMARK SMILES IDX 16 35 75 36 17 37 18 38 19 39 69 40 20 41 74 42 68 43 70 44
REMARK SMILES IDX 21 45 73 46 67 47 66 48 22 50 54 51 34 52 53 53 35 54 38 55
REMARK SMILES IDX 52 56 71 57 36 58 37 59 51 61 72 62 39 63 23 64 24 65 32 66
REMARK SMILES IDX 25 67 31 68 33 69 30 70 26 71 27 72 28 73 29 74 55 75 56 76
REMARK SMILES IDX 64 77 57 78 63 79 65 80 62 81 58 82 59 83 60 84 61 85 40 86
REMARK SMILES IDX 41 87 49 88 42 89 48 90 50 91 47 92 43 93 44 94 45 95 46 96
REMARK H PARENT 6 6 11 30 70 49 38 60
REMARK Flexibility Score: inf
ROOT
ATOM      1  C   UNL A   1      32.171  29.974  27.174  1.00  0.00     0.023 C 
ENDROOT
BRANCH   1   2
ATOM      2  C   UNL A   1      31.766  29.047  26.034  1.00  0.00     0.116 C 
BRANCH   2   3
ATOM      3  N   UNL A   1      32.867  28.250  25.527  1.00  0.00    -0.354 N 
ATOM      4  C   UNL A   1      32.913  27.279  24.567  1.00  0.00     0.245 C 
ATOM      5  O   UNL A   1      34.027  27.052  24.079  1.00  0.00    -0.272 OA
ATOM      6  H   UNL A   1      33.736  28.443  25.949  1.00  0.00     0.163 HD
BRANCH   4   7
ATOM      7  C   UNL A   1      31.633  26.583  24.000  1.00  0.00     0.122 C 
ATOM      8  C   UNL A   1      30.398  26.633  24.915  1.00  0.00     0.046 C 
ATOM      9  C   UNL A   1      31.360  27.373  22.689  1.00  0.00     0.046 C 
BRANCH   7  10
ATOM     10  N   UNL A   1      31.945  25.120  23.732  1.00  0.00    -0.278 N 
ATOM     11  C   UNL A   1      32.132  24.247  24.796  1.00  0.00     0.267 C 
ATOM     12  C   UNL A   1      32.364  24.604  22.509  1.00  0.00     0.149 C 
ATOM     13  O   UNL A   1      32.147  24.522  25.989  1.00  0.00    -0.268 OA
ATOM     14  C   UNL A   1      32.475  22.881  24.328  1.00  0.00     0.081 C 
ATOM     15  S   UNL A   1      32.578  22.855  22.626  1.00  0.00    -0.054 SA
ATOM     16  S   UNL A   1      32.737  25.377  21.072  1.00  0.00    -0.052 S 
ATOM     17  C   UNL A   1      32.698  21.887  25.200  1.00  0.00     0.029 C 
BRANCH  17  18
ATOM     18  C   UNL A   1      33.095  20.514  24.878  1.00  0.00    -0.024 A 
ATOM     19  C   UNL A   1      34.449  20.166  24.937  1.00  0.00     0.009 A 
ATOM     20  C   UNL A   1      32.155  19.561  24.467  1.00  0.00     0.009 A 
ATOM     21  C   UNL A   1      34.856  18.867  24.626  1.00  0.00     0.012 A 
ATOM     22  C   UNL A   1      32.556  18.258  24.161  1.00  0.00     0.012 A 
ATOM     23  C   UNL A   1      33.906  17.915  24.248  1.00  0.00     0.014 A 
BRANCH  23  24
ATOM     24  C   UNL A   1      34.321  16.533  23.936  1.00  0.00     0.260 C 
ATOM     25  O   UNL A   1      34.638  16.185  22.806  1.00  0.00    -0.298 OA
ENDBRANCH  23  24
ENDBRANCH  17  18
ENDBRANCH   7  10
ENDBRANCH   4   7
ENDBRANCH   2   3
ENDBRANCH   1   2
BRANCH   1  26
ATOM     26  C   UNL A   1      32.038  31.467  26.867  1.00  0.00     0.023 C 
BRANCH  26  27
ATOM     27  C   UNL A   1      33.217  32.339  27.294  1.00  0.00     0.116 C 
BRANCH  27  28
ATOM     28  N   UNL A   1      32.838  33.703  27.626  1.00  0.00    -0.352 N 
ATOM     29  C   UNL A   1      33.357  34.531  28.594  1.00  0.00     0.251 C 
ATOM     30  H   UNL A   1      32.112  34.087  27.083  1.00  0.00     0.163 HD
ATOM     31  O   UNL A   1      32.843  35.627  28.799  1.00  0.00    -0.269 OA
BRANCH  29  32
ATOM     32  C   UNL A   1      34.502  34.073  29.409  1.00  0.00     0.039 A 
ATOM     33  C   UNL A   1      34.259  33.234  30.500  1.00  0.00     0.014 A 
ATOM     34  C   UNL A   1      35.810  34.436  29.076  1.00  0.00     0.014 A 
ATOM     35  C   UNL A   1      35.335  32.695  31.209  1.00  0.00     0.010 A 
ATOM     36  C   UNL A   1      36.880  33.844  29.739  1.00  0.00     0.010 A 
ATOM     37  C   UNL A   1      36.654  32.961  30.808  1.00  0.00    -0.014 A 
BRANCH  37  38
ATOM     38  C   UNL A   1      37.812  32.323  31.487  1.00  0.00     0.031 A 
ATOM     39  C   UNL A   1      38.540  31.186  30.824  1.00  0.00     0.074 A 
ATOM     40  C   UNL A   1      38.159  32.718  32.728  1.00  0.00     0.049 A 
ATOM     41  N   UNL A   1      39.513  30.443  31.287  1.00  0.00    -0.248 NA
ATOM     42  C   UNL A   1      38.091  30.817  29.473  1.00  0.00     0.031 C 
ATOM     43  C   UNL A   1      37.500  33.780  33.492  1.00  0.00     0.029 A 
ATOM     44  N   UNL A   1      39.141  32.265  33.573  1.00  0.00    -0.354 N 
ATOM     45  C   UNL A   1      39.779  29.507  30.293  1.00  0.00     0.074 A 
ATOM     46  C   UNL A   1      38.826  29.743  29.230  1.00  0.00     0.031 C 
ATOM     47  C   UNL A   1      38.111  33.912  34.681  1.00  0.00     0.029 A 
ATOM     48  C   UNL A   1      39.175  32.918  34.784  1.00  0.00     0.049 A 
ATOM     49  H   UNL A   1      39.765  31.542  33.334  1.00  0.00     0.167 HD
ATOM     50  C   UNL A   1      40.743  28.553  30.262  1.00  0.00     0.034 A 
ATOM     51  C   UNL A   1      39.965  32.729  35.859  1.00  0.00     0.034 A 
ATOM     52  C   UNL A   1      41.698  28.343  31.325  1.00  0.00     0.049 A 
ATOM     53  C   UNL A   1      41.021  31.655  35.807  1.00  0.00     0.074 A 
ATOM     54  C   UNL A   1      42.756  27.453  31.369  1.00  0.00     0.029 A 
ATOM     55  N   UNL A   1      41.706  29.028  32.534  1.00  0.00    -0.354 N 
ATOM     56  N   UNL A   1      41.297  30.812  34.838  1.00  0.00    -0.248 NA
ATOM     57  C   UNL A   1      41.879  31.513  36.990  1.00  0.00     0.031 C 
ATOM     58  C   UNL A   1      43.364  27.554  32.626  1.00  0.00     0.029 A 
ATOM     59  C   UNL A   1      42.731  28.559  33.341  1.00  0.00     0.049 A 
ATOM     60  H   UNL A   1      41.075  29.743  32.781  1.00  0.00     0.167 HD
ATOM     61  C   UNL A   1      42.380  30.063  35.284  1.00  0.00     0.074 A 
ATOM     62  C   UNL A   1      42.714  30.561  36.604  1.00  0.00     0.031 C 
ATOM     63  C   UNL A   1      43.045  29.058  34.659  1.00  0.00     0.034 A 
BRANCH  50  64
ATOM     64  C   UNL A   1      40.788  27.651  29.051  1.00  0.00     0.023 A 
ATOM     65  C   UNL A   1      41.723  27.845  28.020  1.00  0.00     0.031 A 
ATOM     66  C   UNL A   1      39.860  26.605  28.908  1.00  0.00     0.131 A 
ATOM     67  C   UNL A   1      41.659  27.062  26.858  1.00  0.00     0.055 A 
ATOM     68  C   UNL A   1      39.854  25.774  27.786  1.00  0.00     0.041 A 
ATOM     69  F   UNL A   1      38.929  26.381  29.850  1.00  0.00    -0.206 F 
ATOM     70  C   UNL A   1      40.746  26.011  26.745  1.00  0.00     0.022 A 
BRANCH  67  71
ATOM     71  S   UNL A   1      42.682  27.535  25.438  1.00  0.00     0.124 S 
ATOM     72  O   UNL A   1      41.903  28.631  24.865  1.00  0.00    -0.237 OA
ATOM     73  O   UNL A   1      43.943  27.910  26.068  1.00  0.00    -0.237 OA
ATOM     74  O   UNL A   1      42.726  26.321  24.626  1.00  0.00    -0.744 OA
ENDBRANCH  67  71
ENDBRANCH  50  64
BRANCH  51  75
ATOM     75  C   UNL A   1      39.794  33.567  37.080  1.00  0.00     0.023 A 
ATOM     76  C   UNL A   1      39.064  33.094  38.182  1.00  0.00     0.031 A 
ATOM     77  C   UNL A   1      40.321  34.869  37.147  1.00  0.00     0.131 A 
ATOM     78  C   UNL A   1      38.844  33.931  39.286  1.00  0.00     0.055 A 
ATOM     79  C   UNL A   1      40.141  35.680  38.268  1.00  0.00     0.041 A 
ATOM     80  F   UNL A   1      41.032  35.367  36.122  1.00  0.00    -0.206 F 
ATOM     81  C   UNL A   1      39.386  35.217  39.341  1.00  0.00     0.022 A 
BRANCH  78  82
ATOM     82  S   UNL A   1      37.769  33.339  40.622  1.00  0.00     0.124 S 
ATOM     83  O   UNL A   1      37.596  34.547  41.422  1.00  0.00    -0.237 OA
ATOM     84  O   UNL A   1      36.595  32.883  39.886  1.00  0.00    -0.237 OA
ATOM     85  O   UNL A   1      38.558  32.282  41.251  1.00  0.00    -0.744 OA
ENDBRANCH  78  82
ENDBRANCH  51  75
BRANCH  63  86
ATOM     86  C   UNL A   1      44.229  28.467  35.384  1.00  0.00     0.023 A 
ATOM     87  C   UNL A   1      44.079  27.454  36.347  1.00  0.00     0.031 A 
ATOM     88  C   UNL A   1      45.527  28.938  35.114  1.00  0.00     0.131 A 
ATOM     89  C   UNL A   1      45.201  26.982  37.044  1.00  0.00     0.055 A 
ATOM     90  C   UNL A   1      46.646  28.424  35.770  1.00  0.00     0.041 A 
ATOM     91  F   UNL A   1      45.726  29.905  34.204  1.00  0.00    -0.206 F 
ATOM     92  C   UNL A   1      46.485  27.449  36.751  1.00  0.00     0.022 A 
BRANCH  89  93
ATOM     93  S   UNL A   1      44.952  25.808  38.404  1.00  0.00     0.124 S 
ATOM     94  O   UNL A   1      43.806  26.387  39.099  1.00  0.00    -0.237 OA
ATOM     95  O   UNL A   1      44.702  24.557  37.696  1.00  0.00    -0.237 OA
ATOM     96  O   UNL A   1      46.214  25.862  39.140  1.00  0.00    -0.744 OA
ENDBRANCH  89  93
ENDBRANCH  63  86
ENDBRANCH  37  38
ENDBRANCH  29  32
ENDBRANCH  27  28
ENDBRANCH  26  27
ENDBRANCH   1  26
TORSDOF 17
ENDMDL
MODEL 3
REMARK VINA RESULT:     -11.8      1.694      2.012
REMARK SMILES CC(C)(C(=O)NCCCCNC(=O)c1ccc(-c2c3nc(c(-c4cc(S(=O)(=O)[O-])ccc4F)c4ccc([nH]4)c(-c4cc(S(=O)(=O)[O-])ccc4F)c4nc(c(-c5cc(S(=O)(=O)[O-])ccc5F)c5ccc2[nH]5)C=C4)C=C3)cc1)N1C(=O)/C(=C/c2ccc(C=O)cc2)SC1=S
REMARK SMILES IDX 8 1 7 2 6 3 4 4 5 5 2 7 1 8 3 9 77 10 78 11 91 12 79 13
REMARK SMILES IDX 80 14 90 15 92 16 81 17 82 18 83 19 89 20 84 21 88 22 85 23
REMARK SMILES IDX 86 24 87 25 9 26 10 27 11 28 12 29 13 31 14 32 15 33 76 34
REMARK SMILES IDX 16 35 75 36 17 37 18 38 19 39 69 40 20 41 74 42 68 43 70 44
REMARK SMILES IDX 21 45 73 46 67 47 66 48 22 50 54 51 34 52 53 53 35 54 38 55
REMARK SMILES IDX 52 56 71 57 36 58 37 59 51 61 72 62 39 63 23 64 24 65 32 66
REMARK SMILES IDX 25 67 31 68 33 69 30 70 26 71 27 72 28 73 29 74 55 75 56 76
REMARK SMILES IDX 64 77 57 78 63 79 65 80 62 81 58 82 59 83 60 84 61 85 40 86
REMARK SMILES IDX 41 87 49 88 42 89 48 90 50 91 47 92 43 93 44 94 45 95 46 96
REMARK H PARENT 6 6 11 30 70 49 38 60
REMARK Flexibility Score: inf
ROOT
ATOM      1  C   UNL A   1      31.656  30.626  26.613  1.00  0.00     0.023 C 
ENDROOT
BRANCH   1   2
ATOM      2  C   UNL A   1      31.325  30.122  25.213  1.00  0.00     0.116 C 
BRANCH   2   3
ATOM      3  N   UNL A   1      32.495  29.688  24.471  1.00  0.00    -0.354 N 
ATOM      4  C   UNL A   1      32.714  28.587  23.693  1.00  0.00     0.245 C 
ATOM      5  O   UNL A   1      33.649  28.670  22.888  1.00  0.00    -0.272 OA
ATOM      6  H   UNL A   1      33.267  30.296  24.539  1.00  0.00     0.163 HD
BRANCH   4   7
ATOM      7  C   UNL A   1      31.771  27.340  23.700  1.00  0.00     0.122 C 
ATOM      8  C   UNL A   1      30.818  27.243  24.902  1.00  0.00     0.046 C 
ATOM      9  C   UNL A   1      30.958  27.513  22.386  1.00  0.00     0.046 C 
BRANCH   7  10
ATOM     10  N   UNL A   1      32.620  26.080  23.685  1.00  0.00    -0.278 N 
ATOM     11  C   UNL A   1      33.404  25.761  24.786  1.00  0.00     0.267 C 
ATOM     12  C   UNL A   1      32.933  25.341  22.547  1.00  0.00     0.149 C 
ATOM     13  O   UNL A   1      33.567  26.429  25.800  1.00  0.00    -0.268 OA
ATOM     14  C   UNL A   1      34.192  24.525  24.557  1.00  0.00     0.081 C 
ATOM     15  S   UNL A   1      33.908  23.934  22.983  1.00  0.00    -0.054 SA
ATOM     16  S   UNL A   1      32.595  25.632  20.934  1.00  0.00    -0.052 S 
ATOM     17  C   UNL A   1      35.017  24.046  25.499  1.00  0.00     0.029 C 
BRANCH  17  18
ATOM     18  C   UNL A   1      35.888  22.874  25.385  1.00  0.00    -0.024 A 
ATOM     19  C   UNL A   1      35.317  21.629  25.098  1.00  0.00     0.009 A 
ATOM     20  C   UNL A   1      37.268  22.967  25.605  1.00  0.00     0.009 A 
ATOM     21  C   UNL A   1      36.124  20.493  24.993  1.00  0.00     0.012 A 
ATOM     22  C   UNL A   1      38.079  21.835  25.494  1.00  0.00     0.012 A 
ATOM     23  C   UNL A   1      37.504  20.602  25.182  1.00  0.00     0.014 A 
BRANCH  23  24
ATOM     24  C   UNL A   1      38.369  19.414  25.054  1.00  0.00     0.260 C 
ATOM     25  O   UNL A   1      39.536  19.412  25.424  1.00  0.00    -0.298 OA
ENDBRANCH  23  24
ENDBRANCH  17  18
ENDBRANCH   7  10
ENDBRANCH   4   7
ENDBRANCH   2   3
ENDBRANCH   1   2
BRANCH   1  26
ATOM     26  C   UNL A   1      31.542  32.141  26.794  1.00  0.00     0.023 C 
BRANCH  26  27
ATOM     27  C   UNL A   1      32.848  32.872  27.097  1.00  0.00     0.116 C 
BRANCH  27  28
ATOM     28  N   UNL A   1      32.656  34.137  27.789  1.00  0.00    -0.352 N 
ATOM     29  C   UNL A   1      33.353  34.649  28.858  1.00  0.00     0.251 C 
ATOM     30  H   UNL A   1      31.929  34.705  27.444  1.00  0.00     0.163 HD
ATOM     31  O   UNL A   1      32.986  35.698  29.380  1.00  0.00    -0.269 OA
BRANCH  29  32
ATOM     32  C   UNL A   1      34.512  33.906  29.398  1.00  0.00     0.039 A 
ATOM     33  C   UNL A   1      35.799  34.302  29.024  1.00  0.00     0.014 A 
ATOM     34  C   UNL A   1      34.331  32.852  30.298  1.00  0.00     0.014 A 
ATOM     35  C   UNL A   1      36.907  33.692  29.615  1.00  0.00     0.010 A 
ATOM     36  C   UNL A   1      35.435  32.294  30.936  1.00  0.00     0.010 A 
ATOM     37  C   UNL A   1      36.735  32.713  30.607  1.00  0.00    -0.014 A 
BRANCH  37  38
ATOM     38  C   UNL A   1      37.897  32.119  31.318  1.00  0.00     0.031 A 
ATOM     39  C   UNL A   1      38.684  31.009  30.679  1.00  0.00     0.074 A 
ATOM     40  C   UNL A   1      38.196  32.530  32.567  1.00  0.00     0.049 A 
ATOM     41  N   UNL A   1      39.671  30.303  31.169  1.00  0.00    -0.248 NA
ATOM     42  C   UNL A   1      38.284  30.620  29.318  1.00  0.00     0.031 C 
ATOM     43  C   UNL A   1      37.478  33.569  33.309  1.00  0.00     0.029 A 
ATOM     44  N   UNL A   1      39.172  32.116  33.438  1.00  0.00    -0.354 N 
ATOM     45  C   UNL A   1      39.997  29.375  30.186  1.00  0.00     0.074 A 
ATOM     46  C   UNL A   1      39.064  29.573  29.097  1.00  0.00     0.031 C 
ATOM     47  C   UNL A   1      38.053  33.726  34.513  1.00  0.00     0.029 A 
ATOM     48  C   UNL A   1      39.149  32.773  34.647  1.00  0.00     0.049 A 
ATOM     49  H   UNL A   1      39.828  31.416  33.218  1.00  0.00     0.167 HD
ATOM     50  C   UNL A   1      40.996  28.457  30.184  1.00  0.00     0.034 A 
ATOM     51  C   UNL A   1      39.917  32.616  35.744  1.00  0.00     0.034 A 
ATOM     52  C   UNL A   1      41.929  28.285  31.272  1.00  0.00     0.049 A 
ATOM     53  C   UNL A   1      41.013  31.581  35.723  1.00  0.00     0.074 A 
ATOM     54  C   UNL A   1      43.019  27.435  31.347  1.00  0.00     0.029 A 
ATOM     55  N   UNL A   1      41.881  28.973  32.478  1.00  0.00    -0.354 N 
ATOM     56  N   UNL A   1      41.345  30.747  34.764  1.00  0.00    -0.248 NA
ATOM     57  C   UNL A   1      41.845  31.474  36.929  1.00  0.00     0.031 C 
ATOM     58  C   UNL A   1      43.589  27.562  32.619  1.00  0.00     0.029 A 
ATOM     59  C   UNL A   1      42.901  28.544  33.313  1.00  0.00     0.049 A 
ATOM     60  H   UNL A   1      41.218  29.665  32.706  1.00  0.00     0.167 HD
ATOM     61  C   UNL A   1      42.444  30.039  35.242  1.00  0.00     0.074 A 
ATOM     62  C   UNL A   1      42.724  30.553  36.568  1.00  0.00     0.031 C 
ATOM     63  C   UNL A   1      43.161  29.058  34.638  1.00  0.00     0.034 A 
BRANCH  50  64
ATOM     64  C   UNL A   1      41.106  27.555  28.978  1.00  0.00     0.023 A 
ATOM     65  C   UNL A   1      42.095  27.748  27.998  1.00  0.00     0.031 A 
ATOM     66  C   UNL A   1      40.187  26.508  28.786  1.00  0.00     0.131 A 
ATOM     67  C   UNL A   1      42.094  26.964  26.835  1.00  0.00     0.055 A 
ATOM     68  C   UNL A   1      40.241  25.677  27.665  1.00  0.00     0.041 A 
ATOM     69  F   UNL A   1      39.207  26.286  29.676  1.00  0.00    -0.206 F 
ATOM     70  C   UNL A   1      41.189  25.913  26.673  1.00  0.00     0.022 A 
BRANCH  67  71
ATOM     71  S   UNL A   1      43.192  27.436  25.472  1.00  0.00     0.124 S 
ATOM     72  O   UNL A   1      42.280  28.173  24.600  1.00  0.00    -0.237 OA
ATOM     73  O   UNL A   1      44.211  28.232  26.148  1.00  0.00    -0.237 OA
ATOM     74  O   UNL A   1      43.651  26.155  24.940  1.00  0.00    -0.744 OA
ENDBRANCH  67  71
ENDBRANCH  50  64
BRANCH  51  75
ATOM     75  C   UNL A   1      39.683  33.450  36.956  1.00  0.00     0.023 A 
ATOM     76  C   UNL A   1      40.468  34.585  37.213  1.00  0.00     0.031 A 
ATOM     77  C   UNL A   1      38.698  33.101  37.898  1.00  0.00     0.131 A 
ATOM     78  C   UNL A   1      40.286  35.307  38.402  1.00  0.00     0.055 A 
ATOM     79  C   UNL A   1      38.488  33.851  39.056  1.00  0.00     0.041 A 
ATOM     80  F   UNL A   1      37.917  32.028  37.697  1.00  0.00    -0.206 F 
ATOM     81  C   UNL A   1      39.294  34.954  39.321  1.00  0.00     0.022 A 
BRANCH  78  82
ATOM     82  S   UNL A   1      41.420  36.675  38.769  1.00  0.00     0.124 S 
ATOM     83  O   UNL A   1      40.497  37.722  39.192  1.00  0.00    -0.237 OA
ATOM     84  O   UNL A   1      42.260  36.099  39.814  1.00  0.00    -0.237 OA
ATOM     85  O   UNL A   1      42.091  36.911  37.493  1.00  0.00    -0.744 OA
ENDBRANCH  78  82
ENDBRANCH  51  75
BRANCH  63  86
ATOM     86  C   UNL A   1      44.347  28.513  35.395  1.00  0.00     0.023 A 
ATOM     87  C   UNL A   1      44.206  27.512  36.372  1.00  0.00     0.031 A 
ATOM     88  C   UNL A   1      45.635  29.017  35.143  1.00  0.00     0.131 A 
ATOM     89  C   UNL A   1      45.327  27.083  37.099  1.00  0.00     0.055 A 
ATOM     90  C   UNL A   1      46.755  28.546  35.830  1.00  0.00     0.041 A 
ATOM     91  F   UNL A   1      45.826  29.975  34.222  1.00  0.00    -0.206 F 
ATOM     92  C   UNL A   1      46.602  27.582  36.823  1.00  0.00     0.022 A 
BRANCH  89  93
ATOM     93  S   UNL A   1      45.084  25.925  38.473  1.00  0.00     0.124 S 
ATOM     94  O   UNL A   1      43.839  26.409  39.062  1.00  0.00    -0.237 OA
ATOM     95  O   UNL A   1      45.006  24.639  37.788  1.00  0.00    -0.237 OA
ATOM     96  O   UNL A   1      46.274  26.116  39.298  1.00  0.00    -0.744 OA
ENDBRANCH  89  93
ENDBRANCH  63  86
ENDBRANCH  37  38
ENDBRANCH  29  32
ENDBRANCH  27  28
ENDBRANCH  26  27
ENDBRANCH   1  26
TORSDOF 17
ENDMDL
