MODEL 1
REMARK VINA RESULT:     -12.9      0.000      0.000
REMARK SMILES CC(=O)NS(=O)(=O)c1cc(-c2ccn(C(F)F)c(=O)c2)ccc1C(=O)NCCCCNC(=O)c1ccc(-c2c3nc(c(-c4cc(S(=O)(=O)[O-])ccc4F)c4ccc([nH]4)c(-c4cc(S(=O)(=O)[O-])ccc4F)c4nc(c(-c5cc(S(=O)(=O)[O-])ccc5F)c5ccc2[nH]5)C=C4)C=C3)cc1
REMARK SMILES IDX 29 1 28 2 27 3 26 4 24 5 25 6 23 8 8 9 9 10 10 11 22 12
REMARK SMILES IDX 21 13 5 14 6 15 7 16 4 17 1 18 2 19 3 20 11 22 12 23 20 24
REMARK SMILES IDX 13 25 18 26 14 27 19 28 15 29 16 30 17 31 30 32 31 33 32 34
REMARK SMILES IDX 33 36 34 37 35 38 96 39 36 40 95 41 37 42 38 43 39 44 89 45
REMARK SMILES IDX 40 46 94 47 88 48 90 49 41 50 93 51 87 52 86 53 42 55 74 56
REMARK SMILES IDX 54 57 73 58 55 59 58 60 72 61 91 62 56 63 57 64 71 66 92 67
REMARK SMILES IDX 59 68 43 69 44 70 52 71 45 72 51 73 53 74 50 75 46 76 47 77
REMARK SMILES IDX 48 78 49 79 75 80 76 81 84 82 77 83 83 84 85 85 82 86 78 87
REMARK SMILES IDX 79 88 80 89 81 90 60 91 61 92 69 93 62 94 68 95 70 96 67 97
REMARK SMILES IDX 63 98 64 99 65 100 66 101
REMARK H PARENT 26 7 4 21 31 35 90 54 58 65
REMARK Flexibility Score: inf
ROOT
ATOM      1  C   UNL A   1      32.587  30.401  26.554  1.00  0.00     0.023 C 
ENDROOT
BRANCH   1   2
ATOM      2  C   UNL A   1      31.825  29.428  27.446  1.00  0.00     0.023 C 
BRANCH   2   3
ATOM      3  C   UNL A   1      32.245  27.956  27.315  1.00  0.00     0.116 C 
BRANCH   3   4
ATOM      4  N   UNL A   1      31.103  27.193  26.849  1.00  0.00    -0.352 N 
ATOM      5  C   UNL A   1      30.967  26.003  26.201  1.00  0.00     0.252 C 
ATOM      6  O   UNL A   1      29.857  25.722  25.743  1.00  0.00    -0.269 OA
ATOM      7  H   UNL A   1      30.241  27.628  27.045  1.00  0.00     0.163 HD
BRANCH   5   8
ATOM      8  C   UNL A   1      31.999  24.942  26.112  1.00  0.00     0.060 A 
ATOM      9  C   UNL A   1      32.955  24.759  25.107  1.00  0.00     0.101 A 
ATOM     10  C   UNL A   1      33.579  23.510  24.951  1.00  0.00     0.031 A 
ATOM     11  C   UNL A   1      33.182  22.407  25.714  1.00  0.00    -0.017 A 
ATOM     12  C   UNL A   1      31.732  23.855  26.979  1.00  0.00     0.016 A 
ATOM     13  C   UNL A   1      32.297  22.594  26.771  1.00  0.00     0.009 A 
BRANCH   9  14
ATOM     14  S   UNL A   1      33.279  25.973  23.872  1.00  0.00     0.264 S 
ATOM     15  O   UNL A   1      33.718  25.250  22.700  1.00  0.00    -0.201 OA
ATOM     16  O   UNL A   1      34.023  27.055  24.464  1.00  0.00    -0.201 OA
BRANCH  14  17
ATOM     17  N   UNL A   1      31.794  26.582  23.429  1.00  0.00    -0.249 N 
ATOM     18  C   UNL A   1      32.396  28.915  22.773  1.00  0.00     0.115 C 
ATOM     19  C   UNL A   1      31.564  27.679  22.585  1.00  0.00     0.230 C 
ATOM     20  O   UNL A   1      30.574  27.669  21.866  1.00  0.00    -0.274 OA
ATOM     21  H   UNL A   1      31.000  26.130  23.795  1.00  0.00     0.183 HD
ENDBRANCH  14  17
ENDBRANCH   9  14
BRANCH  11  22
ATOM     22  C   UNL A   1      33.452  21.067  25.161  1.00  0.00    -0.011 A 
ATOM     23  C   UNL A   1      34.819  20.669  24.867  1.00  0.00     0.027 A 
ATOM     24  C   UNL A   1      32.475  20.147  25.106  1.00  0.00     0.080 A 
ATOM     25  C   UNL A   1      35.121  19.389  24.636  1.00  0.00     0.095 A 
ATOM     26  C   UNL A   1      32.793  18.723  24.790  1.00  0.00     0.255 A 
ATOM     27  N   UNL A   1      34.136  18.421  24.621  1.00  0.00    -0.258 N 
ATOM     28  O   UNL A   1      31.871  17.915  24.740  1.00  0.00    -0.269 OA
BRANCH  27  29
ATOM     29  C   UNL A   1      34.485  17.036  24.433  1.00  0.00     0.451 C 
ATOM     30  F   UNL A   1      34.602  16.739  23.116  1.00  0.00    -0.185 F 
ATOM     31  F   UNL A   1      35.659  16.739  25.039  1.00  0.00    -0.185 F 
ENDBRANCH  27  29
ENDBRANCH  11  22
ENDBRANCH   5   8
ENDBRANCH   3   4
ENDBRANCH   2   3
ENDBRANCH   1   2
BRANCH   1  32
ATOM     32  C   UNL A   1      33.522  31.333  27.312  1.00  0.00     0.116 C 
BRANCH  32  33
ATOM     33  N   UNL A   1      33.018  32.697  27.420  1.00  0.00    -0.352 N 
ATOM     34  C   UNL A   1      33.414  33.702  28.273  1.00  0.00     0.251 C 
ATOM     35  H   UNL A   1      32.294  32.933  26.797  1.00  0.00     0.163 HD
ATOM     36  O   UNL A   1      32.809  34.770  28.297  1.00  0.00    -0.269 OA
BRANCH  34  37
ATOM     37  C   UNL A   1      34.547  33.461  29.188  1.00  0.00     0.039 A 
ATOM     38  C   UNL A   1      34.339  32.696  30.338  1.00  0.00     0.014 A 
ATOM     39  C   UNL A   1      35.824  33.928  28.866  1.00  0.00     0.014 A 
ATOM     40  C   UNL A   1      35.434  32.310  31.114  1.00  0.00     0.010 A 
ATOM     41  C   UNL A   1      36.918  33.481  29.594  1.00  0.00     0.010 A 
ATOM     42  C   UNL A   1      36.735  32.656  30.715  1.00  0.00    -0.014 A 
BRANCH  42  43
ATOM     43  C   UNL A   1      37.934  32.158  31.433  1.00  0.00     0.031 A 
ATOM     44  C   UNL A   1      38.809  31.125  30.785  1.00  0.00     0.074 A 
ATOM     45  C   UNL A   1      38.152  32.534  32.708  1.00  0.00     0.049 A 
ATOM     46  N   UNL A   1      39.766  30.403  31.306  1.00  0.00    -0.248 NA
ATOM     47  C   UNL A   1      38.529  30.829  29.373  1.00  0.00     0.031 C 
ATOM     48  C   UNL A   1      37.329  33.480  33.469  1.00  0.00     0.029 A 
ATOM     49  N   UNL A   1      39.118  32.144  33.598  1.00  0.00    -0.354 N 
ATOM     50  C   UNL A   1      40.160  29.521  30.305  1.00  0.00     0.074 A 
ATOM     51  C   UNL A   1      39.321  29.792  29.156  1.00  0.00     0.031 C 
ATOM     52  C   UNL A   1      37.833  33.602  34.709  1.00  0.00     0.029 A 
ATOM     53  C   UNL A   1      38.988  32.720  34.840  1.00  0.00     0.049 A 
ATOM     54  H   UNL A   1      39.836  31.511  33.370  1.00  0.00     0.167 HD
ATOM     55  C   UNL A   1      41.134  28.577  30.343  1.00  0.00     0.034 A 
ATOM     56  C   UNL A   1      39.712  32.546  35.962  1.00  0.00     0.034 A 
ATOM     57  C   UNL A   1      41.996  28.360  31.478  1.00  0.00     0.049 A 
ATOM     58  C   UNL A   1      40.865  31.583  35.941  1.00  0.00     0.074 A 
ATOM     59  C   UNL A   1      43.050  27.473  31.610  1.00  0.00     0.029 A 
ATOM     60  N   UNL A   1      41.907  29.053  32.678  1.00  0.00    -0.354 N 
ATOM     61  N   UNL A   1      41.235  30.765  34.986  1.00  0.00    -0.248 NA
ATOM     62  C   UNL A   1      41.701  31.530  37.147  1.00  0.00     0.031 C 
ATOM     63  C   UNL A   1      43.587  27.617  32.897  1.00  0.00     0.029 A 
ATOM     64  C   UNL A   1      42.890  28.619  33.552  1.00  0.00     0.049 A 
ATOM     65  H   UNL A   1      41.243  29.752  32.879  1.00  0.00     0.167 HD
ATOM     66  C   UNL A   1      42.357  30.105  35.471  1.00  0.00     0.074 A 
ATOM     67  C   UNL A   1      42.608  30.627  36.800  1.00  0.00     0.031 C 
ATOM     68  C   UNL A   1      43.116  29.154  34.872  1.00  0.00     0.034 A 
BRANCH  55  69
ATOM     69  C   UNL A   1      41.271  27.695  29.129  1.00  0.00     0.023 A 
ATOM     70  C   UNL A   1      42.273  27.913  28.169  1.00  0.00     0.031 A 
ATOM     71  C   UNL A   1      40.338  26.672  28.890  1.00  0.00     0.131 A 
ATOM     72  C   UNL A   1      42.259  27.185  26.969  1.00  0.00     0.055 A 
ATOM     73  C   UNL A   1      40.379  25.894  27.730  1.00  0.00     0.041 A 
ATOM     74  F   UNL A   1      39.347  26.432  29.764  1.00  0.00    -0.206 F 
ATOM     75  C   UNL A   1      41.333  26.162  26.752  1.00  0.00     0.022 A 
BRANCH  72  76
ATOM     76  S   UNL A   1      43.369  27.705  25.632  1.00  0.00     0.124 S 
ATOM     77  O   UNL A   1      43.861  28.983  26.141  1.00  0.00    -0.237 OA
ATOM     78  O   UNL A   1      44.340  26.618  25.587  1.00  0.00    -0.237 OA
ATOM     79  O   UNL A   1      42.486  27.802  24.472  1.00  0.00    -0.744 OA
ENDBRANCH  72  76
ENDBRANCH  55  69
BRANCH  56  80
ATOM     80  C   UNL A   1      39.366  33.294  37.197  1.00  0.00     0.023 A 
ATOM     81  C   UNL A   1      39.940  34.547  37.459  1.00  0.00     0.031 A 
ATOM     82  C   UNL A   1      38.465  32.762  38.132  1.00  0.00     0.131 A 
ATOM     83  C   UNL A   1      39.628  35.218  38.650  1.00  0.00     0.055 A 
ATOM     84  C   UNL A   1      38.138  33.445  39.304  1.00  0.00     0.041 A 
ATOM     85  F   UNL A   1      37.880  31.575  37.910  1.00  0.00    -0.206 F 
ATOM     86  C   UNL A   1      38.727  34.677  39.572  1.00  0.00     0.022 A 
BRANCH  83  87
ATOM     87  S   UNL A   1      40.449  36.797  38.995  1.00  0.00     0.124 S 
ATOM     88  O   UNL A   1      41.377  36.905  37.875  1.00  0.00    -0.237 OA
ATOM     89  O   UNL A   1      39.326  37.728  38.990  1.00  0.00    -0.237 OA
ATOM     90  O   UNL A   1      41.069  36.580  40.301  1.00  0.00    -0.744 OA
ENDBRANCH  83  87
ENDBRANCH  56  80
BRANCH  68  91
ATOM     91  C   UNL A   1      44.307  28.663  35.643  1.00  0.00     0.023 A 
ATOM     92  C   UNL A   1      44.192  27.631  36.590  1.00  0.00     0.031 A 
ATOM     93  C   UNL A   1      45.565  29.254  35.441  1.00  0.00     0.131 A 
ATOM     94  C   UNL A   1      45.317  27.243  37.330  1.00  0.00     0.055 A 
ATOM     95  C   UNL A   1      46.687  28.842  36.160  1.00  0.00     0.041 A 
ATOM     96  F   UNL A   1      45.717  30.245  34.550  1.00  0.00    -0.206 F 
ATOM     97  C   UNL A   1      46.565  27.837  37.116  1.00  0.00     0.022 A 
BRANCH  94  98
ATOM     98  S   UNL A   1      45.121  25.980  38.616  1.00  0.00     0.124 S 
ATOM     99  O   UNL A   1      46.479  25.862  39.137  1.00  0.00    -0.237 OA
ATOM    100  O   UNL A   1      44.145  26.593  39.511  1.00  0.00    -0.237 OA
ATOM    101  O   UNL A   1      44.637  24.812  37.880  1.00  0.00    -0.744 OA
ENDBRANCH  94  98
ENDBRANCH  68  91
ENDBRANCH  42  43
ENDBRANCH  34  37
ENDBRANCH  32  33
ENDBRANCH   1  32
TORSDOF 18
ENDMDL
MODEL 2
REMARK VINA RESULT:     -12.8      1.833      2.430
REMARK SMILES CC(=O)NS(=O)(=O)c1cc(-c2ccn(C(F)F)c(=O)c2)ccc1C(=O)NCCCCNC(=O)c1ccc(-c2c3nc(c(-c4cc(S(=O)(=O)[O-])ccc4F)c4ccc([nH]4)c(-c4cc(S(=O)(=O)[O-])ccc4F)c4nc(c(-c5cc(S(=O)(=O)[O-])ccc5F)c5ccc2[nH]5)C=C4)C=C3)cc1
REMARK SMILES IDX 29 1 28 2 27 3 26 4 24 5 25 6 23 8 8 9 9 10 10 11 22 12
REMARK SMILES IDX 21 13 5 14 6 15 7 16 4 17 1 18 2 19 3 20 11 22 12 23 20 24
REMARK SMILES IDX 13 25 18 26 14 27 19 28 15 29 16 30 17 31 30 32 31 33 32 34
REMARK SMILES IDX 33 36 34 37 35 38 96 39 36 40 95 41 37 42 38 43 39 44 89 45
REMARK SMILES IDX 40 46 94 47 88 48 90 49 41 50 93 51 87 52 86 53 42 55 74 56
REMARK SMILES IDX 54 57 73 58 55 59 58 60 72 61 91 62 56 63 57 64 71 66 92 67
REMARK SMILES IDX 59 68 43 69 44 70 52 71 45 72 51 73 53 74 50 75 46 76 47 77
REMARK SMILES IDX 48 78 49 79 75 80 76 81 84 82 77 83 83 84 85 85 82 86 78 87
REMARK SMILES IDX 79 88 80 89 81 90 60 91 61 92 69 93 62 94 68 95 70 96 67 97
REMARK SMILES IDX 63 98 64 99 65 100 66 101
REMARK H PARENT 26 7 4 21 31 35 90 54 58 65
REMARK Flexibility Score: inf
ROOT
ATOM      1  C   UNL A   1      32.458  30.290  26.830  1.00  0.00     0.023 C 
ENDROOT
BRANCH   1   2
ATOM      2  C   UNL A   1      32.896  28.837  26.963  1.00  0.00     0.023 C 
BRANCH   2   3
ATOM      3  C   UNL A   1      33.839  28.334  25.859  1.00  0.00     0.116 C 
BRANCH   3   4
ATOM      4  N   UNL A   1      33.438  28.938  24.603  1.00  0.00    -0.352 N 
ATOM      5  C   UNL A   1      33.157  28.440  23.367  1.00  0.00     0.252 C 
ATOM      6  O   UNL A   1      33.054  29.241  22.434  1.00  0.00    -0.269 OA
ATOM      7  H   UNL A   1      33.348  29.917  24.655  1.00  0.00     0.163 HD
BRANCH   5   8
ATOM      8  C   UNL A   1      32.823  27.029  23.056  1.00  0.00     0.060 A 
ATOM      9  C   UNL A   1      31.596  26.380  23.237  1.00  0.00     0.101 A 
ATOM     10  C   UNL A   1      31.546  24.976  23.281  1.00  0.00     0.031 A 
ATOM     11  C   UNL A   1      32.717  24.212  23.257  1.00  0.00    -0.017 A 
ATOM     12  C   UNL A   1      33.976  26.229  22.871  1.00  0.00     0.016 A 
ATOM     13  C   UNL A   1      33.931  24.837  22.993  1.00  0.00     0.009 A 
BRANCH   9  14
ATOM     14  S   UNL A   1      30.111  27.244  23.623  1.00  0.00     0.264 S 
ATOM     15  O   UNL A   1      30.425  28.107  24.740  1.00  0.00    -0.201 OA
ATOM     16  O   UNL A   1      29.013  26.311  23.622  1.00  0.00    -0.201 OA
BRANCH  14  17
ATOM     17  N   UNL A   1      29.857  28.303  22.363  1.00  0.00    -0.249 N 
ATOM     18  C   UNL A   1      27.673  29.323  23.011  1.00  0.00     0.115 C 
ATOM     19  C   UNL A   1      29.033  29.437  22.384  1.00  0.00     0.230 C 
ATOM     20  O   UNL A   1      29.361  30.414  21.724  1.00  0.00    -0.274 OA
ATOM     21  H   UNL A   1      30.331  28.114  21.521  1.00  0.00     0.183 HD
ENDBRANCH  14  17
ENDBRANCH   9  14
BRANCH  11  22
ATOM     22  C   UNL A   1      32.656  22.858  23.838  1.00  0.00    -0.011 A 
ATOM     23  C   UNL A   1      32.199  21.743  23.025  1.00  0.00     0.027 A 
ATOM     24  C   UNL A   1      33.196  22.613  25.043  1.00  0.00     0.080 A 
ATOM     25  C   UNL A   1      32.394  20.484  23.423  1.00  0.00     0.095 A 
ATOM     26  C   UNL A   1      33.365  21.210  25.526  1.00  0.00     0.255 A 
ATOM     27  N   UNL A   1      32.990  20.211  24.639  1.00  0.00    -0.258 N 
ATOM     28  O   UNL A   1      33.854  21.028  26.636  1.00  0.00    -0.269 OA
BRANCH  27  29
ATOM     29  C   UNL A   1      33.251  18.849  25.027  1.00  0.00     0.451 C 
ATOM     30  F   UNL A   1      32.409  18.454  26.013  1.00  0.00    -0.185 F 
ATOM     31  F   UNL A   1      33.102  18.003  23.981  1.00  0.00    -0.185 F 
ENDBRANCH  27  29
ENDBRANCH  11  22
ENDBRANCH   5   8
ENDBRANCH   3   4
ENDBRANCH   2   3
ENDBRANCH   1   2
BRANCH   1  32
ATOM     32  C   UNL A   1      33.505  31.295  27.290  1.00  0.00     0.116 C 
BRANCH  32  33
ATOM     33  N   UNL A   1      32.986  32.652  27.425  1.00  0.00    -0.352 N 
ATOM     34  C   UNL A   1      33.390  33.654  28.277  1.00  0.00     0.251 C 
ATOM     35  H   UNL A   1      32.243  32.883  26.822  1.00  0.00     0.163 HD
ATOM     36  O   UNL A   1      32.772  34.713  28.326  1.00  0.00    -0.269 OA
BRANCH  34  37
ATOM     37  C   UNL A   1      34.549  33.420  29.160  1.00  0.00     0.039 A 
ATOM     38  C   UNL A   1      34.371  32.681  30.332  1.00  0.00     0.014 A 
ATOM     39  C   UNL A   1      35.819  33.867  28.788  1.00  0.00     0.014 A 
ATOM     40  C   UNL A   1      35.486  32.300  31.080  1.00  0.00     0.010 A 
ATOM     41  C   UNL A   1      36.932  33.424  29.490  1.00  0.00     0.010 A 
ATOM     42  C   UNL A   1      36.777  32.624  30.633  1.00  0.00    -0.014 A 
BRANCH  42  43
ATOM     43  C   UNL A   1      37.993  32.128  31.323  1.00  0.00     0.031 A 
ATOM     44  C   UNL A   1      38.835  31.070  30.671  1.00  0.00     0.074 A 
ATOM     45  C   UNL A   1      38.257  32.531  32.581  1.00  0.00     0.049 A 
ATOM     46  N   UNL A   1      39.800  30.348  31.177  1.00  0.00    -0.248 NA
ATOM     47  C   UNL A   1      38.504  30.744  29.276  1.00  0.00     0.031 C 
ATOM     48  C   UNL A   1      37.472  33.504  33.346  1.00  0.00     0.029 A 
ATOM     49  N   UNL A   1      39.249  32.150  33.448  1.00  0.00    -0.354 N 
ATOM     50  C   UNL A   1      40.151  29.439  30.185  1.00  0.00     0.074 A 
ATOM     51  C   UNL A   1      39.276  29.693  29.058  1.00  0.00     0.031 C 
ATOM     52  C   UNL A   1      38.018  33.649  34.565  1.00  0.00     0.029 A 
ATOM     53  C   UNL A   1      39.166  32.757  34.679  1.00  0.00     0.049 A 
ATOM     54  H   UNL A   1      39.951  31.504  33.211  1.00  0.00     0.167 HD
ATOM     55  C   UNL A   1      41.114  28.483  30.213  1.00  0.00     0.034 A 
ATOM     56  C   UNL A   1      39.924  32.600  35.780  1.00  0.00     0.034 A 
ATOM     57  C   UNL A   1      42.010  28.283  31.324  1.00  0.00     0.049 A 
ATOM     58  C   UNL A   1      41.065  31.623  35.745  1.00  0.00     0.074 A 
ATOM     59  C   UNL A   1      43.059  27.387  31.443  1.00  0.00     0.029 A 
ATOM     60  N   UNL A   1      41.970  29.005  32.510  1.00  0.00    -0.354 N 
ATOM     61  N   UNL A   1      41.394  30.778  34.798  1.00  0.00    -0.248 NA
ATOM     62  C   UNL A   1      41.941  31.588  36.923  1.00  0.00     0.031 C 
ATOM     63  C   UNL A   1      43.639  27.554  32.707  1.00  0.00     0.029 A 
ATOM     64  C   UNL A   1      42.976  28.579  33.361  1.00  0.00     0.049 A 
ATOM     65  H   UNL A   1      41.321  29.716  32.715  1.00  0.00     0.167 HD
ATOM     66  C   UNL A   1      42.525  30.116  35.261  1.00  0.00     0.074 A 
ATOM     67  C   UNL A   1      42.825  30.666  36.568  1.00  0.00     0.031 C 
ATOM     68  C   UNL A   1      43.252  29.142  34.660  1.00  0.00     0.034 A 
BRANCH  55  69
ATOM     69  C   UNL A   1      41.201  27.572  29.017  1.00  0.00     0.023 A 
ATOM     70  C   UNL A   1      42.189  27.740  28.032  1.00  0.00     0.031 A 
ATOM     71  C   UNL A   1      40.234  26.571  28.819  1.00  0.00     0.131 A 
ATOM     72  C   UNL A   1      42.129  26.987  26.849  1.00  0.00     0.055 A 
ATOM     73  C   UNL A   1      40.229  25.768  27.677  1.00  0.00     0.041 A 
ATOM     74  F   UNL A   1      39.255  26.380  29.718  1.00  0.00    -0.206 F 
ATOM     75  C   UNL A   1      41.170  25.987  26.674  1.00  0.00     0.022 A 
BRANCH  72  76
ATOM     76  S   UNL A   1      43.225  27.445  25.479  1.00  0.00     0.124 S 
ATOM     77  O   UNL A   1      42.299  28.129  24.580  1.00  0.00    -0.237 OA
ATOM     78  O   UNL A   1      44.217  28.289  26.136  1.00  0.00    -0.237 OA
ATOM     79  O   UNL A   1      43.721  26.160  24.993  1.00  0.00    -0.744 OA
ENDBRANCH  72  76
ENDBRANCH  55  69
BRANCH  56  80
ATOM     80  C   UNL A   1      39.629  33.381  37.008  1.00  0.00     0.023 A 
ATOM     81  C   UNL A   1      38.839  32.835  38.031  1.00  0.00     0.031 A 
ATOM     82  C   UNL A   1      40.126  34.684  37.168  1.00  0.00     0.131 A 
ATOM     83  C   UNL A   1      38.542  33.606  39.164  1.00  0.00     0.055 A 
ATOM     84  C   UNL A   1      39.848  35.437  38.309  1.00  0.00     0.041 A 
ATOM     85  F   UNL A   1      40.901  35.235  36.221  1.00  0.00    -0.206 F 
ATOM     86  C   UNL A   1      39.045  34.902  39.312  1.00  0.00     0.022 A 
BRANCH  83  87
ATOM     87  S   UNL A   1      37.453  32.900  40.430  1.00  0.00     0.124 S 
ATOM     88  O   UNL A   1      38.197  31.716  40.841  1.00  0.00    -0.237 OA
ATOM     89  O   UNL A   1      37.382  33.984  41.404  1.00  0.00    -0.237 OA
ATOM     90  O   UNL A   1      36.212  32.637  39.703  1.00  0.00    -0.744 OA
ENDBRANCH  83  87
ENDBRANCH  56  80
BRANCH  68  91
ATOM     91  C   UNL A   1      44.462  28.654  35.403  1.00  0.00     0.023 A 
ATOM     92  C   UNL A   1      44.364  27.660  36.390  1.00  0.00     0.031 A 
ATOM     93  C   UNL A   1      45.722  29.212  35.132  1.00  0.00     0.131 A 
ATOM     94  C   UNL A   1      45.509  27.275  37.101  1.00  0.00     0.055 A 
ATOM     95  C   UNL A   1      46.864  28.803  35.823  1.00  0.00     0.041 A 
ATOM     96  F   UNL A   1      45.859  30.168  34.199  1.00  0.00    -0.206 F 
ATOM     97  C   UNL A   1      46.759  27.835  36.818  1.00  0.00     0.022 A 
BRANCH  94  98
ATOM     98  S   UNL A   1      45.338  26.063  38.439  1.00  0.00     0.124 S 
ATOM     99  O   UNL A   1      46.720  25.898  38.879  1.00  0.00    -0.237 OA
ATOM    100  O   UNL A   1      44.450  26.749  39.372  1.00  0.00    -0.237 OA
ATOM    101  O   UNL A   1      44.757  24.898  37.775  1.00  0.00    -0.744 OA
ENDBRANCH  94  98
ENDBRANCH  68  91
ENDBRANCH  42  43
ENDBRANCH  34  37
ENDBRANCH  32  33
ENDBRANCH   1  32
TORSDOF 18
ENDMDL
MODEL 3
REMARK VINA RESULT:     -12.6      2.783      3.799
REMARK SMILES CC(=O)NS(=O)(=O)c1cc(-c2ccn(C(F)F)c(=O)c2)ccc1C(=O)NCCCCNC(=O)c1ccc(-c2c3nc(c(-c4cc(S(=O)(=O)[O-])ccc4F)c4ccc([nH]4)c(-c4cc(S(=O)(=O)[O-])ccc4F)c4nc(c(-c5cc(S(=O)(=O)[O-])ccc5F)c5ccc2[nH]5)C=C4)C=C3)cc1
REMARK SMILES IDX 29 1 28 2 27 3 26 4 24 5 25 6 23 8 8 9 9 10 10 11 22 12
REMARK SMILES IDX 21 13 5 14 6 15 7 16 4 17 1 18 2 19 3 20 11 22 12 23 20 24
REMARK SMILES IDX 13 25 18 26 14 27 19 28 15 29 16 30 17 31 30 32 31 33 32 34
REMARK SMILES IDX 33 36 34 37 35 38 96 39 36 40 95 41 37 42 38 43 39 44 89 45
REMARK SMILES IDX 40 46 94 47 88 48 90 49 41 50 93 51 87 52 86 53 42 55 74 56
REMARK SMILES IDX 54 57 73 58 55 59 58 60 72 61 91 62 56 63 57 64 71 66 92 67
REMARK SMILES IDX 59 68 43 69 44 70 52 71 45 72 51 73 53 74 50 75 46 76 47 77
REMARK SMILES IDX 48 78 49 79 75 80 76 81 84 82 77 83 83 84 85 85 82 86 78 87
REMARK SMILES IDX 79 88 80 89 81 90 60 91 61 92 69 93 62 94 68 95 70 96 67 97
REMARK SMILES IDX 63 98 64 99 65 100 66 101
REMARK H PARENT 26 7 4 21 31 35 90 54 58 65
REMARK Flexibility Score: inf
ROOT
ATOM      1  C   UNL A   1      32.593  28.101  26.147  1.00  0.00     0.023 C 
ENDROOT
BRANCH   1   2
ATOM      2  C   UNL A   1      33.246  26.728  26.050  1.00  0.00     0.023 C 
BRANCH   2   3
ATOM      3  C   UNL A   1      33.706  26.321  24.641  1.00  0.00     0.116 C 
BRANCH   3   4
ATOM      4  N   UNL A   1      32.674  25.496  24.042  1.00  0.00    -0.352 N 
ATOM      5  C   UNL A   1      32.673  24.263  23.464  1.00  0.00     0.252 C 
ATOM      6  O   UNL A   1      31.663  23.920  22.845  1.00  0.00    -0.269 OA
ATOM      7  H   UNL A   1      31.785  25.917  24.058  1.00  0.00     0.163 HD
BRANCH   5   8
ATOM      8  C   UNL A   1      33.724  23.229  23.624  1.00  0.00     0.060 A 
ATOM      9  C   UNL A   1      33.836  22.273  24.640  1.00  0.00     0.101 A 
ATOM     10  C   UNL A   1      35.071  21.647  24.879  1.00  0.00     0.031 A 
ATOM     11  C   UNL A   1      36.224  22.041  24.192  1.00  0.00    -0.017 A 
ATOM     12  C   UNL A   1      34.867  23.494  22.832  1.00  0.00     0.016 A 
ATOM     13  C   UNL A   1      36.110  22.925  23.125  1.00  0.00     0.009 A 
BRANCH   9  14
ATOM     14  S   UNL A   1      32.542  21.953  25.791  1.00  0.00     0.264 S 
ATOM     15  O   UNL A   1      33.119  22.121  27.105  1.00  0.00    -0.201 OA
ATOM     16  O   UNL A   1      31.833  20.767  25.379  1.00  0.00    -0.201 OA
BRANCH  14  17
ATOM     17  N   UNL A   1      31.482  23.230  25.655  1.00  0.00    -0.249 N 
ATOM     18  C   UNL A   1      29.691  22.556  27.259  1.00  0.00     0.115 C 
ATOM     19  C   UNL A   1      30.524  23.619  26.603  1.00  0.00     0.230 C 
ATOM     20  O   UNL A   1      30.262  24.809  26.718  1.00  0.00    -0.274 OA
ATOM     21  H   UNL A   1      31.532  23.764  24.830  1.00  0.00     0.183 HD
ENDBRANCH  14  17
ENDBRANCH   9  14
BRANCH  11  22
ATOM     22  C   UNL A   1      37.523  21.767  24.834  1.00  0.00    -0.011 A 
ATOM     23  C   UNL A   1      38.146  22.784  25.666  1.00  0.00     0.027 A 
ATOM     24  C   UNL A   1      38.042  20.529  24.813  1.00  0.00     0.080 A 
ATOM     25  C   UNL A   1      39.164  22.474  26.472  1.00  0.00     0.095 A 
ATOM     26  C   UNL A   1      39.218  20.186  25.666  1.00  0.00     0.255 A 
ATOM     27  N   UNL A   1      39.681  21.194  26.499  1.00  0.00    -0.258 N 
ATOM     28  O   UNL A   1      39.668  19.046  25.612  1.00  0.00    -0.269 OA
BRANCH  27  29
ATOM     29  C   UNL A   1      40.737  20.859  27.419  1.00  0.00     0.451 C 
ATOM     30  F   UNL A   1      41.927  20.758  26.778  1.00  0.00    -0.185 F 
ATOM     31  F   UNL A   1      40.859  21.796  28.389  1.00  0.00    -0.185 F 
ENDBRANCH  27  29
ENDBRANCH  11  22
ENDBRANCH   5   8
ENDBRANCH   3   4
ENDBRANCH   2   3
ENDBRANCH   1   2
BRANCH   1  32
ATOM     32  C   UNL A   1      33.540  29.258  25.860  1.00  0.00     0.116 C 
BRANCH  32  33
ATOM     33  N   UNL A   1      33.036  30.547  26.320  1.00  0.00    -0.352 N 
ATOM     34  C   UNL A   1      33.589  31.420  27.229  1.00  0.00     0.251 C 
ATOM     35  H   UNL A   1      32.181  30.833  25.925  1.00  0.00     0.163 HD
ATOM     36  O   UNL A   1      32.976  32.424  27.576  1.00  0.00    -0.269 OA
BRANCH  34  37
ATOM     37  C   UNL A   1      34.909  31.108  27.811  1.00  0.00     0.039 A 
ATOM     38  C   UNL A   1      35.856  32.128  27.930  1.00  0.00     0.014 A 
ATOM     39  C   UNL A   1      35.176  29.829  28.305  1.00  0.00     0.014 A 
ATOM     40  C   UNL A   1      37.035  31.891  28.639  1.00  0.00     0.010 A 
ATOM     41  C   UNL A   1      36.312  29.617  29.074  1.00  0.00     0.010 A 
ATOM     42  C   UNL A   1      37.244  30.650  29.262  1.00  0.00    -0.014 A 
BRANCH  42  43
ATOM     43  C   UNL A   1      38.417  30.397  30.134  1.00  0.00     0.031 A 
ATOM     44  C   UNL A   1      39.517  29.495  29.654  1.00  0.00     0.074 A 
ATOM     45  C   UNL A   1      38.424  30.869  31.396  1.00  0.00     0.049 A 
ATOM     46  N   UNL A   1      40.512  28.971  30.320  1.00  0.00    -0.248 NA
ATOM     47  C   UNL A   1      39.451  29.086  28.243  1.00  0.00     0.031 C 
ATOM     48  C   UNL A   1      37.378  31.699  32.000  1.00  0.00     0.029 A 
ATOM     49  N   UNL A   1      39.332  30.692  32.407  1.00  0.00    -0.354 N 
ATOM     50  C   UNL A   1      41.155  28.120  29.428  1.00  0.00     0.074 A 
ATOM     51  C   UNL A   1      40.420  28.187  28.182  1.00  0.00     0.031 C 
ATOM     52  C   UNL A   1      37.710  31.967  33.274  1.00  0.00     0.029 A 
ATOM     53  C   UNL A   1      38.969  31.300  33.586  1.00  0.00     0.049 A 
ATOM     54  H   UNL A   1      40.164  30.178  32.300  1.00  0.00     0.167 HD
ATOM     55  C   UNL A   1      42.257  27.355  29.633  1.00  0.00     0.034 A 
ATOM     56  C   UNL A   1      39.578  31.306  34.787  1.00  0.00     0.034 A 
ATOM     57  C   UNL A   1      43.007  27.344  30.864  1.00  0.00     0.049 A 
ATOM     58  C   UNL A   1      40.866  30.551  34.953  1.00  0.00     0.074 A 
ATOM     59  C   UNL A   1      44.169  26.655  31.166  1.00  0.00     0.029 A 
ATOM     60  N   UNL A   1      42.671  28.072  31.998  1.00  0.00    -0.354 N 
ATOM     61  N   UNL A   1      41.471  29.759  34.100  1.00  0.00    -0.248 NA
ATOM     62  C   UNL A   1      41.557  30.700  36.240  1.00  0.00     0.031 C 
ATOM     63  C   UNL A   1      44.524  26.952  32.490  1.00  0.00     0.029 A 
ATOM     64  C   UNL A   1      43.604  27.853  32.998  1.00  0.00     0.049 A 
ATOM     65  H   UNL A   1      41.884  28.658  32.080  1.00  0.00     0.167 HD
ATOM     66  C   UNL A   1      42.622  29.324  34.744  1.00  0.00     0.074 A 
ATOM     67  C   UNL A   1      42.631  29.946  36.053  1.00  0.00     0.031 C 
ATOM     68  C   UNL A   1      43.588  28.484  34.294  1.00  0.00     0.034 A 
BRANCH  55  69
ATOM     69  C   UNL A   1      42.674  26.449  28.504  1.00  0.00     0.023 A 
ATOM     70  C   UNL A   1      43.821  26.709  27.734  1.00  0.00     0.031 A 
ATOM     71  C   UNL A   1      41.869  25.355  28.142  1.00  0.00     0.131 A 
ATOM     72  C   UNL A   1      44.076  25.946  26.584  1.00  0.00     0.055 A 
ATOM     73  C   UNL A   1      42.175  24.548  27.043  1.00  0.00     0.041 A 
ATOM     74  F   UNL A   1      40.751  25.073  28.829  1.00  0.00    -0.206 F 
ATOM     75  C   UNL A   1      43.274  24.854  26.246  1.00  0.00     0.022 A 
BRANCH  72  76
ATOM     76  S   UNL A   1      45.378  26.503  25.452  1.00  0.00     0.124 S 
ATOM     77  O   UNL A   1      45.581  25.311  24.631  1.00  0.00    -0.237 OA
ATOM     78  O   UNL A   1      44.753  27.639  24.784  1.00  0.00    -0.237 OA
ATOM     79  O   UNL A   1      46.488  26.835  26.342  1.00  0.00    -0.744 OA
ENDBRANCH  72  76
ENDBRANCH  55  69
BRANCH  56  80
ATOM     80  C   UNL A   1      38.977  32.046  35.924  1.00  0.00     0.023 A 
ATOM     81  C   UNL A   1      38.265  31.368  36.924  1.00  0.00     0.031 A 
ATOM     82  C   UNL A   1      39.101  33.442  36.021  1.00  0.00     0.131 A 
ATOM     83  C   UNL A   1      37.674  32.093  37.969  1.00  0.00     0.055 A 
ATOM     84  C   UNL A   1      38.533  34.156  37.076  1.00  0.00     0.041 A 
ATOM     85  F   UNL A   1      39.791  34.126  35.094  1.00  0.00    -0.206 F 
ATOM     86  C   UNL A   1      37.807  33.482  38.054  1.00  0.00     0.022 A 
BRANCH  83  87
ATOM     87  S   UNL A   1      36.693  31.194  39.200  1.00  0.00     0.124 S 
ATOM     88  O   UNL A   1      35.457  31.968  39.223  1.00  0.00    -0.237 OA
ATOM     89  O   UNL A   1      36.606  29.864  38.605  1.00  0.00    -0.237 OA
ATOM     90  O   UNL A   1      37.505  31.279  40.412  1.00  0.00    -0.744 OA
ENDBRANCH  83  87
ENDBRANCH  56  80
BRANCH  68  91
ATOM     91  C   UNL A   1      44.746  28.240  35.218  1.00  0.00     0.023 A 
ATOM     92  C   UNL A   1      44.652  27.334  36.287  1.00  0.00     0.031 A 
ATOM     93  C   UNL A   1      45.949  28.943  35.035  1.00  0.00     0.131 A 
ATOM     94  C   UNL A   1      45.737  27.179  37.160  1.00  0.00     0.055 A 
ATOM     95  C   UNL A   1      47.036  28.762  35.890  1.00  0.00     0.041 A 
ATOM     96  F   UNL A   1      46.079  29.820  34.028  1.00  0.00    -0.206 F 
ATOM     97  C   UNL A   1      46.931  27.881  36.964  1.00  0.00     0.022 A 
BRANCH  94  98
ATOM     98  S   UNL A   1      45.555  26.080  38.591  1.00  0.00     0.124 S 
ATOM     99  O   UNL A   1      46.903  26.080  39.150  1.00  0.00    -0.237 OA
ATOM    100  O   UNL A   1      44.536  26.761  39.382  1.00  0.00    -0.237 OA
ATOM    101  O   UNL A   1      45.131  24.812  37.998  1.00  0.00    -0.744 OA
ENDBRANCH  94  98
ENDBRANCH  68  91
ENDBRANCH  42  43
ENDBRANCH  34  37
ENDBRANCH  32  33
ENDBRANCH   1  32
TORSDOF 18
ENDMDL
