MODEL 1
REMARK VINA RESULT:     -13.0      0.000      0.000
REMARK SMILES O=C(NCCCCNC(=O)[C@H]1Cc2[nH]cnc2CN1C(=O)C[C@]12C[C@H]3C[C@H](C[C@H](C3)C1)C2)c1ccc(-c2c3nc(c(-c4cc(S(=O)(=O)[O-])ccc4F)c4ccc([nH]4)c(-c4cc(S(=O)(=O)[O-])ccc4F)c4nc(c(-c5cc(S(=O)(=O)[O-])ccc5F)c5ccc2[nH]5)C=C4)C=C3)cc1
REMARK SMILES IDX 5 1 4 2 3 3 1 4 2 5 33 7 34 8 95 9 35 10 94 11 36 12 37 13
REMARK SMILES IDX 38 14 88 15 39 16 93 17 87 18 89 19 40 20 92 21 86 22 85 23
REMARK SMILES IDX 41 25 73 26 53 27 72 28 54 29 57 30 71 31 90 32 55 33 56 34
REMARK SMILES IDX 70 36 91 37 58 38 42 39 43 40 51 41 44 42 50 43 52 44 49 45
REMARK SMILES IDX 45 46 46 47 47 48 48 49 74 50 75 51 83 52 76 53 82 54 84 55
REMARK SMILES IDX 81 56 77 57 78 58 79 59 80 60 59 61 60 62 68 63 61 64 67 65
REMARK SMILES IDX 69 66 66 67 62 68 63 69 64 70 65 71 6 72 7 73 8 74 9 75
REMARK SMILES IDX 10 77 11 78 12 79 19 80 13 81 18 82 14 83 17 84 15 85 16 87
REMARK SMILES IDX 20 88 21 89 22 90 23 91 24 92 31 93 32 94 25 95 29 96 27 97
REMARK SMILES IDX 26 98 30 99 28 100
REMARK H PARENT 3 6 89 24 57 35 8 76 14 86
REMARK Flexibility Score: inf
ROOT
ATOM      1  C   UNL A   1      33.537  30.267  27.338  1.00  0.00     0.023 C 
ENDROOT
BRANCH   1   2
ATOM      2  C   UNL A   1      34.605  31.333  27.583  1.00  0.00     0.116 C 
BRANCH   2   3
ATOM      3  N   UNL A   1      34.567  31.940  28.896  1.00  0.00    -0.352 N 
ATOM      4  O   UNL A   1      35.089  32.754  30.872  1.00  0.00    -0.269 OA
ATOM      5  C   UNL A   1      35.444  32.025  29.941  1.00  0.00     0.251 C 
ATOM      6  H   UNL A   1      33.714  32.395  29.079  1.00  0.00     0.163 HD
BRANCH   5   7
ATOM      7  C   UNL A   1      36.727  31.278  30.052  1.00  0.00     0.039 A 
ATOM      8  C   UNL A   1      38.005  31.837  30.015  1.00  0.00     0.014 A 
ATOM      9  C   UNL A   1      36.610  29.881  30.179  1.00  0.00     0.014 A 
ATOM     10  C   UNL A   1      39.133  31.020  30.009  1.00  0.00     0.010 A 
ATOM     11  C   UNL A   1      37.734  29.061  30.191  1.00  0.00     0.010 A 
ATOM     12  C   UNL A   1      38.996  29.631  30.071  1.00  0.00    -0.014 A 
BRANCH  12  13
ATOM     13  C   UNL A   1      40.207  28.821  30.181  1.00  0.00     0.031 A 
ATOM     14  C   UNL A   1      40.648  28.556  31.578  1.00  0.00     0.074 A 
ATOM     15  C   UNL A   1      40.807  28.212  29.137  1.00  0.00     0.049 A 
ATOM     16  N   UNL A   1      41.751  28.906  32.152  1.00  0.00    -0.248 NA
ATOM     17  C   UNL A   1      39.680  27.927  32.490  1.00  0.00     0.031 C 
ATOM     18  C   UNL A   1      40.335  28.139  27.754  1.00  0.00     0.029 A 
ATOM     19  N   UNL A   1      41.924  27.425  29.125  1.00  0.00    -0.354 N 
ATOM     20  C   UNL A   1      41.716  28.352  33.431  1.00  0.00     0.074 A 
ATOM     21  C   UNL A   1      40.359  27.926  33.637  1.00  0.00     0.031 C 
ATOM     22  C   UNL A   1      41.026  27.178  27.100  1.00  0.00     0.029 A 
ATOM     23  C   UNL A   1      42.066  26.657  27.973  1.00  0.00     0.049 A 
ATOM     24  H   UNL A   1      42.571  27.403  29.866  1.00  0.00     0.167 HD
ATOM     25  C   UNL A   1      42.859  28.093  34.129  1.00  0.00     0.034 A 
ATOM     26  C   UNL A   1      42.925  25.620  27.773  1.00  0.00     0.034 A 
ATOM     27  C   UNL A   1      43.974  28.844  33.594  1.00  0.00     0.049 A 
ATOM     28  C   UNL A   1      44.031  25.771  28.748  1.00  0.00     0.074 A 
ATOM     29  C   UNL A   1      44.231  30.189  33.396  1.00  0.00     0.029 A 
ATOM     30  N   UNL A   1      44.915  28.183  32.835  1.00  0.00    -0.354 N 
ATOM     31  N   UNL A   1      44.885  26.758  28.716  1.00  0.00    -0.248 NA
ATOM     32  C   UNL A   1      43.917  25.096  30.032  1.00  0.00     0.031 C 
ATOM     33  C   UNL A   1      44.935  30.250  32.157  1.00  0.00     0.029 A 
ATOM     34  C   UNL A   1      45.128  28.940  31.712  1.00  0.00     0.049 A 
ATOM     35  H   UNL A   1      45.350  27.329  33.057  1.00  0.00     0.167 HD
ATOM     36  C   UNL A   1      45.081  27.106  30.043  1.00  0.00     0.074 A 
ATOM     37  C   UNL A   1      44.543  25.983  30.810  1.00  0.00     0.031 C 
ATOM     38  C   UNL A   1      45.403  28.384  30.402  1.00  0.00     0.034 A 
BRANCH  25  39
ATOM     39  C   UNL A   1      43.068  26.885  35.027  1.00  0.00     0.023 A 
ATOM     40  C   UNL A   1      43.839  25.831  34.499  1.00  0.00     0.031 A 
ATOM     41  C   UNL A   1      42.322  26.568  36.185  1.00  0.00     0.131 A 
ATOM     42  C   UNL A   1      43.713  24.521  34.990  1.00  0.00     0.055 A 
ATOM     43  C   UNL A   1      42.260  25.275  36.719  1.00  0.00     0.041 A 
ATOM     44  F   UNL A   1      41.552  27.453  36.824  1.00  0.00    -0.206 F 
ATOM     45  C   UNL A   1      42.919  24.233  36.093  1.00  0.00     0.022 A 
BRANCH  42  46
ATOM     46  S   UNL A   1      44.426  23.176  34.010  1.00  0.00     0.124 S 
ATOM     47  O   UNL A   1      44.636  22.157  35.035  1.00  0.00    -0.237 OA
ATOM     48  O   UNL A   1      43.362  22.913  33.046  1.00  0.00    -0.237 OA
ATOM     49  O   UNL A   1      45.641  23.768  33.456  1.00  0.00    -0.744 OA
ENDBRANCH  42  46
ENDBRANCH  25  39
BRANCH  26  50
ATOM     50  C   UNL A   1      42.653  24.360  27.021  1.00  0.00     0.023 A 
ATOM     51  C   UNL A   1      43.603  23.738  26.182  1.00  0.00     0.031 A 
ATOM     52  C   UNL A   1      41.489  23.615  27.317  1.00  0.00     0.131 A 
ATOM     53  C   UNL A   1      43.362  22.437  25.676  1.00  0.00     0.055 A 
ATOM     54  C   UNL A   1      41.254  22.335  26.811  1.00  0.00     0.041 A 
ATOM     55  F   UNL A   1      40.572  24.072  28.186  1.00  0.00    -0.206 F 
ATOM     56  C   UNL A   1      42.196  21.736  25.992  1.00  0.00     0.022 A 
BRANCH  53  57
ATOM     57  S   UNL A   1      44.613  21.585  24.656  1.00  0.00     0.124 S 
ATOM     58  O   UNL A   1      44.089  20.229  24.586  1.00  0.00    -0.237 OA
ATOM     59  O   UNL A   1      44.586  22.359  23.416  1.00  0.00    -0.237 OA
ATOM     60  O   UNL A   1      45.845  21.729  25.433  1.00  0.00    -0.744 OA
ENDBRANCH  53  57
ENDBRANCH  26  50
BRANCH  38  61
ATOM     61  C   UNL A   1      45.853  29.351  29.329  1.00  0.00     0.023 A 
ATOM     62  C   UNL A   1      44.985  30.089  28.492  1.00  0.00     0.031 A 
ATOM     63  C   UNL A   1      47.229  29.624  29.245  1.00  0.00     0.131 A 
ATOM     64  C   UNL A   1      45.511  31.051  27.607  1.00  0.00     0.055 A 
ATOM     65  C   UNL A   1      47.744  30.589  28.382  1.00  0.00     0.041 A 
ATOM     66  F   UNL A   1      48.102  28.978  30.036  1.00  0.00    -0.206 F 
ATOM     67  C   UNL A   1      46.886  31.304  27.554  1.00  0.00     0.022 A 
BRANCH  64  68
ATOM     68  S   UNL A   1      44.413  31.989  26.496  1.00  0.00     0.124 S 
ATOM     69  O   UNL A   1      45.297  32.415  25.418  1.00  0.00    -0.237 OA
ATOM     70  O   UNL A   1      43.401  30.997  26.140  1.00  0.00    -0.237 OA
ATOM     71  O   UNL A   1      43.920  33.076  27.344  1.00  0.00    -0.744 OA
ENDBRANCH  64  68
ENDBRANCH  38  61
ENDBRANCH  12  13
ENDBRANCH   5   7
ENDBRANCH   2   3
ENDBRANCH   1   2
BRANCH   1  72
ATOM     72  C   UNL A   1      34.047  28.820  27.294  1.00  0.00     0.023 C 
BRANCH  72  73
ATOM     73  C   UNL A   1      34.337  28.268  25.897  1.00  0.00     0.116 C 
BRANCH  73  74
ATOM     74  N   UNL A   1      34.026  29.239  24.863  1.00  0.00    -0.354 N 
ATOM     75  C   UNL A   1      33.358  28.867  23.726  1.00  0.00     0.243 C 
ATOM     76  H   UNL A   1      34.299  30.178  24.981  1.00  0.00     0.163 HD
ATOM     77  O   UNL A   1      34.020  28.775  22.695  1.00  0.00    -0.273 OA
BRANCH  75  78
ATOM     78  C   UNL A   1      31.861  28.503  23.815  1.00  0.00     0.180 C 
ATOM     79  C   UNL A   1      30.848  29.624  23.355  1.00  0.00     0.091 C 
ATOM     80  N   UNL A   1      31.435  27.106  23.365  1.00  0.00    -0.324 N 
ATOM     81  C   UNL A   1      29.479  29.059  23.263  1.00  0.00     0.042 A 
ATOM     82  C   UNL A   1      30.123  26.709  23.943  1.00  0.00     0.178 C 
ATOM     83  N   UNL A   1      28.332  29.673  22.853  1.00  0.00    -0.348 N 
ATOM     84  C   UNL A   1      29.133  27.754  23.531  1.00  0.00     0.081 A 
ATOM     85  C   UNL A   1      27.335  28.737  22.937  1.00  0.00     0.197 A 
ATOM     86  H   UNL A   1      28.239  30.607  22.556  1.00  0.00     0.167 HD
ATOM     87  N   UNL A   1      27.788  27.571  23.349  1.00  0.00    -0.240 NA
BRANCH  80  88
ATOM     88  C   UNL A   1      31.868  26.307  22.305  1.00  0.00     0.224 C 
ATOM     89  O   UNL A   1      31.215  26.252  21.251  1.00  0.00    -0.275 OA
BRANCH  88  90
ATOM     90  C   UNL A   1      33.115  25.421  22.352  1.00  0.00     0.107 C 
BRANCH  90  91
ATOM     91  C   UNL A   1      33.152  24.291  23.407  1.00  0.00    -0.020 C 
ATOM     92  C   UNL A   1      34.266  23.267  23.045  1.00  0.00     0.011 C 
ATOM     93  C   UNL A   1      31.823  23.532  23.464  1.00  0.00     0.011 C 
ATOM     94  C   UNL A   1      33.464  24.831  24.824  1.00  0.00     0.011 C 
ATOM     95  C   UNL A   1      34.284  22.100  24.051  1.00  0.00    -0.010 C 
ATOM     96  C   UNL A   1      31.827  22.393  24.477  1.00  0.00    -0.010 C 
ATOM     97  C   UNL A   1      33.488  23.677  25.850  1.00  0.00    -0.010 C 
ATOM     98  C   UNL A   1      34.567  22.653  25.456  1.00  0.00     0.007 C 
ATOM     99  C   UNL A   1      32.916  21.398  24.061  1.00  0.00     0.007 C 
ATOM    100  C   UNL A   1      32.120  22.976  25.863  1.00  0.00     0.007 C 
ENDBRANCH  90  91
ENDBRANCH  88  90
ENDBRANCH  80  88
ENDBRANCH  75  78
ENDBRANCH  73  74
ENDBRANCH  72  73
ENDBRANCH   1  72
TORSDOF 17
ENDMDL
MODEL 2
REMARK VINA RESULT:     -13.0      2.889      7.844
REMARK SMILES O=C(NCCCCNC(=O)[C@H]1Cc2[nH]cnc2CN1C(=O)C[C@]12C[C@H]3C[C@H](C[C@H](C3)C1)C2)c1ccc(-c2c3nc(c(-c4cc(S(=O)(=O)[O-])ccc4F)c4ccc([nH]4)c(-c4cc(S(=O)(=O)[O-])ccc4F)c4nc(c(-c5cc(S(=O)(=O)[O-])ccc5F)c5ccc2[nH]5)C=C4)C=C3)cc1
REMARK SMILES IDX 5 1 4 2 3 3 1 4 2 5 33 7 34 8 95 9 35 10 94 11 36 12 37 13
REMARK SMILES IDX 38 14 88 15 39 16 93 17 87 18 89 19 40 20 92 21 86 22 85 23
REMARK SMILES IDX 41 25 73 26 53 27 72 28 54 29 57 30 71 31 90 32 55 33 56 34
REMARK SMILES IDX 70 36 91 37 58 38 42 39 43 40 51 41 44 42 50 43 52 44 49 45
REMARK SMILES IDX 45 46 46 47 47 48 48 49 74 50 75 51 83 52 76 53 82 54 84 55
REMARK SMILES IDX 81 56 77 57 78 58 79 59 80 60 59 61 60 62 68 63 61 64 67 65
REMARK SMILES IDX 69 66 66 67 62 68 63 69 64 70 65 71 6 72 7 73 8 74 9 75
REMARK SMILES IDX 10 77 11 78 12 79 19 80 13 81 18 82 14 83 17 84 15 85 16 87
REMARK SMILES IDX 20 88 21 89 22 90 23 91 24 92 31 93 32 94 25 95 29 96 27 97
REMARK SMILES IDX 26 98 30 99 28 100
REMARK H PARENT 3 6 89 24 57 35 8 76 14 86
REMARK Flexibility Score: inf
ROOT
ATOM      1  C   UNL A   1      33.419  28.764  26.506  1.00  0.00     0.023 C 
ENDROOT
BRANCH   1   2
ATOM      2  C   UNL A   1      34.861  28.848  27.006  1.00  0.00     0.116 C 
BRANCH   2   3
ATOM      3  N   UNL A   1      35.031  29.562  28.252  1.00  0.00    -0.352 N 
ATOM      4  O   UNL A   1      35.852  30.662  29.972  1.00  0.00    -0.269 OA
ATOM      5  C   UNL A   1      36.108  29.934  29.008  1.00  0.00     0.251 C 
ATOM      6  H   UNL A   1      34.175  29.843  28.648  1.00  0.00     0.163 HD
BRANCH   5   7
ATOM      7  C   UNL A   1      37.511  29.489  28.786  1.00  0.00     0.039 A 
ATOM      8  C   UNL A   1      38.293  29.776  27.666  1.00  0.00     0.014 A 
ATOM      9  C   UNL A   1      38.064  28.686  29.802  1.00  0.00     0.014 A 
ATOM     10  C   UNL A   1      39.554  29.201  27.519  1.00  0.00     0.010 A 
ATOM     11  C   UNL A   1      39.330  28.125  29.669  1.00  0.00     0.010 A 
ATOM     12  C   UNL A   1      40.061  28.356  28.509  1.00  0.00    -0.014 A 
BRANCH  12  13
ATOM     13  C   UNL A   1      41.433  27.871  28.369  1.00  0.00     0.031 A 
ATOM     14  C   UNL A   1      41.559  26.575  27.648  1.00  0.00     0.074 A 
ATOM     15  C   UNL A   1      42.525  28.587  28.705  1.00  0.00     0.049 A 
ATOM     16  N   UNL A   1      42.020  25.452  28.089  1.00  0.00    -0.248 NA
ATOM     17  C   UNL A   1      40.980  26.487  26.298  1.00  0.00     0.031 C 
ATOM     18  C   UNL A   1      42.578  29.978  29.155  1.00  0.00     0.029 A 
ATOM     19  N   UNL A   1      43.843  28.244  28.606  1.00  0.00    -0.354 N 
ATOM     20  C   UNL A   1      41.998  24.571  27.010  1.00  0.00     0.074 A 
ATOM     21  C   UNL A   1      41.189  25.204  26.004  1.00  0.00     0.031 C 
ATOM     22  C   UNL A   1      43.852  30.424  29.069  1.00  0.00     0.029 A 
ATOM     23  C   UNL A   1      44.720  29.323  28.682  1.00  0.00     0.049 A 
ATOM     24  H   UNL A   1      44.147  27.315  28.489  1.00  0.00     0.167 HD
ATOM     25  C   UNL A   1      42.829  23.491  26.952  1.00  0.00     0.034 A 
ATOM     26  C   UNL A   1      46.047  29.331  28.381  1.00  0.00     0.034 A 
ATOM     27  C   UNL A   1      43.343  23.162  28.263  1.00  0.00     0.049 A 
ATOM     28  C   UNL A   1      46.528  27.931  28.471  1.00  0.00     0.074 A 
ATOM     29  C   UNL A   1      42.767  22.832  29.476  1.00  0.00     0.029 A 
ATOM     30  N   UNL A   1      44.649  23.486  28.561  1.00  0.00    -0.354 N 
ATOM     31  N   UNL A   1      46.573  27.260  29.589  1.00  0.00    -0.248 NA
ATOM     32  C   UNL A   1      46.519  27.119  27.264  1.00  0.00     0.031 C 
ATOM     33  C   UNL A   1      43.580  23.475  30.456  1.00  0.00     0.029 A 
ATOM     34  C   UNL A   1      44.639  24.095  29.791  1.00  0.00     0.049 A 
ATOM     35  H   UNL A   1      45.438  23.314  28.000  1.00  0.00     0.167 HD
ATOM     36  C   UNL A   1      46.160  25.980  29.255  1.00  0.00     0.074 A 
ATOM     37  C   UNL A   1      46.242  25.926  27.797  1.00  0.00     0.031 C 
ATOM     38  C   UNL A   1      45.527  25.178  30.163  1.00  0.00     0.034 A 
BRANCH  25  39
ATOM     39  C   UNL A   1      43.487  22.975  25.683  1.00  0.00     0.023 A 
ATOM     40  C   UNL A   1      43.451  21.582  25.474  1.00  0.00     0.031 A 
ATOM     41  C   UNL A   1      44.394  23.685  24.865  1.00  0.00     0.131 A 
ATOM     42  C   UNL A   1      44.390  20.946  24.647  1.00  0.00     0.055 A 
ATOM     43  C   UNL A   1      45.278  23.053  23.982  1.00  0.00     0.041 A 
ATOM     44  F   UNL A   1      44.543  25.011  24.919  1.00  0.00    -0.206 F 
ATOM     45  C   UNL A   1      45.313  21.672  23.904  1.00  0.00     0.022 A 
BRANCH  42  46
ATOM     46  S   UNL A   1      44.525  19.143  24.746  1.00  0.00     0.124 S 
ATOM     47  O   UNL A   1      44.876  18.807  23.370  1.00  0.00    -0.237 OA
ATOM     48  O   UNL A   1      45.580  18.977  25.740  1.00  0.00    -0.237 OA
ATOM     49  O   UNL A   1      43.192  18.727  25.173  1.00  0.00    -0.744 OA
ENDBRANCH  42  46
ENDBRANCH  25  39
BRANCH  26  50
ATOM     50  C   UNL A   1      46.809  30.424  27.709  1.00  0.00     0.023 A 
ATOM     51  C   UNL A   1      46.191  31.515  27.060  1.00  0.00     0.031 A 
ATOM     52  C   UNL A   1      48.206  30.518  27.908  1.00  0.00     0.131 A 
ATOM     53  C   UNL A   1      46.964  32.625  26.639  1.00  0.00     0.055 A 
ATOM     54  C   UNL A   1      48.964  31.611  27.485  1.00  0.00     0.041 A 
ATOM     55  F   UNL A   1      48.874  29.583  28.604  1.00  0.00    -0.206 F 
ATOM     56  C   UNL A   1      48.344  32.675  26.854  1.00  0.00     0.022 A 
BRANCH  53  57
ATOM     57  S   UNL A   1      46.172  34.079  25.872  1.00  0.00     0.124 S 
ATOM     58  O   UNL A   1      47.272  34.683  25.135  1.00  0.00    -0.237 OA
ATOM     59  O   UNL A   1      45.108  33.471  25.073  1.00  0.00    -0.237 OA
ATOM     60  O   UNL A   1      45.699  34.856  27.018  1.00  0.00    -0.744 OA
ENDBRANCH  53  57
ENDBRANCH  26  50
BRANCH  38  61
ATOM     61  C   UNL A   1      45.553  25.570  31.625  1.00  0.00     0.023 A 
ATOM     62  C   UNL A   1      46.609  25.279  32.518  1.00  0.00     0.031 A 
ATOM     63  C   UNL A   1      44.509  26.387  32.091  1.00  0.00     0.131 A 
ATOM     64  C   UNL A   1      46.583  25.795  33.829  1.00  0.00     0.055 A 
ATOM     65  C   UNL A   1      44.496  26.911  33.382  1.00  0.00     0.041 A 
ATOM     66  F   UNL A   1      43.492  26.724  31.280  1.00  0.00    -0.206 F 
ATOM     67  C   UNL A   1      45.532  26.613  34.259  1.00  0.00     0.022 A 
BRANCH  64  68
ATOM     68  S   UNL A   1      47.917  25.405  35.007  1.00  0.00     0.124 S 
ATOM     69  O   UNL A   1      48.232  24.011  34.719  1.00  0.00    -0.237 OA
ATOM     70  O   UNL A   1      48.945  26.381  34.654  1.00  0.00    -0.237 OA
ATOM     71  O   UNL A   1      47.294  25.630  36.313  1.00  0.00    -0.744 OA
ENDBRANCH  64  68
ENDBRANCH  38  61
ENDBRANCH  12  13
ENDBRANCH   5   7
ENDBRANCH   2   3
ENDBRANCH   1   2
BRANCH   1  72
ATOM     72  C   UNL A   1      33.250  28.297  25.054  1.00  0.00     0.023 C 
BRANCH  72  73
ATOM     73  C   UNL A   1      33.805  26.906  24.742  1.00  0.00     0.116 C 
BRANCH  73  74
ATOM     74  N   UNL A   1      33.412  25.935  25.748  1.00  0.00    -0.354 N 
ATOM     75  C   UNL A   1      33.347  24.599  25.450  1.00  0.00     0.243 C 
ATOM     76  H   UNL A   1      33.191  26.242  26.658  1.00  0.00     0.163 HD
ATOM     77  O   UNL A   1      32.226  24.114  25.311  1.00  0.00    -0.273 OA
BRANCH  75  78
ATOM     78  C   UNL A   1      34.654  23.811  25.220  1.00  0.00     0.180 C 
ATOM     79  C   UNL A   1      35.906  24.292  26.054  1.00  0.00     0.091 C 
ATOM     80  N   UNL A   1      34.565  22.290  25.117  1.00  0.00    -0.324 N 
ATOM     81  C   UNL A   1      37.008  23.308  25.920  1.00  0.00     0.042 A 
ATOM     82  C   UNL A   1      35.744  21.707  24.422  1.00  0.00     0.178 C 
ATOM     83  N   UNL A   1      38.234  23.317  26.518  1.00  0.00    -0.348 N 
ATOM     84  C   UNL A   1      36.957  22.145  25.185  1.00  0.00     0.081 A 
ATOM     85  C   UNL A   1      38.890  22.195  26.085  1.00  0.00     0.197 A 
ATOM     86  H   UNL A   1      38.579  23.999  27.139  1.00  0.00     0.167 HD
ATOM     87  N   UNL A   1      38.146  21.471  25.274  1.00  0.00    -0.240 NA
BRANCH  80  88
ATOM     88  C   UNL A   1      33.783  21.362  25.810  1.00  0.00     0.224 C 
ATOM     89  O   UNL A   1      33.920  21.213  27.033  1.00  0.00    -0.275 OA
BRANCH  88  90
ATOM     90  C   UNL A   1      32.754  20.444  25.147  1.00  0.00     0.107 C 
BRANCH  90  91
ATOM     91  C   UNL A   1      33.174  18.983  24.863  1.00  0.00    -0.020 C 
ATOM     92  C   UNL A   1      32.460  18.469  23.580  1.00  0.00     0.011 C 
ATOM     93  C   UNL A   1      32.787  18.053  26.016  1.00  0.00     0.011 C 
ATOM     94  C   UNL A   1      34.699  18.854  24.627  1.00  0.00     0.011 C 
ATOM     95  C   UNL A   1      32.820  16.995  23.308  1.00  0.00    -0.010 C 
ATOM     96  C   UNL A   1      33.164  16.597  25.764  1.00  0.00    -0.010 C 
ATOM     97  C   UNL A   1      35.082  17.384  24.351  1.00  0.00    -0.010 C 
ATOM     98  C   UNL A   1      34.337  16.877  23.103  1.00  0.00     0.007 C 
ATOM     99  C   UNL A   1      32.413  16.128  24.512  1.00  0.00     0.007 C 
ATOM    100  C   UNL A   1      34.679  16.517  25.555  1.00  0.00     0.007 C 
ENDBRANCH  90  91
ENDBRANCH  88  90
ENDBRANCH  80  88
ENDBRANCH  75  78
ENDBRANCH  73  74
ENDBRANCH  72  73
ENDBRANCH   1  72
TORSDOF 17
ENDMDL
MODEL 3
REMARK VINA RESULT:     -12.9      3.357      9.231
REMARK SMILES O=C(NCCCCNC(=O)[C@H]1Cc2[nH]cnc2CN1C(=O)C[C@]12C[C@H]3C[C@H](C[C@H](C3)C1)C2)c1ccc(-c2c3nc(c(-c4cc(S(=O)(=O)[O-])ccc4F)c4ccc([nH]4)c(-c4cc(S(=O)(=O)[O-])ccc4F)c4nc(c(-c5cc(S(=O)(=O)[O-])ccc5F)c5ccc2[nH]5)C=C4)C=C3)cc1
REMARK SMILES IDX 5 1 4 2 3 3 1 4 2 5 33 7 34 8 95 9 35 10 94 11 36 12 37 13
REMARK SMILES IDX 38 14 88 15 39 16 93 17 87 18 89 19 40 20 92 21 86 22 85 23
REMARK SMILES IDX 41 25 73 26 53 27 72 28 54 29 57 30 71 31 90 32 55 33 56 34
REMARK SMILES IDX 70 36 91 37 58 38 42 39 43 40 51 41 44 42 50 43 52 44 49 45
REMARK SMILES IDX 45 46 46 47 47 48 48 49 74 50 75 51 83 52 76 53 82 54 84 55
REMARK SMILES IDX 81 56 77 57 78 58 79 59 80 60 59 61 60 62 68 63 61 64 67 65
REMARK SMILES IDX 69 66 66 67 62 68 63 69 64 70 65 71 6 72 7 73 8 74 9 75
REMARK SMILES IDX 10 77 11 78 12 79 19 80 13 81 18 82 14 83 17 84 15 85 16 87
REMARK SMILES IDX 20 88 21 89 22 90 23 91 24 92 31 93 32 94 25 95 29 96 27 97
REMARK SMILES IDX 26 98 30 99 28 100
REMARK H PARENT 3 6 89 24 57 35 8 76 14 86
REMARK Flexibility Score: inf
ROOT
ATOM      1  C   UNL A   1      37.975  21.148  25.207  1.00  0.00     0.023 C 
ENDROOT
BRANCH   1   2
ATOM      2  C   UNL A   1      38.648  22.225  26.059  1.00  0.00     0.116 C 
BRANCH   2   3
ATOM      3  N   UNL A   1      39.998  21.913  26.475  1.00  0.00    -0.352 N 
ATOM      4  O   UNL A   1      41.958  21.893  27.475  1.00  0.00    -0.269 OA
ATOM      5  C   UNL A   1      40.942  22.550  27.231  1.00  0.00     0.251 C 
ATOM      6  H   UNL A   1      40.309  21.043  26.135  1.00  0.00     0.163 HD
BRANCH   5   7
ATOM      7  C   UNL A   1      40.853  23.955  27.716  1.00  0.00     0.039 A 
ATOM      8  C   UNL A   1      39.769  24.815  27.536  1.00  0.00     0.014 A 
ATOM      9  C   UNL A   1      41.989  24.441  28.392  1.00  0.00     0.014 A 
ATOM     10  C   UNL A   1      39.852  26.149  27.932  1.00  0.00     0.010 A 
ATOM     11  C   UNL A   1      42.070  25.766  28.806  1.00  0.00     0.010 A 
ATOM     12  C   UNL A   1      41.012  26.630  28.544  1.00  0.00    -0.014 A 
BRANCH  12  13
ATOM     13  C   UNL A   1      41.011  28.001  29.049  1.00  0.00     0.031 A 
ATOM     14  C   UNL A   1      42.049  28.882  28.446  1.00  0.00     0.074 A 
ATOM     15  C   UNL A   1      40.065  28.504  29.868  1.00  0.00     0.049 A 
ATOM     16  N   UNL A   1      43.033  29.481  29.032  1.00  0.00    -0.248 NA
ATOM     17  C   UNL A   1      42.064  29.012  26.981  1.00  0.00     0.031 C 
ATOM     18  C   UNL A   1      38.833  27.853  30.316  1.00  0.00     0.029 A 
ATOM     19  N   UNL A   1      39.955  29.763  30.387  1.00  0.00    -0.354 N 
ATOM     20  C   UNL A   1      43.664  30.242  28.049  1.00  0.00     0.074 A 
ATOM     21  C   UNL A   1      43.142  29.774  26.794  1.00  0.00     0.031 C 
ATOM     22  C   UNL A   1      38.004  28.785  30.840  1.00  0.00     0.029 A 
ATOM     23  C   UNL A   1      38.690  30.067  30.882  1.00  0.00     0.049 A 
ATOM     24  H   UNL A   1      40.706  30.400  30.408  1.00  0.00     0.167 HD
ATOM     25  C   UNL A   1      44.401  31.345  28.365  1.00  0.00     0.034 A 
ATOM     26  C   UNL A   1      38.213  31.292  31.232  1.00  0.00     0.034 A 
ATOM     27  C   UNL A   1      44.787  31.329  29.759  1.00  0.00     0.049 A 
ATOM     28  C   UNL A   1      39.386  32.157  31.510  1.00  0.00     0.074 A 
ATOM     29  C   UNL A   1      45.496  30.451  30.559  1.00  0.00     0.029 A 
ATOM     30  N   UNL A   1      44.133  32.166  30.636  1.00  0.00    -0.354 N 
ATOM     31  N   UNL A   1      40.202  31.958  32.509  1.00  0.00    -0.248 NA
ATOM     32  C   UNL A   1      39.924  32.960  30.423  1.00  0.00     0.031 C 
ATOM     33  C   UNL A   1      44.822  30.473  31.816  1.00  0.00     0.029 A 
ATOM     34  C   UNL A   1      43.793  31.412  31.731  1.00  0.00     0.049 A 
ATOM     35  H   UNL A   1      43.944  33.122  30.503  1.00  0.00     0.167 HD
ATOM     36  C   UNL A   1      41.463  32.222  31.998  1.00  0.00     0.074 A 
ATOM     37  C   UNL A   1      41.221  32.933  30.745  1.00  0.00     0.031 C 
ATOM     38  C   UNL A   1      42.574  31.597  32.492  1.00  0.00     0.034 A 
BRANCH  25  39
ATOM     39  C   UNL A   1      44.445  32.620  27.539  1.00  0.00     0.023 A 
ATOM     40  C   UNL A   1      43.795  33.746  28.080  1.00  0.00     0.031 A 
ATOM     41  C   UNL A   1      44.781  32.715  26.169  1.00  0.00     0.131 A 
ATOM     42  C   UNL A   1      43.352  34.794  27.257  1.00  0.00     0.055 A 
ATOM     43  C   UNL A   1      44.405  33.800  25.368  1.00  0.00     0.041 A 
ATOM     44  F   UNL A   1      45.416  31.747  25.503  1.00  0.00    -0.206 F 
ATOM     45  C   UNL A   1      43.645  34.826  25.899  1.00  0.00     0.022 A 
BRANCH  42  46
ATOM     46  S   UNL A   1      42.191  35.992  27.962  1.00  0.00     0.124 S 
ATOM     47  O   UNL A   1      42.795  36.242  29.267  1.00  0.00    -0.237 OA
ATOM     48  O   UNL A   1      42.265  37.084  26.996  1.00  0.00    -0.237 OA
ATOM     49  O   UNL A   1      40.926  35.263  27.986  1.00  0.00    -0.744 OA
ENDBRANCH  42  46
ENDBRANCH  25  39
BRANCH  26  50
ATOM     50  C   UNL A   1      36.834  31.817  31.012  1.00  0.00     0.023 A 
ATOM     51  C   UNL A   1      36.083  32.470  32.013  1.00  0.00     0.031 A 
ATOM     52  C   UNL A   1      36.320  31.880  29.696  1.00  0.00     0.131 A 
ATOM     53  C   UNL A   1      34.878  33.137  31.681  1.00  0.00     0.055 A 
ATOM     54  C   UNL A   1      35.128  32.532  29.375  1.00  0.00     0.041 A 
ATOM     55  F   UNL A   1      37.006  31.380  28.656  1.00  0.00    -0.206 F 
ATOM     56  C   UNL A   1      34.405  33.172  30.367  1.00  0.00     0.022 A 
BRANCH  53  57
ATOM     57  S   UNL A   1      33.937  34.054  32.946  1.00  0.00     0.124 S 
ATOM     58  O   UNL A   1      32.949  33.075  33.373  1.00  0.00    -0.237 OA
ATOM     59  O   UNL A   1      34.974  34.400  33.918  1.00  0.00    -0.237 OA
ATOM     60  O   UNL A   1      33.394  35.196  32.209  1.00  0.00    -0.744 OA
ENDBRANCH  53  57
ENDBRANCH  26  50
BRANCH  38  61
ATOM     61  C   UNL A   1      42.468  30.853  33.806  1.00  0.00     0.023 A 
ATOM     62  C   UNL A   1      42.152  29.481  33.932  1.00  0.00     0.031 A 
ATOM     63  C   UNL A   1      42.831  31.550  34.971  1.00  0.00     0.131 A 
ATOM     64  C   UNL A   1      42.197  28.863  35.198  1.00  0.00     0.055 A 
ATOM     65  C   UNL A   1      42.893  30.930  36.218  1.00  0.00     0.041 A 
ATOM     66  F   UNL A   1      43.172  32.848  34.911  1.00  0.00    -0.206 F 
ATOM     67  C   UNL A   1      42.571  29.584  36.337  1.00  0.00     0.022 A 
BRANCH  64  68
ATOM     68  S   UNL A   1      41.761  27.104  35.388  1.00  0.00     0.124 S 
ATOM     69  O   UNL A   1      43.029  26.413  35.189  1.00  0.00    -0.237 OA
ATOM     70  O   UNL A   1      41.212  27.059  36.741  1.00  0.00    -0.237 OA
ATOM     71  O   UNL A   1      40.775  26.882  34.329  1.00  0.00    -0.744 OA
ENDBRANCH  64  68
ENDBRANCH  38  61
ENDBRANCH  12  13
ENDBRANCH   5   7
ENDBRANCH   2   3
ENDBRANCH   1   2
BRANCH   1  72
ATOM     72  C   UNL A   1      36.494  21.390  24.890  1.00  0.00     0.023 C 
BRANCH  72  73
ATOM     73  C   UNL A   1      35.567  21.480  26.103  1.00  0.00     0.116 C 
BRANCH  73  74
ATOM     74  N   UNL A   1      34.182  21.239  25.737  1.00  0.00    -0.354 N 
ATOM     75  C   UNL A   1      33.298  22.278  25.605  1.00  0.00     0.243 C 
ATOM     76  H   UNL A   1      33.875  20.317  25.581  1.00  0.00     0.163 HD
ATOM     77  O   UNL A   1      32.476  22.429  26.507  1.00  0.00    -0.273 OA
BRANCH  75  78
ATOM     78  C   UNL A   1      33.434  23.238  24.404  1.00  0.00     0.180 C 
ATOM     79  C   UNL A   1      33.221  22.594  22.977  1.00  0.00     0.091 C 
ATOM     80  N   UNL A   1      32.808  24.627  24.522  1.00  0.00    -0.324 N 
ATOM     81  C   UNL A   1      33.139  23.662  21.951  1.00  0.00     0.042 A 
ATOM     82  C   UNL A   1      33.409  25.593  23.564  1.00  0.00     0.178 C 
ATOM     83  N   UNL A   1      32.908  23.538  20.613  1.00  0.00    -0.348 N 
ATOM     84  C   UNL A   1      33.229  25.014  22.194  1.00  0.00     0.081 A 
ATOM     85  C   UNL A   1      32.918  24.807  20.094  1.00  0.00     0.197 A 
ATOM     86  H   UNL A   1      32.763  22.701  20.116  1.00  0.00     0.167 HD
ATOM     87  N   UNL A   1      33.116  25.718  21.024  1.00  0.00    -0.240 NA
BRANCH  80  88
ATOM     88  C   UNL A   1      31.611  25.053  25.102  1.00  0.00     0.224 C 
ATOM     89  O   UNL A   1      30.523  24.758  24.587  1.00  0.00    -0.275 OA
BRANCH  88  90
ATOM     90  C   UNL A   1      31.530  25.928  26.355  1.00  0.00     0.107 C 
BRANCH  90  91
ATOM     91  C   UNL A   1      32.067  27.375  26.255  1.00  0.00    -0.020 C 
ATOM     92  C   UNL A   1      31.575  28.206  27.474  1.00  0.00     0.011 C 
ATOM     93  C   UNL A   1      31.568  28.072  24.985  1.00  0.00     0.011 C 
ATOM     94  C   UNL A   1      33.614  27.420  26.258  1.00  0.00     0.011 C 
ATOM     95  C   UNL A   1      32.051  29.668  27.367  1.00  0.00    -0.010 C 
ATOM     96  C   UNL A   1      32.058  29.511  24.861  1.00  0.00    -0.010 C 
ATOM     97  C   UNL A   1      34.113  28.878  26.151  1.00  0.00    -0.010 C 
ATOM     98  C   UNL A   1      33.586  29.697  27.343  1.00  0.00     0.007 C 
ATOM     99  C   UNL A   1      31.523  30.294  26.065  1.00  0.00     0.007 C 
ATOM    100  C   UNL A   1      33.589  29.504  24.849  1.00  0.00     0.007 C 
ENDBRANCH  90  91
ENDBRANCH  88  90
ENDBRANCH  80  88
ENDBRANCH  75  78
ENDBRANCH  73  74
ENDBRANCH  72  73
ENDBRANCH   1  72
TORSDOF 17
ENDMDL
