MODEL 1
REMARK VINA RESULT:     -13.2      0.000      0.000
REMARK SMILES Cc1cc(NC(=O)c2ccc(Br)cc2N)ccc1C(=O)NCCCCNC(=O)c1ccc(-c2c3nc(c(-c4cc(S(=O)(=O)[O-])ccc4F)c4ccc([nH]4)c(-c4cc(S(=O)(=O)[O-])ccc4F)c4nc(c(-c5cc(S(=O)(=O)[O-])ccc5F)c5ccc2[nH]5)C=C4)C=C3)cc1
REMARK SMILES IDX 23 1 22 2 21 3 19 4 20 5 18 7 1 8 2 9 3 10 4 11 17 12 16 13
REMARK SMILES IDX 5 14 6 15 7 17 8 18 9 19 14 20 10 21 13 22 11 23 12 24 15 25
REMARK SMILES IDX 24 28 25 29 26 30 27 31 28 33 29 34 30 35 91 36 31 37 90 38
REMARK SMILES IDX 32 39 33 40 34 41 84 42 35 43 89 44 83 45 85 46 36 47 88 48
REMARK SMILES IDX 82 49 81 50 37 52 69 53 49 54 68 55 50 56 53 57 67 58 86 59
REMARK SMILES IDX 51 60 52 61 66 63 87 64 54 65 38 66 39 67 47 68 40 69 46 70
REMARK SMILES IDX 48 71 45 72 41 73 42 74 43 75 44 76 70 77 71 78 79 79 72 80
REMARK SMILES IDX 78 81 80 82 77 83 73 84 74 85 75 86 76 87 55 88 56 89 64 90
REMARK SMILES IDX 57 91 63 92 65 93 62 94 58 95 59 96 60 97 61 98
REMARK H PARENT 21 6 5 16 15 26 15 27 26 32 85 51 53 62
REMARK Flexibility Score: inf
ROOT
ATOM      1  C   UNL A   1      32.282  30.263  26.832  1.00  0.00     0.023 C 
ENDROOT
BRANCH   1   2
ATOM      2  C   UNL A   1      32.707  29.591  25.516  1.00  0.00     0.116 C 
BRANCH   2   3
ATOM      3  N   UNL A   1      31.669  29.758  24.516  1.00  0.00    -0.352 N 
ATOM      4  C   UNL A   1      30.986  28.912  23.685  1.00  0.00     0.251 C 
ATOM      5  O   UNL A   1      30.230  29.477  22.882  1.00  0.00    -0.269 OA
ATOM      6  H   UNL A   1      31.392  30.696  24.410  1.00  0.00     0.163 HD
BRANCH   4   7
ATOM      7  C   UNL A   1      30.984  27.405  23.697  1.00  0.00     0.042 A 
ATOM      8  C   UNL A   1      30.626  26.773  26.207  1.00  0.00     0.045 C 
ATOM      9  C   UNL A   1      30.816  26.488  24.751  1.00  0.00    -0.036 A 
ATOM     10  C   UNL A   1      30.875  25.105  24.468  1.00  0.00     0.030 A 
ATOM     11  C   UNL A   1      31.118  24.602  23.197  1.00  0.00     0.041 A 
ATOM     12  C   UNL A   1      31.309  26.862  22.422  1.00  0.00     0.016 A 
ATOM     13  C   UNL A   1      31.410  25.487  22.177  1.00  0.00     0.027 A 
BRANCH  11  14
ATOM     14  N   UNL A   1      31.061  23.226  22.926  1.00  0.00    -0.322 N 
ATOM     15  C   UNL A   1      32.099  22.308  22.930  1.00  0.00     0.257 C 
ATOM     16  H   UNL A   1      30.171  22.868  22.704  1.00  0.00     0.170 HD
ATOM     17  O   UNL A   1      31.965  21.232  22.349  1.00  0.00    -0.269 OA
BRANCH  15  18
ATOM     18  C   UNL A   1      33.354  22.578  23.694  1.00  0.00     0.063 A 
ATOM     19  C   UNL A   1      34.438  23.101  22.966  1.00  0.00     0.017 A 
ATOM     20  C   UNL A   1      33.477  22.341  25.084  1.00  0.00     0.045 A 
ATOM     21  C   UNL A   1      35.641  23.395  23.609  1.00  0.00     0.016 A 
ATOM     22  C   UNL A   1      34.707  22.616  25.700  1.00  0.00     0.042 A 
ATOM     23  C   UNL A   1      35.772  23.145  24.971  1.00  0.00     0.020 A 
ATOM     24  Br  UNL A   1      37.423  23.470  25.833  1.00  0.00    -0.051 Br
BRANCH  20  25
ATOM     25  N   UNL A   1      32.500  21.695  25.847  1.00  0.00    -0.398 N 
ATOM     26  H   UNL A   1      31.982  20.953  25.458  1.00  0.00     0.156 HD
ATOM     27  H   UNL A   1      32.328  21.983  26.772  1.00  0.00     0.156 HD
ENDBRANCH  20  25
ENDBRANCH  15  18
ENDBRANCH  11  14
ENDBRANCH   4   7
ENDBRANCH   2   3
ENDBRANCH   1   2
BRANCH   1  28
ATOM     28  C   UNL A   1      33.259  31.289  27.389  1.00  0.00     0.023 C 
BRANCH  28  29
ATOM     29  C   UNL A   1      34.510  30.649  27.960  1.00  0.00     0.116 C 
BRANCH  29  30
ATOM     30  N   UNL A   1      35.410  31.561  28.660  1.00  0.00    -0.352 N 
ATOM     31  C   UNL A   1      36.632  31.268  29.243  1.00  0.00     0.251 C 
ATOM     32  H   UNL A   1      35.112  32.498  28.726  1.00  0.00     0.163 HD
ATOM     33  O   UNL A   1      37.248  32.100  29.907  1.00  0.00    -0.269 OA
BRANCH  31  34
ATOM     34  C   UNL A   1      37.249  29.954  28.951  1.00  0.00     0.039 A 
ATOM     35  C   UNL A   1      37.420  29.070  30.021  1.00  0.00     0.014 A 
ATOM     36  C   UNL A   1      37.933  29.760  27.754  1.00  0.00     0.014 A 
ATOM     37  C   UNL A   1      38.471  28.160  29.985  1.00  0.00     0.010 A 
ATOM     38  C   UNL A   1      39.059  28.963  27.776  1.00  0.00     0.010 A 
ATOM     39  C   UNL A   1      39.367  28.212  28.916  1.00  0.00    -0.014 A 
BRANCH  39  40
ATOM     40  C   UNL A   1      40.720  27.660  28.989  1.00  0.00     0.031 A 
ATOM     41  C   UNL A   1      40.998  26.269  28.573  1.00  0.00     0.074 A 
ATOM     42  C   UNL A   1      41.747  28.450  29.376  1.00  0.00     0.049 A 
ATOM     43  N   UNL A   1      42.009  25.574  28.972  1.00  0.00    -0.248 NA
ATOM     44  C   UNL A   1      40.107  25.521  27.697  1.00  0.00     0.031 C 
ATOM     45  C   UNL A   1      43.176  28.172  29.256  1.00  0.00     0.029 A 
ATOM     46  N   UNL A   1      41.684  29.577  30.190  1.00  0.00    -0.354 N 
ATOM     47  C   UNL A   1      42.083  24.445  28.186  1.00  0.00     0.074 A 
ATOM     48  C   UNL A   1      40.827  24.419  27.476  1.00  0.00     0.031 C 
ATOM     49  C   UNL A   1      43.839  28.917  30.153  1.00  0.00     0.029 A 
ATOM     50  C   UNL A   1      42.853  29.600  30.968  1.00  0.00     0.049 A 
ATOM     51  H   UNL A   1      40.954  30.237  30.215  1.00  0.00     0.167 HD
ATOM     52  C   UNL A   1      43.258  23.754  28.117  1.00  0.00     0.034 A 
ATOM     53  C   UNL A   1      42.787  29.555  32.330  1.00  0.00     0.034 A 
ATOM     54  C   UNL A   1      44.240  24.273  29.077  1.00  0.00     0.049 A 
ATOM     55  C   UNL A   1      43.445  28.330  32.928  1.00  0.00     0.074 A 
ATOM     56  C   UNL A   1      45.368  25.068  28.943  1.00  0.00     0.029 A 
ATOM     57  N   UNL A   1      43.970  24.210  30.443  1.00  0.00    -0.354 N 
ATOM     58  N   UNL A   1      43.821  27.290  32.236  1.00  0.00    -0.248 NA
ATOM     59  C   UNL A   1      43.719  28.173  34.354  1.00  0.00     0.031 C 
ATOM     60  C   UNL A   1      45.731  25.540  30.233  1.00  0.00     0.029 A 
ATOM     61  C   UNL A   1      44.845  25.008  31.155  1.00  0.00     0.049 A 
ATOM     62  H   UNL A   1      43.253  23.670  30.845  1.00  0.00     0.167 HD
ATOM     63  C   UNL A   1      44.334  26.332  33.075  1.00  0.00     0.074 A 
ATOM     64  C   UNL A   1      44.278  26.950  34.387  1.00  0.00     0.031 C 
ATOM     65  C   UNL A   1      44.745  25.112  32.608  1.00  0.00     0.034 A 
BRANCH  52  66
ATOM     66  C   UNL A   1      43.632  22.831  26.967  1.00  0.00     0.023 A 
ATOM     67  C   UNL A   1      43.038  21.552  26.891  1.00  0.00     0.031 A 
ATOM     68  C   UNL A   1      44.597  23.091  25.974  1.00  0.00     0.131 A 
ATOM     69  C   UNL A   1      43.483  20.580  25.973  1.00  0.00     0.055 A 
ATOM     70  C   UNL A   1      45.083  22.109  25.098  1.00  0.00     0.041 A 
ATOM     71  F   UNL A   1      45.073  24.320  25.751  1.00  0.00    -0.206 F 
ATOM     72  C   UNL A   1      44.539  20.837  25.105  1.00  0.00     0.022 A 
BRANCH  69  73
ATOM     73  S   UNL A   1      42.662  18.963  25.926  1.00  0.00     0.124 S 
ATOM     74  O   UNL A   1      43.539  18.195  25.048  1.00  0.00    -0.237 OA
ATOM     75  O   UNL A   1      42.656  18.580  27.333  1.00  0.00    -0.237 OA
ATOM     76  O   UNL A   1      41.345  19.268  25.366  1.00  0.00    -0.744 OA
ENDBRANCH  69  73
ENDBRANCH  52  66
BRANCH  53  77
ATOM     77  C   UNL A   1      41.603  30.280  32.876  1.00  0.00     0.023 A 
ATOM     78  C   UNL A   1      41.657  31.691  32.839  1.00  0.00     0.031 A 
ATOM     79  C   UNL A   1      40.349  29.676  33.019  1.00  0.00     0.131 A 
ATOM     80  C   UNL A   1      40.480  32.446  32.767  1.00  0.00     0.055 A 
ATOM     81  C   UNL A   1      39.173  30.441  33.022  1.00  0.00     0.041 A 
ATOM     82  F   UNL A   1      40.228  28.340  33.018  1.00  0.00    -0.206 F 
ATOM     83  C   UNL A   1      39.232  31.827  32.849  1.00  0.00     0.022 A 
BRANCH  80  84
ATOM     84  S   UNL A   1      40.608  34.193  32.271  1.00  0.00     0.124 S 
ATOM     85  O   UNL A   1      41.195  34.093  30.940  1.00  0.00    -0.237 OA
ATOM     86  O   UNL A   1      39.218  34.650  32.323  1.00  0.00    -0.237 OA
ATOM     87  O   UNL A   1      41.465  34.777  33.298  1.00  0.00    -0.744 OA
ENDBRANCH  80  84
ENDBRANCH  53  77
BRANCH  65  88
ATOM     88  C   UNL A   1      45.165  23.926  33.458  1.00  0.00     0.023 A 
ATOM     89  C   UNL A   1      46.465  23.743  33.953  1.00  0.00     0.031 A 
ATOM     90  C   UNL A   1      44.215  22.955  33.867  1.00  0.00     0.131 A 
ATOM     91  C   UNL A   1      46.798  22.617  34.732  1.00  0.00     0.055 A 
ATOM     92  C   UNL A   1      44.530  21.881  34.705  1.00  0.00     0.041 A 
ATOM     93  F   UNL A   1      42.934  23.010  33.476  1.00  0.00    -0.206 F 
ATOM     94  C   UNL A   1      45.834  21.695  35.131  1.00  0.00     0.022 A 
BRANCH  91  95
ATOM     95  S   UNL A   1      48.539  22.348  35.158  1.00  0.00     0.124 S 
ATOM     96  O   UNL A   1      48.453  22.013  36.577  1.00  0.00    -0.237 OA
ATOM     97  O   UNL A   1      48.914  21.252  34.270  1.00  0.00    -0.237 OA
ATOM     98  O   UNL A   1      49.170  23.632  34.861  1.00  0.00    -0.744 OA
ENDBRANCH  91  95
ENDBRANCH  65  88
ENDBRANCH  39  40
ENDBRANCH  31  34
ENDBRANCH  29  30
ENDBRANCH  28  29
ENDBRANCH   1  28
TORSDOF 17
ENDMDL
MODEL 2
REMARK VINA RESULT:     -13.1      4.080     10.679
REMARK SMILES Cc1cc(NC(=O)c2ccc(Br)cc2N)ccc1C(=O)NCCCCNC(=O)c1ccc(-c2c3nc(c(-c4cc(S(=O)(=O)[O-])ccc4F)c4ccc([nH]4)c(-c4cc(S(=O)(=O)[O-])ccc4F)c4nc(c(-c5cc(S(=O)(=O)[O-])ccc5F)c5ccc2[nH]5)C=C4)C=C3)cc1
REMARK SMILES IDX 23 1 22 2 21 3 19 4 20 5 18 7 1 8 2 9 3 10 4 11 17 12 16 13
REMARK SMILES IDX 5 14 6 15 7 17 8 18 9 19 14 20 10 21 13 22 11 23 12 24 15 25
REMARK SMILES IDX 24 28 25 29 26 30 27 31 28 33 29 34 30 35 91 36 31 37 90 38
REMARK SMILES IDX 32 39 33 40 34 41 84 42 35 43 89 44 83 45 85 46 36 47 88 48
REMARK SMILES IDX 82 49 81 50 37 52 69 53 49 54 68 55 50 56 53 57 67 58 86 59
REMARK SMILES IDX 51 60 52 61 66 63 87 64 54 65 38 66 39 67 47 68 40 69 46 70
REMARK SMILES IDX 48 71 45 72 41 73 42 74 43 75 44 76 70 77 71 78 79 79 72 80
REMARK SMILES IDX 78 81 80 82 77 83 73 84 74 85 75 86 76 87 55 88 56 89 64 90
REMARK SMILES IDX 57 91 63 92 65 93 62 94 58 95 59 96 60 97 61 98
REMARK H PARENT 21 6 5 16 15 26 15 27 26 32 85 51 53 62
REMARK Flexibility Score: inf
ROOT
ATOM      1  C   UNL A   1      37.575  21.469  25.028  1.00  0.00     0.023 C 
ENDROOT
BRANCH   1   2
ATOM      2  C   UNL A   1      36.244  21.750  25.743  1.00  0.00     0.116 C 
BRANCH   2   3
ATOM      3  N   UNL A   1      35.307  20.671  25.490  1.00  0.00    -0.352 N 
ATOM      4  C   UNL A   1      33.998  20.602  25.100  1.00  0.00     0.251 C 
ATOM      5  O   UNL A   1      33.519  19.460  25.099  1.00  0.00    -0.269 OA
ATOM      6  H   UNL A   1      35.706  19.783  25.633  1.00  0.00     0.163 HD
BRANCH   4   7
ATOM      7  C   UNL A   1      33.122  21.722  24.598  1.00  0.00     0.042 A 
ATOM      8  C   UNL A   1      34.585  22.946  22.814  1.00  0.00     0.045 C 
ATOM      9  C   UNL A   1      33.348  22.709  23.621  1.00  0.00    -0.036 A 
ATOM     10  C   UNL A   1      32.335  23.658  23.362  1.00  0.00     0.030 A 
ATOM     11  C   UNL A   1      31.127  23.682  24.045  1.00  0.00     0.041 A 
ATOM     12  C   UNL A   1      31.909  21.819  25.336  1.00  0.00     0.016 A 
ATOM     13  C   UNL A   1      30.939  22.800  25.092  1.00  0.00     0.027 A 
BRANCH  11  14
ATOM     14  N   UNL A   1      30.097  24.566  23.689  1.00  0.00    -0.322 N 
ATOM     15  C   UNL A   1      29.843  25.832  24.191  1.00  0.00     0.257 C 
ATOM     16  H   UNL A   1      29.476  24.246  22.996  1.00  0.00     0.170 HD
ATOM     17  O   UNL A   1      28.731  26.338  24.040  1.00  0.00    -0.269 OA
BRANCH  15  18
ATOM     18  C   UNL A   1      30.925  26.623  24.851  1.00  0.00     0.063 A 
ATOM     19  C   UNL A   1      30.921  26.651  26.256  1.00  0.00     0.017 A 
ATOM     20  C   UNL A   1      31.925  27.314  24.127  1.00  0.00     0.045 A 
ATOM     21  C   UNL A   1      31.907  27.355  26.950  1.00  0.00     0.016 A 
ATOM     22  C   UNL A   1      32.887  28.039  24.846  1.00  0.00     0.042 A 
ATOM     23  C   UNL A   1      32.881  28.051  26.241  1.00  0.00     0.020 A 
ATOM     24  Br  UNL A   1      34.174  29.068  27.171  1.00  0.00    -0.051 Br
BRANCH  20  25
ATOM     25  N   UNL A   1      31.917  27.452  22.736  1.00  0.00    -0.398 N 
ATOM     26  H   UNL A   1      32.741  27.293  22.220  1.00  0.00     0.156 HD
ATOM     27  H   UNL A   1      31.087  27.707  22.271  1.00  0.00     0.156 HD
ENDBRANCH  20  25
ENDBRANCH  15  18
ENDBRANCH  11  14
ENDBRANCH   4   7
ENDBRANCH   2   3
ENDBRANCH   1   2
BRANCH   1  28
ATOM     28  C   UNL A   1      38.812  21.488  25.914  1.00  0.00     0.023 C 
BRANCH  28  29
ATOM     29  C   UNL A   1      39.175  22.887  26.375  1.00  0.00     0.116 C 
BRANCH  29  30
ATOM     30  N   UNL A   1      40.593  23.101  26.650  1.00  0.00    -0.352 N 
ATOM     31  C   UNL A   1      41.249  24.307  26.840  1.00  0.00     0.251 C 
ATOM     32  H   UNL A   1      41.150  22.291  26.709  1.00  0.00     0.163 HD
ATOM     33  O   UNL A   1      42.472  24.368  26.953  1.00  0.00    -0.269 OA
BRANCH  31  34
ATOM     34  C   UNL A   1      40.430  25.528  27.026  1.00  0.00     0.039 A 
ATOM     35  C   UNL A   1      40.807  26.670  26.314  1.00  0.00     0.014 A 
ATOM     36  C   UNL A   1      39.559  25.620  28.107  1.00  0.00     0.014 A 
ATOM     37  C   UNL A   1      40.529  27.923  26.851  1.00  0.00     0.010 A 
ATOM     38  C   UNL A   1      39.411  26.851  28.713  1.00  0.00     0.010 A 
ATOM     39  C   UNL A   1      39.953  27.997  28.119  1.00  0.00    -0.014 A 
BRANCH  39  40
ATOM     40  C   UNL A   1      40.041  29.189  28.961  1.00  0.00     0.031 A 
ATOM     41  C   UNL A   1      38.987  30.225  28.927  1.00  0.00     0.074 A 
ATOM     42  C   UNL A   1      41.063  29.318  29.838  1.00  0.00     0.049 A 
ATOM     43  N   UNL A   1      39.157  31.454  29.284  1.00  0.00    -0.248 NA
ATOM     44  C   UNL A   1      37.646  29.962  28.426  1.00  0.00     0.031 C 
ATOM     45  C   UNL A   1      41.181  30.279  30.932  1.00  0.00     0.029 A 
ATOM     46  N   UNL A   1      42.328  28.745  29.747  1.00  0.00    -0.354 N 
ATOM     47  C   UNL A   1      37.915  32.045  29.367  1.00  0.00     0.074 A 
ATOM     48  C   UNL A   1      37.025  31.101  28.735  1.00  0.00     0.031 C 
ATOM     49  C   UNL A   1      42.477  30.425  31.242  1.00  0.00     0.029 A 
ATOM     50  C   UNL A   1      43.247  29.666  30.275  1.00  0.00     0.049 A 
ATOM     51  H   UNL A   1      42.540  27.855  29.382  1.00  0.00     0.167 HD
ATOM     52  C   UNL A   1      37.768  33.190  30.096  1.00  0.00     0.034 A 
ATOM     53  C   UNL A   1      44.258  30.165  29.505  1.00  0.00     0.034 A 
ATOM     54  C   UNL A   1      39.066  33.706  30.550  1.00  0.00     0.049 A 
ATOM     55  C   UNL A   1      44.184  31.662  29.303  1.00  0.00     0.074 A 
ATOM     56  C   UNL A   1      39.714  33.696  31.775  1.00  0.00     0.029 A 
ATOM     57  N   UNL A   1      40.015  34.104  29.611  1.00  0.00    -0.354 N 
ATOM     58  N   UNL A   1      43.144  32.391  29.605  1.00  0.00    -0.248 NA
ATOM     59  C   UNL A   1      45.267  32.457  28.730  1.00  0.00     0.031 C 
ATOM     60  C   UNL A   1      41.079  34.022  31.554  1.00  0.00     0.029 A 
ATOM     61  C   UNL A   1      41.255  34.262  30.202  1.00  0.00     0.049 A 
ATOM     62  H   UNL A   1      39.828  34.253  28.657  1.00  0.00     0.167 HD
ATOM     63  C   UNL A   1      43.373  33.699  29.255  1.00  0.00     0.074 A 
ATOM     64  C   UNL A   1      44.731  33.691  28.742  1.00  0.00     0.031 C 
ATOM     65  C   UNL A   1      42.413  34.663  29.408  1.00  0.00     0.034 A 
BRANCH  52  66
ATOM     66  C   UNL A   1      36.442  33.661  30.673  1.00  0.00     0.023 A 
ATOM     67  C   UNL A   1      35.505  34.287  29.821  1.00  0.00     0.031 A 
ATOM     68  C   UNL A   1      36.061  33.611  32.029  1.00  0.00     0.131 A 
ATOM     69  C   UNL A   1      34.350  34.920  30.324  1.00  0.00     0.055 A 
ATOM     70  C   UNL A   1      34.945  34.289  32.540  1.00  0.00     0.041 A 
ATOM     71  F   UNL A   1      36.705  32.849  32.919  1.00  0.00    -0.206 F 
ATOM     72  C   UNL A   1      34.089  34.966  31.689  1.00  0.00     0.022 A 
BRANCH  69  73
ATOM     73  S   UNL A   1      33.186  35.691  29.166  1.00  0.00     0.124 S 
ATOM     74  O   UNL A   1      32.256  36.367  30.065  1.00  0.00    -0.237 OA
ATOM     75  O   UNL A   1      34.062  36.548  28.374  1.00  0.00    -0.237 OA
ATOM     76  O   UNL A   1      32.623  34.550  28.443  1.00  0.00    -0.744 OA
ENDBRANCH  69  73
ENDBRANCH  52  66
BRANCH  53  77
ATOM     77  C   UNL A   1      44.791  29.165  28.535  1.00  0.00     0.023 A 
ATOM     78  C   UNL A   1      45.594  28.133  29.071  1.00  0.00     0.031 A 
ATOM     79  C   UNL A   1      44.227  28.965  27.270  1.00  0.00     0.131 A 
ATOM     80  C   UNL A   1      45.669  26.888  28.435  1.00  0.00     0.055 A 
ATOM     81  C   UNL A   1      44.366  27.740  26.600  1.00  0.00     0.041 A 
ATOM     82  F   UNL A   1      43.421  29.889  26.726  1.00  0.00    -0.206 F 
ATOM     83  C   UNL A   1      45.050  26.680  27.202  1.00  0.00     0.022 A 
BRANCH  80  84
ATOM     84  S   UNL A   1      46.331  25.479  29.380  1.00  0.00     0.124 S 
ATOM     85  O   UNL A   1      47.725  25.862  29.569  1.00  0.00    -0.237 OA
ATOM     86  O   UNL A   1      45.501  25.476  30.585  1.00  0.00    -0.237 OA
ATOM     87  O   UNL A   1      46.103  24.339  28.497  1.00  0.00    -0.744 OA
ENDBRANCH  80  84
ENDBRANCH  53  77
BRANCH  65  88
ATOM     88  C   UNL A   1      42.494  36.092  28.902  1.00  0.00     0.023 A 
ATOM     89  C   UNL A   1      43.200  37.113  29.556  1.00  0.00     0.031 A 
ATOM     90  C   UNL A   1      41.904  36.457  27.665  1.00  0.00     0.131 A 
ATOM     91  C   UNL A   1      43.234  38.424  29.041  1.00  0.00     0.055 A 
ATOM     92  C   UNL A   1      42.005  37.739  27.116  1.00  0.00     0.041 A 
ATOM     93  F   UNL A   1      41.206  35.580  26.927  1.00  0.00    -0.206 F 
ATOM     94  C   UNL A   1      42.660  38.740  27.813  1.00  0.00     0.022 A 
BRANCH  91  95
ATOM     95  S   UNL A   1      43.991  39.727  30.050  1.00  0.00     0.124 S 
ATOM     96  O   UNL A   1      45.370  39.259  30.157  1.00  0.00    -0.237 OA
ATOM     97  O   UNL A   1      43.787  40.916  29.229  1.00  0.00    -0.237 OA
ATOM     98  O   UNL A   1      43.225  39.691  31.293  1.00  0.00    -0.744 OA
ENDBRANCH  91  95
ENDBRANCH  65  88
ENDBRANCH  39  40
ENDBRANCH  31  34
ENDBRANCH  29  30
ENDBRANCH  28  29
ENDBRANCH   1  28
TORSDOF 17
ENDMDL
MODEL 3
REMARK VINA RESULT:     -12.7      2.591      3.732
REMARK SMILES Cc1cc(NC(=O)c2ccc(Br)cc2N)ccc1C(=O)NCCCCNC(=O)c1ccc(-c2c3nc(c(-c4cc(S(=O)(=O)[O-])ccc4F)c4ccc([nH]4)c(-c4cc(S(=O)(=O)[O-])ccc4F)c4nc(c(-c5cc(S(=O)(=O)[O-])ccc5F)c5ccc2[nH]5)C=C4)C=C3)cc1
REMARK SMILES IDX 23 1 22 2 21 3 19 4 20 5 18 7 1 8 2 9 3 10 4 11 17 12 16 13
REMARK SMILES IDX 5 14 6 15 7 17 8 18 9 19 14 20 10 21 13 22 11 23 12 24 15 25
REMARK SMILES IDX 24 28 25 29 26 30 27 31 28 33 29 34 30 35 91 36 31 37 90 38
REMARK SMILES IDX 32 39 33 40 34 41 84 42 35 43 89 44 83 45 85 46 36 47 88 48
REMARK SMILES IDX 82 49 81 50 37 52 69 53 49 54 68 55 50 56 53 57 67 58 86 59
REMARK SMILES IDX 51 60 52 61 66 63 87 64 54 65 38 66 39 67 47 68 40 69 46 70
REMARK SMILES IDX 48 71 45 72 41 73 42 74 43 75 44 76 70 77 71 78 79 79 72 80
REMARK SMILES IDX 78 81 80 82 77 83 73 84 74 85 75 86 76 87 55 88 56 89 64 90
REMARK SMILES IDX 57 91 63 92 65 93 62 94 58 95 59 96 60 97 61 98
REMARK H PARENT 21 6 5 16 15 26 15 27 26 32 85 51 53 62
REMARK Flexibility Score: inf
ROOT
ATOM      1  C   UNL A   1      33.129  29.837  26.842  1.00  0.00     0.023 C 
ENDROOT
BRANCH   1   2
ATOM      2  C   UNL A   1      33.216  29.573  25.330  1.00  0.00     0.116 C 
BRANCH   2   3
ATOM      3  N   UNL A   1      31.917  29.770  24.716  1.00  0.00    -0.352 N 
ATOM      4  C   UNL A   1      31.005  28.953  24.106  1.00  0.00     0.251 C 
ATOM      5  O   UNL A   1      30.036  29.542  23.608  1.00  0.00    -0.269 OA
ATOM      6  H   UNL A   1      31.622  30.709  24.744  1.00  0.00     0.163 HD
BRANCH   4   7
ATOM      7  C   UNL A   1      31.004  27.446  24.051  1.00  0.00     0.042 A 
ATOM      8  C   UNL A   1      30.973  26.703  26.556  1.00  0.00     0.045 C 
ATOM      9  C   UNL A   1      30.973  26.482  25.076  1.00  0.00    -0.036 A 
ATOM     10  C   UNL A   1      30.995  25.114  24.727  1.00  0.00     0.030 A 
ATOM     11  C   UNL A   1      31.071  24.668  23.414  1.00  0.00     0.041 A 
ATOM     12  C   UNL A   1      31.162  26.962  22.722  1.00  0.00     0.016 A 
ATOM     13  C   UNL A   1      31.230  25.599  22.405  1.00  0.00     0.027 A 
BRANCH  11  14
ATOM     14  N   UNL A   1      30.979  23.306  23.092  1.00  0.00    -0.322 N 
ATOM     15  C   UNL A   1      32.000  22.370  23.026  1.00  0.00     0.257 C 
ATOM     16  H   UNL A   1      30.076  22.972  22.887  1.00  0.00     0.170 HD
ATOM     17  O   UNL A   1      31.826  21.320  22.408  1.00  0.00    -0.269 OA
BRANCH  15  18
ATOM     18  C   UNL A   1      33.284  22.588  23.757  1.00  0.00     0.063 A 
ATOM     19  C   UNL A   1      34.275  23.326  23.087  1.00  0.00     0.017 A 
ATOM     20  C   UNL A   1      33.520  22.097  25.063  1.00  0.00     0.045 A 
ATOM     21  C   UNL A   1      35.499  23.587  23.707  1.00  0.00     0.016 A 
ATOM     22  C   UNL A   1      34.769  22.346  25.652  1.00  0.00     0.042 A 
ATOM     23  C   UNL A   1      35.742  23.090  24.983  1.00  0.00     0.020 A 
ATOM     24  Br  UNL A   1      37.423  23.374  25.799  1.00  0.00    -0.051 Br
BRANCH  20  25
ATOM     25  N   UNL A   1      32.645  21.240  25.736  1.00  0.00    -0.398 N 
ATOM     26  H   UNL A   1      32.800  20.268  25.722  1.00  0.00     0.156 HD
ATOM     27  H   UNL A   1      31.874  21.608  26.225  1.00  0.00     0.156 HD
ENDBRANCH  20  25
ENDBRANCH  15  18
ENDBRANCH  11  14
ENDBRANCH   4   7
ENDBRANCH   2   3
ENDBRANCH   1   2
BRANCH   1  28
ATOM     28  C   UNL A   1      34.448  29.763  27.598  1.00  0.00     0.023 C 
BRANCH  28  29
ATOM     29  C   UNL A   1      35.093  31.125  27.774  1.00  0.00     0.116 C 
BRANCH  29  30
ATOM     30  N   UNL A   1      34.177  32.204  28.135  1.00  0.00    -0.352 N 
ATOM     31  C   UNL A   1      34.318  33.132  29.153  1.00  0.00     0.251 C 
ATOM     32  H   UNL A   1      33.362  32.280  27.587  1.00  0.00     0.163 HD
ATOM     33  O   UNL A   1      33.421  33.926  29.433  1.00  0.00    -0.269 OA
BRANCH  31  34
ATOM     34  C   UNL A   1      35.631  33.233  29.832  1.00  0.00     0.039 A 
ATOM     35  C   UNL A   1      36.674  33.844  29.129  1.00  0.00     0.014 A 
ATOM     36  C   UNL A   1      35.892  32.453  30.955  1.00  0.00     0.014 A 
ATOM     37  C   UNL A   1      37.983  33.453  29.389  1.00  0.00     0.010 A 
ATOM     38  C   UNL A   1      37.171  31.958  31.113  1.00  0.00     0.010 A 
ATOM     39  C   UNL A   1      38.206  32.408  30.286  1.00  0.00    -0.014 A 
BRANCH  39  40
ATOM     40  C   UNL A   1      39.436  31.617  30.291  1.00  0.00     0.031 A 
ATOM     41  C   UNL A   1      39.476  30.269  29.685  1.00  0.00     0.074 A 
ATOM     42  C   UNL A   1      40.575  32.148  30.791  1.00  0.00     0.049 A 
ATOM     43  N   UNL A   1      40.335  29.355  29.990  1.00  0.00    -0.248 NA
ATOM     44  C   UNL A   1      38.496  29.821  28.706  1.00  0.00     0.031 C 
ATOM     45  C   UNL A   1      41.935  31.636  30.644  1.00  0.00     0.029 A 
ATOM     46  N   UNL A   1      40.687  33.146  31.755  1.00  0.00    -0.354 N 
ATOM     47  C   UNL A   1      40.232  28.350  29.053  1.00  0.00     0.074 A 
ATOM     48  C   UNL A   1      39.015  28.648  28.338  1.00  0.00     0.031 C 
ATOM     49  C   UNL A   1      42.690  32.120  31.641  1.00  0.00     0.029 A 
ATOM     50  C   UNL A   1      41.815  32.851  32.537  1.00  0.00     0.049 A 
ATOM     51  H   UNL A   1      40.085  33.917  31.867  1.00  0.00     0.167 HD
ATOM     52  C   UNL A   1      41.268  27.474  28.897  1.00  0.00     0.034 A 
ATOM     53  C   UNL A   1      41.698  32.632  33.879  1.00  0.00     0.034 A 
ATOM     54  C   UNL A   1      42.295  27.672  29.927  1.00  0.00     0.049 A 
ATOM     55  C   UNL A   1      42.109  31.239  34.304  1.00  0.00     0.074 A 
ATOM     56  C   UNL A   1      43.550  28.260  29.914  1.00  0.00     0.029 A 
ATOM     57  N   UNL A   1      41.974  27.471  31.268  1.00  0.00    -0.354 N 
ATOM     58  N   UNL A   1      42.316  30.253  33.475  1.00  0.00    -0.248 NA
ATOM     59  C   UNL A   1      42.304  30.842  35.695  1.00  0.00     0.031 C 
ATOM     60  C   UNL A   1      43.949  28.478  31.260  1.00  0.00     0.029 A 
ATOM     61  C   UNL A   1      42.953  27.994  32.092  1.00  0.00     0.049 A 
ATOM     62  H   UNL A   1      41.159  27.020  31.585  1.00  0.00     0.167 HD
ATOM     63  C   UNL A   1      42.624  29.112  34.175  1.00  0.00     0.074 A 
ATOM     64  C   UNL A   1      42.636  29.545  35.561  1.00  0.00     0.031 C 
ATOM     65  C   UNL A   1      42.826  27.914  33.544  1.00  0.00     0.034 A 
BRANCH  52  66
ATOM     66  C   UNL A   1      41.509  26.665  27.631  1.00  0.00     0.023 A 
ATOM     67  C   UNL A   1      41.518  25.255  27.707  1.00  0.00     0.031 A 
ATOM     68  C   UNL A   1      41.811  27.186  26.357  1.00  0.00     0.131 A 
ATOM     69  C   UNL A   1      41.928  24.455  26.622  1.00  0.00     0.055 A 
ATOM     70  C   UNL A   1      42.275  26.399  25.294  1.00  0.00     0.041 A 
ATOM     71  F   UNL A   1      41.609  28.472  26.050  1.00  0.00    -0.206 F 
ATOM     72  C   UNL A   1      42.354  25.024  25.427  1.00  0.00     0.022 A 
BRANCH  69  73
ATOM     73  S   UNL A   1      41.901  22.649  26.792  1.00  0.00     0.124 S 
ATOM     74  O   UNL A   1      40.520  22.396  27.192  1.00  0.00    -0.237 OA
ATOM     75  O   UNL A   1      42.280  22.208  25.455  1.00  0.00    -0.237 OA
ATOM     76  O   UNL A   1      42.898  22.392  27.831  1.00  0.00    -0.744 OA
ENDBRANCH  69  73
ENDBRANCH  52  66
BRANCH  53  77
ATOM     77  C   UNL A   1      40.645  33.477  34.513  1.00  0.00     0.023 A 
ATOM     78  C   UNL A   1      39.586  32.792  35.149  1.00  0.00     0.031 A 
ATOM     79  C   UNL A   1      40.858  34.817  34.857  1.00  0.00     0.131 A 
ATOM     80  C   UNL A   1      38.895  33.383  36.214  1.00  0.00     0.055 A 
ATOM     81  C   UNL A   1      40.113  35.430  35.875  1.00  0.00     0.041 A 
ATOM     82  F   UNL A   1      41.874  35.508  34.320  1.00  0.00    -0.206 F 
ATOM     83  C   UNL A   1      39.159  34.700  36.590  1.00  0.00     0.022 A 
BRANCH  80  84
ATOM     84  S   UNL A   1      37.872  32.313  37.274  1.00  0.00     0.124 S 
ATOM     85  O   UNL A   1      38.682  32.211  38.482  1.00  0.00    -0.237 OA
ATOM     86  O   UNL A   1      36.628  33.073  37.401  1.00  0.00    -0.237 OA
ATOM     87  O   UNL A   1      37.742  31.085  36.496  1.00  0.00    -0.744 OA
ENDBRANCH  80  84
ENDBRANCH  53  77
BRANCH  65  88
ATOM     88  C   UNL A   1      43.001  26.567  34.222  1.00  0.00     0.023 A 
ATOM     89  C   UNL A   1      44.229  25.893  34.313  1.00  0.00     0.031 A 
ATOM     90  C   UNL A   1      41.913  25.941  34.882  1.00  0.00     0.131 A 
ATOM     91  C   UNL A   1      44.328  24.640  34.949  1.00  0.00     0.055 A 
ATOM     92  C   UNL A   1      42.031  24.735  35.581  1.00  0.00     0.041 A 
ATOM     93  F   UNL A   1      40.683  26.477  34.884  1.00  0.00    -0.206 F 
ATOM     94  C   UNL A   1      43.242  24.066  35.604  1.00  0.00     0.022 A 
BRANCH  91  95
ATOM     95  S   UNL A   1      45.900  23.743  34.844  1.00  0.00     0.124 S 
ATOM     96  O   UNL A   1      46.048  23.234  36.205  1.00  0.00    -0.237 OA
ATOM     97  O   UNL A   1      45.621  22.741  33.820  1.00  0.00    -0.237 OA
ATOM     98  O   UNL A   1      46.862  24.773  34.459  1.00  0.00    -0.744 OA
ENDBRANCH  91  95
ENDBRANCH  65  88
ENDBRANCH  39  40
ENDBRANCH  31  34
ENDBRANCH  29  30
ENDBRANCH  28  29
ENDBRANCH   1  28
TORSDOF 17
ENDMDL
