MODEL 1
REMARK VINA RESULT:     -12.6      0.000      0.000
REMARK SMILES Cc1cc(C)c2c(c1)C=C(C(=O)NCCCCNC(=O)c1ccc(-c3c4nc(c(-c5cc(S(=O)(=O)[O-])ccc5F)c5ccc([nH]5)c(-c5cc(S(=O)(=O)[O-])ccc5F)c5nc(c(-c6cc(S(=O)(=O)[O-])ccc6F)c6ccc3[nH]6)C=C5)C=C4)cc1)[C@@H](C(F)(F)F)O2
REMARK SMILES IDX 16 1 15 2 14 3 13 4 11 5 12 6 10 8 1 9 2 10 3 11 8 12 4 13
REMARK SMILES IDX 7 14 5 15 6 16 9 17 89 18 84 19 85 20 86 21 87 22 88 23
REMARK SMILES IDX 17 24 18 25 19 26 20 28 21 29 22 30 83 31 23 32 82 33 24 34
REMARK SMILES IDX 25 35 26 36 76 37 27 38 81 39 75 40 77 41 28 42 80 43 74 44
REMARK SMILES IDX 73 45 29 47 61 48 41 49 60 50 42 51 45 52 59 53 78 54 43 55
REMARK SMILES IDX 44 56 58 58 79 59 46 60 30 61 31 62 39 63 32 64 38 65 40 66
REMARK SMILES IDX 37 67 33 68 34 69 35 70 36 71 62 72 63 73 71 74 64 75 70 76
REMARK SMILES IDX 72 77 69 78 65 79 66 80 67 81 68 82 47 83 48 84 56 85 49 86
REMARK SMILES IDX 55 87 57 88 54 89 50 90 51 91 52 92 53 93
REMARK H PARENT 13 7 18 27 77 46 45 57
REMARK Flexibility Score: inf
ROOT
ATOM      1  C   UNL A   1      32.059  28.601  24.158  1.00  0.00     0.023 C 
ENDROOT
BRANCH   1   2
ATOM      2  C   UNL A   1      31.252  27.485  24.826  1.00  0.00     0.023 C 
BRANCH   2   3
ATOM      3  C   UNL A   1      30.939  26.307  23.908  1.00  0.00     0.116 C 
BRANCH   3   4
ATOM      4  N   UNL A   1      31.787  26.298  22.730  1.00  0.00    -0.352 N 
ATOM      5  C   UNL A   1      32.826  25.563  22.267  1.00  0.00     0.251 C 
ATOM      6  O   UNL A   1      33.278  25.922  21.174  1.00  0.00    -0.270 OA
ATOM      7  H   UNL A   1      31.543  27.016  22.102  1.00  0.00     0.163 HD
BRANCH   5   8
ATOM      8  C   UNL A   1      33.435  24.392  22.965  1.00  0.00     0.067 C 
ATOM      9  C   UNL A   1      32.235  18.462  24.253  1.00  0.00     0.044 C 
ATOM     10  C   UNL A   1      33.035  19.731  24.213  1.00  0.00    -0.050 A 
ATOM     11  C   UNL A   1      34.323  19.770  24.761  1.00  0.00     0.010 A 
ATOM     12  C   UNL A   1      32.528  20.869  23.571  1.00  0.00     0.015 A 
ATOM     13  C   UNL A   1      35.097  20.937  24.698  1.00  0.00    -0.008 A 
ATOM     14  C   UNL A   1      33.285  22.041  23.505  1.00  0.00     0.018 A 
ATOM     15  C   UNL A   1      36.473  20.971  25.298  1.00  0.00     0.048 C 
ATOM     16  C   UNL A   1      34.560  22.071  24.075  1.00  0.00     0.130 A 
ATOM     17  C   UNL A   1      32.779  23.225  22.821  1.00  0.00     0.025 C 
ATOM     18  O   UNL A   1      35.353  23.184  24.001  1.00  0.00    -0.475 OA
ATOM     19  C   UNL A   1      34.665  24.454  23.825  1.00  0.00     0.314 C 
BRANCH  19  20
ATOM     20  C   UNL A   1      34.397  25.080  25.206  1.00  0.00     0.429 C 
ATOM     21  F   UNL A   1      33.184  24.690  25.674  1.00  0.00    -0.167 F 
ATOM     22  F   UNL A   1      35.306  24.699  26.134  1.00  0.00    -0.167 F 
ATOM     23  F   UNL A   1      34.403  26.431  25.180  1.00  0.00    -0.167 F 
ENDBRANCH  19  20
ENDBRANCH   5   8
ENDBRANCH   3   4
ENDBRANCH   2   3
ENDBRANCH   1   2
BRANCH   1  24
ATOM     24  C   UNL A   1      32.997  29.380  25.081  1.00  0.00     0.116 C 
BRANCH  24  25
ATOM     25  N   UNL A   1      32.363  30.511  25.742  1.00  0.00    -0.352 N 
ATOM     26  C   UNL A   1      32.821  31.222  26.826  1.00  0.00     0.251 C 
ATOM     27  H   UNL A   1      31.499  30.802  25.368  1.00  0.00     0.163 HD
ATOM     28  O   UNL A   1      32.134  32.107  27.325  1.00  0.00    -0.269 OA
BRANCH  26  29
ATOM     29  C   UNL A   1      34.132  30.865  27.402  1.00  0.00     0.039 A 
ATOM     30  C   UNL A   1      35.066  31.878  27.625  1.00  0.00     0.014 A 
ATOM     31  C   UNL A   1      34.396  29.548  27.790  1.00  0.00     0.014 A 
ATOM     32  C   UNL A   1      36.244  31.582  28.311  1.00  0.00     0.010 A 
ATOM     33  C   UNL A   1      35.545  29.268  28.521  1.00  0.00     0.010 A 
ATOM     34  C   UNL A   1      36.472  30.284  28.797  1.00  0.00    -0.014 A 
BRANCH  34  35
ATOM     35  C   UNL A   1      37.679  29.970  29.600  1.00  0.00     0.031 A 
ATOM     36  C   UNL A   1      38.731  29.057  29.040  1.00  0.00     0.074 A 
ATOM     37  C   UNL A   1      37.797  30.465  30.846  1.00  0.00     0.049 A 
ATOM     38  N   UNL A   1      39.812  28.596  29.610  1.00  0.00    -0.248 NA
ATOM     39  C   UNL A   1      38.522  28.580  27.664  1.00  0.00     0.031 C 
ATOM     40  C   UNL A   1      36.824  31.339  31.507  1.00  0.00     0.029 A 
ATOM     41  N   UNL A   1      38.787  30.305  31.782  1.00  0.00    -0.354 N 
ATOM     42  C   UNL A   1      40.409  27.766  28.670  1.00  0.00     0.074 A 
ATOM     43  C   UNL A   1      39.540  27.747  27.513  1.00  0.00     0.031 C 
ATOM     44  C   UNL A   1      37.282  31.663  32.727  1.00  0.00     0.029 A 
ATOM     45  C   UNL A   1      38.559  30.992  32.951  1.00  0.00     0.049 A 
ATOM     46  H   UNL A   1      39.585  29.748  31.631  1.00  0.00     0.167 HD
ATOM     47  C   UNL A   1      41.585  27.098  28.756  1.00  0.00     0.034 A 
ATOM     48  C   UNL A   1      39.295  31.069  34.076  1.00  0.00     0.034 A 
ATOM     49  C   UNL A   1      42.451  27.140  29.906  1.00  0.00     0.049 A 
ATOM     50  C   UNL A   1      40.588  30.305  34.157  1.00  0.00     0.074 A 
ATOM     51  C   UNL A   1      43.682  26.534  30.083  1.00  0.00     0.029 A 
ATOM     52  N   UNL A   1      42.176  27.832  31.078  1.00  0.00    -0.354 N 
ATOM     53  N   UNL A   1      41.139  29.523  33.259  1.00  0.00    -0.248 NA
ATOM     54  C   UNL A   1      41.356  30.432  35.402  1.00  0.00     0.031 C 
ATOM     55  C   UNL A   1      44.130  26.822  31.376  1.00  0.00     0.029 A 
ATOM     56  C   UNL A   1      43.205  27.652  31.989  1.00  0.00     0.049 A 
ATOM     57  H   UNL A   1      41.368  28.372  31.239  1.00  0.00     0.167 HD
ATOM     58  C   UNL A   1      42.326  29.074  33.826  1.00  0.00     0.074 A 
ATOM     59  C   UNL A   1      42.415  29.677  35.142  1.00  0.00     0.031 C 
ATOM     60  C   UNL A   1      43.262  28.242  33.304  1.00  0.00     0.034 A 
BRANCH  47  61
ATOM     61  C   UNL A   1      41.983  26.255  27.573  1.00  0.00     0.023 A 
ATOM     62  C   UNL A   1      41.623  24.899  27.488  1.00  0.00     0.031 A 
ATOM     63  C   UNL A   1      42.756  26.802  26.535  1.00  0.00     0.131 A 
ATOM     64  C   UNL A   1      42.093  24.118  26.423  1.00  0.00     0.055 A 
ATOM     65  C   UNL A   1      43.161  26.036  25.441  1.00  0.00     0.041 A 
ATOM     66  F   UNL A   1      43.144  28.087  26.576  1.00  0.00    -0.206 F 
ATOM     67  C   UNL A   1      42.841  24.683  25.386  1.00  0.00     0.022 A 
BRANCH  64  68
ATOM     68  S   UNL A   1      41.805  22.329  26.466  1.00  0.00     0.124 S 
ATOM     69  O   UNL A   1      40.363  22.259  26.240  1.00  0.00    -0.237 OA
ATOM     70  O   UNL A   1      42.646  21.845  25.378  1.00  0.00    -0.237 OA
ATOM     71  O   UNL A   1      42.240  21.945  27.808  1.00  0.00    -0.744 OA
ENDBRANCH  64  68
ENDBRANCH  47  61
BRANCH  48  72
ATOM     72  C   UNL A   1      38.825  31.899  35.216  1.00  0.00     0.023 A 
ATOM     73  C   UNL A   1      38.254  31.303  36.350  1.00  0.00     0.031 A 
ATOM     74  C   UNL A   1      38.949  33.299  35.190  1.00  0.00     0.131 A 
ATOM     75  C   UNL A   1      37.808  32.106  37.410  1.00  0.00     0.055 A 
ATOM     76  C   UNL A   1      38.530  34.093  36.259  1.00  0.00     0.041 A 
ATOM     77  F   UNL A   1      39.502  33.911  34.131  1.00  0.00    -0.206 F 
ATOM     78  C   UNL A   1      37.951  33.496  37.375  1.00  0.00     0.022 A 
BRANCH  75  79
ATOM     79  S   UNL A   1      37.028  31.310  38.841  1.00  0.00     0.124 S 
ATOM     80  O   UNL A   1      35.758  32.021  38.920  1.00  0.00    -0.237 OA
ATOM     81  O   UNL A   1      36.959  29.916  38.415  1.00  0.00    -0.237 OA
ATOM     82  O   UNL A   1      37.965  31.578  39.930  1.00  0.00    -0.744 OA
ENDBRANCH  75  79
ENDBRANCH  48  72
BRANCH  60  83
ATOM     83  C   UNL A   1      44.471  27.952  34.150  1.00  0.00     0.023 A 
ATOM     84  C   UNL A   1      44.517  26.834  34.998  1.00  0.00     0.031 A 
ATOM     85  C   UNL A   1      45.597  28.789  34.083  1.00  0.00     0.131 A 
ATOM     86  C   UNL A   1      45.663  26.596  35.771  1.00  0.00     0.055 A 
ATOM     87  C   UNL A   1      46.749  28.525  34.822  1.00  0.00     0.041 A 
ATOM     88  F   UNL A   1      45.598  29.868  33.284  1.00  0.00    -0.206 F 
ATOM     89  C   UNL A   1      46.785  27.425  35.676  1.00  0.00     0.022 A 
BRANCH  86  90
ATOM     90  S   UNL A   1      45.663  25.197  36.925  1.00  0.00     0.124 S 
ATOM     91  O   UNL A   1      47.004  24.651  36.737  1.00  0.00    -0.237 OA
ATOM     92  O   UNL A   1      45.412  25.844  38.208  1.00  0.00    -0.237 OA
ATOM     93  O   UNL A   1      44.575  24.350  36.437  1.00  0.00    -0.744 OA
ENDBRANCH  86  90
ENDBRANCH  60  83
ENDBRANCH  34  35
ENDBRANCH  26  29
ENDBRANCH  24  25
ENDBRANCH   1  24
TORSDOF 15
ENDMDL
MODEL 2
REMARK VINA RESULT:     -12.5      1.365      1.681
REMARK SMILES Cc1cc(C)c2c(c1)C=C(C(=O)NCCCCNC(=O)c1ccc(-c3c4nc(c(-c5cc(S(=O)(=O)[O-])ccc5F)c5ccc([nH]5)c(-c5cc(S(=O)(=O)[O-])ccc5F)c5nc(c(-c6cc(S(=O)(=O)[O-])ccc6F)c6ccc3[nH]6)C=C5)C=C4)cc1)[C@@H](C(F)(F)F)O2
REMARK SMILES IDX 16 1 15 2 14 3 13 4 11 5 12 6 10 8 1 9 2 10 3 11 8 12 4 13
REMARK SMILES IDX 7 14 5 15 6 16 9 17 89 18 84 19 85 20 86 21 87 22 88 23
REMARK SMILES IDX 17 24 18 25 19 26 20 28 21 29 22 30 83 31 23 32 82 33 24 34
REMARK SMILES IDX 25 35 26 36 76 37 27 38 81 39 75 40 77 41 28 42 80 43 74 44
REMARK SMILES IDX 73 45 29 47 61 48 41 49 60 50 42 51 45 52 59 53 78 54 43 55
REMARK SMILES IDX 44 56 58 58 79 59 46 60 30 61 31 62 39 63 32 64 38 65 40 66
REMARK SMILES IDX 37 67 33 68 34 69 35 70 36 71 62 72 63 73 71 74 64 75 70 76
REMARK SMILES IDX 72 77 69 78 65 79 66 80 67 81 68 82 47 83 48 84 56 85 49 86
REMARK SMILES IDX 55 87 57 88 54 89 50 90 51 91 52 92 53 93
REMARK H PARENT 13 7 18 27 77 46 45 57
REMARK Flexibility Score: inf
ROOT
ATOM      1  C   UNL A   1      31.880  28.942  24.828  1.00  0.00     0.023 C 
ENDROOT
BRANCH   1   2
ATOM      2  C   UNL A   1      32.357  28.575  23.419  1.00  0.00     0.023 C 
BRANCH   2   3
ATOM      3  C   UNL A   1      31.406  27.655  22.659  1.00  0.00     0.116 C 
BRANCH   3   4
ATOM      4  N   UNL A   1      32.104  26.851  21.671  1.00  0.00    -0.352 N 
ATOM      5  C   UNL A   1      32.837  25.713  21.664  1.00  0.00     0.251 C 
ATOM      6  O   UNL A   1      33.272  25.375  20.558  1.00  0.00    -0.270 OA
ATOM      7  H   UNL A   1      32.021  27.234  20.768  1.00  0.00     0.163 HD
BRANCH   5   8
ATOM      8  C   UNL A   1      33.143  24.875  22.861  1.00  0.00     0.067 C 
ATOM      9  C   UNL A   1      37.421  20.918  24.936  1.00  0.00     0.044 C 
ATOM     10  C   UNL A   1      36.187  21.768  24.990  1.00  0.00    -0.050 A 
ATOM     11  C   UNL A   1      35.405  21.804  26.152  1.00  0.00     0.010 A 
ATOM     12  C   UNL A   1      35.840  22.585  23.905  1.00  0.00     0.015 A 
ATOM     13  C   UNL A   1      34.270  22.622  26.232  1.00  0.00    -0.008 A 
ATOM     14  C   UNL A   1      34.707  23.401  23.967  1.00  0.00     0.018 A 
ATOM     15  C   UNL A   1      33.434  22.645  27.479  1.00  0.00     0.048 C 
ATOM     16  C   UNL A   1      33.926  23.410  25.126  1.00  0.00     0.130 A 
ATOM     17  C   UNL A   1      34.347  24.271  22.854  1.00  0.00     0.025 C 
ATOM     18  O   UNL A   1      32.832  24.222  25.247  1.00  0.00    -0.475 OA
ATOM     19  C   UNL A   1      32.198  24.638  24.005  1.00  0.00     0.314 C 
BRANCH  19  20
ATOM     20  C   UNL A   1      31.074  23.646  23.654  1.00  0.00     0.429 C 
ATOM     21  F   UNL A   1      30.657  22.991  24.768  1.00  0.00    -0.167 F 
ATOM     22  F   UNL A   1      29.982  24.259  23.139  1.00  0.00    -0.167 F 
ATOM     23  F   UNL A   1      31.460  22.711  22.758  1.00  0.00    -0.167 F 
ENDBRANCH  19  20
ENDBRANCH   5   8
ENDBRANCH   3   4
ENDBRANCH   2   3
ENDBRANCH   1   2
BRANCH   1  24
ATOM     24  C   UNL A   1      32.911  29.646  25.710  1.00  0.00     0.116 C 
BRANCH  24  25
ATOM     25  N   UNL A   1      32.496  30.968  26.157  1.00  0.00    -0.352 N 
ATOM     26  C   UNL A   1      33.125  31.789  27.062  1.00  0.00     0.251 C 
ATOM     27  H   UNL A   1      31.663  31.315  25.763  1.00  0.00     0.163 HD
ATOM     28  O   UNL A   1      32.611  32.850  27.400  1.00  0.00    -0.269 OA
BRANCH  26  29
ATOM     29  C   UNL A   1      34.403  31.345  27.651  1.00  0.00     0.039 A 
ATOM     30  C   UNL A   1      35.407  32.289  27.867  1.00  0.00     0.014 A 
ATOM     31  C   UNL A   1      34.567  30.017  28.059  1.00  0.00     0.014 A 
ATOM     32  C   UNL A   1      36.557  31.916  28.564  1.00  0.00     0.010 A 
ATOM     33  C   UNL A   1      35.688  29.663  28.800  1.00  0.00     0.010 A 
ATOM     34  C   UNL A   1      36.686  30.612  29.069  1.00  0.00    -0.014 A 
BRANCH  34  35
ATOM     35  C   UNL A   1      37.863  30.222  29.884  1.00  0.00     0.031 A 
ATOM     36  C   UNL A   1      38.901  29.307  29.303  1.00  0.00     0.074 A 
ATOM     37  C   UNL A   1      37.963  30.649  31.157  1.00  0.00     0.049 A 
ATOM     38  N   UNL A   1      39.954  28.785  29.875  1.00  0.00    -0.248 NA
ATOM     39  C   UNL A   1      38.714  28.907  27.900  1.00  0.00     0.031 C 
ATOM     40  C   UNL A   1      36.999  31.518  31.838  1.00  0.00     0.029 A 
ATOM     41  N   UNL A   1      38.923  30.411  32.107  1.00  0.00    -0.354 N 
ATOM     42  C   UNL A   1      40.550  27.986  28.908  1.00  0.00     0.074 A 
ATOM     43  C   UNL A   1      39.711  28.052  27.731  1.00  0.00     0.031 C 
ATOM     44  C   UNL A   1      37.434  31.765  33.083  1.00  0.00     0.029 A 
ATOM     45  C   UNL A   1      38.685  31.045  33.304  1.00  0.00     0.049 A 
ATOM     46  H   UNL A   1      39.708  29.839  31.947  1.00  0.00     0.167 HD
ATOM     47  C   UNL A   1      41.704  27.279  28.988  1.00  0.00     0.034 A 
ATOM     48  C   UNL A   1      39.393  31.043  34.448  1.00  0.00     0.034 A 
ATOM     49  C   UNL A   1      42.540  27.236  30.159  1.00  0.00     0.049 A 
ATOM     50  C   UNL A   1      40.661  30.237  34.522  1.00  0.00     0.074 A 
ATOM     51  C   UNL A   1      43.749  26.585  30.335  1.00  0.00     0.029 A 
ATOM     52  N   UNL A   1      42.256  27.876  31.359  1.00  0.00    -0.354 N 
ATOM     53  N   UNL A   1      41.213  29.484  33.598  1.00  0.00    -0.248 NA
ATOM     54  C   UNL A   1      41.400  30.277  35.790  1.00  0.00     0.031 C 
ATOM     55  C   UNL A   1      44.172  26.794  31.651  1.00  0.00     0.029 A 
ATOM     56  C   UNL A   1      43.256  27.618  32.283  1.00  0.00     0.049 A 
ATOM     57  H   UNL A   1      41.460  28.431  31.527  1.00  0.00     0.167 HD
ATOM     58  C   UNL A   1      42.371  28.971  34.170  1.00  0.00     0.074 A 
ATOM     59  C   UNL A   1      42.443  29.504  35.516  1.00  0.00     0.031 C 
ATOM     60  C   UNL A   1      43.296  28.140  33.628  1.00  0.00     0.034 A 
BRANCH  47  61
ATOM     61  C   UNL A   1      42.107  26.486  27.773  1.00  0.00     0.023 A 
ATOM     62  C   UNL A   1      41.732  25.140  27.621  1.00  0.00     0.031 A 
ATOM     63  C   UNL A   1      42.901  27.069  26.772  1.00  0.00     0.131 A 
ATOM     64  C   UNL A   1      42.207  24.402  26.528  1.00  0.00     0.055 A 
ATOM     65  C   UNL A   1      43.312  26.349  25.649  1.00  0.00     0.041 A 
ATOM     66  F   UNL A   1      43.305  28.346  26.876  1.00  0.00    -0.206 F 
ATOM     67  C   UNL A   1      42.976  25.003  25.528  1.00  0.00     0.022 A 
BRANCH  64  68
ATOM     68  S   UNL A   1      41.896  22.617  26.486  1.00  0.00     0.124 S 
ATOM     69  O   UNL A   1      40.438  22.572  26.566  1.00  0.00    -0.237 OA
ATOM     70  O   UNL A   1      42.478  22.222  25.209  1.00  0.00    -0.237 OA
ATOM     71  O   UNL A   1      42.595  22.120  27.670  1.00  0.00    -0.744 OA
ENDBRANCH  64  68
ENDBRANCH  47  61
BRANCH  48  72
ATOM     72  C   UNL A   1      38.918  31.828  35.618  1.00  0.00     0.023 A 
ATOM     73  C   UNL A   1      38.228  31.204  36.668  1.00  0.00     0.031 A 
ATOM     74  C   UNL A   1      39.157  33.210  35.705  1.00  0.00     0.131 A 
ATOM     75  C   UNL A   1      37.780  31.966  37.757  1.00  0.00     0.055 A 
ATOM     76  C   UNL A   1      38.735  33.959  36.804  1.00  0.00     0.041 A 
ATOM     77  F   UNL A   1      39.826  33.845  34.730  1.00  0.00    -0.206 F 
ATOM     78  C   UNL A   1      38.037  33.338  37.836  1.00  0.00     0.022 A 
BRANCH  75  79
ATOM     79  S   UNL A   1      36.847  31.141  39.075  1.00  0.00     0.124 S 
ATOM     80  O   UNL A   1      36.633  29.816  38.502  1.00  0.00    -0.237 OA
ATOM     81  O   UNL A   1      37.774  31.213  40.199  1.00  0.00    -0.237 OA
ATOM     82  O   UNL A   1      35.648  31.966  39.209  1.00  0.00    -0.744 OA
ENDBRANCH  75  79
ENDBRANCH  48  72
BRANCH  60  83
ATOM     83  C   UNL A   1      44.473  27.770  34.487  1.00  0.00     0.023 A 
ATOM     84  C   UNL A   1      44.475  26.596  35.257  1.00  0.00     0.031 A 
ATOM     85  C   UNL A   1      45.614  28.589  34.511  1.00  0.00     0.131 A 
ATOM     86  C   UNL A   1      45.594  26.285  36.045  1.00  0.00     0.055 A 
ATOM     87  C   UNL A   1      46.739  28.254  35.263  1.00  0.00     0.041 A 
ATOM     88  F   UNL A   1      45.657  29.721  33.789  1.00  0.00    -0.206 F 
ATOM     89  C   UNL A   1      46.731  27.098  36.040  1.00  0.00     0.022 A 
BRANCH  86  90
ATOM     90  S   UNL A   1      45.536  24.811  37.099  1.00  0.00     0.124 S 
ATOM     91  O   UNL A   1      46.806  24.163  36.782  1.00  0.00    -0.237 OA
ATOM     92  O   UNL A   1      45.428  25.382  38.438  1.00  0.00    -0.237 OA
ATOM     93  O   UNL A   1      44.345  24.102  36.633  1.00  0.00    -0.744 OA
ENDBRANCH  86  90
ENDBRANCH  60  83
ENDBRANCH  34  35
ENDBRANCH  26  29
ENDBRANCH  24  25
ENDBRANCH   1  24
TORSDOF 15
ENDMDL
MODEL 3
REMARK VINA RESULT:     -12.3      2.566      3.518
REMARK SMILES Cc1cc(C)c2c(c1)C=C(C(=O)NCCCCNC(=O)c1ccc(-c3c4nc(c(-c5cc(S(=O)(=O)[O-])ccc5F)c5ccc([nH]5)c(-c5cc(S(=O)(=O)[O-])ccc5F)c5nc(c(-c6cc(S(=O)(=O)[O-])ccc6F)c6ccc3[nH]6)C=C5)C=C4)cc1)[C@@H](C(F)(F)F)O2
REMARK SMILES IDX 16 1 15 2 14 3 13 4 11 5 12 6 10 8 1 9 2 10 3 11 8 12 4 13
REMARK SMILES IDX 7 14 5 15 6 16 9 17 89 18 84 19 85 20 86 21 87 22 88 23
REMARK SMILES IDX 17 24 18 25 19 26 20 28 21 29 22 30 83 31 23 32 82 33 24 34
REMARK SMILES IDX 25 35 26 36 76 37 27 38 81 39 75 40 77 41 28 42 80 43 74 44
REMARK SMILES IDX 73 45 29 47 61 48 41 49 60 50 42 51 45 52 59 53 78 54 43 55
REMARK SMILES IDX 44 56 58 58 79 59 46 60 30 61 31 62 39 63 32 64 38 65 40 66
REMARK SMILES IDX 37 67 33 68 34 69 35 70 36 71 62 72 63 73 71 74 64 75 70 76
REMARK SMILES IDX 72 77 69 78 65 79 66 80 67 81 68 82 47 83 48 84 56 85 49 86
REMARK SMILES IDX 55 87 57 88 54 89 50 90 51 91 52 92 53 93
REMARK H PARENT 13 7 18 27 77 46 45 57
REMARK Flexibility Score: inf
ROOT
ATOM      1  C   UNL A   1      32.109  31.300  26.897  1.00  0.00     0.023 C 
ENDROOT
BRANCH   1   2
ATOM      2  C   UNL A   1      32.409  29.838  27.239  1.00  0.00     0.023 C 
BRANCH   2   3
ATOM      3  C   UNL A   1      33.834  29.400  26.911  1.00  0.00     0.116 C 
BRANCH   3   4
ATOM      4  N   UNL A   1      34.008  29.144  25.492  1.00  0.00    -0.352 N 
ATOM      5  C   UNL A   1      33.742  28.134  24.631  1.00  0.00     0.251 C 
ATOM      6  O   UNL A   1      34.081  28.337  23.461  1.00  0.00    -0.270 OA
ATOM      7  H   UNL A   1      34.433  29.906  25.036  1.00  0.00     0.163 HD
BRANCH   5   8
ATOM      8  C   UNL A   1      33.089  26.840  24.993  1.00  0.00     0.067 C 
ATOM      9  C   UNL A   1      34.105  20.746  24.684  1.00  0.00     0.044 C 
ATOM     10  C   UNL A   1      33.379  22.007  25.048  1.00  0.00    -0.050 A 
ATOM     11  C   UNL A   1      32.170  21.946  25.754  1.00  0.00     0.010 A 
ATOM     12  C   UNL A   1      33.933  23.258  24.745  1.00  0.00     0.015 A 
ATOM     13  C   UNL A   1      31.499  23.115  26.135  1.00  0.00    -0.008 A 
ATOM     14  C   UNL A   1      33.272  24.433  25.112  1.00  0.00     0.018 A 
ATOM     15  C   UNL A   1      30.199  23.039  26.882  1.00  0.00     0.048 C 
ATOM     16  C   UNL A   1      32.057  24.355  25.798  1.00  0.00     0.130 A 
ATOM     17  C   UNL A   1      33.848  25.741  24.821  1.00  0.00     0.025 C 
ATOM     18  O   UNL A   1      31.394  25.478  26.211  1.00  0.00    -0.475 OA
ATOM     19  C   UNL A   1      31.672  26.700  25.472  1.00  0.00     0.314 C 
BRANCH  19  20
ATOM     20  C   UNL A   1      30.642  26.850  24.338  1.00  0.00     0.429 C 
ATOM     21  F   UNL A   1      31.128  26.323  23.185  1.00  0.00    -0.167 F 
ATOM     22  F   UNL A   1      29.484  26.199  24.599  1.00  0.00    -0.167 F 
ATOM     23  F   UNL A   1      30.321  28.139  24.087  1.00  0.00    -0.167 F 
ENDBRANCH  19  20
ENDBRANCH   5   8
ENDBRANCH   3   4
ENDBRANCH   2   3
ENDBRANCH   1   2
BRANCH   1  24
ATOM     24  C   UNL A   1      33.198  32.303  27.279  1.00  0.00     0.116 C 
BRANCH  24  25
ATOM     25  N   UNL A   1      32.693  33.636  27.570  1.00  0.00    -0.352 N 
ATOM     26  C   UNL A   1      33.126  34.512  28.536  1.00  0.00     0.251 C 
ATOM     27  H   UNL A   1      31.948  33.949  27.006  1.00  0.00     0.163 HD
ATOM     28  O   UNL A   1      32.546  35.578  28.715  1.00  0.00    -0.269 OA
BRANCH  26  29
ATOM     29  C   UNL A   1      34.271  34.122  29.382  1.00  0.00     0.039 A 
ATOM     30  C   UNL A   1      34.034  33.347  30.518  1.00  0.00     0.014 A 
ATOM     31  C   UNL A   1      35.574  34.455  29.001  1.00  0.00     0.014 A 
ATOM     32  C   UNL A   1      35.116  32.840  31.238  1.00  0.00     0.010 A 
ATOM     33  C   UNL A   1      36.650  33.903  29.687  1.00  0.00     0.010 A 
ATOM     34  C   UNL A   1      36.430  33.083  30.804  1.00  0.00    -0.014 A 
BRANCH  34  35
ATOM     35  C   UNL A   1      37.589  32.483  31.507  1.00  0.00     0.031 A 
ATOM     36  C   UNL A   1      38.339  31.347  30.874  1.00  0.00     0.074 A 
ATOM     37  C   UNL A   1      37.928  32.927  32.732  1.00  0.00     0.049 A 
ATOM     38  N   UNL A   1      39.322  30.635  31.359  1.00  0.00    -0.248 NA
ATOM     39  C   UNL A   1      37.906  30.942  29.528  1.00  0.00     0.031 C 
ATOM     40  C   UNL A   1      37.253  34.006  33.459  1.00  0.00     0.029 A 
ATOM     41  N   UNL A   1      38.926  32.527  33.584  1.00  0.00    -0.354 N 
ATOM     42  C   UNL A   1      39.619  29.691  30.384  1.00  0.00     0.074 A 
ATOM     43  C   UNL A   1      38.676  29.890  29.304  1.00  0.00     0.031 C 
ATOM     44  C   UNL A   1      37.878  34.202  34.632  1.00  0.00     0.029 A 
ATOM     45  C   UNL A   1      38.970  33.241  34.758  1.00  0.00     0.049 A 
ATOM     46  H   UNL A   1      39.551  31.796  33.375  1.00  0.00     0.167 HD
ATOM     47  C   UNL A   1      40.604  28.759  30.381  1.00  0.00     0.034 A 
ATOM     48  C   UNL A   1      39.795  33.132  35.816  1.00  0.00     0.034 A 
ATOM     49  C   UNL A   1      41.548  28.585  31.453  1.00  0.00     0.049 A 
ATOM     50  C   UNL A   1      40.869  32.079  35.800  1.00  0.00     0.074 A 
ATOM     51  C   UNL A   1      42.608  27.699  31.535  1.00  0.00     0.029 A 
ATOM     52  N   UNL A   1      41.549  29.315  32.634  1.00  0.00    -0.354 N 
ATOM     53  N   UNL A   1      41.138  31.192  34.870  1.00  0.00    -0.248 NA
ATOM     54  C   UNL A   1      41.747  32.009  36.974  1.00  0.00     0.031 C 
ATOM     55  C   UNL A   1      43.221  27.862  32.782  1.00  0.00     0.029 A 
ATOM     56  C   UNL A   1      42.577  28.886  33.458  1.00  0.00     0.049 A 
ATOM     57  H   UNL A   1      40.911  30.032  32.854  1.00  0.00     0.167 HD
ATOM     58  C   UNL A   1      42.226  30.467  35.342  1.00  0.00     0.074 A 
ATOM     59  C   UNL A   1      42.567  31.023  36.636  1.00  0.00     0.031 C 
ATOM     60  C   UNL A   1      42.886  29.438  34.755  1.00  0.00     0.034 A 
BRANCH  47  61
ATOM     61  C   UNL A   1      40.685  27.853  29.181  1.00  0.00     0.023 A 
ATOM     62  C   UNL A   1      41.604  28.092  28.145  1.00  0.00     0.031 A 
ATOM     63  C   UNL A   1      39.814  26.758  29.055  1.00  0.00     0.131 A 
ATOM     64  C   UNL A   1      41.586  27.288  26.997  1.00  0.00     0.055 A 
ATOM     65  C   UNL A   1      39.849  25.917  27.940  1.00  0.00     0.041 A 
ATOM     66  F   UNL A   1      38.902  26.495  30.005  1.00  0.00    -0.206 F 
ATOM     67  C   UNL A   1      40.730  26.188  26.896  1.00  0.00     0.022 A 
BRANCH  64  68
ATOM     68  S   UNL A   1      42.622  27.765  25.588  1.00  0.00     0.124 S 
ATOM     69  O   UNL A   1      43.898  28.042  26.244  1.00  0.00    -0.237 OA
ATOM     70  O   UNL A   1      42.582  26.576  24.746  1.00  0.00    -0.237 OA
ATOM     71  O   UNL A   1      41.941  28.938  25.043  1.00  0.00    -0.744 OA
ENDBRANCH  64  68
ENDBRANCH  47  61
BRANCH  48  72
ATOM     72  C   UNL A   1      39.637  34.044  36.979  1.00  0.00     0.023 A 
ATOM     73  C   UNL A   1      38.997  33.610  38.149  1.00  0.00     0.031 A 
ATOM     74  C   UNL A   1      40.133  35.359  36.939  1.00  0.00     0.131 A 
ATOM     75  C   UNL A   1      38.850  34.490  39.231  1.00  0.00     0.055 A 
ATOM     76  C   UNL A   1      40.010  36.223  38.029  1.00  0.00     0.041 A 
ATOM     77  F   UNL A   1      40.764  35.812  35.845  1.00  0.00    -0.206 F 
ATOM     78  C   UNL A   1      39.360  35.791  39.182  1.00  0.00     0.022 A 
BRANCH  75  79
ATOM     79  S   UNL A   1      37.973  33.916  40.711  1.00  0.00     0.124 S 
ATOM     80  O   UNL A   1      37.678  35.174  41.388  1.00  0.00    -0.237 OA
ATOM     81  O   UNL A   1      36.831  33.212  40.137  1.00  0.00    -0.237 OA
ATOM     82  O   UNL A   1      38.954  33.062  41.377  1.00  0.00    -0.744 OA
ENDBRANCH  75  79
ENDBRANCH  48  72
BRANCH  60  83
ATOM     83  C   UNL A   1      44.056  28.860  35.501  1.00  0.00     0.023 A 
ATOM     84  C   UNL A   1      43.893  27.801  36.409  1.00  0.00     0.031 A 
ATOM     85  C   UNL A   1      45.352  29.356  35.277  1.00  0.00     0.131 A 
ATOM     86  C   UNL A   1      45.010  27.288  37.085  1.00  0.00     0.055 A 
ATOM     87  C   UNL A   1      46.464  28.814  35.920  1.00  0.00     0.041 A 
ATOM     88  F   UNL A   1      45.555  30.366  34.416  1.00  0.00    -0.206 F 
ATOM     89  C   UNL A   1      46.296  27.777  36.834  1.00  0.00     0.022 A 
BRANCH  86  90
ATOM     90  S   UNL A   1      44.760  25.983  38.319  1.00  0.00     0.124 S 
ATOM     91  O   UNL A   1      46.050  25.963  39.002  1.00  0.00    -0.237 OA
ATOM     92  O   UNL A   1      43.634  26.492  39.096  1.00  0.00    -0.237 OA
ATOM     93  O   UNL A   1      44.468  24.799  37.512  1.00  0.00    -0.744 OA
ENDBRANCH  86  90
ENDBRANCH  60  83
ENDBRANCH  34  35
ENDBRANCH  26  29
ENDBRANCH  24  25
ENDBRANCH   1  24
TORSDOF 15
ENDMDL
