MODEL 1
REMARK VINA RESULT:     -11.9      0.000      0.000
REMARK SMILES C/C(=N/Nc1ccccc1C(=O)NCCCCNC(=O)c1ccc(-c2c3nc(c(-c4cc(S(=O)(=O)[O-])ccc4F)c4ccc([nH]4)c(-c4cc(S(=O)(=O)[O-])ccc4F)c4nc(c(-c5cc(S(=O)(=O)[O-])ccc5F)c5ccc2[nH]5)C=C4)C=C3)cc1)c1ccc(S(C)(=O)=O)cc1
REMARK SMILES IDX 15 1 14 2 13 3 11 4 12 5 10 7 5 8 6 9 7 10 9 11 8 12 4 13
REMARK SMILES IDX 3 15 1 16 2 17 84 18 85 19 93 20 86 21 92 22 87 23 88 24
REMARK SMILES IDX 89 25 90 26 91 27 16 28 17 29 18 30 19 31 20 33 21 34 22 35
REMARK SMILES IDX 83 36 23 37 82 38 24 39 25 40 26 41 76 42 27 43 81 44 75 45
REMARK SMILES IDX 77 46 28 47 80 48 74 49 73 50 29 52 61 53 41 54 60 55 42 56
REMARK SMILES IDX 45 57 59 58 78 59 43 60 44 61 58 63 79 64 46 65 30 66 31 67
REMARK SMILES IDX 39 68 32 69 38 70 40 71 37 72 33 73 34 74 35 75 36 76 62 77
REMARK SMILES IDX 63 78 71 79 64 80 70 81 72 82 69 83 65 84 66 85 67 86 68 87
REMARK SMILES IDX 47 88 48 89 56 90 49 91 55 92 57 93 54 94 50 95 51 96 52 97
REMARK SMILES IDX 53 98
REMARK H PARENT 13 6 4 14 18 32 77 51 45 62
REMARK Flexibility Score: inf
ROOT
ATOM      1  C   UNL A   1      34.967  22.889  23.895  1.00  0.00     0.023 C 
ENDROOT
BRANCH   1   2
ATOM      2  C   UNL A   1      34.700  23.719  22.645  1.00  0.00     0.116 C 
BRANCH   2   3
ATOM      3  N   UNL A   1      33.290  23.930  22.406  1.00  0.00    -0.352 N 
ATOM      4  C   UNL A   1      32.490  24.961  22.821  1.00  0.00     0.253 C 
ATOM      5  O   UNL A   1      31.288  24.915  22.550  1.00  0.00    -0.269 OA
ATOM      6  H   UNL A   1      32.842  23.236  21.870  1.00  0.00     0.163 HD
BRANCH   4   7
ATOM      7  C   UNL A   1      32.987  26.060  23.689  1.00  0.00     0.064 A 
ATOM      8  C   UNL A   1      33.006  26.089  25.094  1.00  0.00     0.069 A 
ATOM      9  C   UNL A   1      33.463  27.280  25.714  1.00  0.00     0.028 A 
ATOM     10  C   UNL A   1      33.940  28.371  24.986  1.00  0.00     0.002 A 
ATOM     11  C   UNL A   1      33.495  27.163  22.962  1.00  0.00     0.016 A 
ATOM     12  C   UNL A   1      33.974  28.304  23.603  1.00  0.00     0.001 A 
BRANCH   8  13
ATOM     13  N   UNL A   1      32.774  25.026  25.997  1.00  0.00    -0.277 N 
ATOM     14  H   UNL A   1      33.580  24.559  26.318  1.00  0.00     0.190 HD
BRANCH  13  15
ATOM     15  N   UNL A   1      31.606  24.565  26.479  1.00  0.00    -0.180 NA
ATOM     16  C   UNL A   1      29.920  22.976  27.071  1.00  0.00     0.069 C 
ATOM     17  C   UNL A   1      31.262  23.310  26.453  1.00  0.00     0.065 C 
BRANCH  17  18
ATOM     18  C   UNL A   1      32.022  22.174  25.867  1.00  0.00    -0.002 A 
ATOM     19  C   UNL A   1      31.666  21.624  24.631  1.00  0.00     0.011 A 
ATOM     20  C   UNL A   1      33.022  21.573  26.641  1.00  0.00     0.011 A 
ATOM     21  C   UNL A   1      32.219  20.407  24.229  1.00  0.00     0.021 A 
ATOM     22  C   UNL A   1      33.577  20.358  26.245  1.00  0.00     0.021 A 
ATOM     23  C   UNL A   1      33.137  19.761  25.064  1.00  0.00     0.067 A 
BRANCH  23  24
ATOM     24  S   UNL A   1      33.706  18.134  24.642  1.00  0.00     0.175 S 
ATOM     25  C   UNL A   1      32.950  17.837  23.063  1.00  0.00     0.163 C 
ATOM     26  O   UNL A   1      35.141  18.210  24.447  1.00  0.00    -0.224 OA
ATOM     27  O   UNL A   1      33.135  17.197  25.592  1.00  0.00    -0.224 OA
ENDBRANCH  23  24
ENDBRANCH  17  18
ENDBRANCH  13  15
ENDBRANCH   8  13
ENDBRANCH   4   7
ENDBRANCH   2   3
ENDBRANCH   1   2
BRANCH   1  28
ATOM     28  C   UNL A   1      36.442  22.617  24.203  1.00  0.00     0.023 C 
BRANCH  28  29
ATOM     29  C   UNL A   1      36.778  22.310  25.661  1.00  0.00     0.116 C 
BRANCH  29  30
ATOM     30  N   UNL A   1      37.877  21.368  25.811  1.00  0.00    -0.352 N 
ATOM     31  C   UNL A   1      39.169  21.571  26.232  1.00  0.00     0.251 C 
ATOM     32  H   UNL A   1      37.661  20.438  25.571  1.00  0.00     0.163 HD
ATOM     33  O   UNL A   1      39.984  20.655  26.159  1.00  0.00    -0.269 OA
BRANCH  31  34
ATOM     34  C   UNL A   1      39.583  22.897  26.735  1.00  0.00     0.039 A 
ATOM     35  C   UNL A   1      40.520  22.965  27.769  1.00  0.00     0.014 A 
ATOM     36  C   UNL A   1      39.062  24.070  26.183  1.00  0.00     0.014 A 
ATOM     37  C   UNL A   1      40.997  24.211  28.189  1.00  0.00     0.010 A 
ATOM     38  C   UNL A   1      39.598  25.302  26.544  1.00  0.00     0.010 A 
ATOM     39  C   UNL A   1      40.573  25.387  27.550  1.00  0.00    -0.014 A 
BRANCH  39  40
ATOM     40  C   UNL A   1      41.138  26.711  27.924  1.00  0.00     0.031 A 
ATOM     41  C   UNL A   1      42.569  27.043  27.594  1.00  0.00     0.074 A 
ATOM     42  C   UNL A   1      40.383  27.587  28.617  1.00  0.00     0.049 A 
ATOM     43  N   UNL A   1      43.260  28.114  27.888  1.00  0.00    -0.248 NA
ATOM     44  C   UNL A   1      43.331  26.016  26.871  1.00  0.00     0.031 C 
ATOM     45  C   UNL A   1      39.001  27.357  29.049  1.00  0.00     0.029 A 
ATOM     46  N   UNL A   1      40.670  28.844  29.088  1.00  0.00    -0.354 N 
ATOM     47  C   UNL A   1      44.542  27.883  27.399  1.00  0.00     0.074 A 
ATOM     48  C   UNL A   1      44.546  26.542  26.854  1.00  0.00     0.031 C 
ATOM     49  C   UNL A   1      38.554  28.447  29.693  1.00  0.00     0.029 A 
ATOM     50  C   UNL A   1      39.624  29.438  29.756  1.00  0.00     0.049 A 
ATOM     51  H   UNL A   1      41.543  29.280  28.959  1.00  0.00     0.167 HD
ATOM     52  C   UNL A   1      45.609  28.721  27.382  1.00  0.00     0.034 A 
ATOM     53  C   UNL A   1      39.537  30.642  30.355  1.00  0.00     0.034 A 
ATOM     54  C   UNL A   1      45.582  30.063  27.912  1.00  0.00     0.049 A 
ATOM     55  C   UNL A   1      40.731  31.562  30.315  1.00  0.00     0.074 A 
ATOM     56  C   UNL A   1      46.583  31.019  27.895  1.00  0.00     0.029 A 
ATOM     57  N   UNL A   1      44.498  30.640  28.561  1.00  0.00    -0.354 N 
ATOM     58  N   UNL A   1      41.919  31.352  29.795  1.00  0.00    -0.248 NA
ATOM     59  C   UNL A   1      40.567  32.886  30.928  1.00  0.00     0.031 C 
ATOM     60  C   UNL A   1      46.126  32.149  28.584  1.00  0.00     0.029 A 
ATOM     61  C   UNL A   1      44.813  31.928  28.969  1.00  0.00     0.049 A 
ATOM     62  H   UNL A   1      43.630  30.199  28.710  1.00  0.00     0.167 HD
ATOM     63  C   UNL A   1      42.632  32.531  29.992  1.00  0.00     0.074 A 
ATOM     64  C   UNL A   1      41.736  33.451  30.662  1.00  0.00     0.031 C 
ATOM     65  C   UNL A   1      43.911  32.829  29.646  1.00  0.00     0.034 A 
BRANCH  52  66
ATOM     66  C   UNL A   1      46.893  28.193  26.786  1.00  0.00     0.023 A 
ATOM     67  C   UNL A   1      47.134  28.235  25.400  1.00  0.00     0.031 A 
ATOM     68  C   UNL A   1      47.872  27.603  27.603  1.00  0.00     0.131 A 
ATOM     69  C   UNL A   1      48.277  27.618  24.868  1.00  0.00     0.055 A 
ATOM     70  C   UNL A   1      49.050  27.070  27.076  1.00  0.00     0.041 A 
ATOM     71  F   UNL A   1      47.693  27.516  28.931  1.00  0.00    -0.206 F 
ATOM     72  C   UNL A   1      49.249  27.058  25.698  1.00  0.00     0.022 A 
BRANCH  69  73
ATOM     73  S   UNL A   1      48.393  27.421  23.068  1.00  0.00     0.124 S 
ATOM     74  O   UNL A   1      47.238  28.192  22.613  1.00  0.00    -0.237 OA
ATOM     75  O   UNL A   1      49.700  27.993  22.771  1.00  0.00    -0.237 OA
ATOM     76  O   UNL A   1      48.283  25.977  22.874  1.00  0.00    -0.744 OA
ENDBRANCH  69  73
ENDBRANCH  52  66
BRANCH  53  77
ATOM     77  C   UNL A   1      38.279  31.059  31.038  1.00  0.00     0.023 A 
ATOM     78  C   UNL A   1      37.259  31.721  30.336  1.00  0.00     0.031 A 
ATOM     79  C   UNL A   1      38.095  30.837  32.414  1.00  0.00     0.131 A 
ATOM     80  C   UNL A   1      36.123  32.180  31.019  1.00  0.00     0.055 A 
ATOM     81  C   UNL A   1      36.939  31.251  33.080  1.00  0.00     0.041 A 
ATOM     82  F   UNL A   1      39.034  30.201  33.131  1.00  0.00    -0.206 F 
ATOM     83  C   UNL A   1      35.950  31.940  32.384  1.00  0.00     0.022 A 
BRANCH  80  84
ATOM     84  S   UNL A   1      34.903  33.170  30.110  1.00  0.00     0.124 S 
ATOM     85  O   UNL A   1      35.750  34.171  29.471  1.00  0.00    -0.237 OA
ATOM     86  O   UNL A   1      34.305  32.174  29.226  1.00  0.00    -0.237 OA
ATOM     87  O   UNL A   1      34.023  33.675  31.162  1.00  0.00    -0.744 OA
ENDBRANCH  80  84
ENDBRANCH  53  77
BRANCH  65  88
ATOM     88  C   UNL A   1      44.392  34.227  29.950  1.00  0.00     0.023 A 
ATOM     89  C   UNL A   1      44.261  35.274  29.021  1.00  0.00     0.031 A 
ATOM     90  C   UNL A   1      45.008  34.508  31.183  1.00  0.00     0.131 A 
ATOM     91  C   UNL A   1      44.794  36.539  29.316  1.00  0.00     0.055 A 
ATOM     92  C   UNL A   1      45.481  35.783  31.493  1.00  0.00     0.041 A 
ATOM     93  F   UNL A   1      45.161  33.545  32.105  1.00  0.00    -0.206 F 
ATOM     94  C   UNL A   1      45.388  36.804  30.552  1.00  0.00     0.022 A 
BRANCH  91  95
ATOM     95  S   UNL A   1      44.787  37.809  28.021  1.00  0.00     0.124 S 
ATOM     96  O   UNL A   1      46.213  38.000  27.775  1.00  0.00    -0.237 OA
ATOM     97  O   UNL A   1      44.038  37.159  26.950  1.00  0.00    -0.237 OA
ATOM     98  O   UNL A   1      44.110  38.940  28.652  1.00  0.00    -0.744 OA
ENDBRANCH  91  95
ENDBRANCH  65  88
ENDBRANCH  39  40
ENDBRANCH  31  34
ENDBRANCH  29  30
ENDBRANCH  28  29
ENDBRANCH   1  28
TORSDOF 18
ENDMDL
MODEL 2
REMARK VINA RESULT:     -11.8      2.510      2.850
REMARK SMILES C/C(=N/Nc1ccccc1C(=O)NCCCCNC(=O)c1ccc(-c2c3nc(c(-c4cc(S(=O)(=O)[O-])ccc4F)c4ccc([nH]4)c(-c4cc(S(=O)(=O)[O-])ccc4F)c4nc(c(-c5cc(S(=O)(=O)[O-])ccc5F)c5ccc2[nH]5)C=C4)C=C3)cc1)c1ccc(S(C)(=O)=O)cc1
REMARK SMILES IDX 15 1 14 2 13 3 11 4 12 5 10 7 5 8 6 9 7 10 9 11 8 12 4 13
REMARK SMILES IDX 3 15 1 16 2 17 84 18 85 19 93 20 86 21 92 22 87 23 88 24
REMARK SMILES IDX 89 25 90 26 91 27 16 28 17 29 18 30 19 31 20 33 21 34 22 35
REMARK SMILES IDX 83 36 23 37 82 38 24 39 25 40 26 41 76 42 27 43 81 44 75 45
REMARK SMILES IDX 77 46 28 47 80 48 74 49 73 50 29 52 61 53 41 54 60 55 42 56
REMARK SMILES IDX 45 57 59 58 78 59 43 60 44 61 58 63 79 64 46 65 30 66 31 67
REMARK SMILES IDX 39 68 32 69 38 70 40 71 37 72 33 73 34 74 35 75 36 76 62 77
REMARK SMILES IDX 63 78 71 79 64 80 70 81 72 82 69 83 65 84 66 85 67 86 68 87
REMARK SMILES IDX 47 88 48 89 56 90 49 91 55 92 57 93 54 94 50 95 51 96 52 97
REMARK SMILES IDX 53 98
REMARK H PARENT 13 6 4 14 18 32 77 51 45 62
REMARK Flexibility Score: inf
ROOT
ATOM      1  C   UNL A   1      35.119  22.996  23.938  1.00  0.00     0.023 C 
ENDROOT
BRANCH   1   2
ATOM      2  C   UNL A   1      34.712  23.682  22.640  1.00  0.00     0.116 C 
BRANCH   2   3
ATOM      3  N   UNL A   1      33.279  23.829  22.512  1.00  0.00    -0.352 N 
ATOM      4  C   UNL A   1      32.468  24.826  22.986  1.00  0.00     0.253 C 
ATOM      5  O   UNL A   1      31.252  24.724  22.810  1.00  0.00    -0.269 OA
ATOM      6  H   UNL A   1      32.822  23.114  22.014  1.00  0.00     0.163 HD
BRANCH   4   7
ATOM      7  C   UNL A   1      32.982  25.950  23.811  1.00  0.00     0.064 A 
ATOM      8  C   UNL A   1      33.032  26.019  25.214  1.00  0.00     0.069 A 
ATOM      9  C   UNL A   1      33.499  27.229  25.789  1.00  0.00     0.028 A 
ATOM     10  C   UNL A   1      33.956  28.299  25.020  1.00  0.00     0.002 A 
ATOM     11  C   UNL A   1      33.469  27.033  23.042  1.00  0.00     0.016 A 
ATOM     12  C   UNL A   1      33.959  28.193  23.639  1.00  0.00     0.001 A 
BRANCH   8  13
ATOM     13  N   UNL A   1      32.825  24.982  26.152  1.00  0.00    -0.277 N 
ATOM     14  H   UNL A   1      33.642  24.562  26.507  1.00  0.00     0.190 HD
BRANCH  13  15
ATOM     15  N   UNL A   1      31.666  24.489  26.627  1.00  0.00    -0.180 NA
ATOM     16  C   UNL A   1      29.992  22.863  27.148  1.00  0.00     0.069 C 
ATOM     17  C   UNL A   1      31.322  23.238  26.527  1.00  0.00     0.065 C 
BRANCH  17  18
ATOM     18  C   UNL A   1      32.070  22.143  25.855  1.00  0.00    -0.002 A 
ATOM     19  C   UNL A   1      31.680  21.660  24.602  1.00  0.00     0.011 A 
ATOM     20  C   UNL A   1      33.098  21.507  26.564  1.00  0.00     0.011 A 
ATOM     21  C   UNL A   1      32.228  20.471  24.116  1.00  0.00     0.021 A 
ATOM     22  C   UNL A   1      33.648  20.321  26.084  1.00  0.00     0.021 A 
ATOM     23  C   UNL A   1      33.175  19.787  24.885  1.00  0.00     0.067 A 
BRANCH  23  24
ATOM     24  S   UNL A   1      33.741  18.190  24.355  1.00  0.00     0.175 S 
ATOM     25  C   UNL A   1      32.986  17.085  25.523  1.00  0.00     0.163 C 
ATOM     26  O   UNL A   1      33.163  17.932  23.052  1.00  0.00    -0.224 OA
ATOM     27  O   UNL A   1      35.178  18.134  24.555  1.00  0.00    -0.224 OA
ENDBRANCH  23  24
ENDBRANCH  17  18
ENDBRANCH  13  15
ENDBRANCH   8  13
ENDBRANCH   4   7
ENDBRANCH   2   3
ENDBRANCH   1   2
BRANCH   1  28
ATOM     28  C   UNL A   1      36.493  23.388  24.488  1.00  0.00     0.023 C 
BRANCH  28  29
ATOM     29  C   UNL A   1      36.769  23.007  25.940  1.00  0.00     0.116 C 
BRANCH  29  30
ATOM     30  N   UNL A   1      37.981  22.217  26.106  1.00  0.00    -0.352 N 
ATOM     31  C   UNL A   1      39.249  22.602  26.471  1.00  0.00     0.251 C 
ATOM     32  H   UNL A   1      37.875  21.254  25.929  1.00  0.00     0.163 HD
ATOM     33  O   UNL A   1      40.168  21.790  26.422  1.00  0.00    -0.269 OA
BRANCH  31  34
ATOM     34  C   UNL A   1      39.508  23.998  26.881  1.00  0.00     0.039 A 
ATOM     35  C   UNL A   1      39.264  24.369  28.205  1.00  0.00     0.014 A 
ATOM     36  C   UNL A   1      40.003  24.935  25.970  1.00  0.00     0.014 A 
ATOM     37  C   UNL A   1      39.596  25.657  28.635  1.00  0.00     0.010 A 
ATOM     38  C   UNL A   1      40.411  26.188  26.419  1.00  0.00     0.010 A 
ATOM     39  C   UNL A   1      40.214  26.563  27.757  1.00  0.00    -0.014 A 
BRANCH  39  40
ATOM     40  C   UNL A   1      40.656  27.904  28.222  1.00  0.00     0.031 A 
ATOM     41  C   UNL A   1      42.119  28.259  28.225  1.00  0.00     0.074 A 
ATOM     42  C   UNL A   1      39.747  28.777  28.702  1.00  0.00     0.049 A 
ATOM     43  N   UNL A   1      42.707  29.349  28.647  1.00  0.00    -0.248 NA
ATOM     44  C   UNL A   1      43.045  27.234  27.721  1.00  0.00     0.031 C 
ATOM     45  C   UNL A   1      38.307  28.527  28.807  1.00  0.00     0.029 A 
ATOM     46  N   UNL A   1      39.898  30.048  29.198  1.00  0.00    -0.354 N 
ATOM     47  C   UNL A   1      44.071  29.135  28.474  1.00  0.00     0.074 A 
ATOM     48  C   UNL A   1      44.222  27.785  27.975  1.00  0.00     0.031 C 
ATOM     49  C   UNL A   1      37.706  29.620  29.305  1.00  0.00     0.029 A 
ATOM     50  C   UNL A   1      38.717  30.633  29.592  1.00  0.00     0.049 A 
ATOM     51  H   UNL A   1      40.770  30.499  29.265  1.00  0.00     0.167 HD
ATOM     52  C   UNL A   1      45.100  29.994  28.685  1.00  0.00     0.034 A 
ATOM     53  C   UNL A   1      38.475  31.846  30.128  1.00  0.00     0.034 A 
ATOM     54  C   UNL A   1      44.930  31.344  29.165  1.00  0.00     0.049 A 
ATOM     55  C   UNL A   1      39.632  32.788  30.345  1.00  0.00     0.074 A 
ATOM     56  C   UNL A   1      45.893  32.319  29.359  1.00  0.00     0.029 A 
ATOM     57  N   UNL A   1      43.716  31.911  29.532  1.00  0.00    -0.354 N 
ATOM     58  N   UNL A   1      40.911  32.593  30.119  1.00  0.00    -0.248 NA
ATOM     59  C   UNL A   1      39.309  34.120  30.874  1.00  0.00     0.031 C 
ATOM     60  C   UNL A   1      45.271  33.452  29.898  1.00  0.00     0.029 A 
ATOM     61  C   UNL A   1      43.908  33.212  29.973  1.00  0.00     0.049 A 
ATOM     62  H   UNL A   1      42.844  31.455  29.486  1.00  0.00     0.167 HD
ATOM     63  C   UNL A   1      41.541  33.790  30.449  1.00  0.00     0.074 A 
ATOM     64  C   UNL A   1      40.499  34.703  30.874  1.00  0.00     0.031 C 
ATOM     65  C   UNL A   1      42.860  34.107  30.402  1.00  0.00     0.034 A 
BRANCH  52  66
ATOM     66  C   UNL A   1      46.495  29.481  28.415  1.00  0.00     0.023 A 
ATOM     67  C   UNL A   1      47.252  28.841  29.413  1.00  0.00     0.031 A 
ATOM     68  C   UNL A   1      47.095  29.670  27.158  1.00  0.00     0.131 A 
ATOM     69  C   UNL A   1      48.590  28.496  29.167  1.00  0.00     0.055 A 
ATOM     70  C   UNL A   1      48.398  29.242  26.891  1.00  0.00     0.041 A 
ATOM     71  F   UNL A   1      46.432  30.290  26.169  1.00  0.00    -0.206 F 
ATOM     72  C   UNL A   1      49.160  28.669  27.904  1.00  0.00     0.022 A 
BRANCH  69  73
ATOM     73  S   UNL A   1      49.616  27.964  30.565  1.00  0.00     0.124 S 
ATOM     74  O   UNL A   1      50.650  27.182  29.890  1.00  0.00    -0.237 OA
ATOM     75  O   UNL A   1      50.048  29.232  31.140  1.00  0.00    -0.237 OA
ATOM     76  O   UNL A   1      48.696  27.184  31.389  1.00  0.00    -0.744 OA
ENDBRANCH  69  73
ENDBRANCH  52  66
BRANCH  53  77
ATOM     77  C   UNL A   1      37.087  32.250  30.492  1.00  0.00     0.023 A 
ATOM     78  C   UNL A   1      36.209  32.773  29.528  1.00  0.00     0.031 A 
ATOM     79  C   UNL A   1      36.629  32.156  31.818  1.00  0.00     0.131 A 
ATOM     80  C   UNL A   1      34.938  33.226  29.912  1.00  0.00     0.055 A 
ATOM     81  C   UNL A   1      35.345  32.562  32.186  1.00  0.00     0.041 A 
ATOM     82  F   UNL A   1      37.424  31.655  32.777  1.00  0.00    -0.206 F 
ATOM     83  C   UNL A   1      34.495  33.114  31.232  1.00  0.00     0.022 A 
BRANCH  80  84
ATOM     84  S   UNL A   1      33.895  34.041  28.671  1.00  0.00     0.124 S 
ATOM     85  O   UNL A   1      34.821  35.008  28.093  1.00  0.00    -0.237 OA
ATOM     86  O   UNL A   1      33.516  32.922  27.813  1.00  0.00    -0.237 OA
ATOM     87  O   UNL A   1      32.807  34.612  29.462  1.00  0.00    -0.744 OA
ENDBRANCH  80  84
ENDBRANCH  53  77
BRANCH  65  88
ATOM     88  C   UNL A   1      43.236  35.519  30.779  1.00  0.00     0.023 A 
ATOM     89  C   UNL A   1      43.325  35.930  32.120  1.00  0.00     0.031 A 
ATOM     90  C   UNL A   1      43.490  36.473  29.775  1.00  0.00     0.131 A 
ATOM     91  C   UNL A   1      43.600  37.273  32.422  1.00  0.00     0.055 A 
ATOM     92  C   UNL A   1      43.822  37.792  30.083  1.00  0.00     0.041 A 
ATOM     93  F   UNL A   1      43.416  36.135  28.478  1.00  0.00    -0.206 F 
ATOM     94  C   UNL A   1      43.865  38.202  31.413  1.00  0.00     0.022 A 
BRANCH  91  95
ATOM     95  S   UNL A   1      43.510  37.813  34.151  1.00  0.00     0.124 S 
ATOM     96  O   UNL A   1      43.060  39.195  34.016  1.00  0.00    -0.237 OA
ATOM     97  O   UNL A   1      42.540  36.881  34.719  1.00  0.00    -0.237 OA
ATOM     98  O   UNL A   1      44.880  37.650  34.634  1.00  0.00    -0.744 OA
ENDBRANCH  91  95
ENDBRANCH  65  88
ENDBRANCH  39  40
ENDBRANCH  31  34
ENDBRANCH  29  30
ENDBRANCH  28  29
ENDBRANCH   1  28
TORSDOF 18
ENDMDL
MODEL 3
REMARK VINA RESULT:     -11.6      4.873      9.725
REMARK SMILES C/C(=N/Nc1ccccc1C(=O)NCCCCNC(=O)c1ccc(-c2c3nc(c(-c4cc(S(=O)(=O)[O-])ccc4F)c4ccc([nH]4)c(-c4cc(S(=O)(=O)[O-])ccc4F)c4nc(c(-c5cc(S(=O)(=O)[O-])ccc5F)c5ccc2[nH]5)C=C4)C=C3)cc1)c1ccc(S(C)(=O)=O)cc1
REMARK SMILES IDX 15 1 14 2 13 3 11 4 12 5 10 7 5 8 6 9 7 10 9 11 8 12 4 13
REMARK SMILES IDX 3 15 1 16 2 17 84 18 85 19 93 20 86 21 92 22 87 23 88 24
REMARK SMILES IDX 89 25 90 26 91 27 16 28 17 29 18 30 19 31 20 33 21 34 22 35
REMARK SMILES IDX 83 36 23 37 82 38 24 39 25 40 26 41 76 42 27 43 81 44 75 45
REMARK SMILES IDX 77 46 28 47 80 48 74 49 73 50 29 52 61 53 41 54 60 55 42 56
REMARK SMILES IDX 45 57 59 58 78 59 43 60 44 61 58 63 79 64 46 65 30 66 31 67
REMARK SMILES IDX 39 68 32 69 38 70 40 71 37 72 33 73 34 74 35 75 36 76 62 77
REMARK SMILES IDX 63 78 71 79 64 80 70 81 72 82 69 83 65 84 66 85 67 86 68 87
REMARK SMILES IDX 47 88 48 89 56 90 49 91 55 92 57 93 54 94 50 95 51 96 52 97
REMARK SMILES IDX 53 98
REMARK H PARENT 13 6 4 14 18 32 77 51 45 62
REMARK Flexibility Score: inf
ROOT
ATOM      1  C   UNL A   1      32.043  27.310  26.381  1.00  0.00     0.023 C 
ENDROOT
BRANCH   1   2
ATOM      2  C   UNL A   1      30.682  26.631  26.471  1.00  0.00     0.116 C 
BRANCH   2   3
ATOM      3  N   UNL A   1      30.534  25.549  25.523  1.00  0.00    -0.352 N 
ATOM      4  C   UNL A   1      30.034  25.581  24.249  1.00  0.00     0.253 C 
ATOM      5  O   UNL A   1      29.946  24.519  23.628  1.00  0.00    -0.269 OA
ATOM      6  H   UNL A   1      30.836  24.666  25.837  1.00  0.00     0.163 HD
BRANCH   4   7
ATOM      7  C   UNL A   1      29.477  26.816  23.639  1.00  0.00     0.064 A 
ATOM      8  C   UNL A   1      30.157  27.742  22.827  1.00  0.00     0.069 A 
ATOM      9  C   UNL A   1      29.439  28.893  22.414  1.00  0.00     0.028 A 
ATOM     10  C   UNL A   1      28.095  29.095  22.730  1.00  0.00     0.002 A 
ATOM     11  C   UNL A   1      28.109  27.020  23.933  1.00  0.00     0.016 A 
ATOM     12  C   UNL A   1      27.421  28.144  23.477  1.00  0.00     0.001 A 
BRANCH   8  13
ATOM     13  N   UNL A   1      31.430  27.614  22.226  1.00  0.00    -0.277 N 
ATOM     14  H   UNL A   1      32.163  28.087  22.682  1.00  0.00     0.190 HD
BRANCH  13  15
ATOM     15  N   UNL A   1      31.778  26.935  21.117  1.00  0.00    -0.180 NA
ATOM     16  C   UNL A   1      32.748  25.201  19.788  1.00  0.00     0.069 C 
ATOM     17  C   UNL A   1      32.482  25.841  21.135  1.00  0.00     0.065 C 
BRANCH  17  18
ATOM     18  C   UNL A   1      33.072  25.162  22.319  1.00  0.00    -0.002 A 
ATOM     19  C   UNL A   1      33.623  25.895  23.375  1.00  0.00     0.011 A 
ATOM     20  C   UNL A   1      33.190  23.767  22.296  1.00  0.00     0.011 A 
ATOM     21  C   UNL A   1      34.399  25.247  24.338  1.00  0.00     0.021 A 
ATOM     22  C   UNL A   1      33.962  23.114  23.255  1.00  0.00     0.021 A 
ATOM     23  C   UNL A   1      34.599  23.866  24.242  1.00  0.00     0.067 A 
BRANCH  23  24
ATOM     24  S   UNL A   1      35.724  23.067  25.359  1.00  0.00     0.175 S 
ATOM     25  C   UNL A   1      35.737  21.386  24.786  1.00  0.00     0.163 C 
ATOM     26  O   UNL A   1      37.040  23.630  25.131  1.00  0.00    -0.224 OA
ATOM     27  O   UNL A   1      35.130  23.081  26.682  1.00  0.00    -0.224 OA
ENDBRANCH  23  24
ENDBRANCH  17  18
ENDBRANCH  13  15
ENDBRANCH   8  13
ENDBRANCH   4   7
ENDBRANCH   2   3
ENDBRANCH   1   2
BRANCH   1  28
ATOM     28  C   UNL A   1      32.111  28.729  26.950  1.00  0.00     0.023 C 
BRANCH  28  29
ATOM     29  C   UNL A   1      33.114  29.672  26.288  1.00  0.00     0.116 C 
BRANCH  29  30
ATOM     30  N   UNL A   1      33.020  31.041  26.772  1.00  0.00    -0.352 N 
ATOM     31  C   UNL A   1      33.847  31.744  27.615  1.00  0.00     0.251 C 
ATOM     32  H   UNL A   1      32.240  31.545  26.442  1.00  0.00     0.163 HD
ATOM     33  O   UNL A   1      33.512  32.859  28.006  1.00  0.00    -0.269 OA
BRANCH  31  34
ATOM     34  C   UNL A   1      35.114  31.141  28.079  1.00  0.00     0.039 A 
ATOM     35  C   UNL A   1      36.287  31.895  28.005  1.00  0.00     0.014 A 
ATOM     36  C   UNL A   1      35.145  29.844  28.599  1.00  0.00     0.014 A 
ATOM     37  C   UNL A   1      37.476  31.378  28.530  1.00  0.00     0.010 A 
ATOM     38  C   UNL A   1      36.308  29.366  29.195  1.00  0.00     0.010 A 
ATOM     39  C   UNL A   1      37.487  30.128  29.170  1.00  0.00    -0.014 A 
BRANCH  39  40
ATOM     40  C   UNL A   1      38.721  29.605  29.813  1.00  0.00     0.031 A 
ATOM     41  C   UNL A   1      39.144  30.115  31.165  1.00  0.00     0.074 A 
ATOM     42  C   UNL A   1      39.494  28.720  29.152  1.00  0.00     0.049 A 
ATOM     43  N   UNL A   1      40.214  29.829  31.862  1.00  0.00    -0.248 NA
ATOM     44  C   UNL A   1      38.263  31.107  31.797  1.00  0.00     0.031 C 
ATOM     45  C   UNL A   1      39.222  28.195  27.811  1.00  0.00     0.029 A 
ATOM     46  N   UNL A   1      40.669  28.109  29.513  1.00  0.00    -0.354 N 
ATOM     47  C   UNL A   1      40.142  30.617  33.006  1.00  0.00     0.074 A 
ATOM     48  C   UNL A   1      38.960  31.441  32.872  1.00  0.00     0.031 C 
ATOM     49  C   UNL A   1      40.185  27.321  27.476  1.00  0.00     0.029 A 
ATOM     50  C   UNL A   1      41.163  27.250  28.558  1.00  0.00     0.049 A 
ATOM     51  H   UNL A   1      41.116  28.270  30.374  1.00  0.00     0.167 HD
ATOM     52  C   UNL A   1      40.970  30.632  34.081  1.00  0.00     0.034 A 
ATOM     53  C   UNL A   1      42.279  26.494  28.552  1.00  0.00     0.034 A 
ATOM     54  C   UNL A   1      42.135  29.789  34.206  1.00  0.00     0.049 A 
ATOM     55  C   UNL A   1      43.180  26.518  29.761  1.00  0.00     0.074 A 
ATOM     56  C   UNL A   1      43.009  29.678  35.273  1.00  0.00     0.029 A 
ATOM     57  N   UNL A   1      42.592  28.914  33.229  1.00  0.00    -0.354 N 
ATOM     58  N   UNL A   1      43.065  27.224  30.863  1.00  0.00    -0.248 NA
ATOM     59  C   UNL A   1      44.350  25.631  29.731  1.00  0.00     0.031 C 
ATOM     60  C   UNL A   1      44.025  28.782  34.918  1.00  0.00     0.029 A 
ATOM     61  C   UNL A   1      43.747  28.278  33.658  1.00  0.00     0.049 A 
ATOM     62  H   UNL A   1      42.158  28.765  32.357  1.00  0.00     0.167 HD
ATOM     63  C   UNL A   1      44.134  26.841  31.670  1.00  0.00     0.074 A 
ATOM     64  C   UNL A   1      44.868  25.832  30.934  1.00  0.00     0.031 C 
ATOM     65  C   UNL A   1      44.474  27.281  32.909  1.00  0.00     0.034 A 
BRANCH  52  66
ATOM     66  C   UNL A   1      40.647  31.607  35.189  1.00  0.00     0.023 A 
ATOM     67  C   UNL A   1      39.624  31.352  36.120  1.00  0.00     0.031 A 
ATOM     68  C   UNL A   1      41.339  32.826  35.293  1.00  0.00     0.131 A 
ATOM     69  C   UNL A   1      39.263  32.336  37.054  1.00  0.00     0.055 A 
ATOM     70  C   UNL A   1      41.035  33.764  36.282  1.00  0.00     0.041 A 
ATOM     71  F   UNL A   1      42.313  33.137  34.424  1.00  0.00    -0.206 F 
ATOM     72  C   UNL A   1      39.978  33.530  37.158  1.00  0.00     0.022 A 
BRANCH  69  73
ATOM     73  S   UNL A   1      37.747  32.094  38.020  1.00  0.00     0.124 S 
ATOM     74  O   UNL A   1      36.863  33.102  37.437  1.00  0.00    -0.237 OA
ATOM     75  O   UNL A   1      37.408  30.706  37.736  1.00  0.00    -0.237 OA
ATOM     76  O   UNL A   1      38.169  32.367  39.393  1.00  0.00    -0.744 OA
ENDBRANCH  69  73
ENDBRANCH  52  66
BRANCH  53  77
ATOM     77  C   UNL A   1      42.611  25.643  27.373  1.00  0.00     0.023 A 
ATOM     78  C   UNL A   1      42.176  24.310  27.297  1.00  0.00     0.031 A 
ATOM     79  C   UNL A   1      43.403  26.139  26.323  1.00  0.00     0.131 A 
ATOM     80  C   UNL A   1      42.573  23.504  26.220  1.00  0.00     0.055 A 
ATOM     81  C   UNL A   1      43.754  25.348  25.228  1.00  0.00     0.041 A 
ATOM     82  F   UNL A   1      43.838  27.409  26.341  1.00  0.00    -0.206 F 
ATOM     83  C   UNL A   1      43.350  24.017  25.178  1.00  0.00     0.022 A 
BRANCH  80  84
ATOM     84  S   UNL A   1      42.125  21.747  26.237  1.00  0.00     0.124 S 
ATOM     85  O   UNL A   1      40.707  21.799  25.896  1.00  0.00    -0.237 OA
ATOM     86  O   UNL A   1      43.012  21.198  25.216  1.00  0.00    -0.237 OA
ATOM     87  O   UNL A   1      42.423  21.333  27.606  1.00  0.00    -0.744 OA
ENDBRANCH  80  84
ENDBRANCH  53  77
BRANCH  65  88
ATOM     88  C   UNL A   1      45.672  26.631  33.557  1.00  0.00     0.023 A 
ATOM     89  C   UNL A   1      45.567  25.416  34.257  1.00  0.00     0.031 A 
ATOM     90  C   UNL A   1      46.934  27.249  33.489  1.00  0.00     0.131 A 
ATOM     91  C   UNL A   1      46.691  24.889  34.912  1.00  0.00     0.055 A 
ATOM     92  C   UNL A   1      48.060  26.688  34.091  1.00  0.00     0.041 A 
ATOM     93  F   UNL A   1      47.090  28.411  32.836  1.00  0.00    -0.206 F 
ATOM     94  C   UNL A   1      47.940  25.509  34.819  1.00  0.00     0.022 A 
BRANCH  91  95
ATOM     95  S   UNL A   1      46.478  23.431  35.970  1.00  0.00     0.124 S 
ATOM     96  O   UNL A   1      46.653  23.996  37.305  1.00  0.00    -0.237 OA
ATOM     97  O   UNL A   1      45.125  22.997  35.635  1.00  0.00    -0.237 OA
ATOM     98  O   UNL A   1      47.543  22.531  35.533  1.00  0.00    -0.744 OA
ENDBRANCH  91  95
ENDBRANCH  65  88
ENDBRANCH  39  40
ENDBRANCH  31  34
ENDBRANCH  29  30
ENDBRANCH  28  29
ENDBRANCH   1  28
TORSDOF 18
ENDMDL
