MODEL 1
REMARK VINA RESULT:     -12.2      0.000      0.000
REMARK SMILES Cc1cc(N(C)[C@H]2CC[C@@H](C)CC2)cc(C(=O)NCCCCNC(=O)c2ccc(-c3c4nc(c(-c5cc(S(=O)(=O)[O-])ccc5F)c5ccc([nH]5)c(-c5cc(S(=O)(=O)[O-])ccc5F)c5nc(c(-c6cc(S(=O)(=O)[O-])ccc6F)c6ccc3[nH]6)C=C5)C=C4)cc2)c1N
REMARK SMILES IDX 21 1 20 2 19 3 18 4 16 5 17 6 15 8 1 9 2 10 3 11 89 12 4 13
REMARK SMILES IDX 14 14 90 15 5 18 6 19 7 20 8 21 13 22 9 23 12 24 10 25 11 26
REMARK SMILES IDX 22 27 23 28 24 29 25 31 26 32 27 33 88 34 28 35 87 36 29 37
REMARK SMILES IDX 30 38 31 39 81 40 32 41 86 42 80 43 82 44 33 45 85 46 79 47
REMARK SMILES IDX 78 48 34 50 66 51 46 52 65 53 47 54 50 55 64 56 83 57 48 58
REMARK SMILES IDX 49 59 63 61 84 62 51 63 35 64 36 65 44 66 37 67 43 68 45 69
REMARK SMILES IDX 42 70 38 71 39 72 40 73 41 74 67 75 68 76 76 77 69 78 75 79
REMARK SMILES IDX 77 80 74 81 70 82 71 83 72 84 73 85 52 86 53 87 61 88 54 89
REMARK SMILES IDX 60 90 62 91 59 92 55 93 56 94 57 95 58 96
REMARK H PARENT 18 7 90 16 90 17 23 30 82 49 50 60
REMARK Flexibility Score: inf
ROOT
ATOM      1  C   UNL A   1      32.289  31.236  26.791  1.00  0.00     0.023 C 
ENDROOT
BRANCH   1   2
ATOM      2  C   UNL A   1      32.364  29.738  27.101  1.00  0.00     0.023 C 
BRANCH   2   3
ATOM      3  C   UNL A   1      33.738  29.125  26.822  1.00  0.00     0.116 C 
BRANCH   3   4
ATOM      4  N   UNL A   1      34.074  29.317  25.426  1.00  0.00    -0.352 N 
ATOM      5  C   UNL A   1      33.676  28.645  24.294  1.00  0.00     0.253 C 
ATOM      6  O   UNL A   1      34.201  28.973  23.228  1.00  0.00    -0.269 OA
ATOM      7  H   UNL A   1      34.698  30.059  25.257  1.00  0.00     0.163 HD
BRANCH   5   8
ATOM      8  C   UNL A   1      32.565  27.643  24.317  1.00  0.00     0.065 A 
ATOM      9  C   UNL A   1      28.856  27.399  23.507  1.00  0.00     0.046 C 
ATOM     10  C   UNL A   1      30.212  27.180  24.119  1.00  0.00    -0.025 A 
ATOM     11  C   UNL A   1      30.421  26.005  24.857  1.00  0.00     0.031 A 
ATOM     12  C   UNL A   1      31.288  28.034  23.864  1.00  0.00     0.047 A 
ATOM     13  C   UNL A   1      31.690  25.454  25.010  1.00  0.00     0.038 A 
ATOM     14  C   UNL A   1      32.761  26.319  24.755  1.00  0.00     0.042 A 
BRANCH  12  15
ATOM     15  N   UNL A   1      31.101  29.188  23.113  1.00  0.00    -0.398 N 
ATOM     16  H   UNL A   1      30.203  29.419  22.782  1.00  0.00     0.156 HD
ATOM     17  H   UNL A   1      31.866  29.774  22.910  1.00  0.00     0.156 HD
ENDBRANCH  12  15
BRANCH  13  18
ATOM     18  N   UNL A   1      31.886  24.112  25.314  1.00  0.00    -0.372 N 
ATOM     19  C   UNL A   1      31.820  23.743  26.733  1.00  0.00     0.144 C 
BRANCH  18  20
ATOM     20  C   UNL A   1      31.903  22.982  24.326  1.00  0.00     0.082 C 
ATOM     21  C   UNL A   1      32.720  21.774  24.843  1.00  0.00     0.025 C 
ATOM     22  C   UNL A   1      32.446  23.252  22.913  1.00  0.00     0.025 C 
ATOM     23  C   UNL A   1      34.244  21.970  24.791  1.00  0.00     0.005 C 
ATOM     24  C   UNL A   1      33.910  23.676  22.921  1.00  0.00     0.005 C 
ATOM     25  C   UNL A   1      34.794  22.567  23.482  1.00  0.00    -0.014 C 
ATOM     26  C   UNL A   1      36.214  23.104  23.686  1.00  0.00     0.007 C 
ENDBRANCH  18  20
ENDBRANCH  13  18
ENDBRANCH   5   8
ENDBRANCH   3   4
ENDBRANCH   2   3
ENDBRANCH   1   2
BRANCH   1  27
ATOM     27  C   UNL A   1      33.241  32.095  27.613  1.00  0.00     0.116 C 
BRANCH  27  28
ATOM     28  N   UNL A   1      32.806  33.479  27.725  1.00  0.00    -0.352 N 
ATOM     29  C   UNL A   1      33.281  34.439  28.585  1.00  0.00     0.251 C 
ATOM     30  H   UNL A   1      32.088  33.761  27.112  1.00  0.00     0.163 HD
ATOM     31  O   UNL A   1      32.750  35.543  28.651  1.00  0.00    -0.269 OA
BRANCH  29  32
ATOM     32  C   UNL A   1      34.414  34.083  29.460  1.00  0.00     0.039 A 
ATOM     33  C   UNL A   1      34.164  33.359  30.625  1.00  0.00     0.014 A 
ATOM     34  C   UNL A   1      35.722  34.364  29.052  1.00  0.00     0.014 A 
ATOM     35  C   UNL A   1      35.239  32.848  31.352  1.00  0.00     0.010 A 
ATOM     36  C   UNL A   1      36.786  33.793  29.739  1.00  0.00     0.010 A 
ATOM     37  C   UNL A   1      36.555  33.023  30.889  1.00  0.00    -0.014 A 
BRANCH  37  38
ATOM     38  C   UNL A   1      37.703  32.394  31.587  1.00  0.00     0.031 A 
ATOM     39  C   UNL A   1      38.439  31.255  30.940  1.00  0.00     0.074 A 
ATOM     40  C   UNL A   1      38.032  32.802  32.829  1.00  0.00     0.049 A 
ATOM     41  N   UNL A   1      39.418  30.528  31.413  1.00  0.00    -0.248 NA
ATOM     42  C   UNL A   1      37.989  30.863  29.597  1.00  0.00     0.031 C 
ATOM     43  C   UNL A   1      37.354  33.863  33.577  1.00  0.00     0.029 A 
ATOM     44  N   UNL A   1      39.011  32.368  33.687  1.00  0.00    -0.354 N 
ATOM     45  C   UNL A   1      39.694  29.584  30.430  1.00  0.00     0.074 A 
ATOM     46  C   UNL A   1      38.733  29.791  29.368  1.00  0.00     0.031 C 
ATOM     47  C   UNL A   1      37.954  34.014  34.770  1.00  0.00     0.029 A 
ATOM     48  C   UNL A   1      39.028  33.034  34.890  1.00  0.00     0.049 A 
ATOM     49  H   UNL A   1      39.643  31.647  33.461  1.00  0.00     0.167 HD
ATOM     50  C   UNL A   1      40.677  28.649  30.406  1.00  0.00     0.034 A 
ATOM     51  C   UNL A   1      39.815  32.867  35.972  1.00  0.00     0.034 A 
ATOM     52  C   UNL A   1      41.629  28.464  31.472  1.00  0.00     0.049 A 
ATOM     53  C   UNL A   1      40.888  31.810  35.931  1.00  0.00     0.074 A 
ATOM     54  C   UNL A   1      42.699  27.588  31.533  1.00  0.00     0.029 A 
ATOM     55  N   UNL A   1      41.622  29.163  32.675  1.00  0.00    -0.354 N 
ATOM     56  N   UNL A   1      41.177  30.962  34.970  1.00  0.00    -0.248 NA
ATOM     57  C   UNL A   1      41.750  31.695  37.114  1.00  0.00     0.031 C 
ATOM     58  C   UNL A   1      43.294  27.708  32.793  1.00  0.00     0.029 A 
ATOM     59  C   UNL A   1      42.649  28.715  33.493  1.00  0.00     0.049 A 
ATOM     60  H   UNL A   1      40.982  29.872  32.911  1.00  0.00     0.167 HD
ATOM     61  C   UNL A   1      42.275  30.235  35.422  1.00  0.00     0.074 A 
ATOM     62  C   UNL A   1      42.601  30.753  36.735  1.00  0.00     0.031 C 
ATOM     63  C   UNL A   1      42.955  29.234  34.806  1.00  0.00     0.034 A 
BRANCH  50  64
ATOM     64  C   UNL A   1      40.742  27.747  29.196  1.00  0.00     0.023 A 
ATOM     65  C   UNL A   1      41.690  27.947  28.177  1.00  0.00     0.031 A 
ATOM     66  C   UNL A   1      39.818  26.700  29.034  1.00  0.00     0.131 A 
ATOM     67  C   UNL A   1      41.640  27.173  27.008  1.00  0.00     0.055 A 
ATOM     68  C   UNL A   1      39.828  25.875  27.907  1.00  0.00     0.041 A 
ATOM     69  F   UNL A   1      38.874  26.472  29.961  1.00  0.00    -0.206 F 
ATOM     70  C   UNL A   1      40.732  26.121  26.877  1.00  0.00     0.022 A 
BRANCH  67  71
ATOM     71  S   UNL A   1      42.671  27.666  25.600  1.00  0.00     0.124 S 
ATOM     72  O   UNL A   1      41.930  28.813  25.079  1.00  0.00    -0.237 OA
ATOM     73  O   UNL A   1      43.949  27.965  26.233  1.00  0.00    -0.237 OA
ATOM     74  O   UNL A   1      42.661  26.485  24.738  1.00  0.00    -0.744 OA
ENDBRANCH  67  71
ENDBRANCH  50  64
BRANCH  51  75
ATOM     75  C   UNL A   1      39.620  33.711  37.184  1.00  0.00     0.023 A 
ATOM     76  C   UNL A   1      38.931  33.220  38.306  1.00  0.00     0.031 A 
ATOM     77  C   UNL A   1      40.092  35.035  37.228  1.00  0.00     0.131 A 
ATOM     78  C   UNL A   1      38.696  34.060  39.405  1.00  0.00     0.055 A 
ATOM     79  C   UNL A   1      39.899  35.851  38.345  1.00  0.00     0.041 A 
ATOM     80  F   UNL A   1      40.763  35.551  36.187  1.00  0.00    -0.206 F 
ATOM     81  C   UNL A   1      39.186  35.367  39.438  1.00  0.00     0.022 A 
BRANCH  78  82
ATOM     82  S   UNL A   1      37.671  33.441  40.767  1.00  0.00     0.124 S 
ATOM     83  O   UNL A   1      37.151  34.679  41.335  1.00  0.00    -0.237 OA
ATOM     84  O   UNL A   1      36.706  32.603  40.064  1.00  0.00    -0.237 OA
ATOM     85  O   UNL A   1      38.623  32.719  41.609  1.00  0.00    -0.744 OA
ENDBRANCH  78  82
ENDBRANCH  51  75
BRANCH  63  86
ATOM     86  C   UNL A   1      44.152  28.671  35.532  1.00  0.00     0.023 A 
ATOM     87  C   UNL A   1      44.023  27.673  36.513  1.00  0.00     0.031 A 
ATOM     88  C   UNL A   1      45.442  29.151  35.240  1.00  0.00     0.131 A 
ATOM     89  C   UNL A   1      45.158  27.225  37.205  1.00  0.00     0.055 A 
ATOM     90  C   UNL A   1      46.574  28.657  35.890  1.00  0.00     0.041 A 
ATOM     91  F   UNL A   1      45.622  30.106  34.314  1.00  0.00    -0.206 F 
ATOM     92  C   UNL A   1      46.434  27.697  36.887  1.00  0.00     0.022 A 
BRANCH  89  93
ATOM     93  S   UNL A   1      44.935  26.076  38.592  1.00  0.00     0.124 S 
ATOM     94  O   UNL A   1      44.009  26.809  39.448  1.00  0.00    -0.237 OA
ATOM     95  O   UNL A   1      44.394  24.892  37.934  1.00  0.00    -0.237 OA
ATOM     96  O   UNL A   1      46.286  25.921  39.130  1.00  0.00    -0.744 OA
ENDBRANCH  89  93
ENDBRANCH  63  86
ENDBRANCH  37  38
ENDBRANCH  29  32
ENDBRANCH  27  28
ENDBRANCH   1  27
TORSDOF 17
ENDMDL
MODEL 2
REMARK VINA RESULT:     -12.1      1.509      1.835
REMARK SMILES Cc1cc(N(C)[C@H]2CC[C@@H](C)CC2)cc(C(=O)NCCCCNC(=O)c2ccc(-c3c4nc(c(-c5cc(S(=O)(=O)[O-])ccc5F)c5ccc([nH]5)c(-c5cc(S(=O)(=O)[O-])ccc5F)c5nc(c(-c6cc(S(=O)(=O)[O-])ccc6F)c6ccc3[nH]6)C=C5)C=C4)cc2)c1N
REMARK SMILES IDX 21 1 20 2 19 3 18 4 16 5 17 6 15 8 1 9 2 10 3 11 89 12 4 13
REMARK SMILES IDX 14 14 90 15 5 18 6 19 7 20 8 21 13 22 9 23 12 24 10 25 11 26
REMARK SMILES IDX 22 27 23 28 24 29 25 31 26 32 27 33 88 34 28 35 87 36 29 37
REMARK SMILES IDX 30 38 31 39 81 40 32 41 86 42 80 43 82 44 33 45 85 46 79 47
REMARK SMILES IDX 78 48 34 50 66 51 46 52 65 53 47 54 50 55 64 56 83 57 48 58
REMARK SMILES IDX 49 59 63 61 84 62 51 63 35 64 36 65 44 66 37 67 43 68 45 69
REMARK SMILES IDX 42 70 38 71 39 72 40 73 41 74 67 75 68 76 76 77 69 78 75 79
REMARK SMILES IDX 77 80 74 81 70 82 71 83 72 84 73 85 52 86 53 87 61 88 54 89
REMARK SMILES IDX 60 90 62 91 59 92 55 93 56 94 57 95 58 96
REMARK H PARENT 18 7 90 16 90 17 23 30 82 49 50 60
REMARK Flexibility Score: inf
ROOT
ATOM      1  C   UNL A   1      31.458  31.903  26.955  1.00  0.00     0.023 C 
ENDROOT
BRANCH   1   2
ATOM      2  C   UNL A   1      31.446  30.747  25.952  1.00  0.00     0.023 C 
BRANCH   2   3
ATOM      3  C   UNL A   1      32.714  29.891  25.991  1.00  0.00     0.116 C 
BRANCH   3   4
ATOM      4  N   UNL A   1      33.199  29.691  24.640  1.00  0.00    -0.352 N 
ATOM      5  C   UNL A   1      33.060  28.634  23.771  1.00  0.00     0.253 C 
ATOM      6  O   UNL A   1      33.665  28.701  22.700  1.00  0.00    -0.269 OA
ATOM      7  H   UNL A   1      33.720  30.444  24.281  1.00  0.00     0.163 HD
BRANCH   5   8
ATOM      8  C   UNL A   1      32.120  27.502  24.044  1.00  0.00     0.065 A 
ATOM      9  C   UNL A   1      28.405  26.706  23.867  1.00  0.00     0.046 C 
ATOM     10  C   UNL A   1      29.855  26.721  24.264  1.00  0.00    -0.025 A 
ATOM     11  C   UNL A   1      30.339  25.656  25.037  1.00  0.00     0.031 A 
ATOM     12  C   UNL A   1      30.747  27.682  23.779  1.00  0.00     0.047 A 
ATOM     13  C   UNL A   1      31.682  25.290  25.019  1.00  0.00     0.038 A 
ATOM     14  C   UNL A   1      32.568  26.261  24.534  1.00  0.00     0.042 A 
BRANCH  12  15
ATOM     15  N   UNL A   1      30.285  28.728  22.990  1.00  0.00    -0.398 N 
ATOM     16  H   UNL A   1      30.550  28.786  22.044  1.00  0.00     0.156 HD
ATOM     17  H   UNL A   1      29.693  29.413  23.378  1.00  0.00     0.156 HD
ENDBRANCH  12  15
BRANCH  13  18
ATOM     18  N   UNL A   1      32.112  24.018  25.379  1.00  0.00    -0.372 N 
ATOM     19  C   UNL A   1      32.329  23.779  26.810  1.00  0.00     0.144 C 
BRANCH  18  20
ATOM     20  C   UNL A   1      32.127  22.812  24.485  1.00  0.00     0.082 C 
ATOM     21  C   UNL A   1      33.025  21.686  25.050  1.00  0.00     0.025 C 
ATOM     22  C   UNL A   1      32.581  22.986  23.026  1.00  0.00     0.025 C 
ATOM     23  C   UNL A   1      34.533  21.938  24.896  1.00  0.00     0.005 C 
ATOM     24  C   UNL A   1      34.022  23.469  22.916  1.00  0.00     0.005 C 
ATOM     25  C   UNL A   1      34.984  22.447  23.513  1.00  0.00    -0.014 C 
ATOM     26  C   UNL A   1      36.387  23.057  23.592  1.00  0.00     0.007 C 
ENDBRANCH  18  20
ENDBRANCH  13  18
ENDBRANCH   5   8
ENDBRANCH   3   4
ENDBRANCH   2   3
ENDBRANCH   1   2
BRANCH   1  27
ATOM     27  C   UNL A   1      32.635  32.858  26.798  1.00  0.00     0.116 C 
BRANCH  27  28
ATOM     28  N   UNL A   1      32.468  34.094  27.549  1.00  0.00    -0.352 N 
ATOM     29  C   UNL A   1      33.227  34.540  28.603  1.00  0.00     0.251 C 
ATOM     30  H   UNL A   1      31.726  34.677  27.269  1.00  0.00     0.163 HD
ATOM     31  O   UNL A   1      32.911  35.553  29.220  1.00  0.00    -0.269 OA
BRANCH  29  32
ATOM     32  C   UNL A   1      34.399  33.738  29.000  1.00  0.00     0.039 A 
ATOM     33  C   UNL A   1      35.676  34.242  28.755  1.00  0.00     0.014 A 
ATOM     34  C   UNL A   1      34.219  32.554  29.722  1.00  0.00     0.014 A 
ATOM     35  C   UNL A   1      36.781  33.591  29.302  1.00  0.00     0.010 A 
ATOM     36  C   UNL A   1      35.315  31.949  30.323  1.00  0.00     0.010 A 
ATOM     37  C   UNL A   1      36.605  32.466  30.127  1.00  0.00    -0.014 A 
BRANCH  37  38
ATOM     38  C   UNL A   1      37.758  31.826  30.806  1.00  0.00     0.031 A 
ATOM     39  C   UNL A   1      38.553  30.768  30.094  1.00  0.00     0.074 A 
ATOM     40  C   UNL A   1      38.039  32.147  32.085  1.00  0.00     0.049 A 
ATOM     41  N   UNL A   1      39.546  30.042  30.537  1.00  0.00    -0.248 NA
ATOM     42  C   UNL A   1      38.153  30.466  28.712  1.00  0.00     0.031 C 
ATOM     43  C   UNL A   1      37.302  33.121  32.893  1.00  0.00     0.029 A 
ATOM     44  N   UNL A   1      39.011  31.682  32.934  1.00  0.00    -0.354 N 
ATOM     45  C   UNL A   1      39.883  29.188  29.493  1.00  0.00     0.074 A 
ATOM     46  C   UNL A   1      38.942  29.444  28.423  1.00  0.00     0.031 C 
ATOM     47  C   UNL A   1      37.865  33.199  34.110  1.00  0.00     0.029 A 
ATOM     48  C   UNL A   1      38.972  32.252  34.186  1.00  0.00     0.049 A 
ATOM     49  H   UNL A   1      39.675  31.003  32.672  1.00  0.00     0.167 HD
ATOM     50  C   UNL A   1      40.900  28.293  29.424  1.00  0.00     0.034 A 
ATOM     51  C   UNL A   1      39.736  32.028  35.274  1.00  0.00     0.034 A 
ATOM     52  C   UNL A   1      41.831  28.059  30.500  1.00  0.00     0.049 A 
ATOM     53  C   UNL A   1      40.850  31.016  35.182  1.00  0.00     0.074 A 
ATOM     54  C   UNL A   1      42.931  27.220  30.523  1.00  0.00     0.029 A 
ATOM     55  N   UNL A   1      41.767  28.661  31.752  1.00  0.00    -0.354 N 
ATOM     56  N   UNL A   1      41.195  30.258  34.166  1.00  0.00    -0.248 NA
ATOM     57  C   UNL A   1      41.684  30.840  36.376  1.00  0.00     0.031 C 
ATOM     58  C   UNL A   1      43.489  27.262  31.806  1.00  0.00     0.029 A 
ATOM     59  C   UNL A   1      42.788  28.187  32.562  1.00  0.00     0.049 A 
ATOM     60  H   UNL A   1      41.094  29.326  32.024  1.00  0.00     0.167 HD
ATOM     61  C   UNL A   1      42.307  29.537  34.592  1.00  0.00     0.074 A 
ATOM     62  C   UNL A   1      42.580  29.962  35.950  1.00  0.00     0.031 C 
ATOM     63  C   UNL A   1      43.041  28.613  33.920  1.00  0.00     0.034 A 
BRANCH  50  64
ATOM     64  C   UNL A   1      41.031  27.492  28.150  1.00  0.00     0.023 A 
ATOM     65  C   UNL A   1      40.664  26.135  28.092  1.00  0.00     0.031 A 
ATOM     66  C   UNL A   1      41.568  28.076  26.991  1.00  0.00     0.131 A 
ATOM     67  C   UNL A   1      40.919  25.389  26.932  1.00  0.00     0.055 A 
ATOM     68  C   UNL A   1      41.738  27.350  25.810  1.00  0.00     0.041 A 
ATOM     69  F   UNL A   1      41.957  29.361  26.989  1.00  0.00    -0.206 F 
ATOM     70  C   UNL A   1      41.429  25.993  25.781  1.00  0.00     0.022 A 
BRANCH  67  71
ATOM     71  S   UNL A   1      40.723  23.587  27.003  1.00  0.00     0.124 S 
ATOM     72  O   UNL A   1      41.593  23.153  25.911  1.00  0.00    -0.237 OA
ATOM     73  O   UNL A   1      41.183  23.272  28.349  1.00  0.00    -0.237 OA
ATOM     74  O   UNL A   1      39.294  23.388  26.767  1.00  0.00    -0.744 OA
ENDBRANCH  67  71
ENDBRANCH  50  64
BRANCH  51  75
ATOM     75  C   UNL A   1      39.478  32.768  36.541  1.00  0.00     0.023 A 
ATOM     76  C   UNL A   1      38.600  32.258  37.511  1.00  0.00     0.031 A 
ATOM     77  C   UNL A   1      40.083  34.013  36.789  1.00  0.00     0.131 A 
ATOM     78  C   UNL A   1      38.316  33.009  38.662  1.00  0.00     0.055 A 
ATOM     79  C   UNL A   1      39.836  34.733  37.960  1.00  0.00     0.041 A 
ATOM     80  F   UNL A   1      40.936  34.542  35.899  1.00  0.00    -0.206 F 
ATOM     81  C   UNL A   1      38.937  34.236  38.899  1.00  0.00     0.022 A 
BRANCH  78  82
ATOM     82  S   UNL A   1      37.061  32.389  39.816  1.00  0.00     0.124 S 
ATOM     83  O   UNL A   1      36.972  33.484  40.774  1.00  0.00    -0.237 OA
ATOM     84  O   UNL A   1      35.908  32.208  38.940  1.00  0.00    -0.237 OA
ATOM     85  O   UNL A   1      37.650  31.155  40.330  1.00  0.00    -0.744 OA
ENDBRANCH  78  82
ENDBRANCH  51  75
BRANCH  63  86
ATOM     86  C   UNL A   1      44.239  28.038  34.634  1.00  0.00     0.023 A 
ATOM     87  C   UNL A   1      44.165  26.834  35.357  1.00  0.00     0.031 A 
ATOM     88  C   UNL A   1      45.472  28.713  34.596  1.00  0.00     0.131 A 
ATOM     89  C   UNL A   1      45.289  26.371  36.056  1.00  0.00     0.055 A 
ATOM     90  C   UNL A   1      46.603  28.215  35.244  1.00  0.00     0.041 A 
ATOM     91  F   UNL A   1      45.598  29.868  33.923  1.00  0.00    -0.206 F 
ATOM     92  C   UNL A   1      46.512  27.044  35.990  1.00  0.00     0.022 A 
BRANCH  89  93
ATOM     93  S   UNL A   1      45.110  24.919  37.130  1.00  0.00     0.124 S 
ATOM     94  O   UNL A   1      44.537  23.935  36.217  1.00  0.00    -0.237 OA
ATOM     95  O   UNL A   1      46.485  24.672  37.552  1.00  0.00    -0.237 OA
ATOM     96  O   UNL A   1      44.213  25.382  38.187  1.00  0.00    -0.744 OA
ENDBRANCH  89  93
ENDBRANCH  63  86
ENDBRANCH  37  38
ENDBRANCH  29  32
ENDBRANCH  27  28
ENDBRANCH   1  27
TORSDOF 17
ENDMDL
MODEL 3
REMARK VINA RESULT:     -12.0      6.065     11.339
REMARK SMILES Cc1cc(N(C)[C@H]2CC[C@@H](C)CC2)cc(C(=O)NCCCCNC(=O)c2ccc(-c3c4nc(c(-c5cc(S(=O)(=O)[O-])ccc5F)c5ccc([nH]5)c(-c5cc(S(=O)(=O)[O-])ccc5F)c5nc(c(-c6cc(S(=O)(=O)[O-])ccc6F)c6ccc3[nH]6)C=C5)C=C4)cc2)c1N
REMARK SMILES IDX 21 1 20 2 19 3 18 4 16 5 17 6 15 8 1 9 2 10 3 11 89 12 4 13
REMARK SMILES IDX 14 14 90 15 5 18 6 19 7 20 8 21 13 22 9 23 12 24 10 25 11 26
REMARK SMILES IDX 22 27 23 28 24 29 25 31 26 32 27 33 88 34 28 35 87 36 29 37
REMARK SMILES IDX 30 38 31 39 81 40 32 41 86 42 80 43 82 44 33 45 85 46 79 47
REMARK SMILES IDX 78 48 34 50 66 51 46 52 65 53 47 54 50 55 64 56 83 57 48 58
REMARK SMILES IDX 49 59 63 61 84 62 51 63 35 64 36 65 44 66 37 67 43 68 45 69
REMARK SMILES IDX 42 70 38 71 39 72 40 73 41 74 67 75 68 76 76 77 69 78 75 79
REMARK SMILES IDX 77 80 74 81 70 82 71 83 72 84 73 85 52 86 53 87 61 88 54 89
REMARK SMILES IDX 60 90 62 91 59 92 55 93 56 94 57 95 58 96
REMARK H PARENT 18 7 90 16 90 17 23 30 82 49 50 60
REMARK Flexibility Score: inf
ROOT
ATOM      1  C   UNL A   1      37.923  19.674  24.759  1.00  0.00     0.023 C 
ENDROOT
BRANCH   1   2
ATOM      2  C   UNL A   1      36.516  20.272  24.838  1.00  0.00     0.023 C 
BRANCH   2   3
ATOM      3  C   UNL A   1      36.449  21.572  25.642  1.00  0.00     0.116 C 
BRANCH   3   4
ATOM      4  N   UNL A   1      35.392  21.473  26.627  1.00  0.00    -0.352 N 
ATOM      5  C   UNL A   1      34.078  21.879  26.596  1.00  0.00     0.253 C 
ATOM      6  O   UNL A   1      33.421  21.744  27.630  1.00  0.00    -0.269 OA
ATOM      7  H   UNL A   1      35.660  21.038  27.468  1.00  0.00     0.163 HD
BRANCH   5   8
ATOM      8  C   UNL A   1      33.425  22.350  25.335  1.00  0.00     0.065 A 
ATOM      9  C   UNL A   1      31.887  20.933  22.157  1.00  0.00     0.046 C 
ATOM     10  C   UNL A   1      32.583  21.833  23.141  1.00  0.00    -0.025 A 
ATOM     11  C   UNL A   1      32.728  23.188  22.809  1.00  0.00     0.031 A 
ATOM     12  C   UNL A   1      32.961  21.390  24.412  1.00  0.00     0.047 A 
ATOM     13  C   UNL A   1      32.855  24.171  23.786  1.00  0.00     0.038 A 
ATOM     14  C   UNL A   1      33.238  23.717  25.056  1.00  0.00     0.042 A 
BRANCH  12  15
ATOM     15  N   UNL A   1      32.800  20.055  24.763  1.00  0.00    -0.398 N 
ATOM     16  H   UNL A   1      31.896  19.671  24.832  1.00  0.00     0.156 HD
ATOM     17  H   UNL A   1      33.588  19.495  24.944  1.00  0.00     0.156 HD
ENDBRANCH  12  15
BRANCH  13  18
ATOM     18  N   UNL A   1      32.545  25.504  23.546  1.00  0.00    -0.372 N 
ATOM     19  C   UNL A   1      33.588  26.318  22.911  1.00  0.00     0.144 C 
BRANCH  18  20
ATOM     20  C   UNL A   1      31.177  26.115  23.637  1.00  0.00     0.082 C 
ATOM     21  C   UNL A   1      31.235  27.662  23.645  1.00  0.00     0.025 C 
ATOM     22  C   UNL A   1      30.288  25.747  24.837  1.00  0.00     0.025 C 
ATOM     23  C   UNL A   1      31.703  28.274  24.975  1.00  0.00     0.005 C 
ATOM     24  C   UNL A   1      30.900  26.163  26.169  1.00  0.00     0.005 C 
ATOM     25  C   UNL A   1      31.061  27.678  26.243  1.00  0.00    -0.014 C 
ATOM     26  C   UNL A   1      31.880  28.041  27.486  1.00  0.00     0.007 C 
ENDBRANCH  18  20
ENDBRANCH  13  18
ENDBRANCH   5   8
ENDBRANCH   3   4
ENDBRANCH   2   3
ENDBRANCH   1   2
BRANCH   1  27
ATOM     27  C   UNL A   1      38.825  20.035  25.932  1.00  0.00     0.116 C 
BRANCH  27  28
ATOM     28  N   UNL A   1      40.037  19.230  25.987  1.00  0.00    -0.352 N 
ATOM     29  C   UNL A   1      41.308  19.652  26.289  1.00  0.00     0.251 C 
ATOM     30  H   UNL A   1      39.932  18.272  25.785  1.00  0.00     0.163 HD
ATOM     31  O   UNL A   1      42.264  18.888  26.193  1.00  0.00    -0.269 OA
BRANCH  29  32
ATOM     32  C   UNL A   1      41.494  21.062  26.680  1.00  0.00     0.039 A 
ATOM     33  C   UNL A   1      42.009  21.349  27.944  1.00  0.00     0.014 A 
ATOM     34  C   UNL A   1      41.274  22.077  25.744  1.00  0.00     0.014 A 
ATOM     35  C   UNL A   1      42.374  22.660  28.248  1.00  0.00     0.010 A 
ATOM     36  C   UNL A   1      41.705  23.368  26.026  1.00  0.00     0.010 A 
ATOM     37  C   UNL A   1      42.267  23.670  27.276  1.00  0.00    -0.014 A 
BRANCH  37  38
ATOM     38  C   UNL A   1      42.753  25.046  27.543  1.00  0.00     0.031 A 
ATOM     39  C   UNL A   1      41.840  26.049  28.188  1.00  0.00     0.074 A 
ATOM     40  C   UNL A   1      43.987  25.406  27.138  1.00  0.00     0.049 A 
ATOM     41  N   UNL A   1      42.049  27.315  28.441  1.00  0.00    -0.248 NA
ATOM     42  C   UNL A   1      40.503  25.570  28.568  1.00  0.00     0.031 C 
ATOM     43  C   UNL A   1      44.942  24.530  26.454  1.00  0.00     0.029 A 
ATOM     44  N   UNL A   1      44.648  26.605  27.233  1.00  0.00    -0.354 N 
ATOM     45  C   UNL A   1      40.867  27.788  28.998  1.00  0.00     0.074 A 
ATOM     46  C   UNL A   1      39.926  26.688  28.983  1.00  0.00     0.031 C 
ATOM     47  C   UNL A   1      46.073  25.214  26.215  1.00  0.00     0.029 A 
ATOM     48  C   UNL A   1      45.911  26.585  26.686  1.00  0.00     0.049 A 
ATOM     49  H   UNL A   1      44.256  27.404  27.653  1.00  0.00     0.167 HD
ATOM     50  C   UNL A   1      40.600  29.020  29.501  1.00  0.00     0.034 A 
ATOM     51  C   UNL A   1      46.830  27.565  26.570  1.00  0.00     0.034 A 
ATOM     52  C   UNL A   1      41.554  30.100  29.514  1.00  0.00     0.049 A 
ATOM     53  C   UNL A   1      46.506  28.931  27.120  1.00  0.00     0.074 A 
ATOM     54  C   UNL A   1      41.414  31.370  30.046  1.00  0.00     0.029 A 
ATOM     55  N   UNL A   1      42.828  30.043  28.959  1.00  0.00    -0.354 N 
ATOM     56  N   UNL A   1      45.403  29.348  27.699  1.00  0.00    -0.248 NA
ATOM     57  C   UNL A   1      47.554  29.952  27.011  1.00  0.00     0.031 C 
ATOM     58  C   UNL A   1      42.572  32.099  29.754  1.00  0.00     0.029 A 
ATOM     59  C   UNL A   1      43.470  31.263  29.109  1.00  0.00     0.049 A 
ATOM     60  H   UNL A   1      43.218  29.252  28.523  1.00  0.00     0.167 HD
ATOM     61  C   UNL A   1      45.639  30.674  28.052  1.00  0.00     0.074 A 
ATOM     62  C   UNL A   1      46.991  30.980  27.632  1.00  0.00     0.031 C 
ATOM     63  C   UNL A   1      44.816  31.556  28.674  1.00  0.00     0.034 A 
BRANCH  50  64
ATOM     64  C   UNL A   1      39.213  29.255  30.051  1.00  0.00     0.023 A 
ATOM     65  C   UNL A   1      38.226  29.921  29.302  1.00  0.00     0.031 A 
ATOM     66  C   UNL A   1      38.883  28.850  31.356  1.00  0.00     0.131 A 
ATOM     67  C   UNL A   1      36.992  30.238  29.890  1.00  0.00     0.055 A 
ATOM     68  C   UNL A   1      37.622  29.090  31.906  1.00  0.00     0.041 A 
ATOM     69  F   UNL A   1      39.789  28.230  32.129  1.00  0.00    -0.206 F 
ATOM     70  C   UNL A   1      36.673  29.804  31.179  1.00  0.00     0.022 A 
BRANCH  67  71
ATOM     71  S   UNL A   1      35.875  31.360  29.006  1.00  0.00     0.124 S 
ATOM     72  O   UNL A   1      35.070  31.897  30.102  1.00  0.00    -0.237 OA
ATOM     73  O   UNL A   1      36.800  32.293  28.375  1.00  0.00    -0.237 OA
ATOM     74  O   UNL A   1      35.155  30.477  28.090  1.00  0.00    -0.744 OA
ENDBRANCH  67  71
ENDBRANCH  50  64
BRANCH  51  75
ATOM     75  C   UNL A   1      48.137  27.298  25.907  1.00  0.00     0.023 A 
ATOM     76  C   UNL A   1      48.296  27.474  24.523  1.00  0.00     0.031 A 
ATOM     77  C   UNL A   1      49.241  26.831  26.643  1.00  0.00     0.131 A 
ATOM     78  C   UNL A   1      49.515  27.144  23.911  1.00  0.00     0.055 A 
ATOM     79  C   UNL A   1      50.468  26.552  26.037  1.00  0.00     0.041 A 
ATOM     80  F   UNL A   1      49.145  26.653  27.970  1.00  0.00    -0.206 F 
ATOM     81  C   UNL A   1      50.606  26.697  24.660  1.00  0.00     0.022 A 
BRANCH  78  82
ATOM     82  S   UNL A   1      49.633  27.238  22.103  1.00  0.00     0.124 S 
ATOM     83  O   UNL A   1      48.745  26.158  21.691  1.00  0.00    -0.237 OA
ATOM     84  O   UNL A   1      49.160  28.593  21.839  1.00  0.00    -0.237 OA
ATOM     85  O   UNL A   1      51.054  27.014  21.842  1.00  0.00    -0.744 OA
ENDBRANCH  78  82
ENDBRANCH  51  75
BRANCH  63  86
ATOM     86  C   UNL A   1      45.380  32.923  28.977  1.00  0.00     0.023 A 
ATOM     87  C   UNL A   1      45.364  33.959  28.028  1.00  0.00     0.031 A 
ATOM     88  C   UNL A   1      45.950  33.185  30.237  1.00  0.00     0.131 A 
ATOM     89  C   UNL A   1      45.956  35.194  28.335  1.00  0.00     0.055 A 
ATOM     90  C   UNL A   1      46.482  34.435  30.556  1.00  0.00     0.041 A 
ATOM     91  F   UNL A   1      45.993  32.230  31.179  1.00  0.00    -0.206 F 
ATOM     92  C   UNL A   1      46.498  35.444  29.598  1.00  0.00     0.022 A 
BRANCH  89  93
ATOM     93  S   UNL A   1      46.087  36.446  27.028  1.00  0.00     0.124 S 
ATOM     94  O   UNL A   1      44.883  37.242  27.247  1.00  0.00    -0.237 OA
ATOM     95  O   UNL A   1      47.351  37.101  27.348  1.00  0.00    -0.237 OA
ATOM     96  O   UNL A   1      46.094  35.658  25.797  1.00  0.00    -0.744 OA
ENDBRANCH  89  93
ENDBRANCH  63  86
ENDBRANCH  37  38
ENDBRANCH  29  32
ENDBRANCH  27  28
ENDBRANCH   1  27
TORSDOF 17
ENDMDL
