MODEL 1
REMARK VINA RESULT:     -12.0      0.000      0.000
REMARK SMILES C[C@@H](C(=O)NCCCCNC(=O)c1ccc(-c2c3nc(c(-c4cc(S(=O)(=O)[O-])ccc4F)c4ccc([nH]4)c(-c4cc(S(=O)(=O)[O-])ccc4F)c4nc(c(-c5cc(S(=O)(=O)[O-])ccc5F)c5ccc2[nH]5)C=C4)C=C3)cc1)c1ccc(C[C@H]2CCCC2=O)cc1I
REMARK SMILES IDX 7 1 6 2 5 3 3 4 4 5 2 7 1 8 76 9 77 10 88 11 78 12 87 13
REMARK SMILES IDX 89 14 79 15 80 16 81 17 82 18 85 19 83 20 84 21 86 22 8 23
REMARK SMILES IDX 9 24 10 25 11 26 12 28 13 29 14 30 75 31 15 32 74 33 16 34
REMARK SMILES IDX 17 35 18 36 68 37 19 38 73 39 67 40 69 41 20 42 72 43 66 44
REMARK SMILES IDX 65 45 21 47 53 48 33 49 52 50 34 51 37 52 51 53 70 54 35 55
REMARK SMILES IDX 36 56 50 58 71 59 38 60 22 61 23 62 31 63 24 64 30 65 32 66
REMARK SMILES IDX 29 67 25 68 26 69 27 70 28 71 54 72 55 73 63 74 56 75 62 76
REMARK SMILES IDX 64 77 61 78 57 79 58 80 59 81 60 82 39 83 40 84 48 85 41 86
REMARK SMILES IDX 47 87 49 88 46 89 42 90 43 91 44 92 45 93
REMARK H PARENT 5 6 10 27 69 46 37 57
REMARK Flexibility Score: inf
ROOT
ATOM      1  C   UNL A   1      32.133  29.431  27.216  1.00  0.00     0.023 C 
ENDROOT
BRANCH   1   2
ATOM      2  C   UNL A   1      32.794  28.255  26.497  1.00  0.00     0.116 C 
BRANCH   2   3
ATOM      3  N   UNL A   1      33.656  28.706  25.425  1.00  0.00    -0.356 N 
ATOM      4  C   UNL A   1      33.716  28.334  24.113  1.00  0.00     0.227 C 
ATOM      5  O   UNL A   1      34.533  28.935  23.412  1.00  0.00    -0.274 OA
ATOM      6  H   UNL A   1      34.307  29.396  25.684  1.00  0.00     0.163 HD
BRANCH   4   7
ATOM      7  C   UNL A   1      32.734  27.293  23.549  1.00  0.00     0.106 C 
ATOM      8  C   UNL A   1      33.300  26.359  22.474  1.00  0.00     0.023 C 
BRANCH   7   9
ATOM      9  C   UNL A   1      31.405  27.914  23.101  1.00  0.00    -0.022 A 
ATOM     10  C   UNL A   1      31.488  29.001  22.204  1.00  0.00     0.006 A 
ATOM     11  C   UNL A   1      30.119  27.504  23.504  1.00  0.00     0.017 A 
ATOM     12  C   UNL A   1      30.352  29.685  21.770  1.00  0.00     0.004 A 
ATOM     13  C   UNL A   1      28.982  28.216  23.084  1.00  0.00     0.018 A 
ATOM     14  I   UNL A   1      29.701  25.836  24.722  1.00  0.00    -0.044 I 
ATOM     15  C   UNL A   1      29.089  29.326  22.240  1.00  0.00    -0.046 A 
BRANCH  15  16
ATOM     16  C   UNL A   1      27.863  30.119  21.861  1.00  0.00     0.047 C 
BRANCH  16  17
ATOM     17  C   UNL A   1      27.559  31.341  22.737  1.00  0.00     0.060 C 
ATOM     18  C   UNL A   1      28.163  31.346  24.146  1.00  0.00     0.012 C 
ATOM     19  C   UNL A   1      28.109  32.624  22.155  1.00  0.00     0.136 C 
ATOM     20  C   UNL A   1      29.437  32.180  24.061  1.00  0.00     0.009 C 
ATOM     21  C   UNL A   1      29.138  33.271  23.043  1.00  0.00     0.076 C 
ATOM     22  O   UNL A   1      27.742  33.100  21.087  1.00  0.00    -0.299 OA
ENDBRANCH  16  17
ENDBRANCH  15  16
ENDBRANCH   7   9
ENDBRANCH   4   7
ENDBRANCH   2   3
ENDBRANCH   1   2
BRANCH   1  23
ATOM     23  C   UNL A   1      32.345  30.793  26.546  1.00  0.00     0.023 C 
BRANCH  23  24
ATOM     24  C   UNL A   1      33.364  31.706  27.223  1.00  0.00     0.116 C 
BRANCH  24  25
ATOM     25  N   UNL A   1      32.845  33.041  27.484  1.00  0.00    -0.352 N 
ATOM     26  C   UNL A   1      33.265  33.960  28.415  1.00  0.00     0.251 C 
ATOM     27  H   UNL A   1      32.093  33.324  26.915  1.00  0.00     0.163 HD
ATOM     28  O   UNL A   1      32.632  35.000  28.580  1.00  0.00    -0.269 OA
BRANCH  26  29
ATOM     29  C   UNL A   1      34.454  33.665  29.243  1.00  0.00     0.039 A 
ATOM     30  C   UNL A   1      34.309  32.847  30.367  1.00  0.00     0.014 A 
ATOM     31  C   UNL A   1      35.712  34.154  28.880  1.00  0.00     0.014 A 
ATOM     32  C   UNL A   1      35.443  32.442  31.077  1.00  0.00     0.010 A 
ATOM     33  C   UNL A   1      36.844  33.707  29.557  1.00  0.00     0.010 A 
ATOM     34  C   UNL A   1      36.722  32.829  30.647  1.00  0.00    -0.014 A 
BRANCH  34  35
ATOM     35  C   UNL A   1      37.953  32.287  31.278  1.00  0.00     0.031 A 
ATOM     36  C   UNL A   1      38.702  31.160  30.626  1.00  0.00     0.074 A 
ATOM     37  C   UNL A   1      38.324  32.738  32.494  1.00  0.00     0.049 A 
ATOM     38  N   UNL A   1      39.700  30.454  31.089  1.00  0.00    -0.248 NA
ATOM     39  C   UNL A   1      38.248  30.755  29.287  1.00  0.00     0.031 C 
ATOM     40  C   UNL A   1      37.650  33.801  33.243  1.00  0.00     0.029 A 
ATOM     41  N   UNL A   1      39.337  32.338  33.332  1.00  0.00    -0.354 N 
ATOM     42  C   UNL A   1      39.980  29.504  30.114  1.00  0.00     0.074 A 
ATOM     43  C   UNL A   1      39.026  29.707  29.044  1.00  0.00     0.031 C 
ATOM     44  C   UNL A   1      38.261  33.962  34.428  1.00  0.00     0.029 A 
ATOM     45  C   UNL A   1      39.336  32.983  34.548  1.00  0.00     0.049 A 
ATOM     46  H   UNL A   1      40.001  31.653  33.086  1.00  0.00     0.167 HD
ATOM     47  C   UNL A   1      40.948  28.556  30.112  1.00  0.00     0.034 A 
ATOM     48  C   UNL A   1      40.091  32.786  35.648  1.00  0.00     0.034 A 
ATOM     49  C   UNL A   1      41.910  28.388  31.174  1.00  0.00     0.049 A 
ATOM     50  C   UNL A   1      41.147  31.710  35.624  1.00  0.00     0.074 A 
ATOM     51  C   UNL A   1      43.003  27.537  31.216  1.00  0.00     0.029 A 
ATOM     52  N   UNL A   1      41.887  29.064  32.385  1.00  0.00    -0.354 N 
ATOM     53  N   UNL A   1      41.452  30.876  34.657  1.00  0.00    -0.248 NA
ATOM     54  C   UNL A   1      41.961  31.549  36.837  1.00  0.00     0.031 C 
ATOM     55  C   UNL A   1      43.598  27.652  32.478  1.00  0.00     0.029 A 
ATOM     56  C   UNL A   1      42.917  28.619  33.198  1.00  0.00     0.049 A 
ATOM     57  H   UNL A   1      41.234  29.760  32.629  1.00  0.00     0.167 HD
ATOM     58  C   UNL A   1      42.507  30.107  35.140  1.00  0.00     0.074 A 
ATOM     59  C   UNL A   1      42.796  30.587  36.476  1.00  0.00     0.031 C 
ATOM     60  C   UNL A   1      43.180  29.097  34.533  1.00  0.00     0.034 A 
BRANCH  47  61
ATOM     61  C   UNL A   1      41.000  27.606  28.944  1.00  0.00     0.023 A 
ATOM     62  C   UNL A   1      41.969  27.724  27.932  1.00  0.00     0.031 A 
ATOM     63  C   UNL A   1      40.072  26.554  28.851  1.00  0.00     0.131 A 
ATOM     64  C   UNL A   1      41.954  26.838  26.846  1.00  0.00     0.055 A 
ATOM     65  C   UNL A   1      40.102  25.636  27.800  1.00  0.00     0.041 A 
ATOM     66  F   UNL A   1      39.114  26.405  29.780  1.00  0.00    -0.206 F 
ATOM     67  C   UNL A   1      41.043  25.780  26.784  1.00  0.00     0.022 A 
BRANCH  64  68
ATOM     68  S   UNL A   1      43.085  27.143  25.462  1.00  0.00     0.124 S 
ATOM     69  O   UNL A   1      43.195  25.812  24.870  1.00  0.00    -0.237 OA
ATOM     70  O   UNL A   1      42.361  28.134  24.674  1.00  0.00    -0.237 OA
ATOM     71  O   UNL A   1      44.300  27.631  26.112  1.00  0.00    -0.744 OA
ENDBRANCH  64  68
ENDBRANCH  47  61
BRANCH  48  72
ATOM     72  C   UNL A   1      39.850  33.580  36.887  1.00  0.00     0.023 A 
ATOM     73  C   UNL A   1      39.174  33.025  37.983  1.00  0.00     0.031 A 
ATOM     74  C   UNL A   1      40.238  34.930  36.967  1.00  0.00     0.131 A 
ATOM     75  C   UNL A   1      38.859  33.827  39.091  1.00  0.00     0.055 A 
ATOM     76  C   UNL A   1      39.969  35.710  38.092  1.00  0.00     0.041 A 
ATOM     77  F   UNL A   1      40.890  35.511  35.946  1.00  0.00    -0.206 F 
ATOM     78  C   UNL A   1      39.261  35.163  39.158  1.00  0.00     0.022 A 
BRANCH  75  79
ATOM     79  S   UNL A   1      37.822  33.125  40.403  1.00  0.00     0.124 S 
ATOM     80  O   UNL A   1      38.515  31.875  40.696  1.00  0.00    -0.237 OA
ATOM     81  O   UNL A   1      37.899  34.158  41.432  1.00  0.00    -0.237 OA
ATOM     82  O   UNL A   1      36.516  32.979  39.764  1.00  0.00    -0.744 OA
ENDBRANCH  75  79
ENDBRANCH  48  72
BRANCH  60  83
ATOM     83  C   UNL A   1      44.313  28.471  35.305  1.00  0.00     0.023 A 
ATOM     84  C   UNL A   1      44.086  27.449  36.243  1.00  0.00     0.031 A 
ATOM     85  C   UNL A   1      45.633  28.906  35.102  1.00  0.00     0.131 A 
ATOM     86  C   UNL A   1      45.163  26.923  36.974  1.00  0.00     0.055 A 
ATOM     87  C   UNL A   1      46.707  28.344  35.795  1.00  0.00     0.041 A 
ATOM     88  F   UNL A   1      45.903  29.882  34.219  1.00  0.00    -0.206 F 
ATOM     89  C   UNL A   1      46.472  27.353  36.744  1.00  0.00     0.022 A 
BRANCH  86  90
ATOM     90  S   UNL A   1      44.821  25.709  38.277  1.00  0.00     0.124 S 
ATOM     91  O   UNL A   1      44.300  26.552  39.347  1.00  0.00    -0.237 OA
ATOM     92  O   UNL A   1      43.856  24.822  37.636  1.00  0.00    -0.237 OA
ATOM     93  O   UNL A   1      46.129  25.112  38.540  1.00  0.00    -0.744 OA
ENDBRANCH  86  90
ENDBRANCH  60  83
ENDBRANCH  34  35
ENDBRANCH  26  29
ENDBRANCH  24  25
ENDBRANCH  23  24
ENDBRANCH   1  23
TORSDOF 17
ENDMDL
MODEL 2
REMARK VINA RESULT:     -11.7      2.157      2.776
REMARK SMILES C[C@@H](C(=O)NCCCCNC(=O)c1ccc(-c2c3nc(c(-c4cc(S(=O)(=O)[O-])ccc4F)c4ccc([nH]4)c(-c4cc(S(=O)(=O)[O-])ccc4F)c4nc(c(-c5cc(S(=O)(=O)[O-])ccc5F)c5ccc2[nH]5)C=C4)C=C3)cc1)c1ccc(C[C@H]2CCCC2=O)cc1I
REMARK SMILES IDX 7 1 6 2 5 3 3 4 4 5 2 7 1 8 76 9 77 10 88 11 78 12 87 13
REMARK SMILES IDX 89 14 79 15 80 16 81 17 82 18 85 19 83 20 84 21 86 22 8 23
REMARK SMILES IDX 9 24 10 25 11 26 12 28 13 29 14 30 75 31 15 32 74 33 16 34
REMARK SMILES IDX 17 35 18 36 68 37 19 38 73 39 67 40 69 41 20 42 72 43 66 44
REMARK SMILES IDX 65 45 21 47 53 48 33 49 52 50 34 51 37 52 51 53 70 54 35 55
REMARK SMILES IDX 36 56 50 58 71 59 38 60 22 61 23 62 31 63 24 64 30 65 32 66
REMARK SMILES IDX 29 67 25 68 26 69 27 70 28 71 54 72 55 73 63 74 56 75 62 76
REMARK SMILES IDX 64 77 61 78 57 79 58 80 59 81 60 82 39 83 40 84 48 85 41 86
REMARK SMILES IDX 47 87 49 88 46 89 42 90 43 91 44 92 45 93
REMARK H PARENT 5 6 10 27 69 46 37 57
REMARK Flexibility Score: inf
ROOT
ATOM      1  C   UNL A   1      32.378  27.488  26.650  1.00  0.00     0.023 C 
ENDROOT
BRANCH   1   2
ATOM      2  C   UNL A   1      31.376  26.334  26.644  1.00  0.00     0.116 C 
BRANCH   2   3
ATOM      3  N   UNL A   1      32.027  25.067  26.385  1.00  0.00    -0.356 N 
ATOM      4  C   UNL A   1      31.784  24.117  25.435  1.00  0.00     0.227 C 
ATOM      5  O   UNL A   1      32.545  23.148  25.426  1.00  0.00    -0.274 OA
ATOM      6  H   UNL A   1      32.769  24.855  26.995  1.00  0.00     0.163 HD
BRANCH   4   7
ATOM      7  C   UNL A   1      30.681  24.326  24.384  1.00  0.00     0.106 C 
ATOM      8  C   UNL A   1      30.638  23.296  23.251  1.00  0.00     0.023 C 
BRANCH   7   9
ATOM      9  C   UNL A   1      30.649  25.758  23.834  1.00  0.00    -0.022 A 
ATOM     10  C   UNL A   1      29.458  26.487  24.045  1.00  0.00     0.006 A 
ATOM     11  C   UNL A   1      31.690  26.404  23.140  1.00  0.00     0.017 A 
ATOM     12  C   UNL A   1      29.287  27.777  23.542  1.00  0.00     0.004 A 
ATOM     13  C   UNL A   1      31.499  27.694  22.613  1.00  0.00     0.018 A 
ATOM     14  I   UNL A   1      33.610  25.603  22.807  1.00  0.00    -0.044 I 
ATOM     15  C   UNL A   1      30.291  28.378  22.784  1.00  0.00    -0.046 A 
BRANCH  15  16
ATOM     16  C   UNL A   1      30.083  29.730  22.147  1.00  0.00     0.047 C 
BRANCH  16  17
ATOM     17  C   UNL A   1      28.754  30.426  22.470  1.00  0.00     0.060 C 
ATOM     18  C   UNL A   1      28.797  31.534  23.529  1.00  0.00     0.012 C 
ATOM     19  C   UNL A   1      28.175  31.153  21.278  1.00  0.00     0.136 C 
ATOM     20  C   UNL A   1      28.881  32.851  22.765  1.00  0.00     0.009 C 
ATOM     21  C   UNL A   1      28.061  32.637  21.501  1.00  0.00     0.076 C 
ATOM     22  O   UNL A   1      27.813  30.595  20.249  1.00  0.00    -0.299 OA
ENDBRANCH  16  17
ENDBRANCH  15  16
ENDBRANCH   7   9
ENDBRANCH   4   7
ENDBRANCH   2   3
ENDBRANCH   1   2
BRANCH   1  23
ATOM     23  C   UNL A   1      31.792  28.845  26.246  1.00  0.00     0.023 C 
BRANCH  23  24
ATOM     24  C   UNL A   1      32.814  29.919  25.879  1.00  0.00     0.116 C 
BRANCH  24  25
ATOM     25  N   UNL A   1      32.465  31.234  26.396  1.00  0.00    -0.352 N 
ATOM     26  C   UNL A   1      33.159  32.020  27.285  1.00  0.00     0.251 C 
ATOM     27  H   UNL A   1      31.621  31.613  26.061  1.00  0.00     0.163 HD
ATOM     28  O   UNL A   1      32.657  33.059  27.707  1.00  0.00    -0.269 OA
BRANCH  26  29
ATOM     29  C   UNL A   1      34.487  31.582  27.761  1.00  0.00     0.039 A 
ATOM     30  C   UNL A   1      35.530  32.511  27.806  1.00  0.00     0.014 A 
ATOM     31  C   UNL A   1      34.687  30.273  28.208  1.00  0.00     0.014 A 
ATOM     32  C   UNL A   1      36.750  32.154  28.386  1.00  0.00     0.010 A 
ATOM     33  C   UNL A   1      35.885  29.935  28.832  1.00  0.00     0.010 A 
ATOM     34  C   UNL A   1      36.919  30.878  28.947  1.00  0.00    -0.014 A 
BRANCH  34  35
ATOM     35  C   UNL A   1      38.141  30.519  29.713  1.00  0.00     0.031 A 
ATOM     36  C   UNL A   1      39.107  29.508  29.163  1.00  0.00     0.074 A 
ATOM     37  C   UNL A   1      38.315  31.023  30.952  1.00  0.00     0.049 A 
ATOM     38  N   UNL A   1      40.141  28.954  29.741  1.00  0.00    -0.248 NA
ATOM     39  C   UNL A   1      38.859  29.037  27.792  1.00  0.00     0.031 C 
ATOM     40  C   UNL A   1      37.421  31.982  31.607  1.00  0.00     0.029 A 
ATOM     41  N   UNL A   1      39.280  30.776  31.897  1.00  0.00    -0.354 N 
ATOM     42  C   UNL A   1      40.653  28.050  28.818  1.00  0.00     0.074 A 
ATOM     43  C   UNL A   1      39.798  28.111  27.651  1.00  0.00     0.031 C 
ATOM     44  C   UNL A   1      37.875  32.233  32.846  1.00  0.00     0.029 A 
ATOM     45  C   UNL A   1      39.059  31.419  33.094  1.00  0.00     0.049 A 
ATOM     46  H   UNL A   1      40.057  30.192  31.734  1.00  0.00     0.167 HD
ATOM     47  C   UNL A   1      41.741  27.250  28.934  1.00  0.00     0.034 A 
ATOM     48  C   UNL A   1      39.715  31.336  34.270  1.00  0.00     0.034 A 
ATOM     49  C   UNL A   1      42.600  27.225  30.093  1.00  0.00     0.049 A 
ATOM     50  C   UNL A   1      40.909  30.422  34.377  1.00  0.00     0.074 A 
ATOM     51  C   UNL A   1      43.791  26.540  30.264  1.00  0.00     0.029 A 
ATOM     52  N   UNL A   1      42.353  27.896  31.282  1.00  0.00    -0.354 N 
ATOM     53  N   UNL A   1      41.430  29.637  33.463  1.00  0.00    -0.248 NA
ATOM     54  C   UNL A   1      41.605  30.384  35.670  1.00  0.00     0.031 C 
ATOM     55  C   UNL A   1      44.228  26.744  31.578  1.00  0.00     0.029 A 
ATOM     56  C   UNL A   1      43.344  27.606  32.206  1.00  0.00     0.049 A 
ATOM     57  H   UNL A   1      41.587  28.492  31.444  1.00  0.00     0.167 HD
ATOM     58  C   UNL A   1      42.526  29.027  34.066  1.00  0.00     0.074 A 
ATOM     59  C   UNL A   1      42.602  29.549  35.415  1.00  0.00     0.031 C 
ATOM     60  C   UNL A   1      43.396  28.122  33.552  1.00  0.00     0.034 A 
BRANCH  47  61
ATOM     61  C   UNL A   1      42.050  26.313  27.796  1.00  0.00     0.023 A 
ATOM     62  C   UNL A   1      41.599  24.982  27.785  1.00  0.00     0.031 A 
ATOM     63  C   UNL A   1      42.798  26.766  26.695  1.00  0.00     0.131 A 
ATOM     64  C   UNL A   1      41.943  24.137  26.720  1.00  0.00     0.055 A 
ATOM     65  C   UNL A   1      43.083  25.939  25.608  1.00  0.00     0.041 A 
ATOM     66  F   UNL A   1      43.269  28.024  26.661  1.00  0.00    -0.206 F 
ATOM     67  C   UNL A   1      42.662  24.612  25.620  1.00  0.00     0.022 A 
BRANCH  64  68
ATOM     68  S   UNL A   1      41.519  22.378  26.835  1.00  0.00     0.124 S 
ATOM     69  O   UNL A   1      42.356  21.945  27.951  1.00  0.00    -0.237 OA
ATOM     70  O   UNL A   1      40.083  22.414  27.090  1.00  0.00    -0.237 OA
ATOM     71  O   UNL A   1      41.907  21.845  25.530  1.00  0.00    -0.744 OA
ENDBRANCH  64  68
ENDBRANCH  47  61
BRANCH  48  72
ATOM     72  C   UNL A   1      39.235  32.093  35.463  1.00  0.00     0.023 A 
ATOM     73  C   UNL A   1      38.571  31.443  36.514  1.00  0.00     0.031 A 
ATOM     74  C   UNL A   1      39.377  33.490  35.537  1.00  0.00     0.131 A 
ATOM     75  C   UNL A   1      38.027  32.192  37.568  1.00  0.00     0.055 A 
ATOM     76  C   UNL A   1      38.883  34.226  36.614  1.00  0.00     0.041 A 
ATOM     77  F   UNL A   1      40.008  34.162  34.559  1.00  0.00    -0.206 F 
ATOM     78  C   UNL A   1      38.188  33.579  37.632  1.00  0.00     0.022 A 
BRANCH  75  79
ATOM     79  S   UNL A   1      37.015  31.339  38.808  1.00  0.00     0.124 S 
ATOM     80  O   UNL A   1      36.877  30.012  38.219  1.00  0.00    -0.237 OA
ATOM     81  O   UNL A   1      37.856  31.429  39.997  1.00  0.00    -0.237 OA
ATOM     82  O   UNL A   1      35.789  32.133  38.851  1.00  0.00    -0.744 OA
ENDBRANCH  75  79
ENDBRANCH  48  72
BRANCH  60  83
ATOM     83  C   UNL A   1      44.518  27.667  34.449  1.00  0.00     0.023 A 
ATOM     84  C   UNL A   1      44.434  26.471  35.181  1.00  0.00     0.031 A 
ATOM     85  C   UNL A   1      45.683  28.444  34.574  1.00  0.00     0.131 A 
ATOM     86  C   UNL A   1      45.482  26.106  36.040  1.00  0.00     0.055 A 
ATOM     87  C   UNL A   1      46.744  28.049  35.390  1.00  0.00     0.041 A 
ATOM     88  F   UNL A   1      45.811  29.597  33.897  1.00  0.00    -0.206 F 
ATOM     89  C   UNL A   1      46.642  26.879  36.137  1.00  0.00     0.022 A 
BRANCH  86  90
ATOM     90  S   UNL A   1      45.284  24.632  37.079  1.00  0.00     0.124 S 
ATOM     91  O   UNL A   1      44.616  25.180  38.255  1.00  0.00    -0.237 OA
ATOM     92  O   UNL A   1      44.476  23.758  36.236  1.00  0.00    -0.237 OA
ATOM     93  O   UNL A   1      46.656  24.182  37.301  1.00  0.00    -0.744 OA
ENDBRANCH  86  90
ENDBRANCH  60  83
ENDBRANCH  34  35
ENDBRANCH  26  29
ENDBRANCH  24  25
ENDBRANCH  23  24
ENDBRANCH   1  23
TORSDOF 17
ENDMDL
MODEL 3
REMARK VINA RESULT:     -11.5      4.180      6.045
REMARK SMILES C[C@@H](C(=O)NCCCCNC(=O)c1ccc(-c2c3nc(c(-c4cc(S(=O)(=O)[O-])ccc4F)c4ccc([nH]4)c(-c4cc(S(=O)(=O)[O-])ccc4F)c4nc(c(-c5cc(S(=O)(=O)[O-])ccc5F)c5ccc2[nH]5)C=C4)C=C3)cc1)c1ccc(C[C@H]2CCCC2=O)cc1I
REMARK SMILES IDX 7 1 6 2 5 3 3 4 4 5 2 7 1 8 76 9 77 10 88 11 78 12 87 13
REMARK SMILES IDX 89 14 79 15 80 16 81 17 82 18 85 19 83 20 84 21 86 22 8 23
REMARK SMILES IDX 9 24 10 25 11 26 12 28 13 29 14 30 75 31 15 32 74 33 16 34
REMARK SMILES IDX 17 35 18 36 68 37 19 38 73 39 67 40 69 41 20 42 72 43 66 44
REMARK SMILES IDX 65 45 21 47 53 48 33 49 52 50 34 51 37 52 51 53 70 54 35 55
REMARK SMILES IDX 36 56 50 58 71 59 38 60 22 61 23 62 31 63 24 64 30 65 32 66
REMARK SMILES IDX 29 67 25 68 26 69 27 70 28 71 54 72 55 73 63 74 56 75 62 76
REMARK SMILES IDX 64 77 61 78 57 79 58 80 59 81 60 82 39 83 40 84 48 85 41 86
REMARK SMILES IDX 47 87 49 88 46 89 42 90 43 91 44 92 45 93
REMARK H PARENT 5 6 10 27 69 46 37 57
REMARK Flexibility Score: inf
ROOT
ATOM      1  C   UNL A   1      33.603  27.188  26.199  1.00  0.00     0.023 C 
ENDROOT
BRANCH   1   2
ATOM      2  C   UNL A   1      33.548  26.277  24.973  1.00  0.00     0.116 C 
BRANCH   2   3
ATOM      3  N   UNL A   1      32.311  25.526  24.924  1.00  0.00    -0.356 N 
ATOM      4  C   UNL A   1      32.033  24.298  24.397  1.00  0.00     0.227 C 
ATOM      5  O   UNL A   1      30.882  23.886  24.551  1.00  0.00    -0.274 OA
ATOM      6  H   UNL A   1      31.542  25.976  25.342  1.00  0.00     0.163 HD
BRANCH   4   7
ATOM      7  C   UNL A   1      33.144  23.457  23.747  1.00  0.00     0.106 C 
ATOM      8  C   UNL A   1      33.385  23.713  22.255  1.00  0.00     0.023 C 
BRANCH   7   9
ATOM      9  C   UNL A   1      32.999  21.958  24.037  1.00  0.00    -0.022 A 
ATOM     10  C   UNL A   1      32.470  21.163  22.996  1.00  0.00     0.006 A 
ATOM     11  C   UNL A   1      33.340  21.307  25.239  1.00  0.00     0.017 A 
ATOM     12  C   UNL A   1      32.237  19.797  23.160  1.00  0.00     0.004 A 
ATOM     13  C   UNL A   1      33.076  19.936  25.405  1.00  0.00     0.018 A 
ATOM     14  I   UNL A   1      34.268  22.222  26.895  1.00  0.00    -0.044 I 
ATOM     15  C   UNL A   1      32.498  19.178  24.381  1.00  0.00    -0.046 A 
BRANCH  15  16
ATOM     16  C   UNL A   1      32.157  17.725  24.607  1.00  0.00     0.047 C 
BRANCH  16  17
ATOM     17  C   UNL A   1      33.162  16.706  24.055  1.00  0.00     0.060 C 
ATOM     18  C   UNL A   1      34.483  17.266  23.515  1.00  0.00     0.012 C 
ATOM     19  C   UNL A   1      33.641  15.734  25.110  1.00  0.00     0.136 C 
ATOM     20  C   UNL A   1      35.502  17.115  24.639  1.00  0.00     0.009 C 
ATOM     21  C   UNL A   1      35.123  15.829  25.358  1.00  0.00     0.076 C 
ATOM     22  O   UNL A   1      32.909  14.937  25.685  1.00  0.00    -0.299 OA
ENDBRANCH  16  17
ENDBRANCH  15  16
ENDBRANCH   7   9
ENDBRANCH   4   7
ENDBRANCH   2   3
ENDBRANCH   1   2
BRANCH   1  23
ATOM     23  C   UNL A   1      32.597  28.343  26.184  1.00  0.00     0.023 C 
BRANCH  23  24
ATOM     24  C   UNL A   1      33.065  29.614  25.478  1.00  0.00     0.116 C 
BRANCH  24  25
ATOM     25  N   UNL A   1      32.576  30.829  26.113  1.00  0.00    -0.352 N 
ATOM     26  C   UNL A   1      33.149  31.561  27.125  1.00  0.00     0.251 C 
ATOM     27  H   UNL A   1      31.720  31.174  25.769  1.00  0.00     0.163 HD
ATOM     28  O   UNL A   1      32.536  32.501  27.625  1.00  0.00    -0.269 OA
BRANCH  26  29
ATOM     29  C   UNL A   1      34.483  31.180  27.633  1.00  0.00     0.039 A 
ATOM     30  C   UNL A   1      35.501  32.138  27.645  1.00  0.00     0.014 A 
ATOM     31  C   UNL A   1      34.712  29.898  28.142  1.00  0.00     0.014 A 
ATOM     32  C   UNL A   1      36.724  31.839  28.252  1.00  0.00     0.010 A 
ATOM     33  C   UNL A   1      35.912  29.621  28.792  1.00  0.00     0.010 A 
ATOM     34  C   UNL A   1      36.920  30.595  28.874  1.00  0.00    -0.014 A 
BRANCH  34  35
ATOM     35  C   UNL A   1      38.143  30.304  29.666  1.00  0.00     0.031 A 
ATOM     36  C   UNL A   1      39.140  29.294  29.173  1.00  0.00     0.074 A 
ATOM     37  C   UNL A   1      38.290  30.868  30.883  1.00  0.00     0.049 A 
ATOM     38  N   UNL A   1      40.181  28.795  29.785  1.00  0.00    -0.248 NA
ATOM     39  C   UNL A   1      38.919  28.755  27.822  1.00  0.00     0.031 C 
ATOM     40  C   UNL A   1      37.365  31.832  31.484  1.00  0.00     0.029 A 
ATOM     41  N   UNL A   1      39.251  30.689  31.847  1.00  0.00    -0.354 N 
ATOM     42  C   UNL A   1      40.727  27.863  28.910  1.00  0.00     0.074 A 
ATOM     43  C   UNL A   1      39.883  27.848  27.733  1.00  0.00     0.031 C 
ATOM     44  C   UNL A   1      37.799  32.151  32.715  1.00  0.00     0.029 A 
ATOM     45  C   UNL A   1      39.001  31.380  33.012  1.00  0.00     0.049 A 
ATOM     46  H   UNL A   1      40.044  30.119  31.719  1.00  0.00     0.167 HD
ATOM     47  C   UNL A   1      41.833  27.098  29.072  1.00  0.00     0.034 A 
ATOM     48  C   UNL A   1      39.646  31.368  34.196  1.00  0.00     0.034 A 
ATOM     49  C   UNL A   1      42.681  27.149  30.239  1.00  0.00     0.049 A 
ATOM     50  C   UNL A   1      40.862  30.491  34.356  1.00  0.00     0.074 A 
ATOM     51  C   UNL A   1      43.887  26.504  30.453  1.00  0.00     0.029 A 
ATOM     52  N   UNL A   1      42.404  27.867  31.394  1.00  0.00    -0.354 N 
ATOM     53  N   UNL A   1      41.412  29.679  33.483  1.00  0.00    -0.248 NA
ATOM     54  C   UNL A   1      41.545  30.530  35.656  1.00  0.00     0.031 C 
ATOM     55  C   UNL A   1      44.305  26.778  31.760  1.00  0.00     0.029 A 
ATOM     56  C   UNL A   1      43.392  27.644  32.339  1.00  0.00     0.049 A 
ATOM     57  H   UNL A   1      41.621  28.449  31.521  1.00  0.00     0.167 HD
ATOM     58  C   UNL A   1      42.518  29.127  34.125  1.00  0.00     0.074 A 
ATOM     59  C   UNL A   1      42.566  29.712  35.449  1.00  0.00     0.031 C 
ATOM     60  C   UNL A   1      43.416  28.223  33.660  1.00  0.00     0.034 A 
BRANCH  47  61
ATOM     61  C   UNL A   1      42.179  26.119  27.981  1.00  0.00     0.023 A 
ATOM     62  C   UNL A   1      41.625  24.827  27.938  1.00  0.00     0.031 A 
ATOM     63  C   UNL A   1      43.068  26.491  26.958  1.00  0.00     0.131 A 
ATOM     64  C   UNL A   1      42.005  23.938  26.922  1.00  0.00     0.055 A 
ATOM     65  C   UNL A   1      43.393  25.624  25.913  1.00  0.00     0.041 A 
ATOM     66  F   UNL A   1      43.640  27.706  26.958  1.00  0.00    -0.206 F 
ATOM     67  C   UNL A   1      42.867  24.335  25.896  1.00  0.00     0.022 A 
BRANCH  64  68
ATOM     68  S   UNL A   1      41.432  22.221  27.012  1.00  0.00     0.124 S 
ATOM     69  O   UNL A   1      40.004  22.371  26.746  1.00  0.00    -0.237 OA
ATOM     70  O   UNL A   1      42.213  21.571  25.965  1.00  0.00    -0.237 OA
ATOM     71  O   UNL A   1      41.766  21.818  28.378  1.00  0.00    -0.744 OA
ENDBRANCH  64  68
ENDBRANCH  47  61
BRANCH  48  72
ATOM     72  C   UNL A   1      39.133  32.165  35.348  1.00  0.00     0.023 A 
ATOM     73  C   UNL A   1      39.580  33.475  35.578  1.00  0.00     0.031 A 
ATOM     74  C   UNL A   1      38.236  31.603  36.274  1.00  0.00     0.131 A 
ATOM     75  C   UNL A   1      39.172  34.161  36.732  1.00  0.00     0.055 A 
ATOM     76  C   UNL A   1      37.790  32.308  37.392  1.00  0.00     0.041 A 
ATOM     77  F   UNL A   1      37.774  30.353  36.100  1.00  0.00    -0.206 F 
ATOM     78  C   UNL A   1      38.271  33.591  37.635  1.00  0.00     0.022 A 
BRANCH  75  79
ATOM     79  S   UNL A   1      39.916  35.776  37.091  1.00  0.00     0.124 S 
ATOM     80  O   UNL A   1      39.161  36.199  38.265  1.00  0.00    -0.237 OA
ATOM     81  O   UNL A   1      41.312  35.419  37.321  1.00  0.00    -0.237 OA
ATOM     82  O   UNL A   1      39.663  36.546  35.875  1.00  0.00    -0.744 OA
ENDBRANCH  75  79
ENDBRANCH  48  72
BRANCH  60  83
ATOM     83  C   UNL A   1      44.540  27.839  34.588  1.00  0.00     0.023 A 
ATOM     84  C   UNL A   1      44.337  26.955  35.662  1.00  0.00     0.031 A 
ATOM     85  C   UNL A   1      45.827  28.368  34.396  1.00  0.00     0.131 A 
ATOM     86  C   UNL A   1      45.399  26.658  36.529  1.00  0.00     0.055 A 
ATOM     87  C   UNL A   1      46.893  28.029  35.232  1.00  0.00     0.041 A 
ATOM     88  F   UNL A   1      46.073  29.219  33.386  1.00  0.00    -0.206 F 
ATOM     89  C   UNL A   1      46.679  27.176  36.311  1.00  0.00     0.022 A 
BRANCH  86  90
ATOM     90  S   UNL A   1      45.073  25.629  37.987  1.00  0.00     0.124 S 
ATOM     91  O   UNL A   1      46.349  25.690  38.692  1.00  0.00    -0.237 OA
ATOM     92  O   UNL A   1      43.959  26.326  38.621  1.00  0.00    -0.237 OA
ATOM     93  O   UNL A   1      44.742  24.324  37.418  1.00  0.00    -0.744 OA
ENDBRANCH  86  90
ENDBRANCH  60  83
ENDBRANCH  34  35
ENDBRANCH  26  29
ENDBRANCH  24  25
ENDBRANCH  23  24
ENDBRANCH   1  23
TORSDOF 17
ENDMDL
