MODEL 1
REMARK VINA RESULT:     -11.1      0.000      0.000
REMARK SMILES CC(C)CN(CC(N)=O)C(=O)N1CC[C@H](C(=O)NCCCCNC(=O)c2ccc(-c3c4nc(c(-c5cc(S(=O)(=O)[O-])ccc5F)c5ccc([nH]5)c(-c5cc(S(=O)(=O)[O-])ccc5F)c5nc(c(-c6cc(S(=O)(=O)[O-])ccc6F)c6ccc3[nH]6)C=C5)C=C4)cc2)[C@@H]1C
REMARK SMILES IDX 20 1 19 2 18 3 16 4 17 5 15 7 12 8 13 9 89 10 14 11 90 12
REMARK SMILES IDX 10 13 11 14 5 15 4 16 2 17 1 18 3 19 6 20 7 21 8 22 9 23
REMARK SMILES IDX 21 26 22 27 23 28 24 29 25 31 26 32 27 33 88 34 28 35 87 36
REMARK SMILES IDX 29 37 30 38 31 39 81 40 32 41 86 42 80 43 82 44 33 45 85 46
REMARK SMILES IDX 79 47 78 48 34 50 66 51 46 52 65 53 47 54 50 55 64 56 83 57
REMARK SMILES IDX 48 58 49 59 63 61 84 62 51 63 35 64 36 65 44 66 37 67 43 68
REMARK SMILES IDX 45 69 42 70 38 71 39 72 40 73 41 74 67 75 68 76 76 77 69 78
REMARK SMILES IDX 75 79 77 80 74 81 70 82 71 83 72 84 73 85 52 86 53 87 61 88
REMARK SMILES IDX 54 89 60 90 62 91 59 92 55 93 56 94 57 95 58 96
REMARK H PARENT 18 6 8 24 8 25 23 30 82 49 50 60
REMARK Flexibility Score: inf
ROOT
ATOM      1  C   UNL A   1      31.452  30.444  26.471  1.00  0.00     0.023 C 
ENDROOT
BRANCH   1   2
ATOM      2  C   UNL A   1      32.452  29.910  25.447  1.00  0.00     0.116 C 
BRANCH   2   3
ATOM      3  N   UNL A   1      31.872  29.714  24.130  1.00  0.00    -0.356 N 
ATOM      4  C   UNL A   1      31.234  28.622  23.614  1.00  0.00     0.225 C 
ATOM      5  O   UNL A   1      30.730  28.702  22.495  1.00  0.00    -0.275 OA
ATOM      6  H   UNL A   1      31.952  30.481  23.518  1.00  0.00     0.163 HD
BRANCH   4   7
ATOM      7  C   UNL A   1      31.205  27.346  24.429  1.00  0.00     0.102 C 
ATOM      8  N   UNL A   1      31.787  25.094  23.951  1.00  0.00    -0.321 N 
ATOM      9  C   UNL A   1      30.447  25.284  23.439  1.00  0.00     0.122 C 
ATOM     10  C   UNL A   1      32.402  26.407  24.151  1.00  0.00     0.096 C 
ATOM     11  C   UNL A   1      29.947  26.495  24.190  1.00  0.00     0.037 C 
ATOM     12  C   UNL A   1      33.302  26.774  22.967  1.00  0.00     0.032 C 
BRANCH   8  13
ATOM     13  C   UNL A   1      32.481  23.984  23.530  1.00  0.00     0.320 C 
ATOM     14  O   UNL A   1      32.435  23.642  22.347  1.00  0.00    -0.248 OA
BRANCH  13  15
ATOM     15  N   UNL A   1      33.096  23.213  24.500  1.00  0.00    -0.315 N 
BRANCH  15  16
ATOM     16  C   UNL A   1      34.379  22.590  24.158  1.00  0.00     0.125 C 
BRANCH  16  17
ATOM     17  C   UNL A   1      35.544  23.612  24.072  1.00  0.00     0.002 C 
ATOM     18  C   UNL A   1      35.951  24.189  25.432  1.00  0.00     0.009 C 
ATOM     19  C   UNL A   1      36.773  22.953  23.438  1.00  0.00     0.009 C 
ENDBRANCH  16  17
ENDBRANCH  15  16
BRANCH  15  20
ATOM     20  C   UNL A   1      32.558  22.940  25.833  1.00  0.00     0.221 C 
BRANCH  20  21
ATOM     21  C   UNL A   1      31.420  21.905  25.791  1.00  0.00     0.237 C 
ATOM     22  N   UNL A   1      30.224  22.319  26.319  1.00  0.00    -0.368 N 
ATOM     23  O   UNL A   1      31.512  20.786  25.299  1.00  0.00    -0.273 OA
ATOM     24  H   UNL A   1      30.144  23.217  26.715  1.00  0.00     0.159 HD
ATOM     25  H   UNL A   1      29.444  21.717  26.301  1.00  0.00     0.159 HD
ENDBRANCH  20  21
ENDBRANCH  15  20
ENDBRANCH  13  15
ENDBRANCH   8  13
ENDBRANCH   4   7
ENDBRANCH   2   3
ENDBRANCH   1   2
BRANCH   1  26
ATOM     26  C   UNL A   1      31.445  31.962  26.641  1.00  0.00     0.023 C 
BRANCH  26  27
ATOM     27  C   UNL A   1      32.725  32.552  27.219  1.00  0.00     0.116 C 
BRANCH  27  28
ATOM     28  N   UNL A   1      32.576  33.946  27.599  1.00  0.00    -0.352 N 
ATOM     29  C   UNL A   1      33.228  34.655  28.580  1.00  0.00     0.251 C 
ATOM     30  H   UNL A   1      31.913  34.456  27.081  1.00  0.00     0.163 HD
ATOM     31  O   UNL A   1      32.838  35.783  28.861  1.00  0.00    -0.269 OA
BRANCH  29  32
ATOM     32  C   UNL A   1      34.372  34.051  29.305  1.00  0.00     0.039 A 
ATOM     33  C   UNL A   1      34.111  33.157  30.346  1.00  0.00     0.014 A 
ATOM     34  C   UNL A   1      35.692  34.374  28.980  1.00  0.00     0.014 A 
ATOM     35  C   UNL A   1      35.174  32.560  31.032  1.00  0.00     0.010 A 
ATOM     36  C   UNL A   1      36.747  33.709  29.601  1.00  0.00     0.010 A 
ATOM     37  C   UNL A   1      36.501  32.813  30.652  1.00  0.00    -0.014 A 
BRANCH  37  38
ATOM     38  C   UNL A   1      37.640  32.193  31.382  1.00  0.00     0.031 A 
ATOM     39  C   UNL A   1      38.402  31.052  30.758  1.00  0.00     0.074 A 
ATOM     40  C   UNL A   1      37.974  32.637  32.611  1.00  0.00     0.049 A 
ATOM     41  N   UNL A   1      39.405  30.363  31.238  1.00  0.00    -0.248 NA
ATOM     42  C   UNL A   1      37.954  30.607  29.429  1.00  0.00     0.031 C 
ATOM     43  C   UNL A   1      37.289  33.707  33.339  1.00  0.00     0.029 A 
ATOM     44  N   UNL A   1      38.976  32.248  33.463  1.00  0.00    -0.354 N 
ATOM     45  C   UNL A   1      39.703  29.404  30.274  1.00  0.00     0.074 A 
ATOM     46  C   UNL A   1      38.721  29.549  29.223  1.00  0.00     0.031 C 
ATOM     47  C   UNL A   1      37.915  33.916  34.508  1.00  0.00     0.029 A 
ATOM     48  C   UNL A   1      39.018  32.968  34.636  1.00  0.00     0.049 A 
ATOM     49  H   UNL A   1      39.608  31.522  33.256  1.00  0.00     0.167 HD
ATOM     50  C   UNL A   1      40.722  28.508  30.250  1.00  0.00     0.034 A 
ATOM     51  C   UNL A   1      39.849  32.873  35.693  1.00  0.00     0.034 A 
ATOM     52  C   UNL A   1      41.701  28.381  31.301  1.00  0.00     0.049 A 
ATOM     53  C   UNL A   1      40.956  31.846  35.656  1.00  0.00     0.074 A 
ATOM     54  C   UNL A   1      42.795  27.535  31.365  1.00  0.00     0.029 A 
ATOM     55  N   UNL A   1      41.704  29.120  32.479  1.00  0.00    -0.354 N 
ATOM     56  N   UNL A   1      41.254  30.982  34.713  1.00  0.00    -0.248 NA
ATOM     57  C   UNL A   1      41.847  31.798  36.820  1.00  0.00     0.031 C 
ATOM     58  C   UNL A   1      43.415  27.710  32.607  1.00  0.00     0.029 A 
ATOM     59  C   UNL A   1      42.762  28.727  33.285  1.00  0.00     0.049 A 
ATOM     60  H   UNL A   1      41.051  29.819  32.708  1.00  0.00     0.167 HD
ATOM     61  C   UNL A   1      42.392  30.313  35.159  1.00  0.00     0.074 A 
ATOM     62  C   UNL A   1      42.737  30.896  36.438  1.00  0.00     0.031 C 
ATOM     63  C   UNL A   1      43.090  29.308  34.567  1.00  0.00     0.034 A 
BRANCH  50  64
ATOM     64  C   UNL A   1      40.809  27.588  29.054  1.00  0.00     0.023 A 
ATOM     65  C   UNL A   1      41.763  27.786  28.038  1.00  0.00     0.031 A 
ATOM     66  C   UNL A   1      39.909  26.518  28.905  1.00  0.00     0.131 A 
ATOM     67  C   UNL A   1      41.742  26.983  26.888  1.00  0.00     0.055 A 
ATOM     68  C   UNL A   1      39.952  25.665  27.800  1.00  0.00     0.041 A 
ATOM     69  F   UNL A   1      38.960  26.290  29.827  1.00  0.00    -0.206 F 
ATOM     70  C   UNL A   1      40.862  25.905  26.775  1.00  0.00     0.022 A 
BRANCH  67  71
ATOM     71  S   UNL A   1      42.774  27.466  25.476  1.00  0.00     0.124 S 
ATOM     72  O   UNL A   1      44.018  27.850  26.139  1.00  0.00    -0.237 OA
ATOM     73  O   UNL A   1      42.823  26.242  24.686  1.00  0.00    -0.237 OA
ATOM     74  O   UNL A   1      42.033  28.571  24.871  1.00  0.00    -0.744 OA
ENDBRANCH  67  71
ENDBRANCH  50  64
BRANCH  51  75
ATOM     75  C   UNL A   1      39.682  33.763  36.879  1.00  0.00     0.023 A 
ATOM     76  C   UNL A   1      39.097  33.286  38.064  1.00  0.00     0.031 A 
ATOM     77  C   UNL A   1      40.039  35.122  36.825  1.00  0.00     0.131 A 
ATOM     78  C   UNL A   1      38.830  34.171  39.121  1.00  0.00     0.055 A 
ATOM     79  C   UNL A   1      39.830  35.985  37.903  1.00  0.00     0.041 A 
ATOM     80  F   UNL A   1      40.604  35.633  35.718  1.00  0.00    -0.206 F 
ATOM     81  C   UNL A   1      39.206  35.515  39.053  1.00  0.00     0.022 A 
BRANCH  78  82
ATOM     82  S   UNL A   1      37.883  33.563  40.544  1.00  0.00     0.124 S 
ATOM     83  O   UNL A   1      38.809  32.598  41.125  1.00  0.00    -0.237 OA
ATOM     84  O   UNL A   1      37.667  34.786  41.308  1.00  0.00    -0.237 OA
ATOM     85  O   UNL A   1      36.684  32.990  39.934  1.00  0.00    -0.744 OA
ENDBRANCH  78  82
ENDBRANCH  51  75
BRANCH  63  86
ATOM     86  C   UNL A   1      44.323  28.816  35.289  1.00  0.00     0.023 A 
ATOM     87  C   UNL A   1      44.252  27.825  36.285  1.00  0.00     0.031 A 
ATOM     88  C   UNL A   1      45.581  29.376  35.007  1.00  0.00     0.131 A 
ATOM     89  C   UNL A   1      45.398  27.490  37.021  1.00  0.00     0.055 A 
ATOM     90  C   UNL A   1      46.734  28.980  35.688  1.00  0.00     0.041 A 
ATOM     91  F   UNL A   1      45.712  30.327  34.068  1.00  0.00    -0.206 F 
ATOM     92  C   UNL A   1      46.642  28.046  36.716  1.00  0.00     0.022 A 
BRANCH  89  93
ATOM     93  S   UNL A   1      45.213  26.421  38.475  1.00  0.00     0.124 S 
ATOM     94  O   UNL A   1      45.645  25.127  37.955  1.00  0.00    -0.237 OA
ATOM     95  O   UNL A   1      46.109  27.050  39.440  1.00  0.00    -0.237 OA
ATOM     96  O   UNL A   1      43.791  26.518  38.794  1.00  0.00    -0.744 OA
ENDBRANCH  89  93
ENDBRANCH  63  86
ENDBRANCH  37  38
ENDBRANCH  29  32
ENDBRANCH  27  28
ENDBRANCH  26  27
ENDBRANCH   1  26
TORSDOF 20
ENDMDL
MODEL 2
REMARK VINA RESULT:     -11.0      1.875      7.776
REMARK SMILES CC(C)CN(CC(N)=O)C(=O)N1CC[C@H](C(=O)NCCCCNC(=O)c2ccc(-c3c4nc(c(-c5cc(S(=O)(=O)[O-])ccc5F)c5ccc([nH]5)c(-c5cc(S(=O)(=O)[O-])ccc5F)c5nc(c(-c6cc(S(=O)(=O)[O-])ccc6F)c6ccc3[nH]6)C=C5)C=C4)cc2)[C@@H]1C
REMARK SMILES IDX 20 1 19 2 18 3 16 4 17 5 15 7 12 8 13 9 89 10 14 11 90 12
REMARK SMILES IDX 10 13 11 14 5 15 4 16 2 17 1 18 3 19 6 20 7 21 8 22 9 23
REMARK SMILES IDX 21 26 22 27 23 28 24 29 25 31 26 32 27 33 88 34 28 35 87 36
REMARK SMILES IDX 29 37 30 38 31 39 81 40 32 41 86 42 80 43 82 44 33 45 85 46
REMARK SMILES IDX 79 47 78 48 34 50 66 51 46 52 65 53 47 54 50 55 64 56 83 57
REMARK SMILES IDX 48 58 49 59 63 61 84 62 51 63 35 64 36 65 44 66 37 67 43 68
REMARK SMILES IDX 45 69 42 70 38 71 39 72 40 73 41 74 67 75 68 76 76 77 69 78
REMARK SMILES IDX 75 79 77 80 74 81 70 82 71 83 72 84 73 85 52 86 53 87 61 88
REMARK SMILES IDX 54 89 60 90 62 91 59 92 55 93 56 94 57 95 58 96
REMARK H PARENT 18 6 8 24 8 25 23 30 82 49 50 60
REMARK Flexibility Score: inf
ROOT
ATOM      1  C   UNL A   1      31.385  30.764  25.754  1.00  0.00     0.023 C 
ENDROOT
BRANCH   1   2
ATOM      2  C   UNL A   1      32.601  29.841  25.811  1.00  0.00     0.116 C 
BRANCH   2   3
ATOM      3  N   UNL A   1      33.265  29.689  24.528  1.00  0.00    -0.356 N 
ATOM      4  C   UNL A   1      33.002  28.818  23.510  1.00  0.00     0.225 C 
ATOM      5  O   UNL A   1      33.633  28.923  22.459  1.00  0.00    -0.275 OA
ATOM      6  H   UNL A   1      34.016  30.306  24.369  1.00  0.00     0.163 HD
BRANCH   4   7
ATOM      7  C   UNL A   1      31.968  27.734  23.732  1.00  0.00     0.102 C 
ATOM      8  N   UNL A   1      31.977  25.382  23.402  1.00  0.00    -0.321 N 
ATOM      9  C   UNL A   1      31.683  25.971  22.113  1.00  0.00     0.122 C 
ATOM     10  C   UNL A   1      32.565  26.409  24.262  1.00  0.00     0.096 C 
ATOM     11  C   UNL A   1      31.193  27.357  22.458  1.00  0.00     0.037 C 
ATOM     12  C   UNL A   1      34.093  26.300  24.276  1.00  0.00     0.032 C 
BRANCH   8  13
ATOM     13  C   UNL A   1      32.351  24.058  23.429  1.00  0.00     0.320 C 
ATOM     14  O   UNL A   1      32.722  23.503  22.394  1.00  0.00    -0.248 OA
BRANCH  13  15
ATOM     15  N   UNL A   1      32.159  23.368  24.612  1.00  0.00    -0.315 N 
BRANCH  15  16
ATOM     16  C   UNL A   1      33.344  22.808  25.270  1.00  0.00     0.125 C 
BRANCH  16  17
ATOM     17  C   UNL A   1      33.086  21.411  25.895  1.00  0.00     0.002 C 
ATOM     18  C   UNL A   1      33.443  20.249  24.962  1.00  0.00     0.009 C 
ATOM     19  C   UNL A   1      33.890  21.259  27.189  1.00  0.00     0.009 C 
ENDBRANCH  16  17
ENDBRANCH  15  16
BRANCH  15  20
ATOM     20  C   UNL A   1      30.865  23.121  25.249  1.00  0.00     0.221 C 
BRANCH  20  21
ATOM     21  C   UNL A   1      30.618  24.072  26.433  1.00  0.00     0.237 C 
ATOM     22  N   UNL A   1      29.429  24.753  26.408  1.00  0.00    -0.368 N 
ATOM     23  O   UNL A   1      31.384  24.223  27.379  1.00  0.00    -0.273 OA
ATOM     24  H   UNL A   1      28.810  24.636  25.651  1.00  0.00     0.159 HD
ATOM     25  H   UNL A   1      29.194  25.360  27.148  1.00  0.00     0.159 HD
ENDBRANCH  20  21
ENDBRANCH  15  20
ENDBRANCH  13  15
ENDBRANCH   8  13
ENDBRANCH   4   7
ENDBRANCH   2   3
ENDBRANCH   1   2
BRANCH   1  26
ATOM     26  C   UNL A   1      31.381  31.897  26.778  1.00  0.00     0.023 C 
BRANCH  26  27
ATOM     27  C   UNL A   1      32.745  32.513  27.063  1.00  0.00     0.116 C 
BRANCH  27  28
ATOM     28  N   UNL A   1      32.648  33.847  27.627  1.00  0.00    -0.352 N 
ATOM     29  C   UNL A   1      33.390  34.424  28.631  1.00  0.00     0.251 C 
ATOM     30  H   UNL A   1      31.952  34.422  27.234  1.00  0.00     0.163 HD
ATOM     31  O   UNL A   1      33.041  35.508  29.083  1.00  0.00    -0.269 OA
BRANCH  29  32
ATOM     32  C   UNL A   1      34.581  33.729  29.175  1.00  0.00     0.039 A 
ATOM     33  C   UNL A   1      34.393  32.691  30.091  1.00  0.00     0.014 A 
ATOM     34  C   UNL A   1      35.876  34.103  28.805  1.00  0.00     0.014 A 
ATOM     35  C   UNL A   1      35.500  32.008  30.604  1.00  0.00     0.010 A 
ATOM     36  C   UNL A   1      36.970  33.362  29.244  1.00  0.00     0.010 A 
ATOM     37  C   UNL A   1      36.798  32.322  30.169  1.00  0.00    -0.014 A 
BRANCH  37  38
ATOM     38  C   UNL A   1      37.984  31.609  30.717  1.00  0.00     0.031 A 
ATOM     39  C   UNL A   1      38.477  31.928  32.105  1.00  0.00     0.074 A 
ATOM     40  C   UNL A   1      38.629  30.696  29.964  1.00  0.00     0.049 A 
ATOM     41  N   UNL A   1      39.502  31.439  32.755  1.00  0.00    -0.248 NA
ATOM     42  C   UNL A   1      37.736  32.960  32.849  1.00  0.00     0.031 C 
ATOM     43  C   UNL A   1      38.273  30.327  28.592  1.00  0.00     0.029 A 
ATOM     44  N   UNL A   1      39.715  29.906  30.246  1.00  0.00    -0.354 N 
ATOM     45  C   UNL A   1      39.531  32.104  33.976  1.00  0.00     0.074 A 
ATOM     46  C   UNL A   1      38.472  33.088  33.941  1.00  0.00     0.031 C 
ATOM     47  C   UNL A   1      39.098  29.356  28.168  1.00  0.00     0.029 A 
ATOM     48  C   UNL A   1      40.070  29.062  29.217  1.00  0.00     0.049 A 
ATOM     49  H   UNL A   1      40.195  29.939  31.104  1.00  0.00     0.167 HD
ATOM     50  C   UNL A   1      40.341  31.892  35.044  1.00  0.00     0.034 A 
ATOM     51  C   UNL A   1      41.066  28.158  29.130  1.00  0.00     0.034 A 
ATOM     52  C   UNL A   1      41.387  30.899  35.069  1.00  0.00     0.049 A 
ATOM     53  C   UNL A   1      41.975  27.963  30.320  1.00  0.00     0.074 A 
ATOM     54  C   UNL A   1      42.243  30.573  36.107  1.00  0.00     0.029 A 
ATOM     55  N   UNL A   1      41.724  30.072  34.005  1.00  0.00    -0.354 N 
ATOM     56  N   UNL A   1      41.954  28.566  31.487  1.00  0.00    -0.248 NA
ATOM     57  C   UNL A   1      43.028  26.951  30.183  1.00  0.00     0.031 C 
ATOM     58  C   UNL A   1      43.141  29.604  35.649  1.00  0.00     0.029 A 
ATOM     59  C   UNL A   1      42.793  29.259  34.352  1.00  0.00     0.049 A 
ATOM     60  H   UNL A   1      41.272  30.064  33.131  1.00  0.00     0.167 HD
ATOM     61  C   UNL A   1      42.971  27.976  32.235  1.00  0.00     0.074 A 
ATOM     62  C   UNL A   1      43.561  26.955  31.395  1.00  0.00     0.031 C 
ATOM     63  C   UNL A   1      43.383  28.252  33.501  1.00  0.00     0.034 A 
BRANCH  50  64
ATOM     64  C   UNL A   1      40.132  32.767  36.259  1.00  0.00     0.023 A 
ATOM     65  C   UNL A   1      39.276  32.381  37.307  1.00  0.00     0.031 A 
ATOM     66  C   UNL A   1      40.769  34.016  36.361  1.00  0.00     0.131 A 
ATOM     67  C   UNL A   1      39.017  33.266  38.365  1.00  0.00     0.055 A 
ATOM     68  C   UNL A   1      40.577  34.854  37.462  1.00  0.00     0.041 A 
ATOM     69  F   UNL A   1      41.580  34.452  35.384  1.00  0.00    -0.206 F 
ATOM     70  C   UNL A   1      39.684  34.489  38.464  1.00  0.00     0.022 A 
BRANCH  67  71
ATOM     71  S   UNL A   1      37.678  32.865  39.521  1.00  0.00     0.124 S 
ATOM     72  O   UNL A   1      38.116  31.571  40.040  1.00  0.00    -0.237 OA
ATOM     73  O   UNL A   1      37.727  33.979  40.461  1.00  0.00    -0.237 OA
ATOM     74  O   UNL A   1      36.491  32.817  38.670  1.00  0.00    -0.744 OA
ENDBRANCH  67  71
ENDBRANCH  50  64
BRANCH  51  75
ATOM     75  C   UNL A   1      41.270  27.364  27.883  1.00  0.00     0.023 A 
ATOM     76  C   UNL A   1      40.972  25.992  27.843  1.00  0.00     0.031 A 
ATOM     77  C   UNL A   1      41.830  27.948  26.733  1.00  0.00     0.131 A 
ATOM     78  C   UNL A   1      41.293  25.237  26.704  1.00  0.00     0.055 A 
ATOM     79  C   UNL A   1      42.089  27.205  25.578  1.00  0.00     0.041 A 
ATOM     80  F   UNL A   1      42.133  29.256  26.712  1.00  0.00    -0.206 F 
ATOM     81  C   UNL A   1      41.837  25.838  25.566  1.00  0.00     0.022 A 
BRANCH  78  82
ATOM     82  S   UNL A   1      41.092  23.435  26.772  1.00  0.00     0.124 S 
ATOM     83  O   UNL A   1      41.318  23.165  28.187  1.00  0.00    -0.237 OA
ATOM     84  O   UNL A   1      39.723  23.265  26.296  1.00  0.00    -0.237 OA
ATOM     85  O   UNL A   1      42.131  22.943  25.868  1.00  0.00    -0.744 OA
ENDBRANCH  78  82
ENDBRANCH  51  75
BRANCH  63  86
ATOM     86  C   UNL A   1      44.497  27.397  34.058  1.00  0.00     0.023 A 
ATOM     87  C   UNL A   1      44.237  26.202  34.753  1.00  0.00     0.031 A 
ATOM     88  C   UNL A   1      45.836  27.806  33.930  1.00  0.00     0.131 A 
ATOM     89  C   UNL A   1      45.290  25.507  35.367  1.00  0.00     0.055 A 
ATOM     90  C   UNL A   1      46.888  27.066  34.474  1.00  0.00     0.041 A 
ATOM     91  F   UNL A   1      46.147  28.939  33.280  1.00  0.00    -0.206 F 
ATOM     92  C   UNL A   1      46.615  25.920  35.215  1.00  0.00     0.022 A 
BRANCH  89  93
ATOM     93  S   UNL A   1      44.888  24.133  36.482  1.00  0.00     0.124 S 
ATOM     94  O   UNL A   1      46.208  23.581  36.769  1.00  0.00    -0.237 OA
ATOM     95  O   UNL A   1      44.229  24.815  37.591  1.00  0.00    -0.237 OA
ATOM     96  O   UNL A   1      44.020  23.279  35.675  1.00  0.00    -0.744 OA
ENDBRANCH  89  93
ENDBRANCH  63  86
ENDBRANCH  37  38
ENDBRANCH  29  32
ENDBRANCH  27  28
ENDBRANCH  26  27
ENDBRANCH   1  26
TORSDOF 20
ENDMDL
MODEL 3
REMARK VINA RESULT:     -10.5      2.815      8.321
REMARK SMILES CC(C)CN(CC(N)=O)C(=O)N1CC[C@H](C(=O)NCCCCNC(=O)c2ccc(-c3c4nc(c(-c5cc(S(=O)(=O)[O-])ccc5F)c5ccc([nH]5)c(-c5cc(S(=O)(=O)[O-])ccc5F)c5nc(c(-c6cc(S(=O)(=O)[O-])ccc6F)c6ccc3[nH]6)C=C5)C=C4)cc2)[C@@H]1C
REMARK SMILES IDX 20 1 19 2 18 3 16 4 17 5 15 7 12 8 13 9 89 10 14 11 90 12
REMARK SMILES IDX 10 13 11 14 5 15 4 16 2 17 1 18 3 19 6 20 7 21 8 22 9 23
REMARK SMILES IDX 21 26 22 27 23 28 24 29 25 31 26 32 27 33 88 34 28 35 87 36
REMARK SMILES IDX 29 37 30 38 31 39 81 40 32 41 86 42 80 43 82 44 33 45 85 46
REMARK SMILES IDX 79 47 78 48 34 50 66 51 46 52 65 53 47 54 50 55 64 56 83 57
REMARK SMILES IDX 48 58 49 59 63 61 84 62 51 63 35 64 36 65 44 66 37 67 43 68
REMARK SMILES IDX 45 69 42 70 38 71 39 72 40 73 41 74 67 75 68 76 76 77 69 78
REMARK SMILES IDX 75 79 77 80 74 81 70 82 71 83 72 84 73 85 52 86 53 87 61 88
REMARK SMILES IDX 54 89 60 90 62 91 59 92 55 93 56 94 57 95 58 96
REMARK H PARENT 18 6 8 24 8 25 23 30 82 49 50 60
REMARK Flexibility Score: inf
ROOT
ATOM      1  C   UNL A   1      31.759  29.122  24.524  1.00  0.00     0.023 C 
ENDROOT
BRANCH   1   2
ATOM      2  C   UNL A   1      31.465  28.813  23.056  1.00  0.00     0.116 C 
BRANCH   2   3
ATOM      3  N   UNL A   1      32.542  28.094  22.397  1.00  0.00    -0.356 N 
ATOM      4  C   UNL A   1      32.799  26.754  22.361  1.00  0.00     0.225 C 
ATOM      5  O   UNL A   1      33.720  26.344  21.657  1.00  0.00    -0.275 OA
ATOM      6  H   UNL A   1      33.181  28.657  21.903  1.00  0.00     0.163 HD
BRANCH   4   7
ATOM      7  C   UNL A   1      31.959  25.831  23.219  1.00  0.00     0.102 C 
ATOM      8  N   UNL A   1      32.481  23.984  24.618  1.00  0.00    -0.321 N 
ATOM      9  C   UNL A   1      32.413  23.464  23.269  1.00  0.00     0.122 C 
ATOM     10  C   UNL A   1      32.638  25.437  24.552  1.00  0.00     0.096 C 
ATOM     11  C   UNL A   1      31.607  24.503  22.527  1.00  0.00     0.037 C 
ATOM     12  C   UNL A   1      34.108  25.835  24.718  1.00  0.00     0.032 C 
BRANCH   8  13
ATOM     13  C   UNL A   1      33.073  23.196  25.577  1.00  0.00     0.320 C 
ATOM     14  O   UNL A   1      32.955  23.485  26.769  1.00  0.00    -0.248 OA
BRANCH  13  15
ATOM     15  N   UNL A   1      33.901  22.178  25.141  1.00  0.00    -0.315 N 
BRANCH  15  16
ATOM     16  C   UNL A   1      33.619  20.822  25.624  1.00  0.00     0.125 C 
BRANCH  16  17
ATOM     17  C   UNL A   1      33.556  19.773  24.482  1.00  0.00     0.002 C 
ATOM     18  C   UNL A   1      33.477  18.327  24.983  1.00  0.00     0.009 C 
ATOM     19  C   UNL A   1      32.341  20.043  23.590  1.00  0.00     0.009 C 
ENDBRANCH  16  17
ENDBRANCH  15  16
BRANCH  15  20
ATOM     20  C   UNL A   1      35.057  22.343  24.260  1.00  0.00     0.221 C 
BRANCH  20  21
ATOM     21  C   UNL A   1      36.305  22.806  25.032  1.00  0.00     0.237 C 
ATOM     22  N   UNL A   1      37.449  22.934  24.288  1.00  0.00    -0.368 N 
ATOM     23  O   UNL A   1      36.322  23.088  26.226  1.00  0.00    -0.273 OA
ATOM     24  H   UNL A   1      37.440  22.709  23.329  1.00  0.00     0.159 HD
ATOM     25  H   UNL A   1      38.279  23.251  24.712  1.00  0.00     0.159 HD
ENDBRANCH  20  21
ENDBRANCH  15  20
ENDBRANCH  13  15
ENDBRANCH   8  13
ENDBRANCH   4   7
ENDBRANCH   2   3
ENDBRANCH   1   2
BRANCH   1  26
ATOM     26  C   UNL A   1      33.228  29.382  24.851  1.00  0.00     0.023 C 
BRANCH  26  27
ATOM     27  C   UNL A   1      33.532  29.587  26.329  1.00  0.00     0.116 C 
BRANCH  27  28
ATOM     28  N   UNL A   1      33.358  30.966  26.749  1.00  0.00    -0.352 N 
ATOM     29  C   UNL A   1      34.084  31.697  27.661  1.00  0.00     0.251 C 
ATOM     30  H   UNL A   1      32.615  31.448  26.320  1.00  0.00     0.163 HD
ATOM     31  O   UNL A   1      33.673  32.799  28.005  1.00  0.00    -0.269 OA
BRANCH  29  32
ATOM     32  C   UNL A   1      35.332  31.144  28.239  1.00  0.00     0.039 A 
ATOM     33  C   UNL A   1      35.272  29.939  28.943  1.00  0.00     0.014 A 
ATOM     34  C   UNL A   1      36.553  31.812  28.109  1.00  0.00     0.014 A 
ATOM     35  C   UNL A   1      36.439  29.388  29.481  1.00  0.00     0.010 A 
ATOM     36  C   UNL A   1      37.727  31.217  28.563  1.00  0.00     0.010 A 
ATOM     37  C   UNL A   1      37.681  30.010  29.277  1.00  0.00    -0.014 A 
BRANCH  37  38
ATOM     38  C   UNL A   1      38.928  29.440  29.855  1.00  0.00     0.031 A 
ATOM     39  C   UNL A   1      39.472  29.981  31.153  1.00  0.00     0.074 A 
ATOM     40  C   UNL A   1      39.582  28.455  29.207  1.00  0.00     0.049 A 
ATOM     41  N   UNL A   1      40.551  29.639  31.808  1.00  0.00    -0.248 NA
ATOM     42  C   UNL A   1      38.715  31.077  31.780  1.00  0.00     0.031 C 
ATOM     43  C   UNL A   1      39.180  27.873  27.925  1.00  0.00     0.029 A 
ATOM     44  N   UNL A   1      40.721  27.765  29.539  1.00  0.00    -0.354 N 
ATOM     45  C   UNL A   1      40.605  30.477  32.917  1.00  0.00     0.074 A 
ATOM     46  C   UNL A   1      39.496  31.397  32.799  1.00  0.00     0.031 C 
ATOM     47  C   UNL A   1      40.033  26.888  27.600  1.00  0.00     0.029 A 
ATOM     48  C   UNL A   1      41.069  26.795  28.625  1.00  0.00     0.049 A 
ATOM     49  H   UNL A   1      41.240  27.944  30.355  1.00  0.00     0.167 HD
ATOM     50  C   UNL A   1      41.476  30.461  33.957  1.00  0.00     0.034 A 
ATOM     51  C   UNL A   1      42.105  25.934  28.614  1.00  0.00     0.034 A 
ATOM     52  C   UNL A   1      42.573  29.530  34.067  1.00  0.00     0.049 A 
ATOM     53  C   UNL A   1      43.080  25.956  29.767  1.00  0.00     0.074 A 
ATOM     54  C   UNL A   1      43.494  29.399  35.092  1.00  0.00     0.029 A 
ATOM     55  N   UNL A   1      42.900  28.571  33.117  1.00  0.00    -0.354 N 
ATOM     56  N   UNL A   1      43.085  26.722  30.834  1.00  0.00    -0.248 NA
ATOM     57  C   UNL A   1      44.176  24.982  29.719  1.00  0.00     0.031 C 
ATOM     58  C   UNL A   1      44.418  28.414  34.729  1.00  0.00     0.029 A 
ATOM     59  C   UNL A   1      44.026  27.866  33.517  1.00  0.00     0.049 A 
ATOM     60  H   UNL A   1      42.407  28.415  32.280  1.00  0.00     0.167 HD
ATOM     61  C   UNL A   1      44.167  26.295  31.601  1.00  0.00     0.074 A 
ATOM     62  C   UNL A   1      44.768  25.189  30.886  1.00  0.00     0.031 C 
ATOM     63  C   UNL A   1      44.625  26.772  32.789  1.00  0.00     0.034 A 
BRANCH  50  64
ATOM     64  C   UNL A   1      41.282  31.495  35.043  1.00  0.00     0.023 A 
ATOM     65  C   UNL A   1      40.211  31.416  35.953  1.00  0.00     0.031 A 
ATOM     66  C   UNL A   1      42.155  32.591  35.153  1.00  0.00     0.131 A 
ATOM     67  C   UNL A   1      39.995  32.451  36.875  1.00  0.00     0.055 A 
ATOM     68  C   UNL A   1      41.986  33.573  36.132  1.00  0.00     0.041 A 
ATOM     69  F   UNL A   1      43.181  32.737  34.300  1.00  0.00    -0.206 F 
ATOM     70  C   UNL A   1      40.891  33.516  36.990  1.00  0.00     0.022 A 
BRANCH  67  71
ATOM     71  S   UNL A   1      38.440  32.468  37.809  1.00  0.00     0.124 S 
ATOM     72  O   UNL A   1      37.832  33.713  37.347  1.00  0.00    -0.237 OA
ATOM     73  O   UNL A   1      37.792  31.238  37.367  1.00  0.00    -0.237 OA
ATOM     74  O   UNL A   1      38.877  32.477  39.203  1.00  0.00    -0.744 OA
ENDBRANCH  67  71
ENDBRANCH  50  64
BRANCH  51  75
ATOM     75  C   UNL A   1      42.289  24.974  27.486  1.00  0.00     0.023 A 
ATOM     76  C   UNL A   1      41.526  23.798  27.405  1.00  0.00     0.031 A 
ATOM     77  C   UNL A   1      43.278  25.183  26.508  1.00  0.00     0.131 A 
ATOM     78  C   UNL A   1      41.804  22.847  26.410  1.00  0.00     0.055 A 
ATOM     79  C   UNL A   1      43.509  24.264  25.482  1.00  0.00     0.041 A 
ATOM     80  F   UNL A   1      44.036  26.291  26.533  1.00  0.00    -0.206 F 
ATOM     81  C   UNL A   1      42.781  23.079  25.439  1.00  0.00     0.022 A 
BRANCH  78  82
ATOM     82  S   UNL A   1      40.944  21.251  26.470  1.00  0.00     0.124 S 
ATOM     83  O   UNL A   1      41.879  20.385  25.763  1.00  0.00    -0.237 OA
ATOM     84  O   UNL A   1      40.821  21.027  27.907  1.00  0.00    -0.237 OA
ATOM     85  O   UNL A   1      39.687  21.517  25.773  1.00  0.00    -0.744 OA
ENDBRANCH  78  82
ENDBRANCH  51  75
BRANCH  63  86
ATOM     86  C   UNL A   1      45.808  26.059  33.400  1.00  0.00     0.023 A 
ATOM     87  C   UNL A   1      45.645  24.972  34.279  1.00  0.00     0.031 A 
ATOM     88  C   UNL A   1      47.117  26.500  33.136  1.00  0.00     0.131 A 
ATOM     89  C   UNL A   1      46.762  24.423  34.926  1.00  0.00     0.055 A 
ATOM     90  C   UNL A   1      48.231  25.896  33.721  1.00  0.00     0.041 A 
ATOM     91  F   UNL A   1      47.336  27.535  32.308  1.00  0.00    -0.206 F 
ATOM     92  C   UNL A   1      48.055  24.864  34.638  1.00  0.00     0.022 A 
BRANCH  89  93
ATOM     93  S   UNL A   1      46.488  23.217  36.254  1.00  0.00     0.124 S 
ATOM     94  O   UNL A   1      45.181  22.670  35.901  1.00  0.00    -0.237 OA
ATOM     95  O   UNL A   1      47.621  22.312  36.091  1.00  0.00    -0.237 OA
ATOM     96  O   UNL A   1      46.513  24.031  37.467  1.00  0.00    -0.744 OA
ENDBRANCH  89  93
ENDBRANCH  63  86
ENDBRANCH  37  38
ENDBRANCH  29  32
ENDBRANCH  27  28
ENDBRANCH  26  27
ENDBRANCH   1  26
TORSDOF 20
ENDMDL
