MODEL 1
REMARK VINA RESULT:     -13.6      0.000      0.000
REMARK SMILES O=C(NCCCCNC(=O)c1ccc(-c2c3nc(c(-c4cc(S(=O)(=O)[O-])ccc4F)c4ccc([nH]4)c(-c4cc(S(=O)(=O)[O-])ccc4F)c4nc(c(-c5cc(S(=O)(=O)[O-])ccc5F)c5ccc2[nH]5)C=C4)C=C3)cc1)C1=Cc2cc(S(F)(F)(F)(F)F)cc(Br)c2O[C@@H]1C(F)(F)F
REMARK SMILES IDX 6 1 5 2 4 3 3 4 1 5 2 6 74 8 75 9 90 10 76 11 89 12 77 13
REMARK SMILES IDX 88 14 78 15 86 16 85 17 87 18 91 19 92 20 93 21 94 22 79 23
REMARK SMILES IDX 80 24 81 25 82 26 83 27 84 28 7 29 8 30 9 31 10 33 11 34
REMARK SMILES IDX 12 35 73 36 13 37 72 38 14 39 15 40 16 41 66 42 17 43 71 44
REMARK SMILES IDX 65 45 67 46 18 47 70 48 64 49 63 50 19 52 51 53 31 54 50 55
REMARK SMILES IDX 32 56 35 57 49 58 68 59 33 60 34 61 48 63 69 64 36 65 20 66
REMARK SMILES IDX 21 67 29 68 22 69 28 70 30 71 27 72 23 73 24 74 25 75 26 76
REMARK SMILES IDX 52 77 53 78 61 79 54 80 60 81 62 82 59 83 55 84 56 85 57 86
REMARK SMILES IDX 58 87 37 88 38 89 46 90 39 91 45 92 47 93 44 94 40 95 41 96
REMARK SMILES IDX 42 97 43 98
REMARK H PARENT 3 7 8 32 67 51 35 62
REMARK Flexibility Score: inf
ROOT
ATOM      1  C   UNL A   1      32.875  27.864  25.685  1.00  0.00     0.023 C 
ENDROOT
BRANCH   1   2
ATOM      2  C   UNL A   1      33.258  26.972  24.515  1.00  0.00     0.023 C 
BRANCH   2   3
ATOM      3  C   UNL A   1      33.554  25.571  25.022  1.00  0.00     0.116 C 
BRANCH   3   4
ATOM      4  N   UNL A   1      33.888  24.700  23.886  1.00  0.00    -0.352 N 
ATOM      5  O   UNL A   1      33.364  22.752  22.630  1.00  0.00    -0.270 OA
ATOM      6  C   UNL A   1      33.076  23.506  23.612  1.00  0.00     0.251 C 
ATOM      7  H   UNL A   1      34.654  24.916  23.307  1.00  0.00     0.163 HD
BRANCH   6   8
ATOM      8  C   UNL A   1      31.892  23.170  24.506  1.00  0.00     0.067 C 
ATOM      9  C   UNL A   1      31.830  21.963  25.128  1.00  0.00     0.025 C 
ATOM     10  C   UNL A   1      30.778  24.185  24.703  1.00  0.00     0.314 C 
ATOM     11  C   UNL A   1      32.945  20.948  24.930  1.00  0.00     0.020 A 
ATOM     12  O   UNL A   1      34.630  22.608  25.161  1.00  0.00    -0.474 OA
ATOM     13  C   UNL A   1      32.523  19.671  24.599  1.00  0.00     0.036 A 
ATOM     14  C   UNL A   1      34.236  21.256  24.978  1.00  0.00     0.142 A 
ATOM     15  C   UNL A   1      33.555  18.703  24.616  1.00  0.00     0.109 A 
ATOM     16  C   UNL A   1      35.193  20.279  24.851  1.00  0.00     0.062 A 
ATOM     17  C   UNL A   1      34.845  18.984  24.582  1.00  0.00     0.044 A 
ATOM     18  Br  UNL A   1      37.085  20.748  25.059  1.00  0.00    -0.047 Br
BRANCH  10  19
ATOM     19  C   UNL A   1      30.669  24.537  26.178  1.00  0.00     0.429 C 
ATOM     20  F   UNL A   1      31.868  24.444  26.745  1.00  0.00    -0.167 F 
ATOM     21  F   UNL A   1      30.213  25.780  26.305  1.00  0.00    -0.167 F 
ATOM     22  F   UNL A   1      29.829  23.695  26.773  1.00  0.00    -0.167 F 
ENDBRANCH  10  19
BRANCH  15  23
ATOM     23  S   UNL A   1      33.075  16.960  24.690  1.00  0.00     0.310 S 
ATOM     24  F   UNL A   1      34.592  16.495  24.685  1.00  0.00    -0.094 F 
ATOM     25  F   UNL A   1      33.124  16.898  23.116  1.00  0.00    -0.094 F 
ATOM     26  F   UNL A   1      32.680  15.458  24.764  1.00  0.00    -0.094 F 
ATOM     27  F   UNL A   1      33.169  17.005  26.266  1.00  0.00    -0.094 F 
ATOM     28  F   UNL A   1      33.588  18.454  24.631  1.00  0.00    -0.094 F 
ENDBRANCH  15  23
ENDBRANCH   6   8
ENDBRANCH   3   4
ENDBRANCH   2   3
ENDBRANCH   1   2
BRANCH   1  29
ATOM     29  C   UNL A   1      34.072  28.704  26.095  1.00  0.00     0.116 C 
BRANCH  29  30
ATOM     30  N   UNL A   1      33.612  30.024  26.550  1.00  0.00    -0.352 N 
ATOM     31  C   UNL A   1      34.452  30.826  27.450  1.00  0.00     0.251 C 
ATOM     32  H   UNL A   1      32.740  30.372  26.250  1.00  0.00     0.163 HD
ATOM     33  O   UNL A   1      34.054  31.967  27.843  1.00  0.00    -0.269 OA
BRANCH  31  34
ATOM     34  C   UNL A   1      35.797  30.290  27.913  1.00  0.00     0.039 A 
ATOM     35  C   UNL A   1      36.976  30.483  27.211  1.00  0.00     0.014 A 
ATOM     36  C   UNL A   1      35.791  29.692  29.098  1.00  0.00     0.014 A 
ATOM     37  C   UNL A   1      38.073  29.746  27.719  1.00  0.00     0.010 A 
ATOM     38  C   UNL A   1      36.933  29.111  29.594  1.00  0.00     0.010 A 
ATOM     39  C   UNL A   1      38.121  29.212  28.925  1.00  0.00    -0.014 A 
BRANCH  39  40
ATOM     40  C   UNL A   1      39.428  28.734  29.537  1.00  0.00     0.031 A 
ATOM     41  C   UNL A   1      40.011  27.643  28.890  1.00  0.00     0.074 A 
ATOM     42  C   UNL A   1      39.930  29.307  30.693  1.00  0.00     0.049 A 
ATOM     43  N   UNL A   1      41.130  26.999  29.227  1.00  0.00    -0.248 NA
ATOM     44  C   UNL A   1      39.460  27.011  27.682  1.00  0.00     0.031 C 
ATOM     45  C   UNL A   1      39.353  30.413  31.348  1.00  0.00     0.029 A 
ATOM     46  N   UNL A   1      41.046  28.930  31.407  1.00  0.00    -0.354 N 
ATOM     47  C   UNL A   1      41.378  26.020  28.356  1.00  0.00     0.074 A 
ATOM     48  C   UNL A   1      40.304  26.009  27.352  1.00  0.00     0.031 C 
ATOM     49  C   UNL A   1      40.102  30.691  32.446  1.00  0.00     0.029 A 
ATOM     50  C   UNL A   1      41.162  29.765  32.497  1.00  0.00     0.049 A 
ATOM     51  H   UNL A   1      41.656  28.192  31.178  1.00  0.00     0.167 HD
ATOM     52  C   UNL A   1      42.459  25.137  28.357  1.00  0.00     0.034 A 
ATOM     53  C   UNL A   1      42.128  29.735  33.490  1.00  0.00     0.034 A 
ATOM     54  C   UNL A   1      43.449  25.135  29.326  1.00  0.00     0.049 A 
ATOM     55  C   UNL A   1      43.178  28.814  33.523  1.00  0.00     0.074 A 
ATOM     56  C   UNL A   1      44.549  24.256  29.338  1.00  0.00     0.029 A 
ATOM     57  N   UNL A   1      43.551  25.953  30.430  1.00  0.00    -0.354 N 
ATOM     58  N   UNL A   1      43.447  27.861  32.630  1.00  0.00    -0.248 NA
ATOM     59  C   UNL A   1      44.188  28.751  34.588  1.00  0.00     0.031 C 
ATOM     60  C   UNL A   1      45.299  24.534  30.437  1.00  0.00     0.029 A 
ATOM     61  C   UNL A   1      44.679  25.592  31.131  1.00  0.00     0.049 A 
ATOM     62  H   UNL A   1      42.925  26.673  30.674  1.00  0.00     0.167 HD
ATOM     63  C   UNL A   1      44.544  27.190  32.991  1.00  0.00     0.074 A 
ATOM     64  C   UNL A   1      45.031  27.749  34.259  1.00  0.00     0.031 C 
ATOM     65  C   UNL A   1      45.159  26.137  32.312  1.00  0.00     0.034 A 
BRANCH  52  66
ATOM     66  C   UNL A   1      42.556  24.120  27.230  1.00  0.00     0.023 A 
ATOM     67  C   UNL A   1      41.875  22.915  27.273  1.00  0.00     0.031 A 
ATOM     68  C   UNL A   1      43.215  24.501  26.142  1.00  0.00     0.131 A 
ATOM     69  C   UNL A   1      42.190  22.041  26.206  1.00  0.00     0.055 A 
ATOM     70  C   UNL A   1      43.369  23.643  25.081  1.00  0.00     0.041 A 
ATOM     71  F   UNL A   1      43.732  25.725  26.080  1.00  0.00    -0.206 F 
ATOM     72  C   UNL A   1      42.772  22.412  25.080  1.00  0.00     0.022 A 
BRANCH  69  73
ATOM     73  S   UNL A   1      41.765  20.292  26.398  1.00  0.00     0.124 S 
ATOM     74  O   UNL A   1      42.197  19.811  27.784  1.00  0.00    -0.237 OA
ATOM     75  O   UNL A   1      40.252  20.114  26.244  1.00  0.00    -0.237 OA
ATOM     76  O   UNL A   1      42.571  19.375  25.199  1.00  0.00    -0.744 OA
ENDBRANCH  69  73
ENDBRANCH  52  66
BRANCH  53  77
ATOM     77  C   UNL A   1      42.040  30.763  34.607  1.00  0.00     0.023 A 
ATOM     78  C   UNL A   1      40.998  30.698  35.517  1.00  0.00     0.031 A 
ATOM     79  C   UNL A   1      42.883  31.788  34.596  1.00  0.00     0.131 A 
ATOM     80  C   UNL A   1      40.752  31.916  36.195  1.00  0.00     0.055 A 
ATOM     81  C   UNL A   1      42.655  32.889  35.386  1.00  0.00     0.041 A 
ATOM     82  F   UNL A   1      43.959  31.750  33.815  1.00  0.00    -0.206 F 
ATOM     83  C   UNL A   1      41.609  32.918  36.266  1.00  0.00     0.022 A 
BRANCH  80  84
ATOM     84  S   UNL A   1      39.154  32.112  37.021  1.00  0.00     0.124 S 
ATOM     85  O   UNL A   1      38.393  33.278  36.388  1.00  0.00    -0.237 OA
ATOM     86  O   UNL A   1      38.339  30.827  36.867  1.00  0.00    -0.237 OA
ATOM     87  O   UNL A   1      39.408  32.431  38.682  1.00  0.00    -0.744 OA
ENDBRANCH  80  84
ENDBRANCH  53  77
BRANCH  65  88
ATOM     88  C   UNL A   1      46.432  25.553  32.903  1.00  0.00     0.023 A 
ATOM     89  C   UNL A   1      47.692  25.967  32.504  1.00  0.00     0.031 A 
ATOM     90  C   UNL A   1      46.274  24.672  33.883  1.00  0.00     0.131 A 
ATOM     91  C   UNL A   1      48.744  25.169  33.011  1.00  0.00     0.055 A 
ATOM     92  C   UNL A   1      47.360  24.029  34.427  1.00  0.00     0.041 A 
ATOM     93  F   UNL A   1      45.055  24.409  34.345  1.00  0.00    -0.206 F 
ATOM     94  C   UNL A   1      48.632  24.345  34.037  1.00  0.00     0.022 A 
BRANCH  91  95
ATOM     95  S   UNL A   1      50.357  25.285  32.196  1.00  0.00     0.124 S 
ATOM     96  O   UNL A   1      51.038  23.915  32.216  1.00  0.00    -0.237 OA
ATOM     97  O   UNL A   1      50.165  25.739  30.747  1.00  0.00    -0.237 OA
ATOM     98  O   UNL A   1      51.333  26.420  33.024  1.00  0.00    -0.744 OA
ENDBRANCH  91  95
ENDBRANCH  65  88
ENDBRANCH  39  40
ENDBRANCH  31  34
ENDBRANCH  29  30
ENDBRANCH   1  29
TORSDOF 16
ENDMDL
MODEL 2
REMARK VINA RESULT:     -13.5      1.649      2.026
REMARK SMILES O=C(NCCCCNC(=O)c1ccc(-c2c3nc(c(-c4cc(S(=O)(=O)[O-])ccc4F)c4ccc([nH]4)c(-c4cc(S(=O)(=O)[O-])ccc4F)c4nc(c(-c5cc(S(=O)(=O)[O-])ccc5F)c5ccc2[nH]5)C=C4)C=C3)cc1)C1=Cc2cc(S(F)(F)(F)(F)F)cc(Br)c2O[C@@H]1C(F)(F)F
REMARK SMILES IDX 6 1 5 2 4 3 3 4 1 5 2 6 74 8 75 9 90 10 76 11 89 12 77 13
REMARK SMILES IDX 88 14 78 15 86 16 85 17 87 18 91 19 92 20 93 21 94 22 79 23
REMARK SMILES IDX 80 24 81 25 82 26 83 27 84 28 7 29 8 30 9 31 10 33 11 34
REMARK SMILES IDX 12 35 73 36 13 37 72 38 14 39 15 40 16 41 66 42 17 43 71 44
REMARK SMILES IDX 65 45 67 46 18 47 70 48 64 49 63 50 19 52 51 53 31 54 50 55
REMARK SMILES IDX 32 56 35 57 49 58 68 59 33 60 34 61 48 63 69 64 36 65 20 66
REMARK SMILES IDX 21 67 29 68 22 69 28 70 30 71 27 72 23 73 24 74 25 75 26 76
REMARK SMILES IDX 52 77 53 78 61 79 54 80 60 81 62 82 59 83 55 84 56 85 57 86
REMARK SMILES IDX 58 87 37 88 38 89 46 90 39 91 45 92 47 93 44 94 40 95 41 96
REMARK SMILES IDX 42 97 43 98
REMARK H PARENT 3 7 8 32 67 51 35 62
REMARK Flexibility Score: inf
ROOT
ATOM      1  C   UNL A   1      33.170  27.946  25.990  1.00  0.00     0.023 C 
ENDROOT
BRANCH   1   2
ATOM      2  C   UNL A   1      33.289  27.054  24.765  1.00  0.00     0.023 C 
BRANCH   2   3
ATOM      3  C   UNL A   1      33.579  25.628  25.202  1.00  0.00     0.116 C 
BRANCH   3   4
ATOM      4  N   UNL A   1      33.913  24.813  24.025  1.00  0.00    -0.352 N 
ATOM      5  O   UNL A   1      33.393  22.927  22.678  1.00  0.00    -0.270 OA
ATOM      6  C   UNL A   1      33.104  23.632  23.695  1.00  0.00     0.251 C 
ATOM      7  H   UNL A   1      34.679  25.059  23.457  1.00  0.00     0.163 HD
BRANCH   6   8
ATOM      8  C   UNL A   1      31.921  23.251  24.572  1.00  0.00     0.067 C 
ATOM      9  C   UNL A   1      31.879  22.027  25.163  1.00  0.00     0.025 C 
ATOM     10  C   UNL A   1      30.786  24.238  24.786  1.00  0.00     0.314 C 
ATOM     11  C   UNL A   1      33.016  21.040  24.949  1.00  0.00     0.020 A 
ATOM     12  O   UNL A   1      34.665  22.727  25.232  1.00  0.00    -0.474 OA
ATOM     13  C   UNL A   1      32.621  19.763  24.583  1.00  0.00     0.036 A 
ATOM     14  C   UNL A   1      34.299  21.372  25.013  1.00  0.00     0.142 A 
ATOM     15  C   UNL A   1      33.672  18.817  24.584  1.00  0.00     0.109 A 
ATOM     16  C   UNL A   1      35.277  20.418  24.869  1.00  0.00     0.062 A 
ATOM     17  C   UNL A   1      34.957  19.123  24.566  1.00  0.00     0.044 A 
ATOM     18  Br  UNL A   1      37.157  20.919  25.101  1.00  0.00    -0.047 Br
BRANCH  10  19
ATOM     19  C   UNL A   1      30.660  24.552  26.268  1.00  0.00     0.429 C 
ATOM     20  F   UNL A   1      29.674  23.828  26.792  1.00  0.00    -0.167 F 
ATOM     21  F   UNL A   1      31.802  24.255  26.883  1.00  0.00    -0.167 F 
ATOM     22  F   UNL A   1      30.395  25.845  26.427  1.00  0.00    -0.167 F 
ENDBRANCH  10  19
BRANCH  15  23
ATOM     23  S   UNL A   1      33.226  17.063  24.612  1.00  0.00     0.310 S 
ATOM     24  F   UNL A   1      34.712  16.645  24.980  1.00  0.00    -0.094 F 
ATOM     25  F   UNL A   1      33.644  16.951  23.096  1.00  0.00    -0.094 F 
ATOM     26  F   UNL A   1      32.858  15.553  24.650  1.00  0.00    -0.094 F 
ATOM     27  F   UNL A   1      32.947  17.162  26.163  1.00  0.00    -0.094 F 
ATOM     28  F   UNL A   1      33.706  18.569  24.616  1.00  0.00    -0.094 F 
ENDBRANCH  15  23
ENDBRANCH   6   8
ENDBRANCH   3   4
ENDBRANCH   2   3
ENDBRANCH   1   2
BRANCH   1  29
ATOM     29  C   UNL A   1      34.033  29.182  25.802  1.00  0.00     0.116 C 
BRANCH  29  30
ATOM     30  N   UNL A   1      33.305  30.365  26.282  1.00  0.00    -0.352 N 
ATOM     31  C   UNL A   1      33.896  31.223  27.319  1.00  0.00     0.251 C 
ATOM     32  H   UNL A   1      32.420  30.584  25.908  1.00  0.00     0.163 HD
ATOM     33  O   UNL A   1      33.266  32.246  27.733  1.00  0.00    -0.269 OA
BRANCH  31  34
ATOM     34  C   UNL A   1      35.261  30.885  27.896  1.00  0.00     0.039 A 
ATOM     35  C   UNL A   1      36.309  31.789  27.951  1.00  0.00     0.014 A 
ATOM     36  C   UNL A   1      35.363  29.678  28.439  1.00  0.00     0.014 A 
ATOM     37  C   UNL A   1      37.539  31.216  28.354  1.00  0.00     0.010 A 
ATOM     38  C   UNL A   1      36.564  29.234  28.936  1.00  0.00     0.010 A 
ATOM     39  C   UNL A   1      37.658  30.054  28.968  1.00  0.00    -0.014 A 
BRANCH  39  40
ATOM     40  C   UNL A   1      38.942  29.649  29.673  1.00  0.00     0.031 A 
ATOM     41  C   UNL A   1      39.673  28.650  29.026  1.00  0.00     0.074 A 
ATOM     42  C   UNL A   1      39.289  30.191  30.899  1.00  0.00     0.049 A 
ATOM     43  N   UNL A   1      40.809  28.080  29.432  1.00  0.00    -0.248 NA
ATOM     44  C   UNL A   1      39.288  28.049  27.741  1.00  0.00     0.031 C 
ATOM     45  C   UNL A   1      38.563  31.204  31.554  1.00  0.00     0.029 A 
ATOM     46  N   UNL A   1      40.366  29.864  31.693  1.00  0.00    -0.354 N 
ATOM     47  C   UNL A   1      41.218  27.179  28.538  1.00  0.00     0.074 A 
ATOM     48  C   UNL A   1      40.242  27.141  27.439  1.00  0.00     0.031 C 
ATOM     49  C   UNL A   1      39.185  31.476  32.731  1.00  0.00     0.029 A 
ATOM     50  C   UNL A   1      40.313  30.639  32.831  1.00  0.00     0.049 A 
ATOM     51  H   UNL A   1      41.056  29.193  31.484  1.00  0.00     0.167 HD
ATOM     52  C   UNL A   1      42.367  26.388  28.593  1.00  0.00     0.034 A 
ATOM     53  C   UNL A   1      41.186  30.628  33.907  1.00  0.00     0.034 A 
ATOM     54  C   UNL A   1      43.264  26.409  29.649  1.00  0.00     0.049 A 
ATOM     55  C   UNL A   1      42.305  29.795  33.989  1.00  0.00     0.074 A 
ATOM     56  C   UNL A   1      44.431  25.625  29.717  1.00  0.00     0.029 A 
ATOM     57  N   UNL A   1      43.197  27.166  30.798  1.00  0.00    -0.354 N 
ATOM     58  N   UNL A   1      42.734  28.923  33.076  1.00  0.00    -0.248 NA
ATOM     59  C   UNL A   1      43.218  29.752  35.138  1.00  0.00     0.031 C 
ATOM     60  C   UNL A   1      45.054  25.897  30.894  1.00  0.00     0.029 A 
ATOM     61  C   UNL A   1      44.286  26.856  31.581  1.00  0.00     0.049 A 
ATOM     62  H   UNL A   1      42.491  27.816  31.020  1.00  0.00     0.167 HD
ATOM     63  C   UNL A   1      43.849  28.323  33.502  1.00  0.00     0.074 A 
ATOM     64  C   UNL A   1      44.171  28.844  34.837  1.00  0.00     0.031 C 
ATOM     65  C   UNL A   1      44.610  27.367  32.829  1.00  0.00     0.034 A 
BRANCH  52  66
ATOM     66  C   UNL A   1      42.651  25.452  27.429  1.00  0.00     0.023 A 
ATOM     67  C   UNL A   1      42.037  24.216  27.319  1.00  0.00     0.031 A 
ATOM     68  C   UNL A   1      43.410  25.934  26.452  1.00  0.00     0.131 A 
ATOM     69  C   UNL A   1      42.522  23.429  26.248  1.00  0.00     0.055 A 
ATOM     70  C   UNL A   1      43.734  25.155  25.369  1.00  0.00     0.041 A 
ATOM     71  F   UNL A   1      43.863  27.183  26.524  1.00  0.00    -0.206 F 
ATOM     72  C   UNL A   1      43.210  23.899  25.224  1.00  0.00     0.022 A 
BRANCH  69  73
ATOM     73  S   UNL A   1      42.175  21.652  26.285  1.00  0.00     0.124 S 
ATOM     74  O   UNL A   1      40.729  21.407  25.853  1.00  0.00    -0.237 OA
ATOM     75  O   UNL A   1      43.124  20.927  25.328  1.00  0.00    -0.237 OA
ATOM     76  O   UNL A   1      42.405  21.060  27.873  1.00  0.00    -0.744 OA
ENDBRANCH  69  73
ENDBRANCH  52  66
BRANCH  53  77
ATOM     77  C   UNL A   1      40.911  31.576  35.063  1.00  0.00     0.023 A 
ATOM     78  C   UNL A   1      40.008  31.212  36.048  1.00  0.00     0.031 A 
ATOM     79  C   UNL A   1      41.433  32.796  35.023  1.00  0.00     0.131 A 
ATOM     80  C   UNL A   1      39.493  32.304  36.786  1.00  0.00     0.055 A 
ATOM     81  C   UNL A   1      40.976  33.780  35.867  1.00  0.00     0.041 A 
ATOM     82  F   UNL A   1      42.407  33.070  34.160  1.00  0.00    -0.206 F 
ATOM     83  C   UNL A   1      40.041  33.505  36.826  1.00  0.00     0.022 A 
BRANCH  80  84
ATOM     84  S   UNL A   1      37.979  32.036  37.740  1.00  0.00     0.124 S 
ATOM     85  O   UNL A   1      37.454  30.623  37.476  1.00  0.00    -0.237 OA
ATOM     86  O   UNL A   1      38.280  32.198  39.231  1.00  0.00    -0.237 OA
ATOM     87  O   UNL A   1      36.798  33.180  37.268  1.00  0.00    -0.744 OA
ENDBRANCH  80  84
ENDBRANCH  53  77
BRANCH  65  88
ATOM     88  C   UNL A   1      45.872  26.855  33.504  1.00  0.00     0.023 A 
ATOM     89  C   UNL A   1      45.887  25.701  34.269  1.00  0.00     0.031 A 
ATOM     90  C   UNL A   1      46.986  27.535  33.261  1.00  0.00     0.131 A 
ATOM     91  C   UNL A   1      47.093  25.500  34.981  1.00  0.00     0.055 A 
ATOM     92  C   UNL A   1      48.161  27.200  33.889  1.00  0.00     0.041 A 
ATOM     93  F   UNL A   1      46.965  28.551  32.403  1.00  0.00    -0.206 F 
ATOM     94  C   UNL A   1      48.234  26.105  34.706  1.00  0.00     0.022 A 
BRANCH  91  95
ATOM     95  S   UNL A   1      47.070  24.334  36.366  1.00  0.00     0.124 S 
ATOM     96  O   UNL A   1      47.754  23.031  35.946  1.00  0.00    -0.237 OA
ATOM     97  O   UNL A   1      47.815  24.942  37.556  1.00  0.00    -0.237 OA
ATOM     98  O   UNL A   1      45.451  24.011  36.812  1.00  0.00    -0.744 OA
ENDBRANCH  91  95
ENDBRANCH  65  88
ENDBRANCH  39  40
ENDBRANCH  31  34
ENDBRANCH  29  30
ENDBRANCH   1  29
TORSDOF 16
ENDMDL
MODEL 3
REMARK VINA RESULT:     -13.3      4.806     10.044
REMARK SMILES O=C(NCCCCNC(=O)c1ccc(-c2c3nc(c(-c4cc(S(=O)(=O)[O-])ccc4F)c4ccc([nH]4)c(-c4cc(S(=O)(=O)[O-])ccc4F)c4nc(c(-c5cc(S(=O)(=O)[O-])ccc5F)c5ccc2[nH]5)C=C4)C=C3)cc1)C1=Cc2cc(S(F)(F)(F)(F)F)cc(Br)c2O[C@@H]1C(F)(F)F
REMARK SMILES IDX 6 1 5 2 4 3 3 4 1 5 2 6 74 8 75 9 90 10 76 11 89 12 77 13
REMARK SMILES IDX 88 14 78 15 86 16 85 17 87 18 91 19 92 20 93 21 94 22 79 23
REMARK SMILES IDX 80 24 81 25 82 26 83 27 84 28 7 29 8 30 9 31 10 33 11 34
REMARK SMILES IDX 12 35 73 36 13 37 72 38 14 39 15 40 16 41 66 42 17 43 71 44
REMARK SMILES IDX 65 45 67 46 18 47 70 48 64 49 63 50 19 52 51 53 31 54 50 55
REMARK SMILES IDX 32 56 35 57 49 58 68 59 33 60 34 61 48 63 69 64 36 65 20 66
REMARK SMILES IDX 21 67 29 68 22 69 28 70 30 71 27 72 23 73 24 74 25 75 26 76
REMARK SMILES IDX 52 77 53 78 61 79 54 80 60 81 62 82 59 83 55 84 56 85 57 86
REMARK SMILES IDX 58 87 37 88 38 89 46 90 39 91 45 92 47 93 44 94 40 95 41 96
REMARK SMILES IDX 42 97 43 98
REMARK H PARENT 3 7 8 32 67 51 35 62
REMARK Flexibility Score: inf
ROOT
ATOM      1  C   UNL A   1      35.265  22.881  26.082  1.00  0.00     0.023 C 
ENDROOT
BRANCH   1   2
ATOM      2  C   UNL A   1      34.247  23.967  26.391  1.00  0.00     0.023 C 
BRANCH   2   3
ATOM      3  C   UNL A   1      32.870  23.344  26.544  1.00  0.00     0.116 C 
BRANCH   3   4
ATOM      4  N   UNL A   1      31.926  24.357  27.036  1.00  0.00    -0.352 N 
ATOM      5  O   UNL A   1      30.156  25.860  26.535  1.00  0.00    -0.270 OA
ATOM      6  C   UNL A   1      30.972  24.984  26.110  1.00  0.00     0.251 C 
ATOM      7  H   UNL A   1      31.931  24.616  27.986  1.00  0.00     0.163 HD
BRANCH   6   8
ATOM      8  C   UNL A   1      30.963  24.586  24.642  1.00  0.00     0.067 C 
ATOM      9  C   UNL A   1      30.957  25.544  23.678  1.00  0.00     0.025 C 
ATOM     10  C   UNL A   1      30.960  23.117  24.254  1.00  0.00     0.314 C 
ATOM     11  C   UNL A   1      30.960  27.014  24.067  1.00  0.00     0.020 A 
ATOM     12  O   UNL A   1      32.603  26.667  25.749  1.00  0.00    -0.474 OA
ATOM     13  C   UNL A   1      30.005  27.790  23.432  1.00  0.00     0.036 A 
ATOM     14  C   UNL A   1      31.748  27.524  25.006  1.00  0.00     0.142 A 
ATOM     15  C   UNL A   1      30.153  29.179  23.655  1.00  0.00     0.109 A 
ATOM     16  C   UNL A   1      31.743  28.873  25.266  1.00  0.00     0.062 A 
ATOM     17  C   UNL A   1      30.866  29.709  24.632  1.00  0.00     0.044 A 
ATOM     18  Br  UNL A   1      33.012  29.610  26.565  1.00  0.00    -0.047 Br
BRANCH  10  19
ATOM     19  C   UNL A   1      32.197  22.810  23.424  1.00  0.00     0.429 C 
ATOM     20  F   UNL A   1      32.790  21.719  23.901  1.00  0.00    -0.167 F 
ATOM     21  F   UNL A   1      31.842  22.605  22.159  1.00  0.00    -0.167 F 
ATOM     22  F   UNL A   1      33.038  23.837  23.488  1.00  0.00    -0.167 F 
ENDBRANCH  10  19
BRANCH  15  23
ATOM     23  S   UNL A   1      29.307  30.310  22.522  1.00  0.00     0.310 S 
ATOM     24  F   UNL A   1      28.393  29.140  21.964  1.00  0.00    -0.094 F 
ATOM     25  F   UNL A   1      30.349  29.938  21.400  1.00  0.00    -0.094 F 
ATOM     26  F   UNL A   1      28.564  31.270  21.552  1.00  0.00    -0.094 F 
ATOM     27  F   UNL A   1      28.193  30.562  23.613  1.00  0.00    -0.094 F 
ATOM     28  F   UNL A   1      29.985  29.251  23.481  1.00  0.00    -0.094 F 
ENDBRANCH  15  23
ENDBRANCH   6   8
ENDBRANCH   3   4
ENDBRANCH   2   3
ENDBRANCH   1   2
BRANCH   1  29
ATOM     29  C   UNL A   1      36.664  23.470  26.127  1.00  0.00     0.116 C 
BRANCH  29  30
ATOM     30  N   UNL A   1      37.653  22.393  25.970  1.00  0.00    -0.352 N 
ATOM     31  C   UNL A   1      39.045  22.607  26.391  1.00  0.00     0.251 C 
ATOM     32  H   UNL A   1      37.383  21.528  25.584  1.00  0.00     0.163 HD
ATOM     33  O   UNL A   1      39.900  21.677  26.256  1.00  0.00    -0.269 OA
BRANCH  31  34
ATOM     34  C   UNL A   1      39.462  23.942  26.987  1.00  0.00     0.039 A 
ATOM     35  C   UNL A   1      39.500  24.189  28.349  1.00  0.00     0.014 A 
ATOM     36  C   UNL A   1      39.884  24.846  26.111  1.00  0.00     0.014 A 
ATOM     37  C   UNL A   1      39.736  25.546  28.679  1.00  0.00     0.010 A 
ATOM     38  C   UNL A   1      40.227  26.111  26.521  1.00  0.00     0.010 A 
ATOM     39  C   UNL A   1      40.231  26.443  27.848  1.00  0.00    -0.014 A 
BRANCH  39  40
ATOM     40  C   UNL A   1      40.776  27.774  28.339  1.00  0.00     0.031 A 
ATOM     41  C   UNL A   1      39.803  28.685  28.756  1.00  0.00     0.074 A 
ATOM     42  C   UNL A   1      42.130  28.058  28.287  1.00  0.00     0.049 A 
ATOM     43  N   UNL A   1      39.989  29.930  29.196  1.00  0.00    -0.248 NA
ATOM     44  C   UNL A   1      38.361  28.397  28.778  1.00  0.00     0.031 C 
ATOM     45  C   UNL A   1      43.119  27.143  27.876  1.00  0.00     0.029 A 
ATOM     46  N   UNL A   1      42.759  29.239  28.612  1.00  0.00    -0.354 N 
ATOM     47  C   UNL A   1      38.819  30.484  29.521  1.00  0.00     0.074 A 
ATOM     48  C   UNL A   1      37.754  29.508  29.251  1.00  0.00     0.031 C 
ATOM     49  C   UNL A   1      44.324  27.767  27.941  1.00  0.00     0.029 A 
ATOM     50  C   UNL A   1      44.110  29.082  28.395  1.00  0.00     0.049 A 
ATOM     51  H   UNL A   1      42.319  30.056  28.944  1.00  0.00     0.167 HD
ATOM     52  C   UNL A   1      38.599  31.764  30.034  1.00  0.00     0.034 A 
ATOM     53  C   UNL A   1      45.113  30.021  28.574  1.00  0.00     0.034 A 
ATOM     54  C   UNL A   1      39.608  32.687  30.254  1.00  0.00     0.049 A 
ATOM     55  C   UNL A   1      44.886  31.321  29.032  1.00  0.00     0.074 A 
ATOM     56  C   UNL A   1      39.404  33.978  30.777  1.00  0.00     0.029 A 
ATOM     57  N   UNL A   1      40.956  32.539  30.013  1.00  0.00    -0.354 N 
ATOM     58  N   UNL A   1      43.721  31.860  29.394  1.00  0.00    -0.248 NA
ATOM     59  C   UNL A   1      45.937  32.334  29.195  1.00  0.00     0.031 C 
ATOM     60  C   UNL A   1      40.610  34.603  30.842  1.00  0.00     0.029 A 
ATOM     61  C   UNL A   1      41.587  33.712  30.360  1.00  0.00     0.049 A 
ATOM     62  H   UNL A   1      41.392  31.731  29.654  1.00  0.00     0.167 HD
ATOM     63  C   UNL A   1      43.904  33.121  29.795  1.00  0.00     0.074 A 
ATOM     64  C   UNL A   1      45.331  33.445  29.666  1.00  0.00     0.031 C 
ATOM     65  C   UNL A   1      42.937  34.011  30.267  1.00  0.00     0.034 A 
BRANCH  52  66
ATOM     66  C   UNL A   1      37.172  32.166  30.370  1.00  0.00     0.023 A 
ATOM     67  C   UNL A   1      36.279  32.577  29.394  1.00  0.00     0.031 A 
ATOM     68  C   UNL A   1      36.780  31.973  31.624  1.00  0.00     0.131 A 
ATOM     69  C   UNL A   1      35.044  33.040  29.905  1.00  0.00     0.055 A 
ATOM     70  C   UNL A   1      35.514  32.323  32.023  1.00  0.00     0.041 A 
ATOM     71  F   UNL A   1      37.624  31.436  32.502  1.00  0.00    -0.206 F 
ATOM     72  C   UNL A   1      34.597  32.792  31.122  1.00  0.00     0.022 A 
BRANCH  69  73
ATOM     73  S   UNL A   1      34.004  34.042  28.814  1.00  0.00     0.124 S 
ATOM     74  O   UNL A   1      34.859  35.115  28.138  1.00  0.00    -0.237 OA
ATOM     75  O   UNL A   1      33.371  33.145  27.746  1.00  0.00    -0.237 OA
ATOM     76  O   UNL A   1      32.770  34.790  29.732  1.00  0.00    -0.744 OA
ENDBRANCH  69  73
ENDBRANCH  52  66
BRANCH  53  77
ATOM     77  C   UNL A   1      46.542  29.613  28.254  1.00  0.00     0.023 A 
ATOM     78  C   UNL A   1      46.923  29.429  26.935  1.00  0.00     0.031 A 
ATOM     79  C   UNL A   1      47.354  29.297  29.256  1.00  0.00     0.131 A 
ATOM     80  C   UNL A   1      48.081  28.630  26.779  1.00  0.00     0.055 A 
ATOM     81  C   UNL A   1      48.535  28.636  29.018  1.00  0.00     0.041 A 
ATOM     82  F   UNL A   1      47.022  29.623  30.502  1.00  0.00    -0.206 F 
ATOM     83  C   UNL A   1      48.946  28.369  27.742  1.00  0.00     0.022 A 
BRANCH  80  84
ATOM     84  S   UNL A   1      48.396  27.916  25.146  1.00  0.00     0.124 S 
ATOM     85  O   UNL A   1      47.364  28.447  24.149  1.00  0.00    -0.237 OA
ATOM     86  O   UNL A   1      49.801  28.307  24.682  1.00  0.00    -0.237 OA
ATOM     87  O   UNL A   1      48.279  26.212  25.237  1.00  0.00    -0.744 OA
ENDBRANCH  80  84
ENDBRANCH  53  77
BRANCH  65  88
ATOM     88  C   UNL A   1      43.395  35.392  30.707  1.00  0.00     0.023 A 
ATOM     89  C   UNL A   1      43.755  35.673  32.014  1.00  0.00     0.031 A 
ATOM     90  C   UNL A   1      43.503  36.308  29.751  1.00  0.00     0.131 A 
ATOM     91  C   UNL A   1      43.951  37.049  32.273  1.00  0.00     0.055 A 
ATOM     92  C   UNL A   1      43.831  37.606  30.060  1.00  0.00     0.041 A 
ATOM     93  F   UNL A   1      43.293  35.965  28.483  1.00  0.00    -0.206 F 
ATOM     94  C   UNL A   1      44.142  37.967  31.342  1.00  0.00     0.022 A 
BRANCH  91  95
ATOM     95  S   UNL A   1      43.937  37.593  34.000  1.00  0.00     0.124 S 
ATOM     96  O   UNL A   1      44.996  38.679  34.201  1.00  0.00    -0.237 OA
ATOM     97  O   UNL A   1      42.556  38.155  34.346  1.00  0.00    -0.237 OA
ATOM     98  O   UNL A   1      44.283  36.263  35.018  1.00  0.00    -0.744 OA
ENDBRANCH  91  95
ENDBRANCH  65  88
ENDBRANCH  39  40
ENDBRANCH  31  34
ENDBRANCH  29  30
ENDBRANCH   1  29
TORSDOF 16
ENDMDL
