MODEL 1
REMARK VINA RESULT:     -10.6      0.000      0.000
REMARK SMILES CCC[NH+](CCC)[C@@H]1[C@@H]2CC[C@@H](C2)[C@@H]1C(=O)NCCCCNC(=O)c1ccc(-c2c3nc(c(-c4cc(S(=O)(=O)[O-])ccc4F)c4ccc([nH]4)c(-c4cc(S(=O)(=O)[O-])ccc4F)c4nc(c(-c5cc(S(=O)(=O)[O-])ccc5F)c5ccc2[nH]5)C=C4)C=C3)cc1
REMARK SMILES IDX 19 1 18 2 17 3 15 4 16 5 14 7 8 8 9 9 10 10 13 11 12 12
REMARK SMILES IDX 11 13 4 14 3 16 2 17 1 18 5 19 6 20 7 21 20 22 21 23 22 24
REMARK SMILES IDX 23 25 24 27 25 28 26 29 87 30 27 31 86 32 28 33 29 34 30 35
REMARK SMILES IDX 80 36 31 37 85 38 79 39 81 40 32 41 84 42 78 43 77 44 33 46
REMARK SMILES IDX 65 47 45 48 64 49 46 50 49 51 63 52 82 53 47 54 48 55 62 57
REMARK SMILES IDX 83 58 50 59 34 60 35 61 43 62 36 63 42 64 44 65 41 66 37 67
REMARK SMILES IDX 38 68 39 69 40 70 66 71 67 72 75 73 68 74 74 75 76 76 73 77
REMARK SMILES IDX 69 78 70 79 71 80 72 81 51 82 52 83 60 84 53 85 59 86 61 87
REMARK SMILES IDX 58 88 54 89 55 90 56 91 57 92
REMARK H PARENT 17 6 4 15 22 26 81 45 49 56
REMARK Flexibility Score: inf
ROOT
ATOM      1  C   UNL A   1      31.946  30.039  26.821  1.00  0.00     0.023 C 
ENDROOT
BRANCH   1   2
ATOM      2  C   UNL A   1      32.476  29.403  25.536  1.00  0.00     0.116 C 
BRANCH   2   3
ATOM      3  N   UNL A   1      33.393  28.290  25.744  1.00  0.00    -0.356 N 
ATOM      4  C   UNL A   1      33.403  27.014  25.243  1.00  0.00     0.229 C 
ATOM      5  O   UNL A   1      34.365  26.301  25.523  1.00  0.00    -0.275 OA
ATOM      6  H   UNL A   1      34.140  28.491  26.352  1.00  0.00     0.163 HD
BRANCH   4   7
ATOM      7  C   UNL A   1      32.281  26.568  24.323  1.00  0.00     0.140 C 
ATOM      8  C   UNL A   1      31.834  25.067  24.149  1.00  0.00     0.200 C 
ATOM      9  C   UNL A   1      31.538  25.059  22.598  1.00  0.00     0.049 C 
ATOM     10  C   UNL A   1      32.839  24.982  21.784  1.00  0.00     0.010 C 
ATOM     11  C   UNL A   1      31.137  26.505  22.282  1.00  0.00     0.014 C 
ATOM     12  C   UNL A   1      32.426  27.081  22.869  1.00  0.00     0.008 C 
ATOM     13  C   UNL A   1      33.506  26.322  22.080  1.00  0.00     0.005 C 
BRANCH   8  14
ATOM     14  N   UNL A   1      32.652  23.889  24.587  1.00  0.00    -0.332 N 
ATOM     15  H   UNL A   1      33.624  24.148  24.418  1.00  0.00     0.348 HD
BRANCH  14  16
ATOM     16  C   UNL A   1      32.281  22.662  23.822  1.00  0.00     0.262 C 
BRANCH  16  17
ATOM     17  C   UNL A   1      33.245  21.482  23.975  1.00  0.00     0.058 C 
ATOM     18  C   UNL A   1      32.548  20.134  24.099  1.00  0.00     0.010 C 
ENDBRANCH  16  17
ENDBRANCH  14  16
BRANCH  14  19
ATOM     19  C   UNL A   1      32.445  23.575  26.014  1.00  0.00     0.262 C 
BRANCH  19  20
ATOM     20  C   UNL A   1      33.684  23.289  26.876  1.00  0.00     0.058 C 
ATOM     21  C   UNL A   1      33.651  21.917  27.529  1.00  0.00     0.010 C 
ENDBRANCH  19  20
ENDBRANCH  14  19
ENDBRANCH   8  14
ENDBRANCH   4   7
ENDBRANCH   2   3
ENDBRANCH   1   2
BRANCH   1  22
ATOM     22  C   UNL A   1      31.814  31.562  26.777  1.00  0.00     0.023 C 
BRANCH  22  23
ATOM     23  C   UNL A   1      33.051  32.254  27.319  1.00  0.00     0.116 C 
BRANCH  23  24
ATOM     24  N   UNL A   1      32.789  33.672  27.546  1.00  0.00    -0.352 N 
ATOM     25  C   UNL A   1      33.229  34.476  28.571  1.00  0.00     0.251 C 
ATOM     26  H   UNL A   1      32.222  34.113  26.873  1.00  0.00     0.163 HD
ATOM     27  O   UNL A   1      32.681  35.546  28.793  1.00  0.00    -0.269 OA
BRANCH  25  28
ATOM     28  C   UNL A   1      34.363  34.010  29.393  1.00  0.00     0.039 A 
ATOM     29  C   UNL A   1      34.136  33.173  30.485  1.00  0.00     0.014 A 
ATOM     30  C   UNL A   1      35.660  34.386  29.041  1.00  0.00     0.014 A 
ATOM     31  C   UNL A   1      35.226  32.659  31.189  1.00  0.00     0.010 A 
ATOM     32  C   UNL A   1      36.738  33.780  29.658  1.00  0.00     0.010 A 
ATOM     33  C   UNL A   1      36.534  32.930  30.755  1.00  0.00    -0.014 A 
BRANCH  33  34
ATOM     34  C   UNL A   1      37.732  32.394  31.446  1.00  0.00     0.031 A 
ATOM     35  C   UNL A   1      38.496  31.270  30.797  1.00  0.00     0.074 A 
ATOM     36  C   UNL A   1      38.053  32.830  32.678  1.00  0.00     0.049 A 
ATOM     37  N   UNL A   1      39.434  30.509  31.295  1.00  0.00    -0.248 NA
ATOM     38  C   UNL A   1      38.106  30.921  29.421  1.00  0.00     0.031 C 
ATOM     39  C   UNL A   1      37.356  33.889  33.412  1.00  0.00     0.029 A 
ATOM     40  N   UNL A   1      39.035  32.421  33.543  1.00  0.00    -0.354 N 
ATOM     41  C   UNL A   1      39.718  29.571  30.307  1.00  0.00     0.074 A 
ATOM     42  C   UNL A   1      38.799  29.811  29.218  1.00  0.00     0.031 C 
ATOM     43  C   UNL A   1      37.950  34.062  34.604  1.00  0.00     0.029 A 
ATOM     44  C   UNL A   1      39.024  33.087  34.748  1.00  0.00     0.049 A 
ATOM     45  H   UNL A   1      39.687  31.716  33.323  1.00  0.00     0.167 HD
ATOM     46  C   UNL A   1      40.678  28.616  30.302  1.00  0.00     0.034 A 
ATOM     47  C   UNL A   1      39.782  32.910  35.848  1.00  0.00     0.034 A 
ATOM     48  C   UNL A   1      41.600  28.423  31.392  1.00  0.00     0.049 A 
ATOM     49  C   UNL A   1      40.835  31.829  35.828  1.00  0.00     0.074 A 
ATOM     50  C   UNL A   1      42.653  27.531  31.483  1.00  0.00     0.029 A 
ATOM     51  N   UNL A   1      41.576  29.137  32.585  1.00  0.00    -0.354 N 
ATOM     52  N   UNL A   1      41.119  30.970  34.874  1.00  0.00    -0.248 NA
ATOM     53  C   UNL A   1      41.677  31.699  37.024  1.00  0.00     0.031 C 
ATOM     54  C   UNL A   1      43.217  27.653  32.757  1.00  0.00     0.029 A 
ATOM     55  C   UNL A   1      42.579  28.686  33.426  1.00  0.00     0.049 A 
ATOM     56  H   UNL A   1      40.940  29.856  32.800  1.00  0.00     0.167 HD
ATOM     57  C   UNL A   1      42.201  30.229  35.340  1.00  0.00     0.074 A 
ATOM     58  C   UNL A   1      42.518  30.743  36.658  1.00  0.00     0.031 C 
ATOM     59  C   UNL A   1      42.881  29.225  34.732  1.00  0.00     0.034 A 
BRANCH  46  60
ATOM     60  C   UNL A   1      40.758  27.710  29.096  1.00  0.00     0.023 A 
ATOM     61  C   UNL A   1      41.712  27.910  28.081  1.00  0.00     0.031 A 
ATOM     62  C   UNL A   1      39.845  26.654  28.936  1.00  0.00     0.131 A 
ATOM     63  C   UNL A   1      41.675  27.128  26.918  1.00  0.00     0.055 A 
ATOM     64  C   UNL A   1      39.874  25.816  27.819  1.00  0.00     0.041 A 
ATOM     65  F   UNL A   1      38.894  26.426  29.855  1.00  0.00    -0.206 F 
ATOM     66  C   UNL A   1      40.782  26.062  26.792  1.00  0.00     0.022 A 
BRANCH  63  67
ATOM     67  S   UNL A   1      42.699  27.628  25.508  1.00  0.00     0.124 S 
ATOM     68  O   UNL A   1      42.642  26.435  24.665  1.00  0.00    -0.237 OA
ATOM     69  O   UNL A   1      41.994  28.800  25.003  1.00  0.00    -0.237 OA
ATOM     70  O   UNL A   1      44.004  27.894  26.109  1.00  0.00    -0.744 OA
ENDBRANCH  63  67
ENDBRANCH  46  60
BRANCH  47  71
ATOM     71  C   UNL A   1      39.576  33.763  37.055  1.00  0.00     0.023 A 
ATOM     72  C   UNL A   1      38.941  33.252  38.197  1.00  0.00     0.031 A 
ATOM     73  C   UNL A   1      39.980  35.110  37.074  1.00  0.00     0.131 A 
ATOM     74  C   UNL A   1      38.679  34.093  39.290  1.00  0.00     0.055 A 
ATOM     75  C   UNL A   1      39.772  35.927  38.187  1.00  0.00     0.041 A 
ATOM     76  F   UNL A   1      40.597  35.650  36.011  1.00  0.00    -0.206 F 
ATOM     77  C   UNL A   1      39.106  35.423  39.299  1.00  0.00     0.022 A 
BRANCH  74  78
ATOM     78  S   UNL A   1      37.684  33.448  40.661  1.00  0.00     0.124 S 
ATOM     79  O   UNL A   1      38.456  32.277  41.061  1.00  0.00    -0.237 OA
ATOM     80  O   UNL A   1      37.689  34.571  41.593  1.00  0.00    -0.237 OA
ATOM     81  O   UNL A   1      36.393  33.161  40.039  1.00  0.00    -0.744 OA
ENDBRANCH  74  78
ENDBRANCH  47  71
BRANCH  59  82
ATOM     82  C   UNL A   1      44.085  28.669  35.448  1.00  0.00     0.023 A 
ATOM     83  C   UNL A   1      43.983  27.645  36.405  1.00  0.00     0.031 A 
ATOM     84  C   UNL A   1      45.367  29.158  35.133  1.00  0.00     0.131 A 
ATOM     85  C   UNL A   1      45.138  27.170  37.041  1.00  0.00     0.055 A 
ATOM     86  C   UNL A   1      46.518  28.637  35.723  1.00  0.00     0.041 A 
ATOM     87  F   UNL A   1      45.521  30.138  34.229  1.00  0.00    -0.206 F 
ATOM     88  C   UNL A   1      46.406  27.643  36.690  1.00  0.00     0.022 A 
BRANCH  85  89
ATOM     89  S   UNL A   1      44.960  25.970  38.388  1.00  0.00     0.124 S 
ATOM     90  O   UNL A   1      44.237  24.884  37.734  1.00  0.00    -0.237 OA
ATOM     91  O   UNL A   1      46.347  25.688  38.743  1.00  0.00    -0.237 OA
ATOM     92  O   UNL A   1      44.199  26.701  39.400  1.00  0.00    -0.744 OA
ENDBRANCH  85  89
ENDBRANCH  59  82
ENDBRANCH  33  34
ENDBRANCH  25  28
ENDBRANCH  23  24
ENDBRANCH  22  23
ENDBRANCH   1  22
TORSDOF 19
ENDMDL
MODEL 2
REMARK VINA RESULT:     -10.6      3.637      8.924
REMARK SMILES CCC[NH+](CCC)[C@@H]1[C@@H]2CC[C@@H](C2)[C@@H]1C(=O)NCCCCNC(=O)c1ccc(-c2c3nc(c(-c4cc(S(=O)(=O)[O-])ccc4F)c4ccc([nH]4)c(-c4cc(S(=O)(=O)[O-])ccc4F)c4nc(c(-c5cc(S(=O)(=O)[O-])ccc5F)c5ccc2[nH]5)C=C4)C=C3)cc1
REMARK SMILES IDX 19 1 18 2 17 3 15 4 16 5 14 7 8 8 9 9 10 10 13 11 12 12
REMARK SMILES IDX 11 13 4 14 3 16 2 17 1 18 5 19 6 20 7 21 20 22 21 23 22 24
REMARK SMILES IDX 23 25 24 27 25 28 26 29 87 30 27 31 86 32 28 33 29 34 30 35
REMARK SMILES IDX 80 36 31 37 85 38 79 39 81 40 32 41 84 42 78 43 77 44 33 46
REMARK SMILES IDX 65 47 45 48 64 49 46 50 49 51 63 52 82 53 47 54 48 55 62 57
REMARK SMILES IDX 83 58 50 59 34 60 35 61 43 62 36 63 42 64 44 65 41 66 37 67
REMARK SMILES IDX 38 68 39 69 40 70 66 71 67 72 75 73 68 74 74 75 76 76 73 77
REMARK SMILES IDX 69 78 70 79 71 80 72 81 51 82 52 83 60 84 53 85 59 86 61 87
REMARK SMILES IDX 58 88 54 89 55 90 56 91 57 92
REMARK H PARENT 17 6 4 15 22 26 81 45 49 56
REMARK Flexibility Score: inf
ROOT
ATOM      1  C   UNL A   1      31.537  28.222  27.023  1.00  0.00     0.023 C 
ENDROOT
BRANCH   1   2
ATOM      2  C   UNL A   1      31.004  27.031  26.227  1.00  0.00     0.116 C 
BRANCH   2   3
ATOM      3  N   UNL A   1      31.184  25.739  26.875  1.00  0.00    -0.356 N 
ATOM      4  C   UNL A   1      31.703  24.556  26.417  1.00  0.00     0.229 C 
ATOM      5  O   UNL A   1      31.817  23.634  27.223  1.00  0.00    -0.275 OA
ATOM      6  H   UNL A   1      30.878  25.710  27.810  1.00  0.00     0.163 HD
BRANCH   4   7
ATOM      7  C   UNL A   1      32.174  24.460  24.976  1.00  0.00     0.140 C 
ATOM      8  C   UNL A   1      32.836  23.172  24.354  1.00  0.00     0.200 C 
ATOM      9  C   UNL A   1      33.930  23.854  23.441  1.00  0.00     0.049 C 
ATOM     10  C   UNL A   1      35.133  24.323  24.274  1.00  0.00     0.010 C 
ATOM     11  C   UNL A   1      33.330  25.220  23.088  1.00  0.00     0.014 C 
ATOM     12  C   UNL A   1      33.126  25.606  24.553  1.00  0.00     0.008 C 
ATOM     13  C   UNL A   1      34.542  25.439  25.129  1.00  0.00     0.005 C 
BRANCH   8  14
ATOM     14  N   UNL A   1      33.384  22.034  25.161  1.00  0.00    -0.332 N 
ATOM     15  H   UNL A   1      33.608  22.426  26.077  1.00  0.00     0.348 HD
BRANCH  14  16
ATOM     16  C   UNL A   1      34.596  21.450  24.515  1.00  0.00     0.262 C 
BRANCH  16  17
ATOM     17  C   UNL A   1      35.687  20.977  25.480  1.00  0.00     0.058 C 
ATOM     18  C   UNL A   1      36.551  19.854  24.925  1.00  0.00     0.010 C 
ENDBRANCH  16  17
ENDBRANCH  14  16
BRANCH  14  19
ATOM     19  C   UNL A   1      32.409  20.936  25.298  1.00  0.00     0.262 C 
BRANCH  19  20
ATOM     20  C   UNL A   1      32.455  19.798  24.268  1.00  0.00     0.058 C 
ATOM     21  C   UNL A   1      32.667  18.431  24.898  1.00  0.00     0.010 C 
ENDBRANCH  19  20
ENDBRANCH  14  19
ENDBRANCH   8  14
ENDBRANCH   4   7
ENDBRANCH   2   3
ENDBRANCH   1   2
BRANCH   1  22
ATOM     22  C   UNL A   1      33.047  28.206  27.269  1.00  0.00     0.023 C 
BRANCH  22  23
ATOM     23  C   UNL A   1      33.793  29.076  26.275  1.00  0.00     0.116 C 
BRANCH  23  24
ATOM     24  N   UNL A   1      33.806  30.467  26.718  1.00  0.00    -0.352 N 
ATOM     25  C   UNL A   1      34.606  31.062  27.664  1.00  0.00     0.251 C 
ATOM     26  H   UNL A   1      33.154  31.059  26.280  1.00  0.00     0.163 HD
ATOM     27  O   UNL A   1      34.295  32.142  28.144  1.00  0.00    -0.269 OA
BRANCH  25  28
ATOM     28  C   UNL A   1      35.834  30.361  28.088  1.00  0.00     0.039 A 
ATOM     29  C   UNL A   1      37.004  30.487  27.337  1.00  0.00     0.014 A 
ATOM     30  C   UNL A   1      35.819  29.608  29.263  1.00  0.00     0.014 A 
ATOM     31  C   UNL A   1      38.181  29.902  27.807  1.00  0.00     0.010 A 
ATOM     32  C   UNL A   1      37.008  29.137  29.787  1.00  0.00     0.010 A 
ATOM     33  C   UNL A   1      38.197  29.257  29.054  1.00  0.00    -0.014 A 
BRANCH  33  34
ATOM     34  C   UNL A   1      39.421  28.638  29.617  1.00  0.00     0.031 A 
ATOM     35  C   UNL A   1      40.052  29.263  30.833  1.00  0.00     0.074 A 
ATOM     36  C   UNL A   1      40.013  27.610  28.980  1.00  0.00     0.049 A 
ATOM     37  N   UNL A   1      41.220  29.034  31.372  1.00  0.00    -0.248 NA
ATOM     38  C   UNL A   1      39.286  30.335  31.492  1.00  0.00     0.031 C 
ATOM     39  C   UNL A   1      39.505  26.953  27.774  1.00  0.00     0.029 A 
ATOM     40  N   UNL A   1      41.185  26.950  29.246  1.00  0.00    -0.354 N 
ATOM     41  C   UNL A   1      41.340  29.956  32.408  1.00  0.00     0.074 A 
ATOM     42  C   UNL A   1      40.164  30.795  32.368  1.00  0.00     0.031 C 
ATOM     43  C   UNL A   1      40.347  25.969  27.421  1.00  0.00     0.029 A 
ATOM     44  C   UNL A   1      41.485  25.965  28.332  1.00  0.00     0.049 A 
ATOM     45  H   UNL A   1      41.760  27.161  30.018  1.00  0.00     0.167 HD
ATOM     46  C   UNL A   1      42.330  30.069  33.326  1.00  0.00     0.034 A 
ATOM     47  C   UNL A   1      42.569  25.170  28.233  1.00  0.00     0.034 A 
ATOM     48  C   UNL A   1      43.474  29.195  33.358  1.00  0.00     0.049 A 
ATOM     49  C   UNL A   1      43.669  25.324  29.255  1.00  0.00     0.074 A 
ATOM     50  C   UNL A   1      44.514  29.170  34.269  1.00  0.00     0.029 A 
ATOM     51  N   UNL A   1      43.730  28.190  32.431  1.00  0.00    -0.354 N 
ATOM     52  N   UNL A   1      43.756  26.175  30.252  1.00  0.00    -0.248 NA
ATOM     53  C   UNL A   1      44.809  24.405  29.147  1.00  0.00     0.031 C 
ATOM     54  C   UNL A   1      45.433  28.202  33.853  1.00  0.00     0.029 A 
ATOM     55  C   UNL A   1      44.922  27.557  32.737  1.00  0.00     0.049 A 
ATOM     56  H   UNL A   1      43.148  27.962  31.672  1.00  0.00     0.167 HD
ATOM     57  C   UNL A   1      44.939  25.863  30.915  1.00  0.00     0.074 A 
ATOM     58  C   UNL A   1      45.530  24.747  30.205  1.00  0.00     0.031 C 
ATOM     59  C   UNL A   1      45.484  26.437  32.018  1.00  0.00     0.034 A 
BRANCH  46  60
ATOM     60  C   UNL A   1      42.219  31.181  34.342  1.00  0.00     0.023 A 
ATOM     61  C   UNL A   1      41.221  31.182  35.333  1.00  0.00     0.031 A 
ATOM     62  C   UNL A   1      43.098  32.277  34.298  1.00  0.00     0.131 A 
ATOM     63  C   UNL A   1      41.071  32.290  36.179  1.00  0.00     0.055 A 
ATOM     64  C   UNL A   1      43.004  33.335  35.206  1.00  0.00     0.041 A 
ATOM     65  F   UNL A   1      44.055  32.350  33.360  1.00  0.00    -0.206 F 
ATOM     66  C   UNL A   1      41.974  33.354  36.142  1.00  0.00     0.022 A 
BRANCH  63  67
ATOM     67  S   UNL A   1      39.584  32.394  37.211  1.00  0.00     0.124 S 
ATOM     68  O   UNL A   1      38.960  33.616  36.707  1.00  0.00    -0.237 OA
ATOM     69  O   UNL A   1      38.893  31.149  36.899  1.00  0.00    -0.237 OA
ATOM     70  O   UNL A   1      40.115  32.490  38.569  1.00  0.00    -0.744 OA
ENDBRANCH  63  67
ENDBRANCH  46  60
BRANCH  47  71
ATOM     71  C   UNL A   1      42.673  24.166  27.134  1.00  0.00     0.023 A 
ATOM     72  C   UNL A   1      42.038  22.918  27.238  1.00  0.00     0.031 A 
ATOM     73  C   UNL A   1      43.434  24.422  25.980  1.00  0.00     0.131 A 
ATOM     74  C   UNL A   1      42.218  21.954  26.234  1.00  0.00     0.055 A 
ATOM     75  C   UNL A   1      43.560  23.483  24.954  1.00  0.00     0.041 A 
ATOM     76  F   UNL A   1      44.058  25.601  25.825  1.00  0.00    -0.206 F 
ATOM     77  C   UNL A   1      42.961  22.234  25.085  1.00  0.00     0.022 A 
BRANCH  74  78
ATOM     78  S   UNL A   1      41.546  20.291  26.499  1.00  0.00     0.124 S 
ATOM     79  O   UNL A   1      40.111  20.541  26.452  1.00  0.00    -0.237 OA
ATOM     80  O   UNL A   1      42.108  19.555  25.371  1.00  0.00    -0.237 OA
ATOM     81  O   UNL A   1      42.073  19.917  27.810  1.00  0.00    -0.744 OA
ENDBRANCH  74  78
ENDBRANCH  47  71
BRANCH  59  82
ATOM     82  C   UNL A   1      46.740  25.817  32.574  1.00  0.00     0.023 A 
ATOM     83  C   UNL A   1      48.018  26.158  32.100  1.00  0.00     0.031 A 
ATOM     84  C   UNL A   1      46.649  24.889  33.629  1.00  0.00     0.131 A 
ATOM     85  C   UNL A   1      49.151  25.546  32.654  1.00  0.00     0.055 A 
ATOM     86  C   UNL A   1      47.782  24.332  34.218  1.00  0.00     0.041 A 
ATOM     87  F   UNL A   1      45.451  24.526  34.116  1.00  0.00    -0.206 F 
ATOM     88  C   UNL A   1      49.043  24.653  33.724  1.00  0.00     0.022 A 
BRANCH  85  89
ATOM     89  S   UNL A   1      50.772  25.877  31.911  1.00  0.00     0.124 S 
ATOM     90  O   UNL A   1      51.420  26.677  32.945  1.00  0.00    -0.237 OA
ATOM     91  O   UNL A   1      51.307  24.534  31.715  1.00  0.00    -0.237 OA
ATOM     92  O   UNL A   1      50.445  26.599  30.683  1.00  0.00    -0.744 OA
ENDBRANCH  85  89
ENDBRANCH  59  82
ENDBRANCH  33  34
ENDBRANCH  25  28
ENDBRANCH  23  24
ENDBRANCH  22  23
ENDBRANCH   1  22
TORSDOF 19
ENDMDL
MODEL 3
REMARK VINA RESULT:     -10.5      2.230      3.096
REMARK SMILES CCC[NH+](CCC)[C@@H]1[C@@H]2CC[C@@H](C2)[C@@H]1C(=O)NCCCCNC(=O)c1ccc(-c2c3nc(c(-c4cc(S(=O)(=O)[O-])ccc4F)c4ccc([nH]4)c(-c4cc(S(=O)(=O)[O-])ccc4F)c4nc(c(-c5cc(S(=O)(=O)[O-])ccc5F)c5ccc2[nH]5)C=C4)C=C3)cc1
REMARK SMILES IDX 19 1 18 2 17 3 15 4 16 5 14 7 8 8 9 9 10 10 13 11 12 12
REMARK SMILES IDX 11 13 4 14 3 16 2 17 1 18 5 19 6 20 7 21 20 22 21 23 22 24
REMARK SMILES IDX 23 25 24 27 25 28 26 29 87 30 27 31 86 32 28 33 29 34 30 35
REMARK SMILES IDX 80 36 31 37 85 38 79 39 81 40 32 41 84 42 78 43 77 44 33 46
REMARK SMILES IDX 65 47 45 48 64 49 46 50 49 51 63 52 82 53 47 54 48 55 62 57
REMARK SMILES IDX 83 58 50 59 34 60 35 61 43 62 36 63 42 64 44 65 41 66 37 67
REMARK SMILES IDX 38 68 39 69 40 70 66 71 67 72 75 73 68 74 74 75 76 76 73 77
REMARK SMILES IDX 69 78 70 79 71 80 72 81 51 82 52 83 60 84 53 85 59 86 61 87
REMARK SMILES IDX 58 88 54 89 55 90 56 91 57 92
REMARK H PARENT 17 6 4 15 22 26 81 45 49 56
REMARK Flexibility Score: inf
ROOT
ATOM      1  C   UNL A   1      32.248  28.678  23.616  1.00  0.00     0.023 C 
ENDROOT
BRANCH   1   2
ATOM      2  C   UNL A   1      32.200  28.127  22.191  1.00  0.00     0.116 C 
BRANCH   2   3
ATOM      3  N   UNL A   1      32.975  26.911  21.985  1.00  0.00    -0.356 N 
ATOM      4  C   UNL A   1      33.070  25.757  22.719  1.00  0.00     0.229 C 
ATOM      5  O   UNL A   1      33.746  24.841  22.254  1.00  0.00    -0.275 OA
ATOM      6  H   UNL A   1      33.531  26.919  21.172  1.00  0.00     0.163 HD
BRANCH   4   7
ATOM      7  C   UNL A   1      32.292  25.637  24.017  1.00  0.00     0.140 C 
ATOM      8  C   UNL A   1      32.797  24.824  25.269  1.00  0.00     0.200 C 
ATOM      9  C   UNL A   1      31.427  24.202  25.749  1.00  0.00     0.049 C 
ATOM     10  C   UNL A   1      31.025  23.004  24.874  1.00  0.00     0.010 C 
ATOM     11  C   UNL A   1      30.370  25.211  25.283  1.00  0.00     0.014 C 
ATOM     12  C   UNL A   1      30.833  25.154  23.827  1.00  0.00     0.008 C 
ATOM     13  C   UNL A   1      30.744  23.649  23.521  1.00  0.00     0.005 C 
BRANCH   8  14
ATOM     14  N   UNL A   1      33.906  23.815  25.228  1.00  0.00    -0.332 N 
ATOM     15  H   UNL A   1      33.736  23.250  24.395  1.00  0.00     0.348 HD
BRANCH  14  16
ATOM     16  C   UNL A   1      33.913  22.971  26.459  1.00  0.00     0.262 C 
BRANCH  16  17
ATOM     17  C   UNL A   1      34.266  21.498  26.238  1.00  0.00     0.058 C 
ATOM     18  C   UNL A   1      33.729  20.928  24.933  1.00  0.00     0.010 C 
ENDBRANCH  16  17
ENDBRANCH  14  16
BRANCH  14  19
ATOM     19  C   UNL A   1      35.231  24.458  25.148  1.00  0.00     0.262 C 
BRANCH  19  20
ATOM     20  C   UNL A   1      36.457  23.558  24.931  1.00  0.00     0.058 C 
ATOM     21  C   UNL A   1      36.580  23.051  23.503  1.00  0.00     0.010 C 
ENDBRANCH  19  20
ENDBRANCH  14  19
ENDBRANCH   8  14
ENDBRANCH   4   7
ENDBRANCH   2   3
ENDBRANCH   1   2
BRANCH   1  22
ATOM     22  C   UNL A   1      33.655  28.864  24.187  1.00  0.00     0.023 C 
BRANCH  22  23
ATOM     23  C   UNL A   1      33.635  29.054  25.692  1.00  0.00     0.116 C 
BRANCH  23  24
ATOM     24  N   UNL A   1      33.117  30.375  26.037  1.00  0.00    -0.352 N 
ATOM     25  C   UNL A   1      33.503  31.212  27.057  1.00  0.00     0.251 C 
ATOM     26  H   UNL A   1      32.395  30.712  25.460  1.00  0.00     0.163 HD
ATOM     27  O   UNL A   1      32.778  32.132  27.406  1.00  0.00    -0.269 OA
BRANCH  25  28
ATOM     28  C   UNL A   1      34.799  30.963  27.718  1.00  0.00     0.039 A 
ATOM     29  C   UNL A   1      35.740  31.989  27.817  1.00  0.00     0.014 A 
ATOM     30  C   UNL A   1      35.052  29.707  28.273  1.00  0.00     0.014 A 
ATOM     31  C   UNL A   1      36.916  31.767  28.535  1.00  0.00     0.010 A 
ATOM     32  C   UNL A   1      36.156  29.530  29.085  1.00  0.00     0.010 A 
ATOM     33  C   UNL A   1      37.113  30.548  29.204  1.00  0.00    -0.014 A 
BRANCH  33  34
ATOM     34  C   UNL A   1      38.330  30.262  30.002  1.00  0.00     0.031 A 
ATOM     35  C   UNL A   1      39.347  29.300  29.448  1.00  0.00     0.074 A 
ATOM     36  C   UNL A   1      38.457  30.766  31.244  1.00  0.00     0.049 A 
ATOM     37  N   UNL A   1      40.368  28.740  30.040  1.00  0.00    -0.248 NA
ATOM     38  C   UNL A   1      39.148  28.866  28.055  1.00  0.00     0.031 C 
ATOM     39  C   UNL A   1      37.511  31.678  31.891  1.00  0.00     0.029 A 
ATOM     40  N   UNL A   1      39.424  30.564  32.195  1.00  0.00    -0.354 N 
ATOM     41  C   UNL A   1      40.908  27.864  29.103  1.00  0.00     0.074 A 
ATOM     42  C   UNL A   1      40.055  27.910  27.938  1.00  0.00     0.031 C 
ATOM     43  C   UNL A   1      37.959  31.977  33.121  1.00  0.00     0.029 A 
ATOM     44  C   UNL A   1      39.185  31.229  33.377  1.00  0.00     0.049 A 
ATOM     45  H   UNL A   1      40.215  29.997  32.048  1.00  0.00     0.167 HD
ATOM     46  C   UNL A   1      42.031  27.113  29.201  1.00  0.00     0.034 A 
ATOM     47  C   UNL A   1      39.868  31.214  34.538  1.00  0.00     0.034 A 
ATOM     48  C   UNL A   1      42.879  27.114  30.365  1.00  0.00     0.049 A 
ATOM     49  C   UNL A   1      41.107  30.358  34.632  1.00  0.00     0.074 A 
ATOM     50  C   UNL A   1      44.072  26.444  30.564  1.00  0.00     0.029 A 
ATOM     51  N   UNL A   1      42.618  27.823  31.533  1.00  0.00    -0.354 N 
ATOM     52  N   UNL A   1      41.629  29.559  33.728  1.00  0.00    -0.248 NA
ATOM     53  C   UNL A   1      41.855  30.407  35.895  1.00  0.00     0.031 C 
ATOM     54  C   UNL A   1      44.494  26.687  31.875  1.00  0.00     0.029 A 
ATOM     55  C   UNL A   1      43.616  27.585  32.463  1.00  0.00     0.049 A 
ATOM     56  H   UNL A   1      41.841  28.408  31.677  1.00  0.00     0.167 HD
ATOM     57  C   UNL A   1      42.790  29.047  34.298  1.00  0.00     0.074 A 
ATOM     58  C   UNL A   1      42.891  29.627  35.623  1.00  0.00     0.031 C 
ATOM     59  C   UNL A   1      43.699  28.186  33.774  1.00  0.00     0.034 A 
BRANCH  46  60
ATOM     60  C   UNL A   1      42.384  26.226  28.029  1.00  0.00     0.023 A 
ATOM     61  C   UNL A   1      41.824  24.945  27.876  1.00  0.00     0.031 A 
ATOM     62  C   UNL A   1      43.323  26.649  27.072  1.00  0.00     0.131 A 
ATOM     63  C   UNL A   1      42.270  24.103  26.847  1.00  0.00     0.055 A 
ATOM     64  C   UNL A   1      43.691  25.842  25.994  1.00  0.00     0.041 A 
ATOM     65  F   UNL A   1      43.913  27.850  27.176  1.00  0.00    -0.206 F 
ATOM     66  C   UNL A   1      43.177  24.552  25.887  1.00  0.00     0.022 A 
BRANCH  63  67
ATOM     67  S   UNL A   1      41.769  22.360  26.880  1.00  0.00     0.124 S 
ATOM     68  O   UNL A   1      42.585  21.840  27.976  1.00  0.00    -0.237 OA
ATOM     69  O   UNL A   1      40.337  22.446  27.136  1.00  0.00    -0.237 OA
ATOM     70  O   UNL A   1      42.139  21.872  25.553  1.00  0.00    -0.744 OA
ENDBRANCH  63  67
ENDBRANCH  46  60
BRANCH  47  71
ATOM     71  C   UNL A   1      39.403  32.025  35.701  1.00  0.00     0.023 A 
ATOM     72  C   UNL A   1      38.653  31.439  36.732  1.00  0.00     0.031 A 
ATOM     73  C   UNL A   1      39.670  33.403  35.784  1.00  0.00     0.131 A 
ATOM     74  C   UNL A   1      38.150  32.235  37.774  1.00  0.00     0.055 A 
ATOM     75  C   UNL A   1      39.220  34.180  36.854  1.00  0.00     0.041 A 
ATOM     76  F   UNL A   1      40.387  34.016  34.829  1.00  0.00    -0.206 F 
ATOM     77  C   UNL A   1      38.443  33.598  37.851  1.00  0.00     0.022 A 
BRANCH  74  78
ATOM     78  S   UNL A   1      37.023  31.478  38.977  1.00  0.00     0.124 S 
ATOM     79  O   UNL A   1      35.866  32.360  38.892  1.00  0.00    -0.237 OA
ATOM     80  O   UNL A   1      36.851  30.137  38.428  1.00  0.00    -0.237 OA
ATOM     81  O   UNL A   1      37.770  31.545  40.231  1.00  0.00    -0.744 OA
ENDBRANCH  74  78
ENDBRANCH  47  71
BRANCH  59  82
ATOM     82  C   UNL A   1      44.923  27.882  34.599  1.00  0.00     0.023 A 
ATOM     83  C   UNL A   1      44.979  26.794  35.485  1.00  0.00     0.031 A 
ATOM     84  C   UNL A   1      46.070  28.687  34.461  1.00  0.00     0.131 A 
ATOM     85  C   UNL A   1      46.145  26.562  36.228  1.00  0.00     0.055 A 
ATOM     86  C   UNL A   1      47.247  28.413  35.156  1.00  0.00     0.041 A 
ATOM     87  F   UNL A   1      46.069  29.742  33.631  1.00  0.00    -0.206 F 
ATOM     88  C   UNL A   1      47.286  27.350  36.053  1.00  0.00     0.022 A 
BRANCH  85  89
ATOM     89  S   UNL A   1      46.132  25.254  37.485  1.00  0.00     0.124 S 
ATOM     90  O   UNL A   1      44.762  24.760  37.392  1.00  0.00    -0.237 OA
ATOM     91  O   UNL A   1      47.171  24.349  37.006  1.00  0.00    -0.237 OA
ATOM     92  O   UNL A   1      46.452  25.965  38.722  1.00  0.00    -0.744 OA
ENDBRANCH  85  89
ENDBRANCH  59  82
ENDBRANCH  33  34
ENDBRANCH  25  28
ENDBRANCH  23  24
ENDBRANCH  22  23
ENDBRANCH   1  22
TORSDOF 19
ENDMDL
