MODEL 1
REMARK VINA RESULT:     -11.8      0.000      0.000
REMARK SMILES O=C(NCCCCNC(=O)[C@]1(NC(=O)c2nc(C3CC3)n[nH]2)CCSC1)c1ccc(-c2c3nc(c(-c4cc(S(=O)(=O)[O-])ccc4F)c4ccc([nH]4)c(-c4cc(S(=O)(=O)[O-])ccc4F)c4nc(c(-c5cc(S(=O)(=O)[O-])ccc5F)c5ccc2[nH]5)C=C4)C=C3)cc1
REMARK SMILES IDX 5 1 4 2 3 3 1 4 2 5 27 7 28 8 89 9 29 10 88 11 30 12 31 13
REMARK SMILES IDX 32 14 82 15 33 16 87 17 81 18 83 19 34 20 86 21 80 22 79 23
REMARK SMILES IDX 35 25 67 26 47 27 66 28 48 29 51 30 65 31 84 32 49 33 50 34
REMARK SMILES IDX 64 36 85 37 52 38 36 39 37 40 45 41 38 42 44 43 46 44 43 45
REMARK SMILES IDX 39 46 40 47 41 48 42 49 68 50 69 51 77 52 70 53 76 54 78 55
REMARK SMILES IDX 75 56 71 57 72 58 73 59 74 60 53 61 54 62 62 63 55 64 61 65
REMARK SMILES IDX 63 66 60 67 56 68 57 69 58 70 59 71 6 72 7 73 8 74 9 75
REMARK SMILES IDX 10 77 11 78 23 79 26 80 24 81 25 82 12 83 13 84 14 86 15 87
REMARK SMILES IDX 16 88 22 89 17 90 21 91 18 93 19 94 20 95
REMARK H PARENT 3 6 83 24 51 35 8 76 12 85 22 92
REMARK Flexibility Score: inf
ROOT
ATOM      1  C   UNL A   1      38.244  19.606  24.859  1.00  0.00     0.023 C 
ENDROOT
BRANCH   1   2
ATOM      2  C   UNL A   1      39.294  20.150  25.812  1.00  0.00     0.116 C 
BRANCH   2   3
ATOM      3  N   UNL A   1      40.369  19.197  26.045  1.00  0.00    -0.352 N 
ATOM      4  O   UNL A   1      42.524  18.580  26.318  1.00  0.00    -0.269 OA
ATOM      5  C   UNL A   1      41.690  19.471  26.310  1.00  0.00     0.251 C 
ATOM      6  H   UNL A   1      40.121  18.244  26.009  1.00  0.00     0.163 HD
BRANCH   5   7
ATOM      7  C   UNL A   1      42.067  20.876  26.565  1.00  0.00     0.039 A 
ATOM      8  C   UNL A   1      42.231  21.317  27.880  1.00  0.00     0.014 A 
ATOM      9  C   UNL A   1      42.204  21.757  25.491  1.00  0.00     0.014 A 
ATOM     10  C   UNL A   1      42.420  22.667  28.130  1.00  0.00     0.010 A 
ATOM     11  C   UNL A   1      42.483  23.101  25.743  1.00  0.00     0.010 A 
ATOM     12  C   UNL A   1      42.581  23.566  27.064  1.00  0.00    -0.014 A 
BRANCH  12  13
ATOM     13  C   UNL A   1      42.970  24.965  27.364  1.00  0.00     0.031 A 
ATOM     14  C   UNL A   1      42.022  25.914  28.037  1.00  0.00     0.074 A 
ATOM     15  C   UNL A   1      44.216  25.353  27.029  1.00  0.00     0.049 A 
ATOM     16  N   UNL A   1      42.206  27.171  28.351  1.00  0.00    -0.248 NA
ATOM     17  C   UNL A   1      40.693  25.395  28.394  1.00  0.00     0.031 C 
ATOM     18  C   UNL A   1      45.210  24.500  26.365  1.00  0.00     0.029 A 
ATOM     19  N   UNL A   1      44.871  26.543  27.203  1.00  0.00    -0.354 N 
ATOM     20  C   UNL A   1      41.016  27.601  28.926  1.00  0.00     0.074 A 
ATOM     21  C   UNL A   1      40.108  26.474  28.899  1.00  0.00     0.031 C 
ATOM     22  C   UNL A   1      46.357  25.179  26.233  1.00  0.00     0.029 A 
ATOM     23  C   UNL A   1      46.158  26.537  26.719  1.00  0.00     0.049 A 
ATOM     24  H   UNL A   1      44.460  27.327  27.634  1.00  0.00     0.167 HD
ATOM     25  C   UNL A   1      40.719  28.827  29.424  1.00  0.00     0.034 A 
ATOM     26  C   UNL A   1      47.068  27.526  26.639  1.00  0.00     0.034 A 
ATOM     27  C   UNL A   1      41.651  29.931  29.446  1.00  0.00     0.049 A 
ATOM     28  C   UNL A   1      46.693  28.882  27.169  1.00  0.00     0.074 A 
ATOM     29  C   UNL A   1      41.471  31.199  29.969  1.00  0.00     0.029 A 
ATOM     30  N   UNL A   1      42.935  29.903  28.911  1.00  0.00    -0.354 N 
ATOM     31  N   UNL A   1      45.570  29.264  27.733  1.00  0.00    -0.248 NA
ATOM     32  C   UNL A   1      47.704  29.938  27.054  1.00  0.00     0.031 C 
ATOM     33  C   UNL A   1      42.613  31.958  29.688  1.00  0.00     0.029 A 
ATOM     34  C   UNL A   1      43.539  31.143  29.058  1.00  0.00     0.049 A 
ATOM     35  H   UNL A   1      43.352  29.118  28.489  1.00  0.00     0.167 HD
ATOM     36  C   UNL A   1      45.748  30.604  28.054  1.00  0.00     0.074 A 
ATOM     37  C   UNL A   1      47.095  30.952  27.650  1.00  0.00     0.031 C 
ATOM     38  C   UNL A   1      44.878  31.473  28.628  1.00  0.00     0.034 A 
BRANCH  25  39
ATOM     39  C   UNL A   1      39.322  29.061  29.943  1.00  0.00     0.023 A 
ATOM     40  C   UNL A   1      38.319  29.648  29.154  1.00  0.00     0.031 A 
ATOM     41  C   UNL A   1      38.982  28.659  31.248  1.00  0.00     0.131 A 
ATOM     42  C   UNL A   1      37.038  29.854  29.690  1.00  0.00     0.055 A 
ATOM     43  C   UNL A   1      37.689  28.807  31.754  1.00  0.00     0.041 A 
ATOM     44  F   UNL A   1      39.904  28.110  32.055  1.00  0.00    -0.206 F 
ATOM     45  C   UNL A   1      36.709  29.415  30.976  1.00  0.00     0.022 A 
BRANCH  42  46
ATOM     46  S   UNL A   1      35.826  30.789  28.717  1.00  0.00     0.124 S 
ATOM     47  O   UNL A   1      35.073  29.717  28.072  1.00  0.00    -0.237 OA
ATOM     48  O   UNL A   1      35.112  31.544  29.741  1.00  0.00    -0.237 OA
ATOM     49  O   UNL A   1      36.651  31.590  27.815  1.00  0.00    -0.744 OA
ENDBRANCH  42  46
ENDBRANCH  25  39
BRANCH  26  50
ATOM     50  C   UNL A   1      48.388  27.286  25.990  1.00  0.00     0.023 A 
ATOM     51  C   UNL A   1      48.572  27.506  24.617  1.00  0.00     0.031 A 
ATOM     52  C   UNL A   1      49.477  26.787  26.729  1.00  0.00     0.131 A 
ATOM     53  C   UNL A   1      49.798  27.181  24.017  1.00  0.00     0.055 A 
ATOM     54  C   UNL A   1      50.714  26.527  26.140  1.00  0.00     0.041 A 
ATOM     55  F   UNL A   1      49.356  26.560  28.047  1.00  0.00    -0.206 F 
ATOM     56  C   UNL A   1      50.874  26.708  24.771  1.00  0.00     0.022 A 
BRANCH  53  57
ATOM     57  S   UNL A   1      49.929  27.281  22.211  1.00  0.00     0.124 S 
ATOM     58  O   UNL A   1      48.840  26.409  21.784  1.00  0.00    -0.237 OA
ATOM     59  O   UNL A   1      49.740  28.707  21.973  1.00  0.00    -0.237 OA
ATOM     60  O   UNL A   1      51.274  26.776  21.940  1.00  0.00    -0.744 OA
ENDBRANCH  53  57
ENDBRANCH  26  50
BRANCH  38  61
ATOM     61  C   UNL A   1      45.387  32.871  28.870  1.00  0.00     0.023 A 
ATOM     62  C   UNL A   1      45.233  33.885  27.908  1.00  0.00     0.031 A 
ATOM     63  C   UNL A   1      46.065  33.182  30.060  1.00  0.00     0.131 A 
ATOM     64  C   UNL A   1      45.809  35.144  28.125  1.00  0.00     0.055 A 
ATOM     65  C   UNL A   1      46.581  34.457  30.298  1.00  0.00     0.041 A 
ATOM     66  F   UNL A   1      46.243  32.250  31.010  1.00  0.00    -0.206 F 
ATOM     67  C   UNL A   1      46.468  35.441  29.321  1.00  0.00     0.022 A 
BRANCH  64  68
ATOM     68  S   UNL A   1      45.775  36.358  26.778  1.00  0.00     0.124 S 
ATOM     69  O   UNL A   1      46.203  35.556  25.636  1.00  0.00    -0.237 OA
ATOM     70  O   UNL A   1      44.378  36.780  26.772  1.00  0.00    -0.237 OA
ATOM     71  O   UNL A   1      46.728  37.378  27.212  1.00  0.00    -0.744 OA
ENDBRANCH  64  68
ENDBRANCH  38  61
ENDBRANCH  12  13
ENDBRANCH   5   7
ENDBRANCH   2   3
ENDBRANCH   1   2
BRANCH   1  72
ATOM     72  C   UNL A   1      36.836  20.142  25.123  1.00  0.00     0.023 C 
BRANCH  72  73
ATOM     73  C   UNL A   1      36.818  21.610  25.541  1.00  0.00     0.116 C 
BRANCH  73  74
ATOM     74  N   UNL A   1      36.814  22.433  24.354  1.00  0.00    -0.354 N 
ATOM     75  C   UNL A   1      35.764  22.879  23.608  1.00  0.00     0.246 C 
ATOM     76  H   UNL A   1      37.702  22.714  24.035  1.00  0.00     0.163 HD
ATOM     77  O   UNL A   1      35.974  23.039  22.403  1.00  0.00    -0.272 OA
BRANCH  75  78
ATOM     78  C   UNL A   1      34.338  23.001  24.217  1.00  0.00     0.129 C 
ATOM     79  C   UNL A   1      33.458  23.757  23.185  1.00  0.00     0.050 C 
ATOM     80  C   UNL A   1      34.340  23.899  25.470  1.00  0.00     0.108 C 
ATOM     81  C   UNL A   1      33.894  25.211  23.173  1.00  0.00     0.072 C 
ATOM     82  S   UNL A   1      34.024  25.618  24.928  1.00  0.00    -0.159 SA
BRANCH  78  83
ATOM     83  N   UNL A   1      33.681  21.700  24.518  1.00  0.00    -0.334 N 
ATOM     84  C   UNL A   1      32.411  21.394  24.954  1.00  0.00     0.289 C 
ATOM     85  H   UNL A   1      34.260  20.916  24.380  1.00  0.00     0.165 HD
ATOM     86  O   UNL A   1      32.097  20.201  24.923  1.00  0.00    -0.266 OA
BRANCH  84  87
ATOM     87  C   UNL A   1      31.579  22.379  25.592  1.00  0.00     0.214 A 
ATOM     88  N   UNL A   1      30.840  23.329  25.049  1.00  0.00    -0.207 NA
ATOM     89  N   UNL A   1      31.548  22.525  26.949  1.00  0.00    -0.255 N 
ATOM     90  C   UNL A   1      30.542  24.140  26.125  1.00  0.00     0.154 A 
ATOM     91  N   UNL A   1      30.987  23.687  27.302  1.00  0.00    -0.158 NA
ATOM     92  H   UNL A   1      31.894  21.860  27.587  1.00  0.00     0.192 HD
BRANCH  90  93
ATOM     93  C   UNL A   1      29.871  25.502  26.024  1.00  0.00     0.060 C 
ATOM     94  C   UNL A   1      30.724  26.752  26.089  1.00  0.00     0.012 C 
ATOM     95  C   UNL A   1      30.083  26.363  24.801  1.00  0.00     0.012 C 
ENDBRANCH  90  93
ENDBRANCH  84  87
ENDBRANCH  78  83
ENDBRANCH  75  78
ENDBRANCH  73  74
ENDBRANCH  72  73
ENDBRANCH   1  72
TORSDOF 17
ENDMDL
MODEL 2
REMARK VINA RESULT:     -11.7      1.308      1.643
REMARK SMILES O=C(NCCCCNC(=O)[C@]1(NC(=O)c2nc(C3CC3)n[nH]2)CCSC1)c1ccc(-c2c3nc(c(-c4cc(S(=O)(=O)[O-])ccc4F)c4ccc([nH]4)c(-c4cc(S(=O)(=O)[O-])ccc4F)c4nc(c(-c5cc(S(=O)(=O)[O-])ccc5F)c5ccc2[nH]5)C=C4)C=C3)cc1
REMARK SMILES IDX 5 1 4 2 3 3 1 4 2 5 27 7 28 8 89 9 29 10 88 11 30 12 31 13
REMARK SMILES IDX 32 14 82 15 33 16 87 17 81 18 83 19 34 20 86 21 80 22 79 23
REMARK SMILES IDX 35 25 67 26 47 27 66 28 48 29 51 30 65 31 84 32 49 33 50 34
REMARK SMILES IDX 64 36 85 37 52 38 36 39 37 40 45 41 38 42 44 43 46 44 43 45
REMARK SMILES IDX 39 46 40 47 41 48 42 49 68 50 69 51 77 52 70 53 76 54 78 55
REMARK SMILES IDX 75 56 71 57 72 58 73 59 74 60 53 61 54 62 62 63 55 64 61 65
REMARK SMILES IDX 63 66 60 67 56 68 57 69 58 70 59 71 6 72 7 73 8 74 9 75
REMARK SMILES IDX 10 77 11 78 23 79 26 80 24 81 25 82 12 83 13 84 14 86 15 87
REMARK SMILES IDX 16 88 22 89 17 90 21 91 18 93 19 94 20 95
REMARK H PARENT 3 6 83 24 51 35 8 76 12 85 22 92
REMARK Flexibility Score: inf
ROOT
ATOM      1  C   UNL A   1      38.482  19.916  24.941  1.00  0.00     0.023 C 
ENDROOT
BRANCH   1   2
ATOM      2  C   UNL A   1      39.452  20.207  26.074  1.00  0.00     0.116 C 
BRANCH   2   3
ATOM      3  N   UNL A   1      40.531  19.232  26.134  1.00  0.00    -0.352 N 
ATOM      4  O   UNL A   1      42.692  18.576  26.100  1.00  0.00    -0.269 OA
ATOM      5  C   UNL A   1      41.880  19.479  26.228  1.00  0.00     0.251 C 
ATOM      6  H   UNL A   1      40.263  18.284  26.103  1.00  0.00     0.163 HD
BRANCH   5   7
ATOM      7  C   UNL A   1      42.313  20.869  26.471  1.00  0.00     0.039 A 
ATOM      8  C   UNL A   1      42.562  21.295  27.779  1.00  0.00     0.014 A 
ATOM      9  C   UNL A   1      42.417  21.755  25.397  1.00  0.00     0.014 A 
ATOM     10  C   UNL A   1      42.804  22.636  28.027  1.00  0.00     0.010 A 
ATOM     11  C   UNL A   1      42.750  23.088  25.643  1.00  0.00     0.010 A 
ATOM     12  C   UNL A   1      42.934  23.540  26.960  1.00  0.00    -0.014 A 
BRANCH  12  13
ATOM     13  C   UNL A   1      43.381  24.923  27.247  1.00  0.00     0.031 A 
ATOM     14  C   UNL A   1      42.439  25.950  27.805  1.00  0.00     0.074 A 
ATOM     15  C   UNL A   1      44.673  25.225  27.008  1.00  0.00     0.049 A 
ATOM     16  N   UNL A   1      42.673  27.205  28.093  1.00  0.00    -0.248 NA
ATOM     17  C   UNL A   1      41.056  25.523  28.063  1.00  0.00     0.031 C 
ATOM     18  C   UNL A   1      45.665  24.292  26.460  1.00  0.00     0.029 A 
ATOM     19  N   UNL A   1      45.382  26.381  27.200  1.00  0.00    -0.354 N 
ATOM     20  C   UNL A   1      41.467  27.725  28.549  1.00  0.00     0.074 A 
ATOM     21  C   UNL A   1      40.497  26.651  28.481  1.00  0.00     0.031 C 
ATOM     22  C   UNL A   1      46.858  24.898  26.406  1.00  0.00     0.029 A 
ATOM     23  C   UNL A   1      46.702  26.283  26.828  1.00  0.00     0.049 A 
ATOM     24  H   UNL A   1      44.984  27.203  27.569  1.00  0.00     0.167 HD
ATOM     25  C   UNL A   1      41.205  28.983  28.981  1.00  0.00     0.034 A 
ATOM     26  C   UNL A   1      47.674  27.213  26.795  1.00  0.00     0.034 A 
ATOM     27  C   UNL A   1      42.197  30.031  29.047  1.00  0.00     0.049 A 
ATOM     28  C   UNL A   1      47.339  28.608  27.248  1.00  0.00     0.074 A 
ATOM     29  C   UNL A   1      42.051  31.326  29.512  1.00  0.00     0.029 A 
ATOM     30  N   UNL A   1      43.517  29.910  28.626  1.00  0.00    -0.354 N 
ATOM     31  N   UNL A   1      46.198  29.075  27.701  1.00  0.00    -0.248 NA
ATOM     32  C   UNL A   1      48.418  29.598  27.187  1.00  0.00     0.031 C 
ATOM     33  C   UNL A   1      43.257  32.007  29.306  1.00  0.00     0.029 A 
ATOM     34  C   UNL A   1      44.181  31.116  28.785  1.00  0.00     0.049 A 
ATOM     35  H   UNL A   1      43.920  29.086  28.267  1.00  0.00     0.167 HD
ATOM     36  C   UNL A   1      46.430  30.414  27.993  1.00  0.00     0.074 A 
ATOM     37  C   UNL A   1      47.825  30.667  27.694  1.00  0.00     0.031 C 
ATOM     38  C   UNL A   1      45.569  31.352  28.461  1.00  0.00     0.034 A 
BRANCH  25  39
ATOM     39  C   UNL A   1      39.786  29.317  29.370  1.00  0.00     0.023 A 
ATOM     40  C   UNL A   1      39.383  29.426  30.711  1.00  0.00     0.031 A 
ATOM     41  C   UNL A   1      38.823  29.558  28.372  1.00  0.00     0.131 A 
ATOM     42  C   UNL A   1      38.047  29.728  31.019  1.00  0.00     0.055 A 
ATOM     43  C   UNL A   1      37.511  29.920  28.683  1.00  0.00     0.041 A 
ATOM     44  F   UNL A   1      39.145  29.449  27.073  1.00  0.00    -0.206 F 
ATOM     45  C   UNL A   1      37.114  30.000  30.014  1.00  0.00     0.022 A 
BRANCH  42  46
ATOM     46  S   UNL A   1      37.517  29.669  32.753  1.00  0.00     0.124 S 
ATOM     47  O   UNL A   1      36.247  30.390  32.698  1.00  0.00    -0.237 OA
ATOM     48  O   UNL A   1      37.428  28.236  33.008  1.00  0.00    -0.237 OA
ATOM     49  O   UNL A   1      38.588  30.364  33.464  1.00  0.00    -0.744 OA
ENDBRANCH  42  46
ENDBRANCH  25  39
BRANCH  26  50
ATOM     50  C   UNL A   1      49.027  26.873  26.271  1.00  0.00     0.023 A 
ATOM     51  C   UNL A   1      49.450  27.321  25.010  1.00  0.00     0.031 A 
ATOM     52  C   UNL A   1      49.903  26.055  27.008  1.00  0.00     0.131 A 
ATOM     53  C   UNL A   1      50.690  26.906  24.503  1.00  0.00     0.055 A 
ATOM     54  C   UNL A   1      51.162  25.698  26.526  1.00  0.00     0.041 A 
ATOM     55  F   UNL A   1      49.550  25.600  28.221  1.00  0.00    -0.206 F 
ATOM     56  C   UNL A   1      51.555  26.112  25.258  1.00  0.00     0.022 A 
BRANCH  53  57
ATOM     57  S   UNL A   1      51.109  27.331  22.791  1.00  0.00     0.124 S 
ATOM     58  O   UNL A   1      51.172  28.787  22.852  1.00  0.00    -0.237 OA
ATOM     59  O   UNL A   1      52.381  26.640  22.611  1.00  0.00    -0.237 OA
ATOM     60  O   UNL A   1      49.991  26.786  22.023  1.00  0.00    -0.744 OA
ENDBRANCH  53  57
ENDBRANCH  26  50
BRANCH  38  61
ATOM     61  C   UNL A   1      46.140  32.727  28.701  1.00  0.00     0.023 A 
ATOM     62  C   UNL A   1      46.051  33.739  27.729  1.00  0.00     0.031 A 
ATOM     63  C   UNL A   1      46.813  33.015  29.900  1.00  0.00     0.131 A 
ATOM     64  C   UNL A   1      46.683  34.970  27.946  1.00  0.00     0.055 A 
ATOM     65  C   UNL A   1      47.385  34.265  30.137  1.00  0.00     0.041 A 
ATOM     66  F   UNL A   1      46.930  32.083  30.860  1.00  0.00    -0.206 F 
ATOM     67  C   UNL A   1      47.335  35.246  29.151  1.00  0.00     0.022 A 
BRANCH  64  68
ATOM     68  S   UNL A   1      46.728  36.174  26.590  1.00  0.00     0.124 S 
ATOM     69  O   UNL A   1      45.798  37.195  27.060  1.00  0.00    -0.237 OA
ATOM     70  O   UNL A   1      48.136  36.559  26.561  1.00  0.00    -0.237 OA
ATOM     71  O   UNL A   1      46.273  35.404  25.433  1.00  0.00    -0.744 OA
ENDBRANCH  64  68
ENDBRANCH  38  61
ENDBRANCH  12  13
ENDBRANCH   5   7
ENDBRANCH   2   3
ENDBRANCH   1   2
BRANCH   1  72
ATOM     72  C   UNL A   1      37.033  20.291  25.260  1.00  0.00     0.023 C 
BRANCH  72  73
ATOM     73  C   UNL A   1      36.852  21.772  25.585  1.00  0.00     0.116 C 
BRANCH  73  74
ATOM     74  N   UNL A   1      36.841  22.523  24.351  1.00  0.00    -0.354 N 
ATOM     75  C   UNL A   1      35.791  22.888  23.563  1.00  0.00     0.246 C 
ATOM     76  H   UNL A   1      37.725  22.815  24.030  1.00  0.00     0.163 HD
ATOM     77  O   UNL A   1      36.017  22.983  22.355  1.00  0.00    -0.272 OA
BRANCH  75  78
ATOM     78  C   UNL A   1      34.350  22.996  24.141  1.00  0.00     0.129 C 
ATOM     79  C   UNL A   1      33.489  23.753  23.095  1.00  0.00     0.050 C 
ATOM     80  C   UNL A   1      34.319  23.887  25.399  1.00  0.00     0.108 C 
ATOM     81  C   UNL A   1      33.915  25.210  23.101  1.00  0.00     0.072 C 
ATOM     82  S   UNL A   1      34.003  25.607  24.860  1.00  0.00    -0.159 SA
BRANCH  78  83
ATOM     83  N   UNL A   1      33.696  21.689  24.420  1.00  0.00    -0.334 N 
ATOM     84  C   UNL A   1      32.432  21.373  24.866  1.00  0.00     0.289 C 
ATOM     85  H   UNL A   1      34.272  20.908  24.256  1.00  0.00     0.165 HD
ATOM     86  O   UNL A   1      32.116  20.183  24.811  1.00  0.00    -0.266 OA
BRANCH  84  87
ATOM     87  C   UNL A   1      31.611  22.344  25.540  1.00  0.00     0.214 A 
ATOM     88  N   UNL A   1      30.867  23.309  25.030  1.00  0.00    -0.207 NA
ATOM     89  N   UNL A   1      31.595  22.455  26.900  1.00  0.00    -0.255 N 
ATOM     90  C   UNL A   1      30.585  24.094  26.129  1.00  0.00     0.154 A 
ATOM     91  N   UNL A   1      31.041  23.608  27.290  1.00  0.00    -0.158 NA
ATOM     92  H   UNL A   1      31.947  21.773  27.516  1.00  0.00     0.192 HD
BRANCH  90  93
ATOM     93  C   UNL A   1      29.916  25.459  26.071  1.00  0.00     0.060 C 
ATOM     94  C   UNL A   1      30.776  26.704  26.115  1.00  0.00     0.012 C 
ATOM     95  C   UNL A   1      30.081  26.333  24.851  1.00  0.00     0.012 C 
ENDBRANCH  90  93
ENDBRANCH  84  87
ENDBRANCH  78  83
ENDBRANCH  75  78
ENDBRANCH  73  74
ENDBRANCH  72  73
ENDBRANCH   1  72
TORSDOF 17
ENDMDL
MODEL 3
REMARK VINA RESULT:     -11.7      6.252     11.460
REMARK SMILES O=C(NCCCCNC(=O)[C@]1(NC(=O)c2nc(C3CC3)n[nH]2)CCSC1)c1ccc(-c2c3nc(c(-c4cc(S(=O)(=O)[O-])ccc4F)c4ccc([nH]4)c(-c4cc(S(=O)(=O)[O-])ccc4F)c4nc(c(-c5cc(S(=O)(=O)[O-])ccc5F)c5ccc2[nH]5)C=C4)C=C3)cc1
REMARK SMILES IDX 5 1 4 2 3 3 1 4 2 5 27 7 28 8 89 9 29 10 88 11 30 12 31 13
REMARK SMILES IDX 32 14 82 15 33 16 87 17 81 18 83 19 34 20 86 21 80 22 79 23
REMARK SMILES IDX 35 25 67 26 47 27 66 28 48 29 51 30 65 31 84 32 49 33 50 34
REMARK SMILES IDX 64 36 85 37 52 38 36 39 37 40 45 41 38 42 44 43 46 44 43 45
REMARK SMILES IDX 39 46 40 47 41 48 42 49 68 50 69 51 77 52 70 53 76 54 78 55
REMARK SMILES IDX 75 56 71 57 72 58 73 59 74 60 53 61 54 62 62 63 55 64 61 65
REMARK SMILES IDX 63 66 60 67 56 68 57 69 58 70 59 71 6 72 7 73 8 74 9 75
REMARK SMILES IDX 10 77 11 78 23 79 26 80 24 81 25 82 12 83 13 84 14 86 15 87
REMARK SMILES IDX 16 88 22 89 17 90 21 91 18 93 19 94 20 95
REMARK H PARENT 3 6 83 24 51 35 8 76 12 85 22 92
REMARK Flexibility Score: inf
ROOT
ATOM      1  C   UNL A   1      31.558  32.209  26.880  1.00  0.00     0.023 C 
ENDROOT
BRANCH   1   2
ATOM      2  C   UNL A   1      32.847  32.865  27.347  1.00  0.00     0.116 C 
BRANCH   2   3
ATOM      3  N   UNL A   1      32.641  34.245  27.759  1.00  0.00    -0.352 N 
ATOM      4  O   UNL A   1      32.873  36.019  29.137  1.00  0.00    -0.269 OA
ATOM      5  C   UNL A   1      33.258  34.914  28.789  1.00  0.00     0.251 C 
ATOM      6  H   UNL A   1      31.982  34.761  27.238  1.00  0.00     0.163 HD
BRANCH   5   7
ATOM      7  C   UNL A   1      34.386  34.246  29.469  1.00  0.00     0.039 A 
ATOM      8  C   UNL A   1      35.665  34.315  28.911  1.00  0.00     0.014 A 
ATOM      9  C   UNL A   1      34.150  33.511  30.632  1.00  0.00     0.014 A 
ATOM     10  C   UNL A   1      36.689  33.554  29.452  1.00  0.00     0.010 A 
ATOM     11  C   UNL A   1      35.205  32.817  31.226  1.00  0.00     0.010 A 
ATOM     12  C   UNL A   1      36.479  32.825  30.634  1.00  0.00    -0.014 A 
BRANCH  12  13
ATOM     13  C   UNL A   1      37.640  32.179  31.289  1.00  0.00     0.031 A 
ATOM     14  C   UNL A   1      38.415  31.087  30.610  1.00  0.00     0.074 A 
ATOM     15  C   UNL A   1      37.992  32.619  32.513  1.00  0.00     0.049 A 
ATOM     16  N   UNL A   1      39.442  30.412  31.058  1.00  0.00    -0.248 NA
ATOM     17  C   UNL A   1      37.978  30.692  29.263  1.00  0.00     0.031 C 
ATOM     18  C   UNL A   1      37.295  33.676  33.257  1.00  0.00     0.029 A 
ATOM     19  N   UNL A   1      39.018  32.256  33.345  1.00  0.00    -0.354 N 
ATOM     20  C   UNL A   1      39.766  29.500  30.060  1.00  0.00     0.074 A 
ATOM     21  C   UNL A   1      38.812  29.697  28.989  1.00  0.00     0.031 C 
ATOM     22  C   UNL A   1      37.940  33.904  34.408  1.00  0.00     0.029 A 
ATOM     23  C   UNL A   1      39.039  32.958  34.528  1.00  0.00     0.049 A 
ATOM     24  H   UNL A   1      39.676  31.561  33.117  1.00  0.00     0.167 HD
ATOM     25  C   UNL A   1      40.768  28.587  30.050  1.00  0.00     0.034 A 
ATOM     26  C   UNL A   1      39.833  32.830  35.607  1.00  0.00     0.034 A 
ATOM     27  C   UNL A   1      41.713  28.421  31.131  1.00  0.00     0.049 A 
ATOM     28  C   UNL A   1      40.912  31.783  35.576  1.00  0.00     0.074 A 
ATOM     29  C   UNL A   1      42.794  27.561  31.205  1.00  0.00     0.029 A 
ATOM     30  N   UNL A   1      41.683  29.121  32.332  1.00  0.00    -0.354 N 
ATOM     31  N   UNL A   1      41.220  30.946  34.612  1.00  0.00    -0.248 NA
ATOM     32  C   UNL A   1      41.749  31.663  36.774  1.00  0.00     0.031 C 
ATOM     33  C   UNL A   1      43.372  27.687  32.472  1.00  0.00     0.029 A 
ATOM     34  C   UNL A   1      42.702  28.683  33.165  1.00  0.00     0.049 A 
ATOM     35  H   UNL A   1      41.032  29.825  32.558  1.00  0.00     0.167 HD
ATOM     36  C   UNL A   1      42.300  30.210  35.085  1.00  0.00     0.074 A 
ATOM     37  C   UNL A   1      42.606  30.724  36.404  1.00  0.00     0.031 C 
ATOM     38  C   UNL A   1      42.976  29.196  34.487  1.00  0.00     0.034 A 
BRANCH  25  39
ATOM     39  C   UNL A   1      40.873  27.663  28.861  1.00  0.00     0.023 A 
ATOM     40  C   UNL A   1      41.858  27.824  27.872  1.00  0.00     0.031 A 
ATOM     41  C   UNL A   1      39.983  26.580  28.734  1.00  0.00     0.131 A 
ATOM     42  C   UNL A   1      41.904  26.943  26.780  1.00  0.00     0.055 A 
ATOM     43  C   UNL A   1      40.073  25.670  27.679  1.00  0.00     0.041 A 
ATOM     44  F   UNL A   1      39.009  26.389  29.638  1.00  0.00    -0.206 F 
ATOM     45  C   UNL A   1      41.034  25.853  26.690  1.00  0.00     0.022 A 
BRANCH  42  46
ATOM     46  S   UNL A   1      43.058  27.293  25.425  1.00  0.00     0.124 S 
ATOM     47  O   UNL A   1      43.318  25.953  24.905  1.00  0.00    -0.237 OA
ATOM     48  O   UNL A   1      42.276  28.172  24.563  1.00  0.00    -0.237 OA
ATOM     49  O   UNL A   1      44.193  27.926  26.094  1.00  0.00    -0.744 OA
ENDBRANCH  42  46
ENDBRANCH  25  39
BRANCH  26  50
ATOM     50  C   UNL A   1      39.604  33.670  36.816  1.00  0.00     0.023 A 
ATOM     51  C   UNL A   1      38.958  33.152  37.948  1.00  0.00     0.031 A 
ATOM     52  C   UNL A   1      39.991  35.023  36.840  1.00  0.00     0.131 A 
ATOM     53  C   UNL A   1      38.671  33.993  39.034  1.00  0.00     0.055 A 
ATOM     54  C   UNL A   1      39.762  35.839  37.947  1.00  0.00     0.041 A 
ATOM     55  F   UNL A   1      40.615  35.570  35.784  1.00  0.00    -0.206 F 
ATOM     56  C   UNL A   1      39.083  35.328  39.048  1.00  0.00     0.022 A 
BRANCH  53  57
ATOM     57  S   UNL A   1      37.652  33.343  40.385  1.00  0.00     0.124 S 
ATOM     58  O   UNL A   1      37.348  34.555  41.138  1.00  0.00    -0.237 OA
ATOM     59  O   UNL A   1      36.537  32.743  39.660  1.00  0.00    -0.237 OA
ATOM     60  O   UNL A   1      38.541  32.397  41.056  1.00  0.00    -0.744 OA
ENDBRANCH  53  57
ENDBRANCH  26  50
BRANCH  38  61
ATOM     61  C   UNL A   1      44.131  28.611  35.260  1.00  0.00     0.023 A 
ATOM     62  C   UNL A   1      43.950  27.538  36.150  1.00  0.00     0.031 A 
ATOM     63  C   UNL A   1      45.419  29.159  35.133  1.00  0.00     0.131 A 
ATOM     64  C   UNL A   1      45.025  27.090  36.928  1.00  0.00     0.055 A 
ATOM     65  C   UNL A   1      46.500  28.664  35.863  1.00  0.00     0.041 A 
ATOM     66  F   UNL A   1      45.646  30.187  34.300  1.00  0.00    -0.206 F 
ATOM     67  C   UNL A   1      46.303  27.634  36.778  1.00  0.00     0.022 A 
BRANCH  64  68
ATOM     68  S   UNL A   1      44.709  25.850  38.214  1.00  0.00     0.124 S 
ATOM     69  O   UNL A   1      44.466  26.685  39.385  1.00  0.00    -0.237 OA
ATOM     70  O   UNL A   1      43.548  25.140  37.686  1.00  0.00    -0.237 OA
ATOM     71  O   UNL A   1      45.946  25.072  38.251  1.00  0.00    -0.744 OA
ENDBRANCH  64  68
ENDBRANCH  38  61
ENDBRANCH  12  13
ENDBRANCH   5   7
ENDBRANCH   2   3
ENDBRANCH   1   2
BRANCH   1  72
ATOM     72  C   UNL A   1      31.777  30.975  26.003  1.00  0.00     0.023 C 
BRANCH  72  73
ATOM     73  C   UNL A   1      32.873  30.050  26.528  1.00  0.00     0.116 C 
BRANCH  73  74
ATOM     74  N   UNL A   1      32.261  28.997  27.306  1.00  0.00    -0.354 N 
ATOM     75  C   UNL A   1      31.593  27.884  26.890  1.00  0.00     0.246 C 
ATOM     76  H   UNL A   1      32.337  29.098  28.282  1.00  0.00     0.163 HD
ATOM     77  O   UNL A   1      30.701  27.468  27.633  1.00  0.00    -0.272 OA
BRANCH  75  78
ATOM     78  C   UNL A   1      31.826  27.287  25.472  1.00  0.00     0.129 C 
ATOM     79  C   UNL A   1      31.338  25.814  25.505  1.00  0.00     0.050 C 
ATOM     80  C   UNL A   1      33.330  27.200  25.143  1.00  0.00     0.108 C 
ATOM     81  C   UNL A   1      32.330  25.009  26.325  1.00  0.00     0.072 C 
ATOM     82  S   UNL A   1      33.931  25.563  25.698  1.00  0.00    -0.159 SA
BRANCH  78  83
ATOM     83  N   UNL A   1      31.101  27.989  24.379  1.00  0.00    -0.334 N 
ATOM     84  C   UNL A   1      30.872  27.649  23.064  1.00  0.00     0.289 C 
ATOM     85  H   UNL A   1      30.714  28.855  24.644  1.00  0.00     0.165 HD
ATOM     86  O   UNL A   1      30.062  28.349  22.452  1.00  0.00    -0.266 OA
BRANCH  84  87
ATOM     87  C   UNL A   1      31.680  26.665  22.393  1.00  0.00     0.214 A 
ATOM     88  N   UNL A   1      31.563  25.350  22.387  1.00  0.00    -0.207 NA
ATOM     89  N   UNL A   1      32.820  27.004  21.723  1.00  0.00    -0.255 N 
ATOM     90  C   UNL A   1      32.770  24.935  21.863  1.00  0.00     0.154 A 
ATOM     91  N   UNL A   1      33.575  25.929  21.470  1.00  0.00    -0.158 NA
ATOM     92  H   UNL A   1      33.056  27.923  21.459  1.00  0.00     0.192 HD
BRANCH  90  93
ATOM     93  C   UNL A   1      33.246  23.491  21.819  1.00  0.00     0.060 C 
ATOM     94  C   UNL A   1      34.183  22.989  22.898  1.00  0.00     0.012 C 
ATOM     95  C   UNL A   1      32.775  22.505  22.861  1.00  0.00     0.012 C 
ENDBRANCH  90  93
ENDBRANCH  84  87
ENDBRANCH  78  83
ENDBRANCH  75  78
ENDBRANCH  73  74
ENDBRANCH  72  73
ENDBRANCH   1  72
TORSDOF 17
ENDMDL
