MODEL 1
REMARK VINA RESULT:     -11.0      0.000      0.000
REMARK SMILES C[N@H+](CCC(=O)Nc1sccc1C#N)CC(=O)NCCCCNC(=O)c1ccc(-c2c3nc(c(-c4cc(S(=O)(=O)[O-])ccc4F)c4ccc([nH]4)c(-c4cc(S(=O)(=O)[O-])ccc4F)c4nc(c(-c5cc(S(=O)(=O)[O-])ccc5F)c5ccc2[nH]5)C=C4)C=C3)cc1
REMARK SMILES IDX 19 1 18 2 16 3 17 4 15 6 2 7 1 8 3 10 4 11 5 12 6 13 7 14
REMARK SMILES IDX 8 16 9 17 12 18 10 19 11 20 13 21 14 22 20 23 21 24 22 25
REMARK SMILES IDX 23 26 24 27 25 29 26 30 27 31 88 32 28 33 87 34 29 35 30 36
REMARK SMILES IDX 31 37 81 38 32 39 86 40 80 41 82 42 33 43 85 44 79 45 78 46
REMARK SMILES IDX 34 48 66 49 46 50 65 51 47 52 50 53 64 54 83 55 48 56 49 57
REMARK SMILES IDX 63 59 84 60 51 61 35 62 36 63 44 64 37 65 43 66 45 67 42 68
REMARK SMILES IDX 38 69 39 70 40 71 41 72 67 73 68 74 76 75 69 76 75 77 77 78
REMARK SMILES IDX 74 79 70 80 71 81 72 82 73 83 52 84 53 85 61 86 54 87 60 88
REMARK SMILES IDX 62 89 59 90 55 91 56 92 57 93 58 94
REMARK H PARENT 18 5 2 9 7 15 23 28 82 47 50 58
REMARK Flexibility Score: inf
ROOT
ATOM      1  C   UNL A   1      33.175  28.460  22.557  1.00  0.00     0.116 C 
ENDROOT
BRANCH   1   2
ATOM      2  N   UNL A   1      33.309  27.373  21.610  1.00  0.00    -0.351 N 
ATOM      3  C   UNL A   1      33.064  26.044  21.606  1.00  0.00     0.275 C 
ATOM      4  O   UNL A   1      33.277  25.480  20.522  1.00  0.00    -0.269 OA
ATOM      5  H   UNL A   1      33.672  27.681  20.748  1.00  0.00     0.163 HD
BRANCH   3   6
ATOM      6  C   UNL A   1      32.388  25.233  22.698  1.00  0.00     0.363 C 
BRANCH   6   7
ATOM      7  N   UNL A   1      31.823  23.922  22.376  1.00  0.00    -0.329 N 
ATOM      8  C   UNL A   1      30.651  23.685  23.248  1.00  0.00     0.333 C 
ATOM      9  H   UNL A   1      31.557  23.939  21.391  1.00  0.00     0.348 HD
BRANCH   7  10
ATOM     10  C   UNL A   1      32.789  22.808  22.522  1.00  0.00     0.272 C 
BRANCH  10  11
ATOM     11  C   UNL A   1      32.336  21.453  23.102  1.00  0.00     0.161 C 
BRANCH  11  12
ATOM     12  C   UNL A   1      32.516  20.831  24.507  1.00  0.00     0.230 C 
ATOM     13  O   UNL A   1      32.151  19.650  24.648  1.00  0.00    -0.274 OA
ATOM     14  N   UNL A   1      33.087  21.378  25.612  1.00  0.00    -0.316 N 
ATOM     15  H   UNL A   1      33.370  20.730  26.296  1.00  0.00     0.170 HD
BRANCH  14  16
ATOM     16  C   UNL A   1      33.330  22.686  25.922  1.00  0.00     0.113 A 
ATOM     17  S   UNL A   1      34.964  23.149  25.727  1.00  0.00    -0.125 S 
ATOM     18  C   UNL A   1      32.546  23.730  26.342  1.00  0.00     0.087 A 
ATOM     19  C   UNL A   1      34.525  24.808  25.734  1.00  0.00     0.068 A 
ATOM     20  C   UNL A   1      33.221  24.978  26.154  1.00  0.00     0.033 A 
BRANCH  18  21
ATOM     21  C   UNL A   1      31.231  23.562  26.860  1.00  0.00     0.102 C 
ATOM     22  N   UNL A   1      30.143  23.401  27.252  1.00  0.00    -0.192 NA
ENDBRANCH  18  21
ENDBRANCH  14  16
ENDBRANCH  11  12
ENDBRANCH  10  11
ENDBRANCH   7  10
ENDBRANCH   6   7
ENDBRANCH   3   6
ENDBRANCH   1   2
BRANCH   1  23
ATOM     23  C   UNL A   1      33.599  28.105  23.979  1.00  0.00     0.023 C 
BRANCH  23  24
ATOM     24  C   UNL A   1      32.557  28.517  25.008  1.00  0.00     0.023 C 
BRANCH  24  25
ATOM     25  C   UNL A   1      33.165  29.184  26.225  1.00  0.00     0.116 C 
BRANCH  25  26
ATOM     26  N   UNL A   1      32.646  30.530  26.459  1.00  0.00    -0.352 N 
ATOM     27  C   UNL A   1      33.267  31.508  27.206  1.00  0.00     0.251 C 
ATOM     28  H   UNL A   1      31.781  30.757  26.049  1.00  0.00     0.163 HD
ATOM     29  O   UNL A   1      32.720  32.560  27.501  1.00  0.00    -0.269 OA
BRANCH  27  30
ATOM     30  C   UNL A   1      34.640  31.189  27.627  1.00  0.00     0.039 A 
ATOM     31  C   UNL A   1      35.555  32.224  27.828  1.00  0.00     0.014 A 
ATOM     32  C   UNL A   1      34.856  29.905  28.135  1.00  0.00     0.014 A 
ATOM     33  C   UNL A   1      36.693  31.971  28.593  1.00  0.00     0.010 A 
ATOM     34  C   UNL A   1      35.914  29.703  29.000  1.00  0.00     0.010 A 
ATOM     35  C   UNL A   1      36.860  30.722  29.211  1.00  0.00    -0.014 A 
BRANCH  35  36
ATOM     36  C   UNL A   1      38.060  30.395  30.018  1.00  0.00     0.031 A 
ATOM     37  C   UNL A   1      39.044  29.414  29.445  1.00  0.00     0.074 A 
ATOM     38  C   UNL A   1      38.219  30.890  31.259  1.00  0.00     0.049 A 
ATOM     39  N   UNL A   1      40.070  28.838  30.012  1.00  0.00    -0.248 NA
ATOM     40  C   UNL A   1      38.797  28.975  28.061  1.00  0.00     0.031 C 
ATOM     41  C   UNL A   1      37.308  31.824  31.925  1.00  0.00     0.029 A 
ATOM     42  N   UNL A   1      39.201  30.664  32.190  1.00  0.00    -0.354 N 
ATOM     43  C   UNL A   1      40.560  27.945  29.067  1.00  0.00     0.074 A 
ATOM     44  C   UNL A   1      39.660  27.984  27.937  1.00  0.00     0.031 C 
ATOM     45  C   UNL A   1      37.791  32.110  33.145  1.00  0.00     0.029 A 
ATOM     46  C   UNL A   1      39.007  31.335  33.374  1.00  0.00     0.049 A 
ATOM     47  H   UNL A   1      39.974  30.076  32.025  1.00  0.00     0.167 HD
ATOM     48  C   UNL A   1      41.682  27.187  29.122  1.00  0.00     0.034 A 
ATOM     49  C   UNL A   1      39.718  31.307  34.520  1.00  0.00     0.034 A 
ATOM     50  C   UNL A   1      42.565  27.184  30.257  1.00  0.00     0.049 A 
ATOM     51  C   UNL A   1      40.945  30.430  34.585  1.00  0.00     0.074 A 
ATOM     52  C   UNL A   1      43.760  26.508  30.416  1.00  0.00     0.029 A 
ATOM     53  N   UNL A   1      42.341  27.885  31.438  1.00  0.00    -0.354 N 
ATOM     54  N   UNL A   1      41.429  29.620  33.671  1.00  0.00    -0.248 NA
ATOM     55  C   UNL A   1      41.726  30.470  35.827  1.00  0.00     0.031 C 
ATOM     56  C   UNL A   1      44.205  26.719  31.724  1.00  0.00     0.029 A 
ATOM     57  C   UNL A   1      43.352  27.621  32.344  1.00  0.00     0.049 A 
ATOM     58  H   UNL A   1      41.574  28.480  31.603  1.00  0.00     0.167 HD
ATOM     59  C   UNL A   1      42.592  29.082  34.213  1.00  0.00     0.074 A 
ATOM     60  C   UNL A   1      42.734  29.658  35.536  1.00  0.00     0.031 C 
ATOM     61  C   UNL A   1      43.472  28.206  33.662  1.00  0.00     0.034 A 
BRANCH  48  62
ATOM     62  C   UNL A   1      41.964  26.286  27.942  1.00  0.00     0.023 A 
ATOM     63  C   UNL A   1      41.491  24.961  27.888  1.00  0.00     0.031 A 
ATOM     64  C   UNL A   1      42.792  26.726  26.895  1.00  0.00     0.131 A 
ATOM     65  C   UNL A   1      41.948  24.094  26.886  1.00  0.00     0.055 A 
ATOM     66  C   UNL A   1      43.150  25.889  25.836  1.00  0.00     0.041 A 
ATOM     67  F   UNL A   1      43.300  27.968  26.900  1.00  0.00    -0.206 F 
ATOM     68  C   UNL A   1      42.748  24.557  25.841  1.00  0.00     0.022 A 
BRANCH  65  69
ATOM     69  S   UNL A   1      41.662  22.314  27.092  1.00  0.00     0.124 S 
ATOM     70  O   UNL A   1      40.271  22.289  27.539  1.00  0.00    -0.237 OA
ATOM     71  O   UNL A   1      41.913  21.794  25.753  1.00  0.00    -0.237 OA
ATOM     72  O   UNL A   1      42.640  21.925  28.107  1.00  0.00    -0.744 OA
ENDBRANCH  65  69
ENDBRANCH  48  62
BRANCH  49  73
ATOM     73  C   UNL A   1      39.275  32.115  35.694  1.00  0.00     0.023 A 
ATOM     74  C   UNL A   1      39.727  33.429  35.890  1.00  0.00     0.031 A 
ATOM     75  C   UNL A   1      38.380  31.578  36.638  1.00  0.00     0.131 A 
ATOM     76  C   UNL A   1      39.304  34.154  37.017  1.00  0.00     0.055 A 
ATOM     77  C   UNL A   1      37.921  32.321  37.728  1.00  0.00     0.041 A 
ATOM     78  F   UNL A   1      37.917  30.326  36.499  1.00  0.00    -0.206 F 
ATOM     79  C   UNL A   1      38.390  33.615  37.926  1.00  0.00     0.022 A 
BRANCH  76  80
ATOM     80  S   UNL A   1      40.019  35.793  37.321  1.00  0.00     0.124 S 
ATOM     81  O   UNL A   1      39.728  36.480  36.068  1.00  0.00    -0.237 OA
ATOM     82  O   UNL A   1      39.269  36.241  38.489  1.00  0.00    -0.237 OA
ATOM     83  O   UNL A   1      41.432  35.508  37.563  1.00  0.00    -0.744 OA
ENDBRANCH  76  80
ENDBRANCH  49  73
BRANCH  61  84
ATOM     84  C   UNL A   1      44.712  27.869  34.454  1.00  0.00     0.023 A 
ATOM     85  C   UNL A   1      44.798  26.729  35.271  1.00  0.00     0.031 A 
ATOM     86  C   UNL A   1      45.848  28.693  34.346  1.00  0.00     0.131 A 
ATOM     87  C   UNL A   1      45.982  26.467  35.976  1.00  0.00     0.055 A 
ATOM     88  C   UNL A   1      47.044  28.388  34.993  1.00  0.00     0.041 A 
ATOM     89  F   UNL A   1      45.820  29.800  33.586  1.00  0.00    -0.206 F 
ATOM     90  C   UNL A   1      47.113  27.273  35.822  1.00  0.00     0.022 A 
BRANCH  87  91
ATOM     91  S   UNL A   1      46.001  25.105  37.173  1.00  0.00     0.124 S 
ATOM     92  O   UNL A   1      45.471  24.000  36.382  1.00  0.00    -0.237 OA
ATOM     93  O   UNL A   1      47.415  25.016  37.525  1.00  0.00    -0.237 OA
ATOM     94  O   UNL A   1      45.125  25.577  38.244  1.00  0.00    -0.744 OA
ENDBRANCH  87  91
ENDBRANCH  61  84
ENDBRANCH  35  36
ENDBRANCH  27  30
ENDBRANCH  25  26
ENDBRANCH  24  25
ENDBRANCH  23  24
ENDBRANCH   1  23
TORSDOF 20
ENDMDL
MODEL 2
REMARK VINA RESULT:     -10.8      2.123      8.113
REMARK SMILES C[N@H+](CCC(=O)Nc1sccc1C#N)CC(=O)NCCCCNC(=O)c1ccc(-c2c3nc(c(-c4cc(S(=O)(=O)[O-])ccc4F)c4ccc([nH]4)c(-c4cc(S(=O)(=O)[O-])ccc4F)c4nc(c(-c5cc(S(=O)(=O)[O-])ccc5F)c5ccc2[nH]5)C=C4)C=C3)cc1
REMARK SMILES IDX 19 1 18 2 16 3 17 4 15 6 2 7 1 8 3 10 4 11 5 12 6 13 7 14
REMARK SMILES IDX 8 16 9 17 12 18 10 19 11 20 13 21 14 22 20 23 21 24 22 25
REMARK SMILES IDX 23 26 24 27 25 29 26 30 27 31 88 32 28 33 87 34 29 35 30 36
REMARK SMILES IDX 31 37 81 38 32 39 86 40 80 41 82 42 33 43 85 44 79 45 78 46
REMARK SMILES IDX 34 48 66 49 46 50 65 51 47 52 50 53 64 54 83 55 48 56 49 57
REMARK SMILES IDX 63 59 84 60 51 61 35 62 36 63 44 64 37 65 43 66 45 67 42 68
REMARK SMILES IDX 38 69 39 70 40 71 41 72 67 73 68 74 76 75 69 76 75 77 77 78
REMARK SMILES IDX 74 79 70 80 71 81 72 82 73 83 52 84 53 85 61 86 54 87 60 88
REMARK SMILES IDX 62 89 59 90 55 91 56 92 57 93 58 94
REMARK H PARENT 18 5 2 9 7 15 23 28 82 47 50 58
REMARK Flexibility Score: inf
ROOT
ATOM      1  C   UNL A   1      32.791  28.932  22.808  1.00  0.00     0.116 C 
ENDROOT
BRANCH   1   2
ATOM      2  N   UNL A   1      33.155  27.769  22.027  1.00  0.00    -0.351 N 
ATOM      3  C   UNL A   1      33.158  26.430  22.209  1.00  0.00     0.275 C 
ATOM      4  O   UNL A   1      33.510  25.771  21.218  1.00  0.00    -0.269 OA
ATOM      5  H   UNL A   1      33.486  28.018  21.133  1.00  0.00     0.163 HD
BRANCH   3   6
ATOM      6  C   UNL A   1      32.603  25.665  23.399  1.00  0.00     0.363 C 
BRANCH   6   7
ATOM      7  N   UNL A   1      31.383  24.872  23.239  1.00  0.00    -0.329 N 
ATOM      8  C   UNL A   1      30.287  25.537  23.978  1.00  0.00     0.333 C 
ATOM      9  H   UNL A   1      31.181  24.820  22.241  1.00  0.00     0.348 HD
BRANCH   7  10
ATOM     10  C   UNL A   1      31.522  23.472  23.704  1.00  0.00     0.272 C 
BRANCH  10  11
ATOM     11  C   UNL A   1      31.042  23.065  25.111  1.00  0.00     0.161 C 
BRANCH  11  12
ATOM     12  C   UNL A   1      31.738  23.145  26.492  1.00  0.00     0.230 C 
ATOM     13  O   UNL A   1      31.145  23.781  27.381  1.00  0.00    -0.274 OA
ATOM     14  N   UNL A   1      32.891  22.552  26.897  1.00  0.00    -0.316 N 
ATOM     15  H   UNL A   1      32.999  22.480  27.873  1.00  0.00     0.170 HD
BRANCH  14  16
ATOM     16  C   UNL A   1      33.924  22.040  26.164  1.00  0.00     0.113 A 
ATOM     17  S   UNL A   1      35.287  23.069  26.083  1.00  0.00    -0.125 S 
ATOM     18  C   UNL A   1      34.124  20.865  25.486  1.00  0.00     0.087 A 
ATOM     19  C   UNL A   1      36.277  21.763  25.571  1.00  0.00     0.068 A 
ATOM     20  C   UNL A   1      35.515  20.669  25.212  1.00  0.00     0.033 A 
BRANCH  18  21
ATOM     21  C   UNL A   1      33.072  19.970  25.145  1.00  0.00     0.102 C 
ATOM     22  N   UNL A   1      32.210  19.221  24.904  1.00  0.00    -0.192 NA
ENDBRANCH  18  21
ENDBRANCH  14  16
ENDBRANCH  11  12
ENDBRANCH  10  11
ENDBRANCH   7  10
ENDBRANCH   6   7
ENDBRANCH   3   6
ENDBRANCH   1   2
BRANCH   1  23
ATOM     23  C   UNL A   1      32.580  28.646  24.293  1.00  0.00     0.023 C 
BRANCH  23  24
ATOM     24  C   UNL A   1      33.809  28.987  25.122  1.00  0.00     0.023 C 
BRANCH  24  25
ATOM     25  C   UNL A   1      33.472  29.317  26.562  1.00  0.00     0.116 C 
BRANCH  25  26
ATOM     26  N   UNL A   1      33.658  30.730  26.884  1.00  0.00    -0.352 N 
ATOM     27  C   UNL A   1      34.691  31.250  27.634  1.00  0.00     0.251 C 
ATOM     28  H   UNL A   1      32.990  31.364  26.536  1.00  0.00     0.163 HD
ATOM     29  O   UNL A   1      34.716  32.413  28.005  1.00  0.00    -0.269 OA
BRANCH  27  30
ATOM     30  C   UNL A   1      35.764  30.296  27.959  1.00  0.00     0.039 A 
ATOM     31  C   UNL A   1      36.938  30.299  27.206  1.00  0.00     0.014 A 
ATOM     32  C   UNL A   1      35.692  29.679  29.211  1.00  0.00     0.014 A 
ATOM     33  C   UNL A   1      38.078  29.704  27.743  1.00  0.00     0.010 A 
ATOM     34  C   UNL A   1      36.857  29.212  29.788  1.00  0.00     0.010 A 
ATOM     35  C   UNL A   1      38.053  29.190  29.049  1.00  0.00    -0.014 A 
BRANCH  35  36
ATOM     36  C   UNL A   1      39.231  28.529  29.660  1.00  0.00     0.031 A 
ATOM     37  C   UNL A   1      39.760  29.091  30.950  1.00  0.00     0.074 A 
ATOM     38  C   UNL A   1      39.861  27.516  29.037  1.00  0.00     0.049 A 
ATOM     39  N   UNL A   1      40.863  28.808  31.590  1.00  0.00    -0.248 NA
ATOM     40  C   UNL A   1      38.964  30.164  31.568  1.00  0.00     0.031 C 
ATOM     41  C   UNL A   1      39.452  26.916  27.765  1.00  0.00     0.029 A 
ATOM     42  N   UNL A   1      40.991  26.822  29.384  1.00  0.00    -0.354 N 
ATOM     43  C   UNL A   1      40.907  29.696  32.659  1.00  0.00     0.074 A 
ATOM     44  C   UNL A   1      39.778  30.587  32.518  1.00  0.00     0.031 C 
ATOM     45  C   UNL A   1      40.305  25.925  27.456  1.00  0.00     0.029 A 
ATOM     46  C   UNL A   1      41.354  25.860  28.469  1.00  0.00     0.049 A 
ATOM     47  H   UNL A   1      41.496  26.994  30.211  1.00  0.00     0.167 HD
ATOM     48  C   UNL A   1      41.790  29.740  33.685  1.00  0.00     0.034 A 
ATOM     49  C   UNL A   1      42.424  25.041  28.442  1.00  0.00     0.034 A 
ATOM     50  C   UNL A   1      42.894  28.826  33.802  1.00  0.00     0.049 A 
ATOM     51  C   UNL A   1      43.423  25.124  29.571  1.00  0.00     0.074 A 
ATOM     52  C   UNL A   1      43.826  28.728  34.819  1.00  0.00     0.029 A 
ATOM     53  N   UNL A   1      43.226  27.859  32.859  1.00  0.00    -0.354 N 
ATOM     54  N   UNL A   1      43.436  25.936  30.603  1.00  0.00    -0.248 NA
ATOM     55  C   UNL A   1      44.543  24.176  29.538  1.00  0.00     0.031 C 
ATOM     56  C   UNL A   1      44.775  27.772  34.444  1.00  0.00     0.029 A 
ATOM     57  C   UNL A   1      44.373  27.189  33.250  1.00  0.00     0.049 A 
ATOM     58  H   UNL A   1      42.719  27.677  32.035  1.00  0.00     0.167 HD
ATOM     59  C   UNL A   1      44.544  25.573  31.363  1.00  0.00     0.074 A 
ATOM     60  C   UNL A   1      45.176  24.469  30.667  1.00  0.00     0.031 C 
ATOM     61  C   UNL A   1      44.988  26.091  32.537  1.00  0.00     0.034 A 
BRANCH  48  62
ATOM     62  C   UNL A   1      41.602  30.835  34.710  1.00  0.00     0.023 A 
ATOM     63  C   UNL A   1      40.487  30.867  35.568  1.00  0.00     0.031 A 
ATOM     64  C   UNL A   1      42.505  31.911  34.771  1.00  0.00     0.131 A 
ATOM     65  C   UNL A   1      40.239  32.003  36.352  1.00  0.00     0.055 A 
ATOM     66  C   UNL A   1      42.312  32.986  35.641  1.00  0.00     0.041 A 
ATOM     67  F   UNL A   1      43.573  31.956  33.960  1.00  0.00    -0.206 F 
ATOM     68  C   UNL A   1      41.160  33.049  36.419  1.00  0.00     0.022 A 
BRANCH  65  69
ATOM     69  S   UNL A   1      38.598  32.186  37.105  1.00  0.00     0.124 S 
ATOM     70  O   UNL A   1      38.144  33.446  36.519  1.00  0.00    -0.237 OA
ATOM     71  O   UNL A   1      37.906  30.985  36.653  1.00  0.00    -0.237 OA
ATOM     72  O   UNL A   1      38.883  32.243  38.537  1.00  0.00    -0.744 OA
ENDBRANCH  65  69
ENDBRANCH  48  62
BRANCH  49  73
ATOM     73  C   UNL A   1      42.611  24.093  27.305  1.00  0.00     0.023 A 
ATOM     74  C   UNL A   1      42.050  22.807  27.323  1.00  0.00     0.031 A 
ATOM     75  C   UNL A   1      43.355  24.471  26.171  1.00  0.00     0.131 A 
ATOM     76  C   UNL A   1      42.263  21.934  26.243  1.00  0.00     0.055 A 
ATOM     77  C   UNL A   1      43.519  23.620  25.077  1.00  0.00     0.041 A 
ATOM     78  F   UNL A   1      43.914  25.689  26.101  1.00  0.00    -0.206 F 
ATOM     79  C   UNL A   1      42.977  22.339  25.112  1.00  0.00     0.022 A 
BRANCH  76  80
ATOM     80  S   UNL A   1      41.650  20.231  26.361  1.00  0.00     0.124 S 
ATOM     81  O   UNL A   1      42.078  19.855  27.704  1.00  0.00    -0.237 OA
ATOM     82  O   UNL A   1      40.215  20.410  26.171  1.00  0.00    -0.237 OA
ATOM     83  O   UNL A   1      42.340  19.545  25.271  1.00  0.00    -0.744 OA
ENDBRANCH  76  80
ENDBRANCH  49  73
BRANCH  61  84
ATOM     84  C   UNL A   1      46.175  25.426  33.191  1.00  0.00     0.023 A 
ATOM     85  C   UNL A   1      46.036  24.410  34.150  1.00  0.00     0.031 A 
ATOM     86  C   UNL A   1      47.477  25.798  32.803  1.00  0.00     0.131 A 
ATOM     87  C   UNL A   1      47.179  23.826  34.716  1.00  0.00     0.055 A 
ATOM     88  C   UNL A   1      48.607  25.164  33.317  1.00  0.00     0.041 A 
ATOM     89  F   UNL A   1      47.670  26.770  31.897  1.00  0.00    -0.206 F 
ATOM     90  C   UNL A   1      48.462  24.177  34.286  1.00  0.00     0.022 A 
BRANCH  87  91
ATOM     91  S   UNL A   1      46.975  22.660  36.090  1.00  0.00     0.124 S 
ATOM     92  O   UNL A   1      47.877  23.215  37.093  1.00  0.00    -0.237 OA
ATOM     93  O   UNL A   1      45.550  22.768  36.384  1.00  0.00    -0.237 OA
ATOM     94  O   UNL A   1      47.396  21.382  35.520  1.00  0.00    -0.744 OA
ENDBRANCH  87  91
ENDBRANCH  61  84
ENDBRANCH  35  36
ENDBRANCH  27  30
ENDBRANCH  25  26
ENDBRANCH  24  25
ENDBRANCH  23  24
ENDBRANCH   1  23
TORSDOF 20
ENDMDL
MODEL 3
REMARK VINA RESULT:     -10.4      1.971      8.032
REMARK SMILES C[N@H+](CCC(=O)Nc1sccc1C#N)CC(=O)NCCCCNC(=O)c1ccc(-c2c3nc(c(-c4cc(S(=O)(=O)[O-])ccc4F)c4ccc([nH]4)c(-c4cc(S(=O)(=O)[O-])ccc4F)c4nc(c(-c5cc(S(=O)(=O)[O-])ccc5F)c5ccc2[nH]5)C=C4)C=C3)cc1
REMARK SMILES IDX 19 1 18 2 16 3 17 4 15 6 2 7 1 8 3 10 4 11 5 12 6 13 7 14
REMARK SMILES IDX 8 16 9 17 12 18 10 19 11 20 13 21 14 22 20 23 21 24 22 25
REMARK SMILES IDX 23 26 24 27 25 29 26 30 27 31 88 32 28 33 87 34 29 35 30 36
REMARK SMILES IDX 31 37 81 38 32 39 86 40 80 41 82 42 33 43 85 44 79 45 78 46
REMARK SMILES IDX 34 48 66 49 46 50 65 51 47 52 50 53 64 54 83 55 48 56 49 57
REMARK SMILES IDX 63 59 84 60 51 61 35 62 36 63 44 64 37 65 43 66 45 67 42 68
REMARK SMILES IDX 38 69 39 70 40 71 41 72 67 73 68 74 76 75 69 76 75 77 77 78
REMARK SMILES IDX 74 79 70 80 71 81 72 82 73 83 52 84 53 85 61 86 54 87 60 88
REMARK SMILES IDX 62 89 59 90 55 91 56 92 57 93 58 94
REMARK H PARENT 18 5 2 9 7 15 23 28 82 47 50 58
REMARK Flexibility Score: inf
ROOT
ATOM      1  C   UNL A   1      33.879  27.092  24.559  1.00  0.00     0.116 C 
ENDROOT
BRANCH   1   2
ATOM      2  N   UNL A   1      33.739  25.979  23.643  1.00  0.00    -0.351 N 
ATOM      3  C   UNL A   1      34.265  24.740  23.523  1.00  0.00     0.275 C 
ATOM      4  O   UNL A   1      33.806  24.069  22.585  1.00  0.00    -0.269 OA
ATOM      5  H   UNL A   1      33.096  26.176  22.924  1.00  0.00     0.163 HD
BRANCH   3   6
ATOM      6  C   UNL A   1      35.186  24.035  24.504  1.00  0.00     0.363 C 
BRANCH   6   7
ATOM      7  N   UNL A   1      34.614  23.151  25.521  1.00  0.00    -0.329 N 
ATOM      8  C   UNL A   1      34.298  21.850  24.893  1.00  0.00     0.333 C 
ATOM      9  H   UNL A   1      35.309  23.049  26.261  1.00  0.00     0.348 HD
BRANCH   7  10
ATOM     10  C   UNL A   1      33.401  23.702  26.169  1.00  0.00     0.272 C 
BRANCH  10  11
ATOM     11  C   UNL A   1      32.055  22.957  26.068  1.00  0.00     0.161 C 
BRANCH  11  12
ATOM     12  C   UNL A   1      30.626  23.363  26.501  1.00  0.00     0.230 C 
ATOM     13  O   UNL A   1      29.966  22.512  27.123  1.00  0.00    -0.274 OA
ATOM     14  N   UNL A   1      30.002  24.561  26.355  1.00  0.00    -0.316 N 
ATOM     15  H   UNL A   1      29.233  24.703  26.952  1.00  0.00     0.170 HD
BRANCH  14  16
ATOM     16  C   UNL A   1      30.276  25.600  25.511  1.00  0.00     0.113 A 
ATOM     17  S   UNL A   1      30.157  25.191  23.855  1.00  0.00    -0.125 S 
ATOM     18  C   UNL A   1      30.608  26.917  25.693  1.00  0.00     0.087 A 
ATOM     19  C   UNL A   1      30.074  26.849  23.422  1.00  0.00     0.068 A 
ATOM     20  C   UNL A   1      30.412  27.661  24.487  1.00  0.00     0.033 A 
BRANCH  18  21
ATOM     21  C   UNL A   1      31.056  27.446  26.936  1.00  0.00     0.102 C 
ATOM     22  N   UNL A   1      31.406  27.915  27.946  1.00  0.00    -0.192 NA
ENDBRANCH  18  21
ENDBRANCH  14  16
ENDBRANCH  11  12
ENDBRANCH  10  11
ENDBRANCH   7  10
ENDBRANCH   6   7
ENDBRANCH   3   6
ENDBRANCH   1   2
BRANCH   1  23
ATOM     23  C   UNL A   1      33.939  28.456  23.879  1.00  0.00     0.023 C 
BRANCH  23  24
ATOM     24  C   UNL A   1      33.213  29.528  24.678  1.00  0.00     0.023 C 
BRANCH  24  25
ATOM     25  C   UNL A   1      33.747  29.672  26.088  1.00  0.00     0.116 C 
BRANCH  25  26
ATOM     26  N   UNL A   1      33.451  30.974  26.682  1.00  0.00    -0.352 N 
ATOM     27  C   UNL A   1      34.223  31.616  27.625  1.00  0.00     0.251 C 
ATOM     28  H   UNL A   1      32.632  31.431  26.383  1.00  0.00     0.163 HD
ATOM     29  O   UNL A   1      33.854  32.627  28.204  1.00  0.00    -0.269 OA
BRANCH  27  30
ATOM     30  C   UNL A   1      35.529  30.991  27.890  1.00  0.00     0.039 A 
ATOM     31  C   UNL A   1      36.658  31.797  28.045  1.00  0.00     0.014 A 
ATOM     32  C   UNL A   1      35.510  29.660  28.312  1.00  0.00     0.014 A 
ATOM     33  C   UNL A   1      37.779  31.262  28.677  1.00  0.00     0.010 A 
ATOM     34  C   UNL A   1      36.574  29.184  29.054  1.00  0.00     0.010 A 
ATOM     35  C   UNL A   1      37.730  29.967  29.216  1.00  0.00    -0.014 A 
BRANCH  35  36
ATOM     36  C   UNL A   1      38.900  29.344  29.880  1.00  0.00     0.031 A 
ATOM     37  C   UNL A   1      39.297  29.862  31.234  1.00  0.00     0.074 A 
ATOM     38  C   UNL A   1      39.636  28.407  29.255  1.00  0.00     0.049 A 
ATOM     39  N   UNL A   1      40.365  29.609  31.940  1.00  0.00    -0.248 NA
ATOM     40  C   UNL A   1      38.392  30.850  31.844  1.00  0.00     0.031 C 
ATOM     41  C   UNL A   1      39.360  27.856  27.926  1.00  0.00     0.029 A 
ATOM     42  N   UNL A   1      40.780  27.762  29.650  1.00  0.00    -0.354 N 
ATOM     43  C   UNL A   1      40.276  30.436  33.054  1.00  0.00     0.074 A 
ATOM     44  C   UNL A   1      39.105  31.266  32.874  1.00  0.00     0.031 C 
ATOM     45  C   UNL A   1      40.294  26.936  27.632  1.00  0.00     0.029 A 
ATOM     46  C   UNL A   1      41.269  26.877  28.717  1.00  0.00     0.049 A 
ATOM     47  H   UNL A   1      41.211  27.917  30.522  1.00  0.00     0.167 HD
ATOM     48  C   UNL A   1      41.077  30.475  34.145  1.00  0.00     0.034 A 
ATOM     49  C   UNL A   1      42.388  26.125  28.730  1.00  0.00     0.034 A 
ATOM     50  C   UNL A   1      42.226  29.623  34.298  1.00  0.00     0.049 A 
ATOM     51  C   UNL A   1      43.295  26.203  29.934  1.00  0.00     0.074 A 
ATOM     52  C   UNL A   1      43.085  29.523  35.377  1.00  0.00     0.029 A 
ATOM     53  N   UNL A   1      42.686  28.732  33.335  1.00  0.00    -0.354 N 
ATOM     54  N   UNL A   1      43.181  26.956  31.004  1.00  0.00    -0.248 NA
ATOM     55  C   UNL A   1      44.472  25.327  29.938  1.00  0.00     0.031 C 
ATOM     56  C   UNL A   1      44.117  28.648  35.026  1.00  0.00     0.029 A 
ATOM     57  C   UNL A   1      43.841  28.111  33.776  1.00  0.00     0.049 A 
ATOM     58  H   UNL A   1      42.253  28.568  32.466  1.00  0.00     0.167 HD
ATOM     59  C   UNL A   1      44.251  26.617  31.827  1.00  0.00     0.074 A 
ATOM     60  C   UNL A   1      45.001  25.593  31.125  1.00  0.00     0.031 C 
ATOM     61  C   UNL A   1      44.575  27.093  33.057  1.00  0.00     0.034 A 
BRANCH  48  62
ATOM     62  C   UNL A   1      40.746  31.498  35.208  1.00  0.00     0.023 A 
ATOM     63  C   UNL A   1      39.681  31.315  36.111  1.00  0.00     0.031 A 
ATOM     64  C   UNL A   1      41.448  32.714  35.265  1.00  0.00     0.131 A 
ATOM     65  C   UNL A   1      39.274  32.371  36.937  1.00  0.00     0.055 A 
ATOM     66  C   UNL A   1      41.109  33.719  36.173  1.00  0.00     0.041 A 
ATOM     67  F   UNL A   1      42.455  32.964  34.414  1.00  0.00    -0.206 F 
ATOM     68  C   UNL A   1      40.000  33.561  36.998  1.00  0.00     0.022 A 
BRANCH  65  69
ATOM     69  S   UNL A   1      37.660  32.247  37.759  1.00  0.00     0.124 S 
ATOM     70  O   UNL A   1      36.820  33.060  36.884  1.00  0.00    -0.237 OA
ATOM     71  O   UNL A   1      37.404  30.811  37.738  1.00  0.00    -0.237 OA
ATOM     72  O   UNL A   1      37.905  32.819  39.082  1.00  0.00    -0.744 OA
ENDBRANCH  65  69
ENDBRANCH  48  62
BRANCH  49  73
ATOM     73  C   UNL A   1      42.717  25.256  27.562  1.00  0.00     0.023 A 
ATOM     74  C   UNL A   1      42.222  23.947  27.462  1.00  0.00     0.031 A 
ATOM     75  C   UNL A   1      43.533  25.734  26.519  1.00  0.00     0.131 A 
ATOM     76  C   UNL A   1      42.568  23.150  26.357  1.00  0.00     0.055 A 
ATOM     77  C   UNL A   1      43.830  24.957  25.398  1.00  0.00     0.041 A 
ATOM     78  F   UNL A   1      44.033  26.978  26.565  1.00  0.00    -0.206 F 
ATOM     79  C   UNL A   1      43.352  23.653  25.316  1.00  0.00     0.022 A 
BRANCH  76  80
ATOM     80  S   UNL A   1      42.035  21.416  26.328  1.00  0.00     0.124 S 
ATOM     81  O   UNL A   1      42.224  21.025  27.720  1.00  0.00    -0.237 OA
ATOM     82  O   UNL A   1      40.653  21.531  25.874  1.00  0.00    -0.237 OA
ATOM     83  O   UNL A   1      42.952  20.794  25.375  1.00  0.00    -0.744 OA
ENDBRANCH  76  80
ENDBRANCH  49  73
BRANCH  61  84
ATOM     84  C   UNL A   1      45.751  26.464  33.764  1.00  0.00     0.023 A 
ATOM     85  C   UNL A   1      45.615  25.346  34.603  1.00  0.00     0.031 A 
ATOM     86  C   UNL A   1      47.044  26.978  33.549  1.00  0.00     0.131 A 
ATOM     87  C   UNL A   1      46.749  24.803  35.227  1.00  0.00     0.055 A 
ATOM     88  C   UNL A   1      48.174  26.390  34.114  1.00  0.00     0.041 A 
ATOM     89  F   UNL A   1      47.231  28.051  32.762  1.00  0.00    -0.206 F 
ATOM     90  C   UNL A   1      48.029  25.300  34.966  1.00  0.00     0.022 A 
BRANCH  87  91
ATOM     91  S   UNL A   1      46.524  23.490  36.456  1.00  0.00     0.124 S 
ATOM     92  O   UNL A   1      46.818  24.189  37.703  1.00  0.00    -0.237 OA
ATOM     93  O   UNL A   1      45.131  23.105  36.255  1.00  0.00    -0.237 OA
ATOM     94  O   UNL A   1      47.508  22.482  36.066  1.00  0.00    -0.744 OA
ENDBRANCH  87  91
ENDBRANCH  61  84
ENDBRANCH  35  36
ENDBRANCH  27  30
ENDBRANCH  25  26
ENDBRANCH  24  25
ENDBRANCH  23  24
ENDBRANCH   1  23
TORSDOF 20
ENDMDL
