MODEL 1
REMARK VINA RESULT:     -12.5      0.000      0.000
REMARK SMILES COc1ccc2c(c1)c(CC(=O)NCCCCNC(=O)c1ccc(-c3c4nc(c(-c5cc(S(=O)(=O)[O-])ccc5F)c5ccc([nH]5)c(-c5cc(S(=O)(=O)[O-])ccc5F)c5nc(c(-c6cc(S(=O)(=O)[O-])ccc6F)c6ccc3[nH]6)C=C5)C=C4)cc1)c(C)n2Cc1ccn(C(F)F)c(=O)c1
REMARK SMILES IDX 15 1 14 2 13 3 11 4 12 5 10 7 9 8 3 9 4 10 8 11 5 12 7 13
REMARK SMILES IDX 6 14 86 15 84 16 85 17 2 18 1 19 87 20 88 21 89 22 97 23
REMARK SMILES IDX 90 24 95 25 91 26 96 27 92 28 93 29 94 30 16 31 17 32 18 33
REMARK SMILES IDX 19 34 20 36 21 37 22 38 83 39 23 40 82 41 24 42 25 43 26 44
REMARK SMILES IDX 76 45 27 46 81 47 75 48 77 49 28 50 80 51 74 52 73 53 29 55
REMARK SMILES IDX 61 56 41 57 60 58 42 59 45 60 59 61 78 62 43 63 44 64 58 66
REMARK SMILES IDX 79 67 46 68 30 69 31 70 39 71 32 72 38 73 40 74 37 75 33 76
REMARK SMILES IDX 34 77 35 78 36 79 62 80 63 81 71 82 64 83 70 84 72 85 69 86
REMARK SMILES IDX 65 87 66 88 67 89 68 90 47 91 48 92 56 93 49 94 55 95 57 96
REMARK SMILES IDX 54 97 50 98 51 99 52 100 53 101
REMARK H PARENT 13 6 18 35 77 54 45 65
REMARK Flexibility Score: inf
ROOT
ATOM      1  C   UNL A   1      40.159  22.908  27.587  1.00  0.00     0.023 C 
ENDROOT
BRANCH   1   2
ATOM      2  C   UNL A   1      39.070  23.662  26.823  1.00  0.00     0.116 C 
BRANCH   2   3
ATOM      3  N   UNL A   1      38.511  22.884  25.733  1.00  0.00    -0.356 N 
ATOM      4  C   UNL A   1      37.280  22.975  25.145  1.00  0.00     0.224 C 
ATOM      5  O   UNL A   1      37.038  22.239  24.185  1.00  0.00    -0.275 OA
ATOM      6  H   UNL A   1      39.103  22.190  25.363  1.00  0.00     0.163 HD
BRANCH   4   7
ATOM      7  C   UNL A   1      36.272  24.023  25.597  1.00  0.00     0.138 C 
BRANCH   7   8
ATOM      8  C   UNL A   1      34.858  23.686  25.235  1.00  0.00    -0.010 A 
ATOM      9  C   UNL A   1      33.394  25.669  22.328  1.00  0.00     0.119 A 
ATOM     10  C   UNL A   1      32.194  24.970  22.259  1.00  0.00     0.048 A 
ATOM     11  C   UNL A   1      34.367  25.289  23.252  1.00  0.00     0.057 A 
ATOM     12  C   UNL A   1      31.926  23.901  23.131  1.00  0.00     0.031 A 
ATOM     13  C   UNL A   1      34.105  24.250  24.168  1.00  0.00     0.007 A 
ATOM     14  C   UNL A   1      32.890  23.563  24.100  1.00  0.00     0.049 A 
ATOM     15  N   UNL A   1      32.922  22.584  25.088  1.00  0.00    -0.340 N 
ATOM     16  C   UNL A   1      34.014  22.816  25.911  1.00  0.00     0.020 A 
ATOM     17  C   UNL A   1      34.247  22.182  27.238  1.00  0.00     0.065 C 
BRANCH   9  18
ATOM     18  O   UNL A   1      33.750  26.697  21.496  1.00  0.00    -0.497 OA
ATOM     19  C   UNL A   1      33.772  27.981  22.108  1.00  0.00     0.278 C 
ENDBRANCH   9  18
BRANCH  15  20
ATOM     20  C   UNL A   1      31.905  21.537  25.274  1.00  0.00     0.158 C 
BRANCH  20  21
ATOM     21  C   UNL A   1      32.314  20.163  24.773  1.00  0.00    -0.021 A 
ATOM     22  C   UNL A   1      32.774  19.157  25.713  1.00  0.00     0.024 A 
ATOM     23  C   UNL A   1      32.189  19.801  23.483  1.00  0.00     0.077 A 
ATOM     24  C   UNL A   1      33.228  17.970  25.294  1.00  0.00     0.095 A 
ATOM     25  C   UNL A   1      32.575  18.433  23.010  1.00  0.00     0.255 A 
ATOM     26  N   UNL A   1      33.188  17.627  23.959  1.00  0.00    -0.258 N 
ATOM     27  O   UNL A   1      32.326  18.126  21.858  1.00  0.00    -0.269 OA
BRANCH  26  28
ATOM     28  C   UNL A   1      33.652  16.329  23.527  1.00  0.00     0.451 C 
ATOM     29  F   UNL A   1      34.689  16.466  22.664  1.00  0.00    -0.185 F 
ATOM     30  F   UNL A   1      34.068  15.579  24.571  1.00  0.00    -0.185 F 
ENDBRANCH  26  28
ENDBRANCH  20  21
ENDBRANCH  15  20
ENDBRANCH   7   8
ENDBRANCH   4   7
ENDBRANCH   2   3
ENDBRANCH   1   2
BRANCH   1  31
ATOM     31  C   UNL A   1      40.544  21.545  26.995  1.00  0.00     0.023 C 
BRANCH  31  32
ATOM     32  C   UNL A   1      42.045  21.323  26.798  1.00  0.00     0.116 C 
BRANCH  32  33
ATOM     33  N   UNL A   1      42.560  21.814  25.535  1.00  0.00    -0.352 N 
ATOM     34  C   UNL A   1      43.102  23.003  25.120  1.00  0.00     0.251 C 
ATOM     35  H   UNL A   1      42.510  21.144  24.815  1.00  0.00     0.163 HD
ATOM     36  O   UNL A   1      43.651  22.970  24.014  1.00  0.00    -0.269 OA
BRANCH  34  37
ATOM     37  C   UNL A   1      42.989  24.301  25.844  1.00  0.00     0.039 A 
ATOM     38  C   UNL A   1      43.721  24.656  26.975  1.00  0.00     0.014 A 
ATOM     39  C   UNL A   1      41.981  25.181  25.399  1.00  0.00     0.014 A 
ATOM     40  C   UNL A   1      43.373  25.783  27.708  1.00  0.00     0.010 A 
ATOM     41  C   UNL A   1      41.637  26.321  26.124  1.00  0.00     0.010 A 
ATOM     42  C   UNL A   1      42.299  26.592  27.313  1.00  0.00    -0.014 A 
BRANCH  42  43
ATOM     43  C   UNL A   1      42.007  27.762  28.141  1.00  0.00     0.031 A 
ATOM     44  C   UNL A   1      42.929  28.907  27.899  1.00  0.00     0.074 A 
ATOM     45  C   UNL A   1      40.995  27.858  29.027  1.00  0.00     0.049 A 
ATOM     46  N   UNL A   1      43.850  29.363  28.683  1.00  0.00    -0.248 NA
ATOM     47  C   UNL A   1      42.944  29.493  26.551  1.00  0.00     0.031 C 
ATOM     48  C   UNL A   1      39.850  26.960  29.201  1.00  0.00     0.029 A 
ATOM     49  N   UNL A   1      40.745  28.848  29.934  1.00  0.00    -0.354 N 
ATOM     50  C   UNL A   1      44.446  30.422  28.000  1.00  0.00     0.074 A 
ATOM     51  C   UNL A   1      43.960  30.352  26.647  1.00  0.00     0.031 C 
ATOM     52  C   UNL A   1      38.924  27.560  29.985  1.00  0.00     0.029 A 
ATOM     53  C   UNL A   1      39.478  28.799  30.502  1.00  0.00     0.049 A 
ATOM     54  H   UNL A   1      41.407  29.540  30.164  1.00  0.00     0.167 HD
ATOM     55  C   UNL A   1      45.149  31.392  28.650  1.00  0.00     0.034 A 
ATOM     56  C   UNL A   1      38.909  29.727  31.312  1.00  0.00     0.034 A 
ATOM     57  C   UNL A   1      45.465  30.995  29.994  1.00  0.00     0.049 A 
ATOM     58  C   UNL A   1      39.989  30.551  31.895  1.00  0.00     0.074 A 
ATOM     59  C   UNL A   1      46.306  30.073  30.576  1.00  0.00     0.029 A 
ATOM     60  N   UNL A   1      44.560  31.369  30.955  1.00  0.00    -0.354 N 
ATOM     61  N   UNL A   1      40.842  30.120  32.779  1.00  0.00    -0.248 NA
ATOM     62  C   UNL A   1      40.363  31.778  31.212  1.00  0.00     0.031 C 
ATOM     63  C   UNL A   1      45.635  29.645  31.756  1.00  0.00     0.029 A 
ATOM     64  C   UNL A   1      44.441  30.363  31.877  1.00  0.00     0.049 A 
ATOM     65  H   UNL A   1      44.073  32.224  30.978  1.00  0.00     0.167 HD
ATOM     66  C   UNL A   1      42.033  30.729  32.426  1.00  0.00     0.074 A 
ATOM     67  C   UNL A   1      41.646  31.847  31.572  1.00  0.00     0.031 C 
ATOM     68  C   UNL A   1      43.227  30.097  32.628  1.00  0.00     0.034 A 
BRANCH  55  69
ATOM     69  C   UNL A   1      45.225  32.831  28.193  1.00  0.00     0.023 A 
ATOM     70  C   UNL A   1      46.353  33.362  27.543  1.00  0.00     0.031 A 
ATOM     71  C   UNL A   1      44.074  33.647  28.186  1.00  0.00     0.131 A 
ATOM     72  C   UNL A   1      46.340  34.634  26.957  1.00  0.00     0.055 A 
ATOM     73  C   UNL A   1      44.037  34.891  27.538  1.00  0.00     0.041 A 
ATOM     74  F   UNL A   1      42.932  33.240  28.760  1.00  0.00    -0.206 F 
ATOM     75  C   UNL A   1      45.176  35.392  26.919  1.00  0.00     0.022 A 
BRANCH  72  76
ATOM     76  S   UNL A   1      47.851  35.314  26.218  1.00  0.00     0.124 S 
ATOM     77  O   UNL A   1      47.422  36.654  25.831  1.00  0.00    -0.237 OA
ATOM     78  O   UNL A   1      48.781  35.247  27.342  1.00  0.00    -0.237 OA
ATOM     79  O   UNL A   1      48.140  34.395  25.122  1.00  0.00    -0.744 OA
ENDBRANCH  72  76
ENDBRANCH  55  69
BRANCH  56  80
ATOM     80  C   UNL A   1      37.524  30.246  31.232  1.00  0.00     0.023 A 
ATOM     81  C   UNL A   1      37.007  30.619  29.977  1.00  0.00     0.031 A 
ATOM     82  C   UNL A   1      36.851  30.715  32.375  1.00  0.00     0.131 A 
ATOM     83  C   UNL A   1      35.908  31.484  29.892  1.00  0.00     0.055 A 
ATOM     84  C   UNL A   1      35.735  31.558  32.286  1.00  0.00     0.041 A 
ATOM     85  F   UNL A   1      37.315  30.431  33.603  1.00  0.00    -0.206 F 
ATOM     86  C   UNL A   1      35.271  31.962  31.040  1.00  0.00     0.022 A 
BRANCH  83  87
ATOM     87  S   UNL A   1      35.359  32.108  28.280  1.00  0.00     0.124 S 
ATOM     88  O   UNL A   1      34.062  32.697  28.607  1.00  0.00    -0.237 OA
ATOM     89  O   UNL A   1      36.416  33.060  27.956  1.00  0.00    -0.237 OA
ATOM     90  O   UNL A   1      35.302  30.911  27.449  1.00  0.00    -0.744 OA
ENDBRANCH  83  87
ENDBRANCH  56  80
BRANCH  68  91
ATOM     91  C   UNL A   1      43.253  28.891  33.543  1.00  0.00     0.023 A 
ATOM     92  C   UNL A   1      43.617  29.119  34.881  1.00  0.00     0.031 A 
ATOM     93  C   UNL A   1      43.134  27.553  33.122  1.00  0.00     0.131 A 
ATOM     94  C   UNL A   1      43.898  28.046  35.733  1.00  0.00     0.055 A 
ATOM     95  C   UNL A   1      43.340  26.481  33.999  1.00  0.00     0.041 A 
ATOM     96  F   UNL A   1      42.892  27.238  31.843  1.00  0.00    -0.206 F 
ATOM     97  C   UNL A   1      43.744  26.725  35.307  1.00  0.00     0.022 A 
BRANCH  94  98
ATOM     98  S   UNL A   1      44.630  28.348  37.362  1.00  0.00     0.124 S 
ATOM     99  O   UNL A   1      46.060  28.338  37.067  1.00  0.00    -0.237 OA
ATOM    100  O   UNL A   1      44.073  29.653  37.716  1.00  0.00    -0.237 OA
ATOM    101  O   UNL A   1      44.153  27.234  38.177  1.00  0.00    -0.744 OA
ENDBRANCH  94  98
ENDBRANCH  68  91
ENDBRANCH  42  43
ENDBRANCH  34  37
ENDBRANCH  32  33
ENDBRANCH  31  32
ENDBRANCH   1  31
TORSDOF 19
ENDMDL
MODEL 2
REMARK VINA RESULT:     -10.9      5.011      8.730
REMARK SMILES COc1ccc2c(c1)c(CC(=O)NCCCCNC(=O)c1ccc(-c3c4nc(c(-c5cc(S(=O)(=O)[O-])ccc5F)c5ccc([nH]5)c(-c5cc(S(=O)(=O)[O-])ccc5F)c5nc(c(-c6cc(S(=O)(=O)[O-])ccc6F)c6ccc3[nH]6)C=C5)C=C4)cc1)c(C)n2Cc1ccn(C(F)F)c(=O)c1
REMARK SMILES IDX 15 1 14 2 13 3 11 4 12 5 10 7 9 8 3 9 4 10 8 11 5 12 7 13
REMARK SMILES IDX 6 14 86 15 84 16 85 17 2 18 1 19 87 20 88 21 89 22 97 23
REMARK SMILES IDX 90 24 95 25 91 26 96 27 92 28 93 29 94 30 16 31 17 32 18 33
REMARK SMILES IDX 19 34 20 36 21 37 22 38 83 39 23 40 82 41 24 42 25 43 26 44
REMARK SMILES IDX 76 45 27 46 81 47 75 48 77 49 28 50 80 51 74 52 73 53 29 55
REMARK SMILES IDX 61 56 41 57 60 58 42 59 45 60 59 61 78 62 43 63 44 64 58 66
REMARK SMILES IDX 79 67 46 68 30 69 31 70 39 71 32 72 38 73 40 74 37 75 33 76
REMARK SMILES IDX 34 77 35 78 36 79 62 80 63 81 71 82 64 83 70 84 72 85 69 86
REMARK SMILES IDX 65 87 66 88 67 89 68 90 47 91 48 92 56 93 49 94 55 95 57 96
REMARK SMILES IDX 54 97 50 98 51 99 52 100 53 101
REMARK H PARENT 13 6 18 35 77 54 45 65
REMARK Flexibility Score: inf
ROOT
ATOM      1  C   UNL A   1      44.073  25.699  25.389  1.00  0.00     0.023 C 
ENDROOT
BRANCH   1   2
ATOM      2  C   UNL A   1      44.640  26.518  26.549  1.00  0.00     0.116 C 
BRANCH   2   3
ATOM      3  N   UNL A   1      45.921  27.123  26.233  1.00  0.00    -0.356 N 
ATOM      4  C   UNL A   1      47.170  26.791  26.679  1.00  0.00     0.224 C 
ATOM      5  O   UNL A   1      48.134  27.416  26.228  1.00  0.00    -0.275 OA
ATOM      6  H   UNL A   1      45.886  27.883  25.608  1.00  0.00     0.163 HD
BRANCH   4   7
ATOM      7  C   UNL A   1      47.376  25.619  27.629  1.00  0.00     0.138 C 
BRANCH   7   8
ATOM      8  C   UNL A   1      47.152  25.970  29.068  1.00  0.00    -0.010 A 
ATOM      9  C   UNL A   1      49.848  28.142  30.663  1.00  0.00     0.119 A 
ATOM     10  C   UNL A   1      49.197  28.322  31.878  1.00  0.00     0.048 A 
ATOM     11  C   UNL A   1      49.231  27.416  29.645  1.00  0.00     0.057 A 
ATOM     12  C   UNL A   1      47.932  27.755  32.114  1.00  0.00     0.031 A 
ATOM     13  C   UNL A   1      47.984  26.798  29.872  1.00  0.00     0.007 A 
ATOM     14  C   UNL A   1      47.344  26.973  31.102  1.00  0.00     0.049 A 
ATOM     15  N   UNL A   1      46.135  26.288  31.030  1.00  0.00    -0.340 N 
ATOM     16  C   UNL A   1      46.134  25.502  29.887  1.00  0.00     0.020 A 
ATOM     17  C   UNL A   1      45.166  24.411  29.589  1.00  0.00     0.065 C 
BRANCH   9  18
ATOM     18  O   UNL A   1      51.061  28.688  30.337  1.00  0.00    -0.497 OA
ATOM     19  C   UNL A   1      51.884  27.869  29.515  1.00  0.00     0.278 C 
ENDBRANCH   9  18
BRANCH  15  20
ATOM     20  C   UNL A   1      45.079  26.328  32.054  1.00  0.00     0.158 C 
BRANCH  20  21
ATOM     21  C   UNL A   1      45.104  25.167  33.032  1.00  0.00    -0.021 A 
ATOM     22  C   UNL A   1      46.366  24.718  33.591  1.00  0.00     0.024 A 
ATOM     23  C   UNL A   1      43.979  24.578  33.477  1.00  0.00     0.077 A 
ATOM     24  C   UNL A   1      46.431  23.640  34.382  1.00  0.00     0.095 A 
ATOM     25  C   UNL A   1      44.020  23.448  34.461  1.00  0.00     0.255 A 
ATOM     26  N   UNL A   1      45.287  22.975  34.769  1.00  0.00    -0.258 N 
ATOM     27  O   UNL A   1      42.967  23.038  34.918  1.00  0.00    -0.269 OA
BRANCH  26  28
ATOM     28  C   UNL A   1      45.373  21.833  35.650  1.00  0.00     0.451 C 
ATOM     29  F   UNL A   1      46.521  21.148  35.420  1.00  0.00    -0.185 F 
ATOM     30  F   UNL A   1      45.358  22.207  36.948  1.00  0.00    -0.185 F 
ENDBRANCH  26  28
ENDBRANCH  20  21
ENDBRANCH  15  20
ENDBRANCH   7   8
ENDBRANCH   4   7
ENDBRANCH   2   3
ENDBRANCH   1   2
BRANCH   1  31
ATOM     31  C   UNL A   1      44.244  24.180  25.523  1.00  0.00     0.023 C 
BRANCH  31  32
ATOM     32  C   UNL A   1      43.342  23.342  24.612  1.00  0.00     0.116 C 
BRANCH  32  33
ATOM     33  N   UNL A   1      42.436  22.460  25.319  1.00  0.00    -0.352 N 
ATOM     34  C   UNL A   1      41.369  22.656  26.158  1.00  0.00     0.251 C 
ATOM     35  H   UNL A   1      42.629  21.507  25.161  1.00  0.00     0.163 HD
ATOM     36  O   UNL A   1      40.686  21.651  26.381  1.00  0.00    -0.269 OA
BRANCH  34  37
ATOM     37  C   UNL A   1      41.053  23.928  26.868  1.00  0.00     0.039 A 
ATOM     38  C   UNL A   1      40.166  24.901  26.413  1.00  0.00     0.014 A 
ATOM     39  C   UNL A   1      41.801  24.199  28.032  1.00  0.00     0.014 A 
ATOM     40  C   UNL A   1      40.123  26.149  27.025  1.00  0.00     0.010 A 
ATOM     41  C   UNL A   1      41.750  25.444  28.657  1.00  0.00     0.010 A 
ATOM     42  C   UNL A   1      40.950  26.440  28.118  1.00  0.00    -0.014 A 
BRANCH  42  43
ATOM     43  C   UNL A   1      40.833  27.776  28.702  1.00  0.00     0.031 A 
ATOM     44  C   UNL A   1      41.831  28.747  28.173  1.00  0.00     0.074 A 
ATOM     45  C   UNL A   1      39.909  28.153  29.609  1.00  0.00     0.049 A 
ATOM     46  N   UNL A   1      42.851  29.251  28.788  1.00  0.00    -0.248 NA
ATOM     47  C   UNL A   1      41.790  29.047  26.735  1.00  0.00     0.031 C 
ATOM     48  C   UNL A   1      38.705  27.432  30.035  1.00  0.00     0.029 A 
ATOM     49  N   UNL A   1      39.823  29.325  30.305  1.00  0.00    -0.354 N 
ATOM     50  C   UNL A   1      43.482  30.084  27.866  1.00  0.00     0.074 A 
ATOM     51  C   UNL A   1      42.883  29.796  26.589  1.00  0.00     0.031 C 
ATOM     52  C   UNL A   1      37.904  28.270  30.733  1.00  0.00     0.029 A 
ATOM     53  C   UNL A   1      38.608  29.523  30.947  1.00  0.00     0.049 A 
ATOM     54  H   UNL A   1      40.561  29.975  30.347  1.00  0.00     0.167 HD
ATOM     55  C   UNL A   1      44.320  31.086  28.257  1.00  0.00     0.034 A 
ATOM     56  C   UNL A   1      38.192  30.648  31.582  1.00  0.00     0.034 A 
ATOM     57  C   UNL A   1      44.707  30.934  29.632  1.00  0.00     0.049 A 
ATOM     58  C   UNL A   1      39.386  31.454  31.915  1.00  0.00     0.074 A 
ATOM     59  C   UNL A   1      45.505  30.064  30.340  1.00  0.00     0.029 A 
ATOM     60  N   UNL A   1      43.920  31.584  30.548  1.00  0.00    -0.354 N 
ATOM     61  N   UNL A   1      40.265  31.121  32.815  1.00  0.00    -0.248 NA
ATOM     62  C   UNL A   1      39.812  32.475  30.971  1.00  0.00     0.031 C 
ATOM     63  C   UNL A   1      44.896  29.953  31.622  1.00  0.00     0.029 A 
ATOM     64  C   UNL A   1      43.786  30.801  31.664  1.00  0.00     0.049 A 
ATOM     65  H   UNL A   1      43.515  32.474  30.423  1.00  0.00     0.167 HD
ATOM     66  C   UNL A   1      41.474  31.520  32.272  1.00  0.00     0.074 A 
ATOM     67  C   UNL A   1      41.121  32.479  31.230  1.00  0.00     0.031 C 
ATOM     68  C   UNL A   1      42.618  30.820  32.526  1.00  0.00     0.034 A 
BRANCH  55  69
ATOM     69  C   UNL A   1      44.487  32.388  27.508  1.00  0.00     0.023 A 
ATOM     70  C   UNL A   1      43.780  33.555  27.849  1.00  0.00     0.031 A 
ATOM     71  C   UNL A   1      45.535  32.557  26.579  1.00  0.00     0.131 A 
ATOM     72  C   UNL A   1      44.081  34.797  27.276  1.00  0.00     0.055 A 
ATOM     73  C   UNL A   1      45.885  33.811  26.058  1.00  0.00     0.041 A 
ATOM     74  F   UNL A   1      46.291  31.518  26.190  1.00  0.00    -0.206 F 
ATOM     75  C   UNL A   1      45.155  34.941  26.404  1.00  0.00     0.022 A 
BRANCH  72  76
ATOM     76  S   UNL A   1      43.076  36.254  27.674  1.00  0.00     0.124 S 
ATOM     77  O   UNL A   1      43.443  36.504  29.063  1.00  0.00    -0.237 OA
ATOM     78  O   UNL A   1      43.571  37.225  26.703  1.00  0.00    -0.237 OA
ATOM     79  O   UNL A   1      41.708  35.797  27.448  1.00  0.00    -0.744 OA
ENDBRANCH  72  76
ENDBRANCH  55  69
BRANCH  56  80
ATOM     80  C   UNL A   1      36.857  31.283  31.480  1.00  0.00     0.023 A 
ATOM     81  C   UNL A   1      36.374  31.656  30.213  1.00  0.00     0.031 A 
ATOM     82  C   UNL A   1      36.228  31.848  32.606  1.00  0.00     0.131 A 
ATOM     83  C   UNL A   1      35.355  32.610  30.096  1.00  0.00     0.055 A 
ATOM     84  C   UNL A   1      35.190  32.781  32.485  1.00  0.00     0.041 A 
ATOM     85  F   UNL A   1      36.667  31.567  33.843  1.00  0.00    -0.206 F 
ATOM     86  C   UNL A   1      34.762  33.181  31.224  1.00  0.00     0.022 A 
BRANCH  83  87
ATOM     87  S   UNL A   1      34.860  33.224  28.462  1.00  0.00     0.124 S 
ATOM     88  O   UNL A   1      33.695  32.395  28.163  1.00  0.00    -0.237 OA
ATOM     89  O   UNL A   1      34.576  34.626  28.747  1.00  0.00    -0.237 OA
ATOM     90  O   UNL A   1      36.030  32.967  27.629  1.00  0.00    -0.744 OA
ENDBRANCH  83  87
ENDBRANCH  56  80
BRANCH  68  91
ATOM     91  C   UNL A   1      42.610  29.824  33.668  1.00  0.00     0.023 A 
ATOM     92  C   UNL A   1      43.156  30.256  34.888  1.00  0.00     0.031 A 
ATOM     93  C   UNL A   1      42.281  28.461  33.550  1.00  0.00     0.131 A 
ATOM     94  C   UNL A   1      43.408  29.342  35.916  1.00  0.00     0.055 A 
ATOM     95  C   UNL A   1      42.462  27.563  34.609  1.00  0.00     0.041 A 
ATOM     96  F   UNL A   1      41.851  27.939  32.394  1.00  0.00    -0.206 F 
ATOM     97  C   UNL A   1      43.046  27.998  35.794  1.00  0.00     0.022 A 
BRANCH  94  98
ATOM     98  S   UNL A   1      44.361  29.850  37.369  1.00  0.00     0.124 S 
ATOM     99  O   UNL A   1      45.530  30.486  36.768  1.00  0.00    -0.237 OA
ATOM    100  O   UNL A   1      43.436  30.755  38.048  1.00  0.00    -0.237 OA
ATOM    101  O   UNL A   1      44.626  28.599  38.075  1.00  0.00    -0.744 OA
ENDBRANCH  94  98
ENDBRANCH  68  91
ENDBRANCH  42  43
ENDBRANCH  34  37
ENDBRANCH  32  33
ENDBRANCH  31  32
ENDBRANCH   1  31
TORSDOF 19
ENDMDL
MODEL 3
REMARK VINA RESULT:     -10.9      3.249      8.542
REMARK SMILES COc1ccc2c(c1)c(CC(=O)NCCCCNC(=O)c1ccc(-c3c4nc(c(-c5cc(S(=O)(=O)[O-])ccc5F)c5ccc([nH]5)c(-c5cc(S(=O)(=O)[O-])ccc5F)c5nc(c(-c6cc(S(=O)(=O)[O-])ccc6F)c6ccc3[nH]6)C=C5)C=C4)cc1)c(C)n2Cc1ccn(C(F)F)c(=O)c1
REMARK SMILES IDX 15 1 14 2 13 3 11 4 12 5 10 7 9 8 3 9 4 10 8 11 5 12 7 13
REMARK SMILES IDX 6 14 86 15 84 16 85 17 2 18 1 19 87 20 88 21 89 22 97 23
REMARK SMILES IDX 90 24 95 25 91 26 96 27 92 28 93 29 94 30 16 31 17 32 18 33
REMARK SMILES IDX 19 34 20 36 21 37 22 38 83 39 23 40 82 41 24 42 25 43 26 44
REMARK SMILES IDX 76 45 27 46 81 47 75 48 77 49 28 50 80 51 74 52 73 53 29 55
REMARK SMILES IDX 61 56 41 57 60 58 42 59 45 60 59 61 78 62 43 63 44 64 58 66
REMARK SMILES IDX 79 67 46 68 30 69 31 70 39 71 32 72 38 73 40 74 37 75 33 76
REMARK SMILES IDX 34 77 35 78 36 79 62 80 63 81 71 82 64 83 70 84 72 85 69 86
REMARK SMILES IDX 65 87 66 88 67 89 68 90 47 91 48 92 56 93 49 94 55 95 57 96
REMARK SMILES IDX 54 97 50 98 51 99 52 100 53 101
REMARK H PARENT 13 6 18 35 77 54 45 65
REMARK Flexibility Score: inf
ROOT
ATOM      1  C   UNL A   1      33.997  31.650  28.191  1.00  0.00     0.023 C 
ENDROOT
BRANCH   1   2
ATOM      2  C   UNL A   1      33.504  30.998  26.899  1.00  0.00     0.116 C 
BRANCH   2   3
ATOM      3  N   UNL A   1      34.214  29.773  26.584  1.00  0.00    -0.356 N 
ATOM      4  C   UNL A   1      33.765  28.482  26.602  1.00  0.00     0.224 C 
ATOM      5  O   UNL A   1      34.538  27.591  26.238  1.00  0.00    -0.275 OA
ATOM      6  H   UNL A   1      35.156  29.887  26.319  1.00  0.00     0.163 HD
BRANCH   4   7
ATOM      7  C   UNL A   1      32.322  28.160  26.966  1.00  0.00     0.138 C 
BRANCH   7   8
ATOM      8  C   UNL A   1      31.566  27.484  25.863  1.00  0.00    -0.010 A 
ATOM      9  C   UNL A   1      29.840  29.815  23.390  1.00  0.00     0.119 A 
ATOM     10  C   UNL A   1      29.410  28.820  22.520  1.00  0.00     0.048 A 
ATOM     11  C   UNL A   1      30.606  29.479  24.506  1.00  0.00     0.057 A 
ATOM     12  C   UNL A   1      29.706  27.467  22.762  1.00  0.00     0.031 A 
ATOM     13  C   UNL A   1      30.877  28.126  24.797  1.00  0.00     0.007 A 
ATOM     14  C   UNL A   1      30.427  27.132  23.924  1.00  0.00     0.049 A 
ATOM     15  N   UNL A   1      30.863  25.915  24.439  1.00  0.00    -0.340 N 
ATOM     16  C   UNL A   1      31.348  26.120  25.722  1.00  0.00     0.020 A 
ATOM     17  C   UNL A   1      31.640  25.052  26.717  1.00  0.00     0.065 C 
BRANCH   9  18
ATOM     18  O   UNL A   1      29.629  31.156  23.210  1.00  0.00    -0.497 OA
ATOM     19  C   UNL A   1      28.792  31.487  22.108  1.00  0.00     0.278 C 
ENDBRANCH   9  18
BRANCH  15  20
ATOM     20  C   UNL A   1      30.735  24.616  23.759  1.00  0.00     0.158 C 
BRANCH  20  21
ATOM     21  C   UNL A   1      31.953  23.717  23.879  1.00  0.00    -0.021 A 
ATOM     22  C   UNL A   1      31.835  22.420  24.518  1.00  0.00     0.024 A 
ATOM     23  C   UNL A   1      33.142  24.040  23.336  1.00  0.00     0.077 A 
ATOM     24  C   UNL A   1      32.908  21.645  24.722  1.00  0.00     0.095 A 
ATOM     25  C   UNL A   1      34.328  23.132  23.444  1.00  0.00     0.255 A 
ATOM     26  N   UNL A   1      34.149  22.015  24.248  1.00  0.00    -0.258 N 
ATOM     27  O   UNL A   1      35.339  23.422  22.830  1.00  0.00    -0.269 OA
BRANCH  26  28
ATOM     28  C   UNL A   1      35.291  21.151  24.448  1.00  0.00     0.451 C 
ATOM     29  F   UNL A   1      36.265  21.812  25.121  1.00  0.00    -0.185 F 
ATOM     30  F   UNL A   1      34.960  20.050  25.156  1.00  0.00    -0.185 F 
ENDBRANCH  26  28
ENDBRANCH  20  21
ENDBRANCH  15  20
ENDBRANCH   7   8
ENDBRANCH   4   7
ENDBRANCH   2   3
ENDBRANCH   1   2
BRANCH   1  31
ATOM     31  C   UNL A   1      34.934  32.851  27.997  1.00  0.00     0.023 C 
BRANCH  31  32
ATOM     32  C   UNL A   1      35.009  33.815  29.183  1.00  0.00     0.116 C 
BRANCH  32  33
ATOM     33  N   UNL A   1      34.450  33.290  30.413  1.00  0.00    -0.352 N 
ATOM     34  C   UNL A   1      34.953  32.554  31.455  1.00  0.00     0.251 C 
ATOM     35  H   UNL A   1      33.498  33.513  30.526  1.00  0.00     0.163 HD
ATOM     36  O   UNL A   1      34.227  32.497  32.454  1.00  0.00    -0.269 OA
BRANCH  34  37
ATOM     37  C   UNL A   1      36.219  31.769  31.424  1.00  0.00     0.039 A 
ATOM     38  C   UNL A   1      37.489  32.285  31.673  1.00  0.00     0.014 A 
ATOM     39  C   UNL A   1      36.115  30.428  31.002  1.00  0.00     0.014 A 
ATOM     40  C   UNL A   1      38.619  31.528  31.386  1.00  0.00     0.010 A 
ATOM     41  C   UNL A   1      37.246  29.661  30.727  1.00  0.00     0.010 A 
ATOM     42  C   UNL A   1      38.502  30.233  30.866  1.00  0.00    -0.014 A 
BRANCH  42  43
ATOM     43  C   UNL A   1      39.744  29.508  30.600  1.00  0.00     0.031 A 
ATOM     44  C   UNL A   1      40.496  29.143  31.833  1.00  0.00     0.074 A 
ATOM     45  C   UNL A   1      40.194  29.151  29.380  1.00  0.00     0.049 A 
ATOM     46  N   UNL A   1      41.612  29.639  32.258  1.00  0.00    -0.248 NA
ATOM     47  C   UNL A   1      39.832  28.252  32.795  1.00  0.00     0.031 C 
ATOM     48  C   UNL A   1      39.476  29.181  28.102  1.00  0.00     0.029 A 
ATOM     49  N   UNL A   1      41.399  28.608  29.038  1.00  0.00    -0.354 N 
ATOM     50  C   UNL A   1      41.890  28.987  33.458  1.00  0.00     0.074 A 
ATOM     51  C   UNL A   1      40.693  28.269  33.812  1.00  0.00     0.031 C 
ATOM     52  C   UNL A   1      40.172  28.475  27.180  1.00  0.00     0.029 A 
ATOM     53  C   UNL A   1      41.453  28.092  27.750  1.00  0.00     0.049 A 
ATOM     54  H   UNL A   1      42.167  28.584  29.655  1.00  0.00     0.167 HD
ATOM     55  C   UNL A   1      43.152  28.934  33.972  1.00  0.00     0.034 A 
ATOM     56  C   UNL A   1      42.462  27.371  27.199  1.00  0.00     0.034 A 
ATOM     57  C   UNL A   1      44.017  29.884  33.330  1.00  0.00     0.049 A 
ATOM     58  C   UNL A   1      43.688  27.624  27.984  1.00  0.00     0.074 A 
ATOM     59  C   UNL A   1      44.137  31.256  33.320  1.00  0.00     0.029 A 
ATOM     60  N   UNL A   1      44.716  29.417  32.247  1.00  0.00    -0.354 N 
ATOM     61  N   UNL A   1      44.332  28.756  27.989  1.00  0.00    -0.248 NA
ATOM     62  C   UNL A   1      44.006  26.718  29.075  1.00  0.00     0.031 C 
ATOM     63  C   UNL A   1      44.589  31.584  32.011  1.00  0.00     0.029 A 
ATOM     64  C   UNL A   1      44.781  30.399  31.294  1.00  0.00     0.049 A 
ATOM     65  H   UNL A   1      45.110  28.518  32.167  1.00  0.00     0.167 HD
ATOM     66  C   UNL A   1      44.755  28.898  29.299  1.00  0.00     0.074 A 
ATOM     67  C   UNL A   1      44.670  27.558  29.871  1.00  0.00     0.031 C 
ATOM     68  C   UNL A   1      44.857  30.136  29.869  1.00  0.00     0.034 A 
BRANCH  55  69
ATOM     69  C   UNL A   1      43.684  27.778  34.788  1.00  0.00     0.023 A 
ATOM     70  C   UNL A   1      43.627  26.445  34.342  1.00  0.00     0.031 A 
ATOM     71  C   UNL A   1      44.475  28.006  35.933  1.00  0.00     0.131 A 
ATOM     72  C   UNL A   1      44.290  25.410  35.014  1.00  0.00     0.055 A 
ATOM     73  C   UNL A   1      45.197  26.984  36.566  1.00  0.00     0.041 A 
ATOM     74  F   UNL A   1      44.618  29.240  36.442  1.00  0.00    -0.206 F 
ATOM     75  C   UNL A   1      45.105  25.675  36.108  1.00  0.00     0.022 A 
BRANCH  72  76
ATOM     76  S   UNL A   1      44.104  23.694  34.456  1.00  0.00     0.124 S 
ATOM     77  O   UNL A   1      44.482  23.791  33.050  1.00  0.00    -0.237 OA
ATOM     78  O   UNL A   1      45.055  23.001  35.321  1.00  0.00    -0.237 OA
ATOM     79  O   UNL A   1      42.700  23.398  34.720  1.00  0.00    -0.744 OA
ENDBRANCH  72  76
ENDBRANCH  55  69
BRANCH  56  80
ATOM     80  C   UNL A   1      42.331  26.144  26.378  1.00  0.00     0.023 A 
ATOM     81  C   UNL A   1      41.458  25.127  26.807  1.00  0.00     0.031 A 
ATOM     82  C   UNL A   1      43.293  25.807  25.408  1.00  0.00     0.131 A 
ATOM     83  C   UNL A   1      41.607  23.819  26.329  1.00  0.00     0.055 A 
ATOM     84  C   UNL A   1      43.421  24.503  24.912  1.00  0.00     0.041 A 
ATOM     85  F   UNL A   1      44.183  26.719  24.987  1.00  0.00    -0.206 F 
ATOM     86  C   UNL A   1      42.587  23.497  25.387  1.00  0.00     0.022 A 
BRANCH  83  87
ATOM     87  S   UNL A   1      40.603  22.474  27.018  1.00  0.00     0.124 S 
ATOM     88  O   UNL A   1      41.253  22.235  28.304  1.00  0.00    -0.237 OA
ATOM     89  O   UNL A   1      39.284  23.096  27.087  1.00  0.00    -0.237 OA
ATOM     90  O   UNL A   1      40.750  21.399  26.042  1.00  0.00    -0.744 OA
ENDBRANCH  83  87
ENDBRANCH  56  80
BRANCH  68  91
ATOM     91  C   UNL A   1      44.837  31.347  28.959  1.00  0.00     0.023 A 
ATOM     92  C   UNL A   1      46.073  31.772  28.444  1.00  0.00     0.031 A 
ATOM     93  C   UNL A   1      43.724  32.182  28.750  1.00  0.00     0.131 A 
ATOM     94  C   UNL A   1      46.186  33.007  27.796  1.00  0.00     0.055 A 
ATOM     95  C   UNL A   1      43.825  33.381  28.033  1.00  0.00     0.041 A 
ATOM     96  F   UNL A   1      42.529  31.910  29.290  1.00  0.00    -0.206 F 
ATOM     97  C   UNL A   1      45.064  33.808  27.569  1.00  0.00     0.022 A 
BRANCH  94  98
ATOM     98  S   UNL A   1      47.819  33.670  27.384  1.00  0.00     0.124 S 
ATOM     99  O   UNL A   1      47.988  33.240  25.999  1.00  0.00    -0.237 OA
ATOM    100  O   UNL A   1      47.628  35.107  27.575  1.00  0.00    -0.237 OA
ATOM    101  O   UNL A   1      48.713  33.035  28.348  1.00  0.00    -0.744 OA
ENDBRANCH  94  98
ENDBRANCH  68  91
ENDBRANCH  42  43
ENDBRANCH  34  37
ENDBRANCH  32  33
ENDBRANCH  31  32
ENDBRANCH   1  31
TORSDOF 19
ENDMDL
