MODEL 1
REMARK VINA RESULT:     -11.2      0.000      0.000
REMARK SMILES O=C(NCCCCNC(=O)c1cnc(OCC2CC2)c(Cl)c1)c1ccc(-c2c3nc(c(-c4cc(S(=O)(=O)[O-])ccc4F)c4ccc([nH]4)c(-c4cc(S(=O)(=O)[O-])ccc4F)c4nc(c(-c5cc(S(=O)(=O)[O-])ccc5F)c5ccc2[nH]5)C=C4)C=C3)cc1
REMARK SMILES IDX 5 1 4 2 3 3 1 4 2 5 23 7 24 8 85 9 25 10 84 11 26 12 27 13
REMARK SMILES IDX 28 14 78 15 29 16 83 17 77 18 79 19 30 20 82 21 76 22 75 23
REMARK SMILES IDX 31 25 63 26 43 27 62 28 44 29 47 30 61 31 80 32 45 33 46 34
REMARK SMILES IDX 60 36 81 37 48 38 32 39 33 40 41 41 34 42 40 43 42 44 39 45
REMARK SMILES IDX 35 46 36 47 37 48 38 49 64 50 65 51 73 52 66 53 72 54 74 55
REMARK SMILES IDX 71 56 67 57 68 58 69 59 70 60 49 61 50 62 58 63 51 64 57 65
REMARK SMILES IDX 59 66 56 67 52 68 53 69 54 70 55 71 6 72 7 73 8 74 9 75
REMARK SMILES IDX 10 77 11 78 12 79 22 80 13 81 20 82 14 83 21 84 15 85 16 86
REMARK SMILES IDX 17 87 18 88 19 89
REMARK H PARENT 3 6 79 24 47 35 8 76
REMARK Flexibility Score: inf
ROOT
ATOM      1  C   UNL A   1      35.265  22.704  24.439  1.00  0.00     0.023 C 
ENDROOT
BRANCH   1   2
ATOM      2  C   UNL A   1      35.861  22.231  25.759  1.00  0.00     0.116 C 
BRANCH   2   3
ATOM      3  N   UNL A   1      36.810  21.139  25.594  1.00  0.00    -0.352 N 
ATOM      4  O   UNL A   1      38.836  20.170  25.398  1.00  0.00    -0.269 OA
ATOM      5  C   UNL A   1      38.181  21.161  25.706  1.00  0.00     0.251 C 
ATOM      6  H   UNL A   1      36.416  20.265  25.374  1.00  0.00     0.163 HD
BRANCH   5   7
ATOM      7  C   UNL A   1      38.858  22.391  26.172  1.00  0.00     0.039 A 
ATOM      8  C   UNL A   1      38.364  23.650  25.827  1.00  0.00     0.014 A 
ATOM      9  C   UNL A   1      40.012  22.280  26.954  1.00  0.00     0.014 A 
ATOM     10  C   UNL A   1      39.098  24.789  26.137  1.00  0.00     0.010 A 
ATOM     11  C   UNL A   1      40.705  23.432  27.334  1.00  0.00     0.010 A 
ATOM     12  C   UNL A   1      40.273  24.695  26.900  1.00  0.00    -0.014 A 
BRANCH  12  13
ATOM     13  C   UNL A   1      41.011  25.934  27.258  1.00  0.00     0.031 A 
ATOM     14  C   UNL A   1      40.397  26.970  28.160  1.00  0.00     0.074 A 
ATOM     15  C   UNL A   1      42.261  26.104  26.787  1.00  0.00     0.049 A 
ATOM     16  N   UNL A   1      40.906  28.098  28.589  1.00  0.00    -0.248 NA
ATOM     17  C   UNL A   1      39.030  26.711  28.631  1.00  0.00     0.031 C 
ATOM     18  C   UNL A   1      42.958  25.167  25.901  1.00  0.00     0.029 A 
ATOM     19  N   UNL A   1      43.174  27.104  26.996  1.00  0.00    -0.354 N 
ATOM     20  C   UNL A   1      39.919  28.693  29.368  1.00  0.00     0.074 A 
ATOM     21  C   UNL A   1      38.767  27.814  29.316  1.00  0.00     0.031 C 
ATOM     22  C   UNL A   1      44.203  25.612  25.683  1.00  0.00     0.029 A 
ATOM     23  C   UNL A   1      44.374  26.894  26.357  1.00  0.00     0.049 A 
ATOM     24  H   UNL A   1      42.990  27.896  27.550  1.00  0.00     0.167 HD
ATOM     25  C   UNL A   1      39.973  29.857  30.065  1.00  0.00     0.034 A 
ATOM     26  C   UNL A   1      45.482  27.655  26.302  1.00  0.00     0.034 A 
ATOM     27  C   UNL A   1      41.132  30.719  30.102  1.00  0.00     0.049 A 
ATOM     28  C   UNL A   1      45.503  28.960  27.046  1.00  0.00     0.074 A 
ATOM     29  C   UNL A   1      41.309  31.900  30.804  1.00  0.00     0.029 A 
ATOM     30  N   UNL A   1      42.311  30.501  29.399  1.00  0.00    -0.354 N 
ATOM     31  N   UNL A   1      44.566  29.502  27.790  1.00  0.00    -0.248 NA
ATOM     32  C   UNL A   1      46.732  29.756  26.943  1.00  0.00     0.031 C 
ATOM     33  C   UNL A   1      42.562  32.428  30.472  1.00  0.00     0.029 A 
ATOM     34  C   UNL A   1      43.203  31.541  29.621  1.00  0.00     0.049 A 
ATOM     35  H   UNL A   1      42.488  29.721  28.825  1.00  0.00     0.167 HD
ATOM     36  C   UNL A   1      45.101  30.697  28.259  1.00  0.00     0.074 A 
ATOM     37  C   UNL A   1      46.447  30.786  27.728  1.00  0.00     0.031 C 
ATOM     38  C   UNL A   1      44.532  31.633  29.060  1.00  0.00     0.034 A 
BRANCH  25  39
ATOM     39  C   UNL A   1      38.721  30.282  30.801  1.00  0.00     0.023 A 
ATOM     40  C   UNL A   1      37.691  30.995  30.164  1.00  0.00     0.031 A 
ATOM     41  C   UNL A   1      38.575  30.005  32.173  1.00  0.00     0.131 A 
ATOM     42  C   UNL A   1      36.607  31.481  30.911  1.00  0.00     0.055 A 
ATOM     43  C   UNL A   1      37.452  30.418  32.893  1.00  0.00     0.041 A 
ATOM     44  F   UNL A   1      39.532  29.344  32.843  1.00  0.00    -0.206 F 
ATOM     45  C   UNL A   1      36.469  31.177  32.268  1.00  0.00     0.022 A 
BRANCH  42  46
ATOM     46  S   UNL A   1      35.468  32.654  30.124  1.00  0.00     0.124 S 
ATOM     47  O   UNL A   1      35.199  31.996  28.848  1.00  0.00    -0.237 OA
ATOM     48  O   UNL A   1      34.358  32.696  31.068  1.00  0.00    -0.237 OA
ATOM     49  O   UNL A   1      36.253  33.883  30.026  1.00  0.00    -0.744 OA
ENDBRANCH  42  46
ENDBRANCH  25  39
BRANCH  26  50
ATOM     50  C   UNL A   1      46.649  27.208  25.493  1.00  0.00     0.023 A 
ATOM     51  C   UNL A   1      46.872  27.712  24.203  1.00  0.00     0.031 A 
ATOM     52  C   UNL A   1      47.564  26.272  26.006  1.00  0.00     0.131 A 
ATOM     53  C   UNL A   1      47.969  27.257  23.458  1.00  0.00     0.055 A 
ATOM     54  C   UNL A   1      48.679  25.857  25.280  1.00  0.00     0.041 A 
ATOM     55  F   UNL A   1      47.399  25.768  27.240  1.00  0.00    -0.206 F 
ATOM     56  C   UNL A   1      48.882  26.345  23.993  1.00  0.00     0.022 A 
BRANCH  53  57
ATOM     57  S   UNL A   1      48.166  27.844  21.753  1.00  0.00     0.124 S 
ATOM     58  O   UNL A   1      48.395  26.595  21.034  1.00  0.00    -0.237 OA
ATOM     59  O   UNL A   1      46.886  28.500  21.508  1.00  0.00    -0.237 OA
ATOM     60  O   UNL A   1      49.317  28.740  21.832  1.00  0.00    -0.744 OA
ENDBRANCH  53  57
ENDBRANCH  26  50
BRANCH  38  61
ATOM     61  C   UNL A   1      45.390  32.818  29.430  1.00  0.00     0.023 A 
ATOM     62  C   UNL A   1      45.398  33.992  28.657  1.00  0.00     0.031 A 
ATOM     63  C   UNL A   1      46.234  32.757  30.553  1.00  0.00     0.131 A 
ATOM     64  C   UNL A   1      46.277  35.036  28.982  1.00  0.00     0.055 A 
ATOM     65  C   UNL A   1      47.064  33.822  30.904  1.00  0.00     0.041 A 
ATOM     66  F   UNL A   1      46.268  31.659  31.324  1.00  0.00    -0.206 F 
ATOM     67  C   UNL A   1      47.099  34.965  30.110  1.00  0.00     0.022 A 
BRANCH  64  68
ATOM     68  S   UNL A   1      46.403  36.453  27.856  1.00  0.00     0.124 S 
ATOM     69  O   UNL A   1      45.250  37.257  28.250  1.00  0.00    -0.237 OA
ATOM     70  O   UNL A   1      47.711  37.006  28.193  1.00  0.00    -0.237 OA
ATOM     71  O   UNL A   1      46.311  35.846  26.529  1.00  0.00    -0.744 OA
ENDBRANCH  64  68
ENDBRANCH  38  61
ENDBRANCH  12  13
ENDBRANCH   5   7
ENDBRANCH   2   3
ENDBRANCH   1   2
BRANCH   1  72
ATOM     72  C   UNL A   1      33.846  23.269  24.529  1.00  0.00     0.023 C 
BRANCH  72  73
ATOM     73  C   UNL A   1      33.716  24.745  24.163  1.00  0.00     0.116 C 
BRANCH  73  74
ATOM     74  N   UNL A   1      33.807  25.605  25.333  1.00  0.00    -0.352 N 
ATOM     75  C   UNL A   1      33.221  26.826  25.537  1.00  0.00     0.252 C 
ATOM     76  H   UNL A   1      34.361  25.265  26.072  1.00  0.00     0.163 HD
ATOM     77  O   UNL A   1      33.479  27.515  26.514  1.00  0.00    -0.269 OA
BRANCH  75  78
ATOM     78  C   UNL A   1      32.243  27.307  24.560  1.00  0.00     0.059 A 
ATOM     79  C   UNL A   1      32.605  28.274  23.643  1.00  0.00     0.129 A 
ATOM     80  C   UNL A   1      30.936  26.830  24.565  1.00  0.00     0.041 A 
ATOM     81  N   UNL A   1      31.756  28.739  22.696  1.00  0.00    -0.220 NA
ATOM     82  C   UNL A   1      30.029  27.329  23.629  1.00  0.00     0.104 A 
ATOM     83  C   UNL A   1      30.485  28.255  22.686  1.00  0.00     0.232 A 
ATOM     84  Cl  UNL A   1      28.390  26.821  23.792  1.00  0.00    -0.078 Cl
BRANCH  83  85
ATOM     85  O   UNL A   1      29.722  28.876  21.743  1.00  0.00    -0.476 OA
BRANCH  85  86
ATOM     86  C   UNL A   1      29.506  30.284  21.851  1.00  0.00     0.235 C 
BRANCH  86  87
ATOM     87  C   UNL A   1      28.089  30.677  22.150  1.00  0.00     0.027 C 
ATOM     88  C   UNL A   1      27.458  30.419  23.497  1.00  0.00     0.007 C 
ATOM     89  C   UNL A   1      27.851  31.815  23.114  1.00  0.00     0.007 C 
ENDBRANCH  86  87
ENDBRANCH  85  86
ENDBRANCH  83  85
ENDBRANCH  75  78
ENDBRANCH  73  74
ENDBRANCH  72  73
ENDBRANCH   1  72
TORSDOF 17
ENDMDL
MODEL 2
REMARK VINA RESULT:     -11.1      5.300      7.926
REMARK SMILES O=C(NCCCCNC(=O)c1cnc(OCC2CC2)c(Cl)c1)c1ccc(-c2c3nc(c(-c4cc(S(=O)(=O)[O-])ccc4F)c4ccc([nH]4)c(-c4cc(S(=O)(=O)[O-])ccc4F)c4nc(c(-c5cc(S(=O)(=O)[O-])ccc5F)c5ccc2[nH]5)C=C4)C=C3)cc1
REMARK SMILES IDX 5 1 4 2 3 3 1 4 2 5 23 7 24 8 85 9 25 10 84 11 26 12 27 13
REMARK SMILES IDX 28 14 78 15 29 16 83 17 77 18 79 19 30 20 82 21 76 22 75 23
REMARK SMILES IDX 31 25 63 26 43 27 62 28 44 29 47 30 61 31 80 32 45 33 46 34
REMARK SMILES IDX 60 36 81 37 48 38 32 39 33 40 41 41 34 42 40 43 42 44 39 45
REMARK SMILES IDX 35 46 36 47 37 48 38 49 64 50 65 51 73 52 66 53 72 54 74 55
REMARK SMILES IDX 71 56 67 57 68 58 69 59 70 60 49 61 50 62 58 63 51 64 57 65
REMARK SMILES IDX 59 66 56 67 52 68 53 69 54 70 55 71 6 72 7 73 8 74 9 75
REMARK SMILES IDX 10 77 11 78 12 79 22 80 13 81 20 82 14 83 21 84 15 85 16 86
REMARK SMILES IDX 17 87 18 88 19 89
REMARK H PARENT 3 6 79 24 47 35 8 76
REMARK Flexibility Score: inf
ROOT
ATOM      1  C   UNL A   1      32.623  28.232  26.491  1.00  0.00     0.023 C 
ENDROOT
BRANCH   1   2
ATOM      2  C   UNL A   1      33.516  29.339  25.942  1.00  0.00     0.116 C 
BRANCH   2   3
ATOM      3  N   UNL A   1      33.171  30.655  26.460  1.00  0.00    -0.352 N 
ATOM      4  O   UNL A   1      33.309  32.443  27.826  1.00  0.00    -0.269 OA
ATOM      5  C   UNL A   1      33.820  31.407  27.412  1.00  0.00     0.251 C 
ATOM      6  H   UNL A   1      32.363  31.064  26.074  1.00  0.00     0.163 HD
BRANCH   5   7
ATOM      7  C   UNL A   1      35.119  30.946  27.948  1.00  0.00     0.039 A 
ATOM      8  C   UNL A   1      35.243  29.679  28.521  1.00  0.00     0.014 A 
ATOM      9  C   UNL A   1      36.223  31.802  27.889  1.00  0.00     0.014 A 
ATOM     10  C   UNL A   1      36.425  29.324  29.162  1.00  0.00     0.010 A 
ATOM     11  C   UNL A   1      37.435  31.409  28.463  1.00  0.00     0.010 A 
ATOM     12  C   UNL A   1      37.537  30.181  29.136  1.00  0.00    -0.014 A 
BRANCH  12  13
ATOM     13  C   UNL A   1      38.802  29.754  29.786  1.00  0.00     0.031 A 
ATOM     14  C   UNL A   1      39.189  30.267  31.146  1.00  0.00     0.074 A 
ATOM     15  C   UNL A   1      39.591  28.866  29.150  1.00  0.00     0.049 A 
ATOM     16  N   UNL A   1      40.245  29.985  31.867  1.00  0.00    -0.248 NA
ATOM     17  C   UNL A   1      38.276  31.233  31.773  1.00  0.00     0.031 C 
ATOM     18  C   UNL A   1      39.319  28.302  27.825  1.00  0.00     0.029 A 
ATOM     19  N   UNL A   1      40.764  28.269  29.531  1.00  0.00    -0.354 N 
ATOM     20  C   UNL A   1      40.135  30.747  33.025  1.00  0.00     0.074 A 
ATOM     21  C   UNL A   1      38.925  31.534  32.888  1.00  0.00     0.031 C 
ATOM     22  C   UNL A   1      40.270  27.406  27.526  1.00  0.00     0.029 A 
ATOM     23  C   UNL A   1      41.252  27.379  28.604  1.00  0.00     0.049 A 
ATOM     24  H   UNL A   1      41.214  28.459  30.385  1.00  0.00     0.167 HD
ATOM     25  C   UNL A   1      40.961  30.780  34.103  1.00  0.00     0.034 A 
ATOM     26  C   UNL A   1      42.374  26.636  28.608  1.00  0.00     0.034 A 
ATOM     27  C   UNL A   1      42.164  29.988  34.218  1.00  0.00     0.049 A 
ATOM     28  C   UNL A   1      43.296  26.722  29.792  1.00  0.00     0.074 A 
ATOM     29  C   UNL A   1      43.052  29.916  35.278  1.00  0.00     0.029 A 
ATOM     30  N   UNL A   1      42.656  29.136  33.236  1.00  0.00    -0.354 N 
ATOM     31  N   UNL A   1      43.170  27.437  30.886  1.00  0.00    -0.248 NA
ATOM     32  C   UNL A   1      44.510  25.900  29.741  1.00  0.00     0.031 C 
ATOM     33  C   UNL A   1      44.113  29.078  34.910  1.00  0.00     0.029 A 
ATOM     34  C   UNL A   1      43.851  28.565  33.649  1.00  0.00     0.049 A 
ATOM     35  H   UNL A   1      42.219  28.964  32.370  1.00  0.00     0.167 HD
ATOM     36  C   UNL A   1      44.284  27.136  31.663  1.00  0.00     0.074 A 
ATOM     37  C   UNL A   1      45.058  26.163  30.919  1.00  0.00     0.031 C 
ATOM     38  C   UNL A   1      44.631  27.618  32.884  1.00  0.00     0.034 A 
BRANCH  25  39
ATOM     39  C   UNL A   1      40.609  31.744  35.215  1.00  0.00     0.023 A 
ATOM     40  C   UNL A   1      39.560  31.488  36.115  1.00  0.00     0.031 A 
ATOM     41  C   UNL A   1      41.307  32.958  35.350  1.00  0.00     0.131 A 
ATOM     42  C   UNL A   1      39.185  32.464  37.052  1.00  0.00     0.055 A 
ATOM     43  C   UNL A   1      40.983  33.889  36.339  1.00  0.00     0.041 A 
ATOM     44  F   UNL A   1      42.306  33.269  34.510  1.00  0.00    -0.206 F 
ATOM     45  C   UNL A   1      39.904  33.654  37.185  1.00  0.00     0.022 A 
BRANCH  42  46
ATOM     46  S   UNL A   1      37.642  32.229  37.977  1.00  0.00     0.124 S 
ATOM     47  O   UNL A   1      38.034  32.649  39.320  1.00  0.00    -0.237 OA
ATOM     48  O   UNL A   1      36.717  33.111  37.276  1.00  0.00    -0.237 OA
ATOM     49  O   UNL A   1      37.371  30.799  37.836  1.00  0.00    -0.744 OA
ENDBRANCH  42  46
ENDBRANCH  25  39
BRANCH  26  50
ATOM     50  C   UNL A   1      42.694  25.768  27.443  1.00  0.00     0.023 A 
ATOM     51  C   UNL A   1      42.262  24.434  27.392  1.00  0.00     0.031 A 
ATOM     52  C   UNL A   1      43.435  26.266  26.356  1.00  0.00     0.131 A 
ATOM     53  C   UNL A   1      42.595  23.635  26.289  1.00  0.00     0.055 A 
ATOM     54  C   UNL A   1      43.725  25.481  25.241  1.00  0.00     0.041 A 
ATOM     55  F   UNL A   1      43.863  27.538  26.354  1.00  0.00    -0.206 F 
ATOM     56  C   UNL A   1      43.311  24.154  25.207  1.00  0.00     0.022 A 
BRANCH  53  57
ATOM     57  S   UNL A   1      42.116  21.886  26.306  1.00  0.00     0.124 S 
ATOM     58  O   UNL A   1      42.959  21.337  25.249  1.00  0.00    -0.237 OA
ATOM     59  O   UNL A   1      42.457  21.491  27.669  1.00  0.00    -0.237 OA
ATOM     60  O   UNL A   1      40.686  21.921  26.009  1.00  0.00    -0.744 OA
ENDBRANCH  53  57
ENDBRANCH  26  50
BRANCH  38  61
ATOM     61  C   UNL A   1      45.894  27.065  33.495  1.00  0.00     0.023 A 
ATOM     62  C   UNL A   1      45.881  25.910  34.297  1.00  0.00     0.031 A 
ATOM     63  C   UNL A   1      47.122  27.721  33.297  1.00  0.00     0.131 A 
ATOM     64  C   UNL A   1      47.063  25.481  34.921  1.00  0.00     0.055 A 
ATOM     65  C   UNL A   1      48.304  27.255  33.873  1.00  0.00     0.041 A 
ATOM     66  F   UNL A   1      47.190  28.829  32.543  1.00  0.00    -0.206 F 
ATOM     67  C   UNL A   1      48.276  26.137  34.702  1.00  0.00     0.022 A 
BRANCH  64  68
ATOM     68  S   UNL A   1      46.974  24.106  36.102  1.00  0.00     0.124 S 
ATOM     69  O   UNL A   1      45.975  23.239  35.485  1.00  0.00    -0.237 OA
ATOM     70  O   UNL A   1      48.344  23.603  36.100  1.00  0.00    -0.237 OA
ATOM     71  O   UNL A   1      46.553  24.749  37.346  1.00  0.00    -0.744 OA
ENDBRANCH  64  68
ENDBRANCH  38  61
ENDBRANCH  12  13
ENDBRANCH   5   7
ENDBRANCH   2   3
ENDBRANCH   1   2
BRANCH   1  72
ATOM     72  C   UNL A   1      32.030  27.291  25.441  1.00  0.00     0.023 C 
BRANCH  72  73
ATOM     73  C   UNL A   1      32.254  25.805  25.709  1.00  0.00     0.116 C 
BRANCH  73  74
ATOM     74  N   UNL A   1      31.207  25.240  26.546  1.00  0.00    -0.352 N 
ATOM     75  C   UNL A   1      30.815  23.931  26.647  1.00  0.00     0.252 C 
ATOM     76  H   UNL A   1      30.718  25.880  27.111  1.00  0.00     0.163 HD
ATOM     77  O   UNL A   1      29.830  23.597  27.292  1.00  0.00    -0.269 OA
BRANCH  75  78
ATOM     78  C   UNL A   1      31.613  22.905  25.976  1.00  0.00     0.059 A 
ATOM     79  C   UNL A   1      32.601  22.237  26.672  1.00  0.00     0.129 A 
ATOM     80  C   UNL A   1      31.419  22.618  24.629  1.00  0.00     0.041 A 
ATOM     81  N   UNL A   1      33.355  21.258  26.117  1.00  0.00    -0.220 NA
ATOM     82  C   UNL A   1      32.215  21.646  24.020  1.00  0.00     0.104 A 
ATOM     83  C   UNL A   1      33.147  20.961  24.805  1.00  0.00     0.232 A 
ATOM     84  Cl  UNL A   1      32.037  21.454  22.317  1.00  0.00    -0.078 Cl
BRANCH  83  85
ATOM     85  O   UNL A   1      34.033  20.027  24.360  1.00  0.00    -0.476 OA
BRANCH  85  86
ATOM     86  C   UNL A   1      34.004  18.721  24.938  1.00  0.00     0.235 C 
BRANCH  86  87
ATOM     87  C   UNL A   1      33.164  17.726  24.191  1.00  0.00     0.027 C 
ATOM     88  C   UNL A   1      32.807  17.919  22.737  1.00  0.00     0.007 C 
ATOM     89  C   UNL A   1      33.829  16.890  23.123  1.00  0.00     0.007 C 
ENDBRANCH  86  87
ENDBRANCH  85  86
ENDBRANCH  83  85
ENDBRANCH  75  78
ENDBRANCH  73  74
ENDBRANCH  72  73
ENDBRANCH   1  72
TORSDOF 17
ENDMDL
MODEL 3
REMARK VINA RESULT:     -11.1      5.317      8.087
REMARK SMILES O=C(NCCCCNC(=O)c1cnc(OCC2CC2)c(Cl)c1)c1ccc(-c2c3nc(c(-c4cc(S(=O)(=O)[O-])ccc4F)c4ccc([nH]4)c(-c4cc(S(=O)(=O)[O-])ccc4F)c4nc(c(-c5cc(S(=O)(=O)[O-])ccc5F)c5ccc2[nH]5)C=C4)C=C3)cc1
REMARK SMILES IDX 5 1 4 2 3 3 1 4 2 5 23 7 24 8 85 9 25 10 84 11 26 12 27 13
REMARK SMILES IDX 28 14 78 15 29 16 83 17 77 18 79 19 30 20 82 21 76 22 75 23
REMARK SMILES IDX 31 25 63 26 43 27 62 28 44 29 47 30 61 31 80 32 45 33 46 34
REMARK SMILES IDX 60 36 81 37 48 38 32 39 33 40 41 41 34 42 40 43 42 44 39 45
REMARK SMILES IDX 35 46 36 47 37 48 38 49 64 50 65 51 73 52 66 53 72 54 74 55
REMARK SMILES IDX 71 56 67 57 68 58 69 59 70 60 49 61 50 62 58 63 51 64 57 65
REMARK SMILES IDX 59 66 56 67 52 68 53 69 54 70 55 71 6 72 7 73 8 74 9 75
REMARK SMILES IDX 10 77 11 78 12 79 22 80 13 81 20 82 14 83 21 84 15 85 16 86
REMARK SMILES IDX 17 87 18 88 19 89
REMARK H PARENT 3 6 79 24 47 35 8 76
REMARK Flexibility Score: inf
ROOT
ATOM      1  C   UNL A   1      32.185  28.359  25.490  1.00  0.00     0.023 C 
ENDROOT
BRANCH   1   2
ATOM      2  C   UNL A   1      33.220  29.473  25.384  1.00  0.00     0.116 C 
BRANCH   2   3
ATOM      3  N   UNL A   1      32.752  30.736  25.934  1.00  0.00    -0.352 N 
ATOM      4  O   UNL A   1      32.655  32.445  27.402  1.00  0.00    -0.269 OA
ATOM      5  C   UNL A   1      33.263  31.464  26.985  1.00  0.00     0.251 C 
ATOM      6  H   UNL A   1      31.962  31.124  25.494  1.00  0.00     0.163 HD
BRANCH   5   7
ATOM      7  C   UNL A   1      34.529  31.041  27.621  1.00  0.00     0.039 A 
ATOM      8  C   UNL A   1      34.668  29.754  28.142  1.00  0.00     0.014 A 
ATOM      9  C   UNL A   1      35.586  31.952  27.709  1.00  0.00     0.014 A 
ATOM     10  C   UNL A   1      35.802  29.425  28.876  1.00  0.00     0.010 A 
ATOM     11  C   UNL A   1      36.758  31.591  28.378  1.00  0.00     0.010 A 
ATOM     12  C   UNL A   1      36.864  30.336  28.997  1.00  0.00    -0.014 A 
BRANCH  12  13
ATOM     13  C   UNL A   1      38.084  29.939  29.746  1.00  0.00     0.031 A 
ATOM     14  C   UNL A   1      38.345  30.452  31.135  1.00  0.00     0.074 A 
ATOM     15  C   UNL A   1      38.946  29.078  29.170  1.00  0.00     0.049 A 
ATOM     16  N   UNL A   1      39.347  30.193  31.937  1.00  0.00    -0.248 NA
ATOM     17  C   UNL A   1      37.358  31.387  31.691  1.00  0.00     0.031 C 
ATOM     18  C   UNL A   1      38.797  28.516  27.825  1.00  0.00     0.029 A 
ATOM     19  N   UNL A   1      40.101  28.510  29.641  1.00  0.00    -0.354 N 
ATOM     20  C   UNL A   1      39.124  30.943  33.087  1.00  0.00     0.074 A 
ATOM     21  C   UNL A   1      37.907  31.697  32.857  1.00  0.00     0.031 C 
ATOM     22  C   UNL A   1      39.794  27.649  27.598  1.00  0.00     0.029 A 
ATOM     23  C   UNL A   1      40.687  27.641  28.751  1.00  0.00     0.049 A 
ATOM     24  H   UNL A   1      40.475  28.706  30.530  1.00  0.00     0.167 HD
ATOM     25  C   UNL A   1      39.859  30.991  34.227  1.00  0.00     0.034 A 
ATOM     26  C   UNL A   1      41.825  26.929  28.842  1.00  0.00     0.034 A 
ATOM     27  C   UNL A   1      41.070  30.231  34.435  1.00  0.00     0.049 A 
ATOM     28  C   UNL A   1      42.646  27.031  30.097  1.00  0.00     0.074 A 
ATOM     29  C   UNL A   1      41.872  30.175  35.563  1.00  0.00     0.029 A 
ATOM     30  N   UNL A   1      41.663  29.401  33.491  1.00  0.00    -0.354 N 
ATOM     31  N   UNL A   1      42.412  27.734  31.181  1.00  0.00    -0.248 NA
ATOM     32  C   UNL A   1      43.883  26.243  30.140  1.00  0.00     0.031 C 
ATOM     33  C   UNL A   1      42.982  29.370  35.277  1.00  0.00     0.029 A 
ATOM     34  C   UNL A   1      42.837  28.860  33.996  1.00  0.00     0.049 A 
ATOM     35  H   UNL A   1      41.303  29.223  32.592  1.00  0.00     0.167 HD
ATOM     36  C   UNL A   1      43.468  27.458  32.044  1.00  0.00     0.074 A 
ATOM     37  C   UNL A   1      44.326  26.512  31.360  1.00  0.00     0.031 C 
ATOM     38  C   UNL A   1      43.702  27.940  33.291  1.00  0.00     0.034 A 
BRANCH  25  39
ATOM     39  C   UNL A   1      39.392  31.935  35.313  1.00  0.00     0.023 A 
ATOM     40  C   UNL A   1      39.876  33.252  35.410  1.00  0.00     0.031 A 
ATOM     41  C   UNL A   1      38.481  31.498  36.292  1.00  0.00     0.131 A 
ATOM     42  C   UNL A   1      39.515  34.054  36.505  1.00  0.00     0.055 A 
ATOM     43  C   UNL A   1      38.060  32.330  37.332  1.00  0.00     0.041 A 
ATOM     44  F   UNL A   1      37.997  30.247  36.265  1.00  0.00    -0.206 F 
ATOM     45  C   UNL A   1      38.592  33.609  37.454  1.00  0.00     0.022 A 
BRANCH  42  46
ATOM     46  S   UNL A   1      40.396  35.619  36.760  1.00  0.00     0.124 S 
ATOM     47  O   UNL A   1      39.654  36.524  35.885  1.00  0.00    -0.237 OA
ATOM     48  O   UNL A   1      40.236  35.840  38.192  1.00  0.00    -0.237 OA
ATOM     49  O   UNL A   1      41.759  35.322  36.321  1.00  0.00    -0.744 OA
ENDBRANCH  42  46
ENDBRANCH  25  39
BRANCH  26  50
ATOM     50  C   UNL A   1      42.262  26.079  27.701  1.00  0.00     0.023 A 
ATOM     51  C   UNL A   1      41.866  24.737  27.605  1.00  0.00     0.031 A 
ATOM     52  C   UNL A   1      43.079  26.604  26.685  1.00  0.00     0.131 A 
ATOM     53  C   UNL A   1      42.309  23.956  26.528  1.00  0.00     0.055 A 
ATOM     54  C   UNL A   1      43.481  25.836  25.592  1.00  0.00     0.041 A 
ATOM     55  F   UNL A   1      43.476  27.886  26.728  1.00  0.00    -0.206 F 
ATOM     56  C   UNL A   1      43.102  24.500  25.514  1.00  0.00     0.022 A 
BRANCH  53  57
ATOM     57  S   UNL A   1      41.872  22.196  26.492  1.00  0.00     0.124 S 
ATOM     58  O   UNL A   1      42.301  21.756  27.815  1.00  0.00    -0.237 OA
ATOM     59  O   UNL A   1      40.431  22.246  26.268  1.00  0.00    -0.237 OA
ATOM     60  O   UNL A   1      42.655  21.674  25.375  1.00  0.00    -0.744 OA
ENDBRANCH  53  57
ENDBRANCH  26  50
BRANCH  38  61
ATOM     61  C   UNL A   1      44.927  27.417  33.999  1.00  0.00     0.023 A 
ATOM     62  C   UNL A   1      44.880  26.261  34.799  1.00  0.00     0.031 A 
ATOM     63  C   UNL A   1      46.150  28.104  33.897  1.00  0.00     0.131 A 
ATOM     64  C   UNL A   1      46.020  25.860  35.513  1.00  0.00     0.055 A 
ATOM     65  C   UNL A   1      47.294  27.666  34.564  1.00  0.00     0.041 A 
ATOM     66  F   UNL A   1      46.250  29.214  33.150  1.00  0.00    -0.206 F 
ATOM     67  C   UNL A   1      47.230  26.546  35.388  1.00  0.00     0.022 A 
BRANCH  64  68
ATOM     68  S   UNL A   1      45.873  24.482  36.684  1.00  0.00     0.124 S 
ATOM     69  O   UNL A   1      47.252  24.010  36.770  1.00  0.00    -0.237 OA
ATOM     70  O   UNL A   1      45.348  25.138  37.876  1.00  0.00    -0.237 OA
ATOM     71  O   UNL A   1      44.945  23.566  36.022  1.00  0.00    -0.744 OA
ENDBRANCH  64  68
ENDBRANCH  38  61
ENDBRANCH  12  13
ENDBRANCH   5   7
ENDBRANCH   2   3
ENDBRANCH   1   2
BRANCH   1  72
ATOM     72  C   UNL A   1      32.605  27.157  26.337  1.00  0.00     0.023 C 
BRANCH  72  73
ATOM     73  C   UNL A   1      32.620  25.821  25.598  1.00  0.00     0.116 C 
BRANCH  73  74
ATOM     74  N   UNL A   1      33.067  25.966  24.222  1.00  0.00    -0.352 N 
ATOM     75  C   UNL A   1      33.552  25.000  23.380  1.00  0.00     0.252 C 
ATOM     76  H   UNL A   1      33.015  26.875  23.848  1.00  0.00     0.163 HD
ATOM     77  O   UNL A   1      34.021  25.271  22.283  1.00  0.00    -0.269 OA
BRANCH  75  78
ATOM     78  C   UNL A   1      33.487  23.602  23.806  1.00  0.00     0.059 A 
ATOM     79  C   UNL A   1      32.275  22.942  23.822  1.00  0.00     0.129 A 
ATOM     80  C   UNL A   1      34.629  22.934  24.236  1.00  0.00     0.041 A 
ATOM     81  N   UNL A   1      32.152  21.641  24.177  1.00  0.00    -0.220 NA
ATOM     82  C   UNL A   1      34.522  21.606  24.654  1.00  0.00     0.104 A 
ATOM     83  C   UNL A   1      33.274  20.982  24.575  1.00  0.00     0.232 A 
ATOM     84  Cl  UNL A   1      35.937  20.889  25.327  1.00  0.00    -0.078 Cl
BRANCH  83  85
ATOM     85  O   UNL A   1      32.987  19.716  24.989  1.00  0.00    -0.476 OA
BRANCH  85  86
ATOM     86  C   UNL A   1      32.972  18.663  24.023  1.00  0.00     0.235 C 
BRANCH  86  87
ATOM     87  C   UNL A   1      34.124  17.707  24.123  1.00  0.00     0.027 C 
ATOM     88  C   UNL A   1      33.933  16.275  24.563  1.00  0.00     0.007 C 
ATOM     89  C   UNL A   1      34.206  16.580  23.119  1.00  0.00     0.007 C 
ENDBRANCH  86  87
ENDBRANCH  85  86
ENDBRANCH  83  85
ENDBRANCH  75  78
ENDBRANCH  73  74
ENDBRANCH  72  73
ENDBRANCH   1  72
TORSDOF 17
ENDMDL
