MODEL 1
REMARK VINA RESULT:     -12.8      0.000      0.000
REMARK SMILES Cc1nc(-c2ccccc2)sc1C(=O)N[C@@H](CC1=c2ccccc2=NC1)C(=O)NCCCCNC(=O)c1ccc(-c2c3nc(c(-c4cc(S(=O)(=O)[O-])ccc4F)c4ccc([nH]4)c(-c4cc(S(=O)(=O)[O-])ccc4F)c4nc(c(-c5cc(S(=O)(=O)[O-])ccc5F)c5ccc2[nH]5)C=C4)C=C3)cc1
REMARK SMILES IDX 31 1 30 2 29 3 27 4 28 5 16 7 15 8 13 9 14 10 12 12 1 13
REMARK SMILES IDX 2 14 3 15 4 16 11 17 5 18 6 19 10 20 7 21 9 22 8 23 17 24
REMARK SMILES IDX 18 25 19 26 26 27 20 28 24 29 25 30 21 31 23 32 22 33 32 34
REMARK SMILES IDX 33 35 34 36 35 37 36 39 37 40 38 41 99 42 39 43 98 44 40 45
REMARK SMILES IDX 41 46 42 47 92 48 43 49 97 50 91 51 93 52 44 53 96 54 90 55
REMARK SMILES IDX 89 56 45 58 77 59 57 60 76 61 58 62 61 63 75 64 94 65 59 66
REMARK SMILES IDX 60 67 74 69 95 70 62 71 46 72 47 73 55 74 48 75 54 76 56 77
REMARK SMILES IDX 53 78 49 79 50 80 51 81 52 82 78 83 79 84 87 85 80 86 86 87
REMARK SMILES IDX 88 88 85 89 81 90 82 91 83 92 84 93 63 94 64 95 72 96 65 97
REMARK SMILES IDX 71 98 73 99 70 100 66 101 67 102 68 103 69 104
REMARK H PARENT 29 6 15 11 34 38 93 57 61 68
REMARK Flexibility Score: inf
ROOT
ATOM      1  C   UNL A   1      37.512  21.821  24.696  1.00  0.00     0.023 C 
ENDROOT
BRANCH   1   2
ATOM      2  C   UNL A   1      35.996  21.872  24.644  1.00  0.00     0.116 C 
BRANCH   2   3
ATOM      3  N   UNL A   1      35.323  21.195  25.726  1.00  0.00    -0.354 N 
ATOM      4  C   UNL A   1      34.106  21.456  26.279  1.00  0.00     0.242 C 
ATOM      5  O   UNL A   1      33.532  20.511  26.831  1.00  0.00    -0.273 OA
ATOM      6  H   UNL A   1      35.813  20.438  26.122  1.00  0.00     0.163 HD
BRANCH   4   7
ATOM      7  C   UNL A   1      33.389  22.822  26.179  1.00  0.00     0.175 C 
BRANCH   7   8
ATOM      8  N   UNL A   1      32.110  22.914  26.861  1.00  0.00    -0.339 N 
ATOM      9  C   UNL A   1      30.924  23.542  26.596  1.00  0.00     0.263 C 
ATOM     10  O   UNL A   1      30.131  23.435  27.543  1.00  0.00    -0.268 OA
ATOM     11  H   UNL A   1      32.093  22.411  27.707  1.00  0.00     0.164 HD
BRANCH   9  12
ATOM     12  C   UNL A   1      30.568  24.244  25.363  1.00  0.00     0.115 A 
ATOM     13  C   UNL A   1      31.073  22.927  23.122  1.00  0.00     0.068 C 
ATOM     14  C   UNL A   1      30.584  24.035  23.983  1.00  0.00     0.062 A 
ATOM     15  N   UNL A   1      30.052  25.069  23.225  1.00  0.00    -0.241 NA
ATOM     16  C   UNL A   1      29.709  26.087  23.968  1.00  0.00     0.124 A 
ATOM     17  S   UNL A   1      29.948  25.873  25.632  1.00  0.00    -0.108 S 
BRANCH  16  18
ATOM     18  C   UNL A   1      29.143  27.309  23.411  1.00  0.00     0.010 A 
ATOM     19  C   UNL A   1      30.010  28.274  22.879  1.00  0.00     0.011 A 
ATOM     20  C   UNL A   1      27.779  27.600  23.525  1.00  0.00     0.011 A 
ATOM     21  C   UNL A   1      29.523  29.517  22.477  1.00  0.00     0.001 A 
ATOM     22  C   UNL A   1      27.295  28.850  23.131  1.00  0.00     0.001 A 
ATOM     23  C   UNL A   1      28.168  29.808  22.614  1.00  0.00     0.000 A 
ENDBRANCH  16  18
ENDBRANCH   9  12
ENDBRANCH   7   8
BRANCH   7  24
ATOM     24  C   UNL A   1      34.284  24.067  26.416  1.00  0.00     0.068 C 
BRANCH  24  25
ATOM     25  C   UNL A   1      34.089  25.261  25.532  1.00  0.00    -0.037 C 
ATOM     26  C   UNL A   1      34.004  25.334  24.204  1.00  0.00     0.001 A 
ATOM     27  C   UNL A   1      33.903  26.622  26.141  1.00  0.00     0.174 C 
ATOM     28  C   UNL A   1      34.094  24.404  23.123  1.00  0.00     0.010 A 
ATOM     29  C   UNL A   1      33.537  26.716  23.991  1.00  0.00     0.065 A 
ATOM     30  N   UNL A   1      33.471  27.493  25.027  1.00  0.00    -0.280 NA
ATOM     31  C   UNL A   1      33.655  24.779  21.911  1.00  0.00     0.001 A 
ATOM     32  C   UNL A   1      33.076  27.057  22.627  1.00  0.00     0.028 A 
ATOM     33  C   UNL A   1      33.114  26.107  21.677  1.00  0.00     0.002 A 
ENDBRANCH  24  25
ENDBRANCH   7  24
ENDBRANCH   4   7
ENDBRANCH   2   3
ENDBRANCH   1   2
BRANCH   1  34
ATOM     34  C   UNL A   1      38.097  20.596  25.388  1.00  0.00     0.023 C 
BRANCH  34  35
ATOM     35  C   UNL A   1      39.437  20.802  26.086  1.00  0.00     0.116 C 
BRANCH  35  36
ATOM     36  N   UNL A   1      40.275  19.611  26.108  1.00  0.00    -0.352 N 
ATOM     37  C   UNL A   1      41.646  19.518  26.222  1.00  0.00     0.251 C 
ATOM     38  H   UNL A   1      39.798  18.754  26.031  1.00  0.00     0.163 HD
ATOM     39  O   UNL A   1      42.209  18.441  26.087  1.00  0.00    -0.269 OA
BRANCH  37  40
ATOM     40  C   UNL A   1      42.419  20.754  26.466  1.00  0.00     0.039 A 
ATOM     41  C   UNL A   1      42.864  21.506  25.378  1.00  0.00     0.014 A 
ATOM     42  C   UNL A   1      42.619  21.208  27.772  1.00  0.00     0.014 A 
ATOM     43  C   UNL A   1      43.421  22.768  25.598  1.00  0.00     0.010 A 
ATOM     44  C   UNL A   1      43.089  22.500  27.983  1.00  0.00     0.010 A 
ATOM     45  C   UNL A   1      43.487  23.298  26.899  1.00  0.00    -0.014 A 
BRANCH  45  46
ATOM     46  C   UNL A   1      43.960  24.685  27.149  1.00  0.00     0.031 A 
ATOM     47  C   UNL A   1      43.004  25.719  27.675  1.00  0.00     0.074 A 
ATOM     48  C   UNL A   1      45.222  25.032  26.823  1.00  0.00     0.049 A 
ATOM     49  N   UNL A   1      43.189  27.000  27.866  1.00  0.00    -0.248 NA
ATOM     50  C   UNL A   1      41.644  25.256  27.990  1.00  0.00     0.031 C 
ATOM     51  C   UNL A   1      46.228  24.134  26.248  1.00  0.00     0.029 A 
ATOM     52  N   UNL A   1      45.874  26.236  26.917  1.00  0.00    -0.354 N 
ATOM     53  C   UNL A   1      41.966  27.499  28.302  1.00  0.00     0.074 A 
ATOM     54  C   UNL A   1      41.032  26.392  28.279  1.00  0.00     0.031 C 
ATOM     55  C   UNL A   1      47.373  24.811  26.068  1.00  0.00     0.029 A 
ATOM     56  C   UNL A   1      47.176  26.199  26.472  1.00  0.00     0.049 A 
ATOM     57  H   UNL A   1      45.450  27.051  27.271  1.00  0.00     0.167 HD
ATOM     58  C   UNL A   1      41.657  28.754  28.709  1.00  0.00     0.034 A 
ATOM     59  C   UNL A   1      48.103  27.175  26.392  1.00  0.00     0.034 A 
ATOM     60  C   UNL A   1      42.606  29.840  28.748  1.00  0.00     0.049 A 
ATOM     61  C   UNL A   1      47.741  28.562  26.858  1.00  0.00     0.074 A 
ATOM     62  C   UNL A   1      42.420  31.134  29.199  1.00  0.00     0.029 A 
ATOM     63  N   UNL A   1      43.924  29.757  28.316  1.00  0.00    -0.354 N 
ATOM     64  N   UNL A   1      46.594  29.004  27.321  1.00  0.00    -0.248 NA
ATOM     65  C   UNL A   1      48.801  29.576  26.806  1.00  0.00     0.031 C 
ATOM     66  C   UNL A   1      43.605  31.848  28.989  1.00  0.00     0.029 A 
ATOM     67  C   UNL A   1      44.554  30.982  28.470  1.00  0.00     0.049 A 
ATOM     68  H   UNL A   1      44.350  28.946  27.953  1.00  0.00     0.167 HD
ATOM     69  C   UNL A   1      46.806  30.342  27.642  1.00  0.00     0.074 A 
ATOM     70  C   UNL A   1      48.193  30.628  27.334  1.00  0.00     0.031 C 
ATOM     71  C   UNL A   1      45.937  31.252  28.151  1.00  0.00     0.034 A 
BRANCH  58  72
ATOM     72  C   UNL A   1      40.228  29.013  29.124  1.00  0.00     0.023 A 
ATOM     73  C   UNL A   1      39.848  29.039  30.478  1.00  0.00     0.031 A 
ATOM     74  C   UNL A   1      39.224  29.195  28.157  1.00  0.00     0.131 A 
ATOM     75  C   UNL A   1      38.493  29.153  30.824  1.00  0.00     0.055 A 
ATOM     76  C   UNL A   1      37.888  29.395  28.512  1.00  0.00     0.041 A 
ATOM     77  F   UNL A   1      39.521  29.162  26.848  1.00  0.00    -0.206 F 
ATOM     78  C   UNL A   1      37.513  29.357  29.851  1.00  0.00     0.022 A 
BRANCH  75  79
ATOM     79  S   UNL A   1      38.017  28.877  32.553  1.00  0.00     0.124 S 
ATOM     80  O   UNL A   1      36.652  29.397  32.568  1.00  0.00    -0.237 OA
ATOM     81  O   UNL A   1      38.151  27.431  32.690  1.00  0.00    -0.237 OA
ATOM     82  O   UNL A   1      38.987  29.669  33.306  1.00  0.00    -0.744 OA
ENDBRANCH  75  79
ENDBRANCH  58  72
BRANCH  59  83
ATOM     83  C   UNL A   1      49.464  26.886  25.852  1.00  0.00     0.023 A 
ATOM     84  C   UNL A   1      49.828  27.295  24.560  1.00  0.00     0.031 A 
ATOM     85  C   UNL A   1      50.404  26.160  26.605  1.00  0.00     0.131 A 
ATOM     86  C   UNL A   1      51.080  26.935  24.039  1.00  0.00     0.055 A 
ATOM     87  C   UNL A   1      51.668  25.847  26.100  1.00  0.00     0.041 A 
ATOM     88  F   UNL A   1      50.109  25.754  27.850  1.00  0.00    -0.206 F 
ATOM     89  C   UNL A   1      52.007  26.224  24.804  1.00  0.00     0.022 A 
BRANCH  86  90
ATOM     90  S   UNL A   1      51.452  27.344  22.310  1.00  0.00     0.124 S 
ATOM     91  O   UNL A   1      52.759  26.723  22.132  1.00  0.00    -0.237 OA
ATOM     92  O   UNL A   1      50.340  26.713  21.606  1.00  0.00    -0.237 OA
ATOM     93  O   UNL A   1      51.446  28.805  22.298  1.00  0.00    -0.744 OA
ENDBRANCH  86  90
ENDBRANCH  59  83
BRANCH  71  94
ATOM     94  C   UNL A   1      46.482  32.626  28.448  1.00  0.00     0.023 A 
ATOM     95  C   UNL A   1      46.617  33.603  27.446  1.00  0.00     0.031 A 
ATOM     96  C   UNL A   1      46.887  32.956  29.754  1.00  0.00     0.131 A 
ATOM     97  C   UNL A   1      47.195  34.843  27.754  1.00  0.00     0.055 A 
ATOM     98  C   UNL A   1      47.408  34.212  30.067  1.00  0.00     0.041 A 
ATOM     99  F   UNL A   1      46.781  32.060  30.749  1.00  0.00    -0.206 F 
ATOM    100  C   UNL A   1      47.577  35.159  29.062  1.00  0.00     0.022 A 
BRANCH  97 101
ATOM    101  S   UNL A   1      47.526  36.009  26.405  1.00  0.00     0.124 S 
ATOM    102  O   UNL A   1      46.297  36.793  26.371  1.00  0.00    -0.237 OA
ATOM    103  O   UNL A   1      48.715  36.707  26.881  1.00  0.00    -0.237 OA
ATOM    104  O   UNL A   1      47.740  35.142  25.247  1.00  0.00    -0.744 OA
ENDBRANCH  97 101
ENDBRANCH  71  94
ENDBRANCH  45  46
ENDBRANCH  37  40
ENDBRANCH  35  36
ENDBRANCH  34  35
ENDBRANCH   1  34
TORSDOF 19
ENDMDL
MODEL 2
REMARK VINA RESULT:     -12.7      5.063      8.086
REMARK SMILES Cc1nc(-c2ccccc2)sc1C(=O)N[C@@H](CC1=c2ccccc2=NC1)C(=O)NCCCCNC(=O)c1ccc(-c2c3nc(c(-c4cc(S(=O)(=O)[O-])ccc4F)c4ccc([nH]4)c(-c4cc(S(=O)(=O)[O-])ccc4F)c4nc(c(-c5cc(S(=O)(=O)[O-])ccc5F)c5ccc2[nH]5)C=C4)C=C3)cc1
REMARK SMILES IDX 31 1 30 2 29 3 27 4 28 5 16 7 15 8 13 9 14 10 12 12 1 13
REMARK SMILES IDX 2 14 3 15 4 16 11 17 5 18 6 19 10 20 7 21 9 22 8 23 17 24
REMARK SMILES IDX 18 25 19 26 26 27 20 28 24 29 25 30 21 31 23 32 22 33 32 34
REMARK SMILES IDX 33 35 34 36 35 37 36 39 37 40 38 41 99 42 39 43 98 44 40 45
REMARK SMILES IDX 41 46 42 47 92 48 43 49 97 50 91 51 93 52 44 53 96 54 90 55
REMARK SMILES IDX 89 56 45 58 77 59 57 60 76 61 58 62 61 63 75 64 94 65 59 66
REMARK SMILES IDX 60 67 74 69 95 70 62 71 46 72 47 73 55 74 48 75 54 76 56 77
REMARK SMILES IDX 53 78 49 79 50 80 51 81 52 82 78 83 79 84 87 85 80 86 86 87
REMARK SMILES IDX 88 88 85 89 81 90 82 91 83 92 84 93 63 94 64 95 72 96 65 97
REMARK SMILES IDX 71 98 73 99 70 100 66 101 67 102 68 103 69 104
REMARK H PARENT 29 6 15 11 34 38 93 57 61 68
REMARK Flexibility Score: inf
ROOT
ATOM      1  C   UNL A   1      31.644  27.960  27.196  1.00  0.00     0.023 C 
ENDROOT
BRANCH   1   2
ATOM      2  C   UNL A   1      31.050  26.694  26.605  1.00  0.00     0.116 C 
BRANCH   2   3
ATOM      3  N   UNL A   1      31.791  25.486  26.877  1.00  0.00    -0.354 N 
ATOM      4  C   UNL A   1      32.420  24.649  26.008  1.00  0.00     0.242 C 
ATOM      5  O   UNL A   1      33.358  23.981  26.456  1.00  0.00    -0.273 OA
ATOM      6  H   UNL A   1      31.850  25.230  27.827  1.00  0.00     0.163 HD
BRANCH   4   7
ATOM      7  C   UNL A   1      32.079  24.556  24.502  1.00  0.00     0.175 C 
BRANCH   7   8
ATOM      8  N   UNL A   1      32.820  25.449  23.630  1.00  0.00    -0.339 N 
ATOM      9  C   UNL A   1      32.506  26.570  22.912  1.00  0.00     0.263 C 
ATOM     10  O   UNL A   1      33.454  26.937  22.203  1.00  0.00    -0.268 OA
ATOM     11  H   UNL A   1      33.765  25.189  23.534  1.00  0.00     0.164 HD
BRANCH   9  12
ATOM     12  C   UNL A   1      31.240  27.302  22.952  1.00  0.00     0.115 A 
ATOM     13  C   UNL A   1      29.138  25.888  23.723  1.00  0.00     0.068 C 
ATOM     14  C   UNL A   1      29.902  27.085  23.286  1.00  0.00     0.062 A 
ATOM     15  N   UNL A   1      29.082  28.201  23.184  1.00  0.00    -0.241 NA
ATOM     16  C   UNL A   1      29.726  29.232  22.707  1.00  0.00     0.124 A 
ATOM     17  S   UNL A   1      31.369  28.968  22.389  1.00  0.00    -0.108 S 
BRANCH  16  18
ATOM     18  C   UNL A   1      29.084  30.521  22.483  1.00  0.00     0.010 A 
ATOM     19  C   UNL A   1      28.511  30.783  21.231  1.00  0.00     0.011 A 
ATOM     20  C   UNL A   1      29.153  31.547  23.434  1.00  0.00     0.011 A 
ATOM     21  C   UNL A   1      28.024  32.054  20.928  1.00  0.00     0.001 A 
ATOM     22  C   UNL A   1      28.674  32.821  23.125  1.00  0.00     0.001 A 
ATOM     23  C   UNL A   1      28.116  33.075  21.871  1.00  0.00     0.000 A 
ENDBRANCH  16  18
ENDBRANCH   9  12
ENDBRANCH   7   8
BRANCH   7  24
ATOM     24  C   UNL A   1      31.966  23.119  23.929  1.00  0.00     0.068 C 
BRANCH  24  25
ATOM     25  C   UNL A   1      33.035  22.129  24.277  1.00  0.00    -0.037 C 
ATOM     26  C   UNL A   1      34.340  22.151  24.004  1.00  0.00     0.001 A 
ATOM     27  C   UNL A   1      32.696  20.916  25.098  1.00  0.00     0.174 C 
ATOM     28  C   UNL A   1      35.217  23.022  23.289  1.00  0.00     0.010 A 
ATOM     29  C   UNL A   1      34.860  21.061  24.851  1.00  0.00     0.065 A 
ATOM     30  N   UNL A   1      33.997  20.324  25.477  1.00  0.00    -0.280 NA
ATOM     31  C   UNL A   1      36.542  22.896  23.472  1.00  0.00     0.001 A 
ATOM     32  C   UNL A   1      36.330  20.982  24.998  1.00  0.00     0.028 A 
ATOM     33  C   UNL A   1      37.093  21.885  24.360  1.00  0.00     0.002 A 
ENDBRANCH  24  25
ENDBRANCH   7  24
ENDBRANCH   4   7
ENDBRANCH   2   3
ENDBRANCH   1   2
BRANCH   1  34
ATOM     34  C   UNL A   1      31.553  29.195  26.308  1.00  0.00     0.023 C 
BRANCH  34  35
ATOM     35  C   UNL A   1      32.824  30.031  26.196  1.00  0.00     0.116 C 
BRANCH  35  36
ATOM     36  N   UNL A   1      32.669  31.399  26.669  1.00  0.00    -0.352 N 
ATOM     37  C   UNL A   1      33.500  32.132  27.488  1.00  0.00     0.251 C 
ATOM     38  H   UNL A   1      31.859  31.866  26.361  1.00  0.00     0.163 HD
ATOM     39  O   UNL A   1      33.155  33.230  27.902  1.00  0.00    -0.269 OA
BRANCH  37  40
ATOM     40  C   UNL A   1      34.795  31.542  27.890  1.00  0.00     0.039 A 
ATOM     41  C   UNL A   1      35.896  32.379  28.080  1.00  0.00     0.014 A 
ATOM     42  C   UNL A   1      34.886  30.176  28.166  1.00  0.00     0.014 A 
ATOM     43  C   UNL A   1      37.062  31.859  28.645  1.00  0.00     0.010 A 
ATOM     44  C   UNL A   1      36.014  29.681  28.811  1.00  0.00     0.010 A 
ATOM     45  C   UNL A   1      37.111  30.518  29.066  1.00  0.00    -0.014 A 
BRANCH  45  46
ATOM     46  C   UNL A   1      38.294  29.972  29.783  1.00  0.00     0.031 A 
ATOM     47  C   UNL A   1      38.611  30.445  31.175  1.00  0.00     0.074 A 
ATOM     48  C   UNL A   1      39.126  29.120  29.150  1.00  0.00     0.049 A 
ATOM     49  N   UNL A   1      39.644  30.169  31.929  1.00  0.00    -0.248 NA
ATOM     50  C   UNL A   1      37.658  31.385  31.781  1.00  0.00     0.031 C 
ATOM     51  C   UNL A   1      38.960  28.634  27.777  1.00  0.00     0.029 A 
ATOM     52  N   UNL A   1      40.285  28.518  29.572  1.00  0.00    -0.354 N 
ATOM     53  C   UNL A   1      39.476  30.918  33.089  1.00  0.00     0.074 A 
ATOM     54  C   UNL A   1      38.277  31.709  32.905  1.00  0.00     0.031 C 
ATOM     55  C   UNL A   1      39.962  27.789  27.484  1.00  0.00     0.029 A 
ATOM     56  C   UNL A   1      40.866  27.705  28.626  1.00  0.00     0.049 A 
ATOM     57  H   UNL A   1      40.666  28.655  30.470  1.00  0.00     0.167 HD
ATOM     58  C   UNL A   1      40.233  30.925  34.213  1.00  0.00     0.034 A 
ATOM     59  C   UNL A   1      42.001  26.979  28.671  1.00  0.00     0.034 A 
ATOM     60  C   UNL A   1      41.412  30.113  34.389  1.00  0.00     0.049 A 
ATOM     61  C   UNL A   1      42.825  26.995  29.933  1.00  0.00     0.074 A 
ATOM     62  C   UNL A   1      42.220  29.993  35.506  1.00  0.00     0.029 A 
ATOM     63  N   UNL A   1      41.954  29.279  33.418  1.00  0.00    -0.354 N 
ATOM     64  N   UNL A   1      42.620  27.666  31.044  1.00  0.00    -0.248 NA
ATOM     65  C   UNL A   1      44.021  26.144  29.955  1.00  0.00     0.031 C 
ATOM     66  C   UNL A   1      43.279  29.133  35.193  1.00  0.00     0.029 A 
ATOM     67  C   UNL A   1      43.096  28.661  33.904  1.00  0.00     0.049 A 
ATOM     68  H   UNL A   1      41.581  29.146  32.517  1.00  0.00     0.167 HD
ATOM     69  C   UNL A   1      43.648  27.294  31.905  1.00  0.00     0.074 A 
ATOM     70  C   UNL A   1      44.460  26.329  31.191  1.00  0.00     0.031 C 
ATOM     71  C   UNL A   1      43.898  27.707  33.175  1.00  0.00     0.034 A 
BRANCH  58  72
ATOM     72  C   UNL A   1      39.811  31.858  35.325  1.00  0.00     0.023 A 
ATOM     73  C   UNL A   1      39.047  31.404  36.414  1.00  0.00     0.031 A 
ATOM     74  C   UNL A   1      40.139  33.224  35.275  1.00  0.00     0.131 A 
ATOM     75  C   UNL A   1      38.563  32.320  37.361  1.00  0.00     0.055 A 
ATOM     76  C   UNL A   1      39.727  34.116  36.267  1.00  0.00     0.041 A 
ATOM     77  F   UNL A   1      40.851  33.720  34.250  1.00  0.00    -0.206 F 
ATOM     78  C   UNL A   1      38.919  33.669  37.309  1.00  0.00     0.022 A 
BRANCH  75  79
ATOM     79  S   UNL A   1      37.338  31.747  38.570  1.00  0.00     0.124 S 
ATOM     80  O   UNL A   1      38.095  31.830  39.817  1.00  0.00    -0.237 OA
ATOM     81  O   UNL A   1      36.260  32.716  38.411  1.00  0.00    -0.237 OA
ATOM     82  O   UNL A   1      37.029  30.389  38.126  1.00  0.00    -0.744 OA
ENDBRANCH  75  79
ENDBRANCH  58  72
BRANCH  59  83
ATOM     83  C   UNL A   1      42.435  26.175  27.491  1.00  0.00     0.023 A 
ATOM     84  C   UNL A   1      42.039  24.836  27.347  1.00  0.00     0.031 A 
ATOM     85  C   UNL A   1      43.286  26.721  26.514  1.00  0.00     0.131 A 
ATOM     86  C   UNL A   1      42.532  24.072  26.277  1.00  0.00     0.055 A 
ATOM     87  C   UNL A   1      43.735  25.971  25.425  1.00  0.00     0.041 A 
ATOM     88  F   UNL A   1      43.687  28.000  26.601  1.00  0.00    -0.206 F 
ATOM     89  C   UNL A   1      43.368  24.634  25.310  1.00  0.00     0.022 A 
BRANCH  86  90
ATOM     90  S   UNL A   1      42.126  22.305  26.213  1.00  0.00     0.124 S 
ATOM     91  O   UNL A   1      42.827  21.883  25.007  1.00  0.00    -0.237 OA
ATOM     92  O   UNL A   1      42.675  21.824  27.476  1.00  0.00    -0.237 OA
ATOM     93  O   UNL A   1      40.668  22.294  26.126  1.00  0.00    -0.744 OA
ENDBRANCH  86  90
ENDBRANCH  59  83
BRANCH  71  94
ATOM     94  C   UNL A   1      45.070  27.074  33.880  1.00  0.00     0.023 A 
ATOM     95  C   UNL A   1      46.357  27.639  33.833  1.00  0.00     0.031 A 
ATOM     96  C   UNL A   1      44.898  25.878  34.600  1.00  0.00     0.131 A 
ATOM     97  C   UNL A   1      47.433  26.979  34.445  1.00  0.00     0.055 A 
ATOM     98  C   UNL A   1      45.961  25.256  35.256  1.00  0.00     0.041 A 
ATOM     99  F   UNL A   1      43.691  25.295  34.677  1.00  0.00    -0.206 F 
ATOM    100  C   UNL A   1      47.239  25.799  35.169  1.00  0.00     0.022 A 
BRANCH  97 101
ATOM    101  S   UNL A   1      49.106  27.634  34.207  1.00  0.00     0.124 S 
ATOM    102  O   UNL A   1      49.123  28.767  35.125  1.00  0.00    -0.237 OA
ATOM    103  O   UNL A   1      49.942  26.498  34.581  1.00  0.00    -0.237 OA
ATOM    104  O   UNL A   1      49.139  27.985  32.788  1.00  0.00    -0.744 OA
ENDBRANCH  97 101
ENDBRANCH  71  94
ENDBRANCH  45  46
ENDBRANCH  37  40
ENDBRANCH  35  36
ENDBRANCH  34  35
ENDBRANCH   1  34
TORSDOF 19
ENDMDL
MODEL 3
REMARK VINA RESULT:     -12.7      1.962      2.378
REMARK SMILES Cc1nc(-c2ccccc2)sc1C(=O)N[C@@H](CC1=c2ccccc2=NC1)C(=O)NCCCCNC(=O)c1ccc(-c2c3nc(c(-c4cc(S(=O)(=O)[O-])ccc4F)c4ccc([nH]4)c(-c4cc(S(=O)(=O)[O-])ccc4F)c4nc(c(-c5cc(S(=O)(=O)[O-])ccc5F)c5ccc2[nH]5)C=C4)C=C3)cc1
REMARK SMILES IDX 31 1 30 2 29 3 27 4 28 5 16 7 15 8 13 9 14 10 12 12 1 13
REMARK SMILES IDX 2 14 3 15 4 16 11 17 5 18 6 19 10 20 7 21 9 22 8 23 17 24
REMARK SMILES IDX 18 25 19 26 26 27 20 28 24 29 25 30 21 31 23 32 22 33 32 34
REMARK SMILES IDX 33 35 34 36 35 37 36 39 37 40 38 41 99 42 39 43 98 44 40 45
REMARK SMILES IDX 41 46 42 47 92 48 43 49 97 50 91 51 93 52 44 53 96 54 90 55
REMARK SMILES IDX 89 56 45 58 77 59 57 60 76 61 58 62 61 63 75 64 94 65 59 66
REMARK SMILES IDX 60 67 74 69 95 70 62 71 46 72 47 73 55 74 48 75 54 76 56 77
REMARK SMILES IDX 53 78 49 79 50 80 51 81 52 82 78 83 79 84 87 85 80 86 86 87
REMARK SMILES IDX 88 88 85 89 81 90 82 91 83 92 84 93 63 94 64 95 72 96 65 97
REMARK SMILES IDX 71 98 73 99 70 100 66 101 67 102 68 103 69 104
REMARK H PARENT 29 6 15 11 34 38 93 57 61 68
REMARK Flexibility Score: inf
ROOT
ATOM      1  C   UNL A   1      37.930  22.404  24.866  1.00  0.00     0.023 C 
ENDROOT
BRANCH   1   2
ATOM      2  C   UNL A   1      36.510  22.850  25.166  1.00  0.00     0.116 C 
BRANCH   2   3
ATOM      3  N   UNL A   1      35.957  22.344  26.399  1.00  0.00    -0.354 N 
ATOM      4  C   UNL A   1      34.661  22.325  26.815  1.00  0.00     0.242 C 
ATOM      5  O   UNL A   1      34.353  21.455  27.637  1.00  0.00    -0.273 OA
ATOM      6  H   UNL A   1      36.609  21.959  27.029  1.00  0.00     0.163 HD
BRANCH   4   7
ATOM      7  C   UNL A   1      33.564  23.263  26.262  1.00  0.00     0.175 C 
BRANCH   7   8
ATOM      8  N   UNL A   1      32.255  23.137  26.879  1.00  0.00    -0.339 N 
ATOM      9  C   UNL A   1      31.006  23.614  26.588  1.00  0.00     0.263 C 
ATOM     10  O   UNL A   1      30.195  23.339  27.484  1.00  0.00    -0.268 OA
ATOM     11  H   UNL A   1      32.271  22.582  27.692  1.00  0.00     0.164 HD
BRANCH   9  12
ATOM     12  C   UNL A   1      30.612  24.340  25.382  1.00  0.00     0.115 A 
ATOM     13  C   UNL A   1      30.902  23.008  23.111  1.00  0.00     0.068 C 
ATOM     14  C   UNL A   1      30.530  24.137  24.002  1.00  0.00     0.062 A 
ATOM     15  N   UNL A   1      30.007  25.202  23.281  1.00  0.00    -0.241 NA
ATOM     16  C   UNL A   1      29.768  26.233  24.046  1.00  0.00     0.124 A 
ATOM     17  S   UNL A   1      30.101  25.999  25.691  1.00  0.00    -0.108 S 
BRANCH  16  18
ATOM     18  C   UNL A   1      29.236  27.487  23.527  1.00  0.00     0.010 A 
ATOM     19  C   UNL A   1      27.853  27.706  23.576  1.00  0.00     0.011 A 
ATOM     20  C   UNL A   1      30.055  28.405  22.857  1.00  0.00     0.011 A 
ATOM     21  C   UNL A   1      27.292  28.821  22.953  1.00  0.00     0.001 A 
ATOM     22  C   UNL A   1      29.489  29.515  22.227  1.00  0.00     0.001 A 
ATOM     23  C   UNL A   1      28.109  29.719  22.270  1.00  0.00     0.000 A 
ENDBRANCH  16  18
ENDBRANCH   9  12
ENDBRANCH   7   8
BRANCH   7  24
ATOM     24  C   UNL A   1      33.988  24.741  26.056  1.00  0.00     0.068 C 
BRANCH  24  25
ATOM     25  C   UNL A   1      33.787  25.357  24.706  1.00  0.00    -0.037 C 
ATOM     26  C   UNL A   1      33.519  26.621  24.376  1.00  0.00     0.001 A 
ATOM     27  C   UNL A   1      33.938  24.518  23.469  1.00  0.00     0.174 C 
ATOM     28  C   UNL A   1      33.281  27.833  25.093  1.00  0.00     0.010 A 
ATOM     29  C   UNL A   1      33.725  26.620  22.916  1.00  0.00     0.065 A 
ATOM     30  N   UNL A   1      33.949  25.478  22.343  1.00  0.00    -0.280 NA
ATOM     31  C   UNL A   1      33.341  28.999  24.428  1.00  0.00     0.001 A 
ATOM     32  C   UNL A   1      33.772  27.941  22.253  1.00  0.00     0.028 A 
ATOM     33  C   UNL A   1      33.620  29.045  23.003  1.00  0.00     0.002 A 
ENDBRANCH  24  25
ENDBRANCH   7  24
ENDBRANCH   4   7
ENDBRANCH   2   3
ENDBRANCH   1   2
BRANCH   1  34
ATOM     34  C   UNL A   1      38.230  20.941  25.172  1.00  0.00     0.023 C 
BRANCH  34  35
ATOM     35  C   UNL A   1      39.141  20.684  26.369  1.00  0.00     0.116 C 
BRANCH  35  36
ATOM     36  N   UNL A   1      40.062  19.574  26.174  1.00  0.00    -0.352 N 
ATOM     37  C   UNL A   1      41.440  19.590  26.125  1.00  0.00     0.251 C 
ATOM     38  H   UNL A   1      39.645  18.689  26.063  1.00  0.00     0.163 HD
ATOM     39  O   UNL A   1      42.062  18.582  25.818  1.00  0.00    -0.269 OA
BRANCH  37  40
ATOM     40  C   UNL A   1      42.142  20.860  26.406  1.00  0.00     0.039 A 
ATOM     41  C   UNL A   1      42.405  21.741  25.356  1.00  0.00     0.014 A 
ATOM     42  C   UNL A   1      42.452  21.211  27.722  1.00  0.00     0.014 A 
ATOM     43  C   UNL A   1      42.887  23.020  25.640  1.00  0.00     0.010 A 
ATOM     44  C   UNL A   1      42.846  22.514  28.009  1.00  0.00     0.010 A 
ATOM     45  C   UNL A   1      43.059  23.436  26.972  1.00  0.00    -0.014 A 
BRANCH  45  46
ATOM     46  C   UNL A   1      43.453  24.830  27.306  1.00  0.00     0.031 A 
ATOM     47  C   UNL A   1      42.457  25.756  27.948  1.00  0.00     0.074 A 
ATOM     48  C   UNL A   1      44.673  25.285  26.954  1.00  0.00     0.049 A 
ATOM     49  N   UNL A   1      42.568  27.030  28.227  1.00  0.00    -0.248 NA
ATOM     50  C   UNL A   1      41.147  25.180  28.283  1.00  0.00     0.031 C 
ATOM     51  C   UNL A   1      45.706  24.502  26.271  1.00  0.00     0.029 A 
ATOM     52  N   UNL A   1      45.250  26.520  27.111  1.00  0.00    -0.354 N 
ATOM     53  C   UNL A   1      41.337  27.412  28.750  1.00  0.00     0.074 A 
ATOM     54  C   UNL A   1      40.477  26.249  28.684  1.00  0.00     0.031 C 
ATOM     55  C   UNL A   1      46.796  25.267  26.095  1.00  0.00     0.029 A 
ATOM     56  C   UNL A   1      46.528  26.605  26.610  1.00  0.00     0.049 A 
ATOM     57  H   UNL A   1      44.790  27.277  27.543  1.00  0.00     0.167 HD
ATOM     58  C   UNL A   1      40.967  28.610  29.263  1.00  0.00     0.034 A 
ATOM     59  C   UNL A   1      47.386  27.644  26.565  1.00  0.00     0.034 A 
ATOM     60  C   UNL A   1      41.844  29.752  29.343  1.00  0.00     0.049 A 
ATOM     61  C   UNL A   1      46.957  28.966  27.149  1.00  0.00     0.074 A 
ATOM     62  C   UNL A   1      41.597  30.995  29.899  1.00  0.00     0.029 A 
ATOM     63  N   UNL A   1      43.144  29.790  28.851  1.00  0.00    -0.354 N 
ATOM     64  N   UNL A   1      45.807  29.295  27.692  1.00  0.00    -0.248 NA
ATOM     65  C   UNL A   1      47.945  30.051  27.129  1.00  0.00     0.031 C 
ATOM     66  C   UNL A   1      42.722  31.801  29.693  1.00  0.00     0.029 A 
ATOM     67  C   UNL A   1      43.700  31.042  29.071  1.00  0.00     0.049 A 
ATOM     68  H   UNL A   1      43.603  29.039  28.412  1.00  0.00     0.167 HD
ATOM     69  C   UNL A   1      45.947  30.617  28.103  1.00  0.00     0.074 A 
ATOM     70  C   UNL A   1      47.296  31.018  27.760  1.00  0.00     0.031 C 
ATOM     71  C   UNL A   1      45.045  31.427  28.715  1.00  0.00     0.034 A 
BRANCH  58  72
ATOM     72  C   UNL A   1      39.545  28.741  29.757  1.00  0.00     0.023 A 
ATOM     73  C   UNL A   1      38.520  29.228  28.927  1.00  0.00     0.031 A 
ATOM     74  C   UNL A   1      39.217  28.414  31.084  1.00  0.00     0.131 A 
ATOM     75  C   UNL A   1      37.240  29.459  29.454  1.00  0.00     0.055 A 
ATOM     76  C   UNL A   1      37.919  28.565  31.579  1.00  0.00     0.041 A 
ATOM     77  F   UNL A   1      40.155  27.962  31.930  1.00  0.00    -0.206 F 
ATOM     78  C   UNL A   1      36.926  29.106  30.768  1.00  0.00     0.022 A 
BRANCH  75  79
ATOM     79  S   UNL A   1      36.039  30.367  28.443  1.00  0.00     0.124 S 
ATOM     80  O   UNL A   1      36.913  31.038  27.483  1.00  0.00    -0.237 OA
ATOM     81  O   UNL A   1      35.204  29.298  27.908  1.00  0.00    -0.237 OA
ATOM     82  O   UNL A   1      35.384  31.253  29.402  1.00  0.00    -0.744 OA
ENDBRANCH  75  79
ENDBRANCH  58  72
BRANCH  59  83
ATOM     83  C   UNL A   1      48.735  27.489  25.948  1.00  0.00     0.023 A 
ATOM     84  C   UNL A   1      48.915  27.627  24.563  1.00  0.00     0.031 A 
ATOM     85  C   UNL A   1      49.857  27.158  26.730  1.00  0.00     0.131 A 
ATOM     86  C   UNL A   1      50.175  27.388  23.993  1.00  0.00     0.055 A 
ATOM     87  C   UNL A   1      51.119  26.970  26.164  1.00  0.00     0.041 A 
ATOM     88  F   UNL A   1      49.741  27.024  28.061  1.00  0.00    -0.206 F 
ATOM     89  C   UNL A   1      51.281  27.071  24.785  1.00  0.00     0.022 A 
BRANCH  86  90
ATOM     90  S   UNL A   1      50.331  27.418  22.186  1.00  0.00     0.124 S 
ATOM     91  O   UNL A   1      51.668  26.869  21.993  1.00  0.00    -0.237 OA
ATOM     92  O   UNL A   1      49.221  26.566  21.773  1.00  0.00    -0.237 OA
ATOM     93  O   UNL A   1      50.183  28.834  21.856  1.00  0.00    -0.744 OA
ENDBRANCH  86  90
ENDBRANCH  59  83
BRANCH  71  94
ATOM     94  C   UNL A   1      45.514  32.809  29.092  1.00  0.00     0.023 A 
ATOM     95  C   UNL A   1      46.079  33.085  30.349  1.00  0.00     0.031 A 
ATOM     96  C   UNL A   1      45.379  33.872  28.180  1.00  0.00     0.131 A 
ATOM     97  C   UNL A   1      46.437  34.399  30.682  1.00  0.00     0.055 A 
ATOM     98  C   UNL A   1      45.790  35.168  28.494  1.00  0.00     0.041 A 
ATOM     99  F   UNL A   1      44.845  33.665  26.965  1.00  0.00    -0.206 F 
ATOM    100  C   UNL A   1      46.310  35.440  29.756  1.00  0.00     0.022 A 
BRANCH  97 101
ATOM    101  S   UNL A   1      46.987  34.751  32.374  1.00  0.00     0.124 S 
ATOM    102  O   UNL A   1      47.168  33.411  32.920  1.00  0.00    -0.237 OA
ATOM    103  O   UNL A   1      48.207  35.519  32.151  1.00  0.00    -0.237 OA
ATOM    104  O   UNL A   1      45.875  35.509  32.946  1.00  0.00    -0.744 OA
ENDBRANCH  97 101
ENDBRANCH  71  94
ENDBRANCH  45  46
ENDBRANCH  37  40
ENDBRANCH  35  36
ENDBRANCH  34  35
ENDBRANCH   1  34
TORSDOF 19
ENDMDL
