MODEL 1
REMARK VINA RESULT:     -12.1      0.000      0.000
REMARK SMILES O=C(NCCCCNC(=O)[C@@]1([NH2+]C2CC2)CC[C@@H]([N@@H+]2CC[N@@H+]3CCC[C@@H]3C2)C1)c1ccc(-c2c3nc(c(-c4cc(S(=O)(=O)[O-])ccc4F)c4ccc([nH]4)c(-c4cc(S(=O)(=O)[O-])ccc4F)c4nc(c(-c5cc(S(=O)(=O)[O-])ccc5F)c5ccc2[nH]5)C=C4)C=C3)cc1
REMARK SMILES IDX 5 1 4 2 3 3 1 4 2 5 29 7 30 8 91 9 31 10 90 11 32 12 33 13
REMARK SMILES IDX 34 14 84 15 35 16 89 17 83 18 85 19 36 20 88 21 82 22 81 23
REMARK SMILES IDX 37 25 69 26 49 27 68 28 50 29 53 30 67 31 86 32 51 33 52 34
REMARK SMILES IDX 66 36 87 37 54 38 38 39 39 40 47 41 40 42 46 43 48 44 45 45
REMARK SMILES IDX 41 46 42 47 43 48 44 49 70 50 71 51 79 52 72 53 78 54 80 55
REMARK SMILES IDX 77 56 73 57 74 58 75 59 76 60 55 61 56 62 64 63 57 64 63 65
REMARK SMILES IDX 65 66 62 67 58 68 59 69 60 70 61 71 6 72 7 73 8 74 9 75
REMARK SMILES IDX 10 77 11 78 16 79 28 80 17 81 18 82 12 83 13 86 14 87 15 88
REMARK SMILES IDX 19 89 20 90 27 91 21 93 26 94 22 95 25 96 23 97 24 99
REMARK H PARENT 3 6 85 24 53 35 8 76 12 84 12 85 19 92 22 98
REMARK Flexibility Score: inf
ROOT
ATOM      1  C   UNL A   1      34.913  21.811  26.007  1.00  0.00     0.023 C 
ENDROOT
BRANCH   1   2
ATOM      2  C   UNL A   1      36.211  22.111  25.260  1.00  0.00     0.116 C 
BRANCH   2   3
ATOM      3  N   UNL A   1      37.226  21.073  25.383  1.00  0.00    -0.352 N 
ATOM      4  O   UNL A   1      39.231  20.125  25.751  1.00  0.00    -0.269 OA
ATOM      5  C   UNL A   1      38.537  21.134  25.805  1.00  0.00     0.251 C 
ATOM      6  H   UNL A   1      36.924  20.175  25.119  1.00  0.00     0.163 HD
BRANCH   5   7
ATOM      7  C   UNL A   1      39.128  22.408  26.281  1.00  0.00     0.039 A 
ATOM      8  C   UNL A   1      38.562  23.640  25.959  1.00  0.00     0.014 A 
ATOM      9  C   UNL A   1      40.276  22.365  27.081  1.00  0.00     0.014 A 
ATOM     10  C   UNL A   1      39.246  24.816  26.253  1.00  0.00     0.010 A 
ATOM     11  C   UNL A   1      40.911  23.553  27.461  1.00  0.00     0.010 A 
ATOM     12  C   UNL A   1      40.436  24.790  27.000  1.00  0.00    -0.014 A 
BRANCH  12  13
ATOM     13  C   UNL A   1      41.159  26.063  27.274  1.00  0.00     0.031 A 
ATOM     14  C   UNL A   1      40.556  27.119  28.166  1.00  0.00     0.074 A 
ATOM     15  C   UNL A   1      42.391  26.249  26.758  1.00  0.00     0.049 A 
ATOM     16  N   UNL A   1      41.053  28.272  28.540  1.00  0.00    -0.248 NA
ATOM     17  C   UNL A   1      39.212  26.849  28.696  1.00  0.00     0.031 C 
ATOM     18  C   UNL A   1      43.085  25.303  25.883  1.00  0.00     0.029 A 
ATOM     19  N   UNL A   1      43.285  27.276  26.912  1.00  0.00    -0.354 N 
ATOM     20  C   UNL A   1      40.079  28.873  29.331  1.00  0.00     0.074 A 
ATOM     21  C   UNL A   1      38.945  27.972  29.345  1.00  0.00     0.031 C 
ATOM     22  C   UNL A   1      44.315  25.766  25.623  1.00  0.00     0.029 A 
ATOM     23  C   UNL A   1      44.475  27.071  26.255  1.00  0.00     0.049 A 
ATOM     24  H   UNL A   1      43.094  28.084  27.442  1.00  0.00     0.167 HD
ATOM     25  C   UNL A   1      40.128  30.059  29.992  1.00  0.00     0.034 A 
ATOM     26  C   UNL A   1      45.571  27.849  26.155  1.00  0.00     0.034 A 
ATOM     27  C   UNL A   1      41.270  30.945  29.974  1.00  0.00     0.049 A 
ATOM     28  C   UNL A   1      45.588  29.178  26.859  1.00  0.00     0.074 A 
ATOM     29  C   UNL A   1      41.439  32.150  30.635  1.00  0.00     0.029 A 
ATOM     30  N   UNL A   1      42.435  30.729  29.248  1.00  0.00    -0.354 N 
ATOM     31  N   UNL A   1      44.662  29.726  27.612  1.00  0.00    -0.248 NA
ATOM     32  C   UNL A   1      46.800  29.991  26.701  1.00  0.00     0.031 C 
ATOM     33  C   UNL A   1      42.673  32.693  30.255  1.00  0.00     0.029 A 
ATOM     34  C   UNL A   1      43.311  31.792  29.417  1.00  0.00     0.049 A 
ATOM     35  H   UNL A   1      42.615  29.935  28.693  1.00  0.00     0.167 HD
ATOM     36  C   UNL A   1      45.189  30.942  28.033  1.00  0.00     0.074 A 
ATOM     37  C   UNL A   1      46.519  31.038  27.464  1.00  0.00     0.031 C 
ATOM     38  C   UNL A   1      44.625  31.892  28.824  1.00  0.00     0.034 A 
BRANCH  25  39
ATOM     39  C   UNL A   1      38.887  30.484  30.748  1.00  0.00     0.023 A 
ATOM     40  C   UNL A   1      38.098  31.572  30.333  1.00  0.00     0.031 A 
ATOM     41  C   UNL A   1      38.511  29.817  31.927  1.00  0.00     0.131 A 
ATOM     42  C   UNL A   1      37.033  32.015  31.134  1.00  0.00     0.055 A 
ATOM     43  C   UNL A   1      37.399  30.208  32.675  1.00  0.00     0.041 A 
ATOM     44  F   UNL A   1      39.232  28.783  32.387  1.00  0.00    -0.206 F 
ATOM     45  C   UNL A   1      36.663  31.326  32.290  1.00  0.00     0.022 A 
BRANCH  42  46
ATOM     46  S   UNL A   1      36.251  33.603  30.735  1.00  0.00     0.124 S 
ATOM     47  O   UNL A   1      34.833  33.286  30.899  1.00  0.00    -0.237 OA
ATOM     48  O   UNL A   1      36.824  34.497  31.734  1.00  0.00    -0.237 OA
ATOM     49  O   UNL A   1      36.667  33.855  29.357  1.00  0.00    -0.744 OA
ENDBRANCH  42  46
ENDBRANCH  25  39
BRANCH  26  50
ATOM     50  C   UNL A   1      46.731  27.397  25.337  1.00  0.00     0.023 A 
ATOM     51  C   UNL A   1      46.899  27.832  24.014  1.00  0.00     0.031 A 
ATOM     52  C   UNL A   1      47.690  26.520  25.874  1.00  0.00     0.131 A 
ATOM     53  C   UNL A   1      47.988  27.367  23.261  1.00  0.00     0.055 A 
ATOM     54  C   UNL A   1      48.797  26.099  25.137  1.00  0.00     0.041 A 
ATOM     55  F   UNL A   1      47.578  26.081  27.138  1.00  0.00    -0.206 F 
ATOM     56  C   UNL A   1      48.946  26.516  23.818  1.00  0.00     0.022 A 
BRANCH  53  57
ATOM     57  S   UNL A   1      48.111  27.854  21.519  1.00  0.00     0.124 S 
ATOM     58  O   UNL A   1      48.440  26.587  20.878  1.00  0.00    -0.237 OA
ATOM     59  O   UNL A   1      46.775  28.380  21.255  1.00  0.00    -0.237 OA
ATOM     60  O   UNL A   1      49.180  28.850  21.519  1.00  0.00    -0.744 OA
ENDBRANCH  53  57
ENDBRANCH  26  50
BRANCH  38  61
ATOM     61  C   UNL A   1      45.473  33.099  29.144  1.00  0.00     0.023 A 
ATOM     62  C   UNL A   1      45.458  34.249  28.335  1.00  0.00     0.031 A 
ATOM     63  C   UNL A   1      46.330  33.084  30.259  1.00  0.00     0.131 A 
ATOM     64  C   UNL A   1      46.329  35.313  28.617  1.00  0.00     0.055 A 
ATOM     65  C   UNL A   1      47.150  34.170  30.568  1.00  0.00     0.041 A 
ATOM     66  F   UNL A   1      46.386  32.011  31.063  1.00  0.00    -0.206 F 
ATOM     67  C   UNL A   1      47.164  35.287  29.738  1.00  0.00     0.022 A 
BRANCH  64  68
ATOM     68  S   UNL A   1      46.428  36.694  27.445  1.00  0.00     0.124 S 
ATOM     69  O   UNL A   1      46.965  36.042  26.253  1.00  0.00    -0.237 OA
ATOM     70  O   UNL A   1      45.039  37.133  27.360  1.00  0.00    -0.237 OA
ATOM     71  O   UNL A   1      47.336  37.634  28.098  1.00  0.00    -0.744 OA
ENDBRANCH  64  68
ENDBRANCH  38  61
ENDBRANCH  12  13
ENDBRANCH   5   7
ENDBRANCH   2   3
ENDBRANCH   1   2
BRANCH   1  72
ATOM     72  C   UNL A   1      33.989  20.747  25.404  1.00  0.00     0.023 C 
BRANCH  72  73
ATOM     73  C   UNL A   1      32.501  21.086  25.344  1.00  0.00     0.116 C 
BRANCH  73  74
ATOM     74  N   UNL A   1      31.982  21.821  26.478  1.00  0.00    -0.351 N 
ATOM     75  C   UNL A   1      31.379  23.049  26.540  1.00  0.00     0.281 C 
ATOM     76  H   UNL A   1      32.079  21.365  27.345  1.00  0.00     0.163 HD
ATOM     77  O   UNL A   1      30.834  23.319  27.620  1.00  0.00    -0.268 OA
BRANCH  75  78
ATOM     78  C   UNL A   1      31.469  24.128  25.418  1.00  0.00     0.181 C 
ATOM     79  C   UNL A   1      30.382  25.218  25.532  1.00  0.00     0.085 C 
ATOM     80  C   UNL A   1      32.728  25.010  25.708  1.00  0.00     0.144 C 
ATOM     81  C   UNL A   1      30.956  26.377  24.722  1.00  0.00     0.072 C 
ATOM     82  C   UNL A   1      32.430  26.431  25.156  1.00  0.00     0.191 C 
BRANCH  78  83
ATOM     83  N   UNL A   1      31.508  23.620  24.025  1.00  0.00    -0.331 N 
ATOM     84  H   UNL A   1      30.842  24.179  23.493  1.00  0.00     0.347 HD
ATOM     85  H   UNL A   1      31.318  22.625  24.144  1.00  0.00     0.347 HD
BRANCH  83  86
ATOM     86  C   UNL A   1      32.761  23.619  23.253  1.00  0.00     0.183 C 
ATOM     87  C   UNL A   1      32.955  22.960  21.917  1.00  0.00     0.071 C 
ATOM     88  C   UNL A   1      32.908  24.457  22.017  1.00  0.00     0.071 C 
ENDBRANCH  83  86
ENDBRANCH  78  83
BRANCH  82  89
ATOM     89  N   UNL A   1      32.687  27.565  26.052  1.00  0.00    -0.323 N 
ATOM     90  C   UNL A   1      31.663  28.622  26.064  1.00  0.00     0.324 C 
ATOM     91  C   UNL A   1      34.042  28.115  26.097  1.00  0.00     0.328 C 
ATOM     92  H   UNL A   1      32.600  27.067  26.937  1.00  0.00     0.348 HD
ATOM     93  C   UNL A   1      32.171  30.039  26.484  1.00  0.00     0.324 C 
ATOM     94  C   UNL A   1      34.198  28.980  27.365  1.00  0.00     0.240 C 
ATOM     95  N   UNL A   1      33.193  30.052  27.541  1.00  0.00    -0.323 N 
ATOM     96  C   UNL A   1      35.567  29.648  27.451  1.00  0.00     0.077 C 
ATOM     97  C   UNL A   1      33.912  31.327  27.632  1.00  0.00     0.263 C 
ATOM     98  H   UNL A   1      32.669  29.901  28.402  1.00  0.00     0.348 HD
ATOM     99  C   UNL A   1      35.277  30.944  28.179  1.00  0.00     0.068 C 
ENDBRANCH  82  89
ENDBRANCH  75  78
ENDBRANCH  73  74
ENDBRANCH  72  73
ENDBRANCH   1  72
TORSDOF 17
ENDMDL
MODEL 2
REMARK VINA RESULT:     -12.1      4.974     10.499
REMARK SMILES O=C(NCCCCNC(=O)[C@@]1([NH2+]C2CC2)CC[C@@H]([N@@H+]2CC[N@@H+]3CCC[C@@H]3C2)C1)c1ccc(-c2c3nc(c(-c4cc(S(=O)(=O)[O-])ccc4F)c4ccc([nH]4)c(-c4cc(S(=O)(=O)[O-])ccc4F)c4nc(c(-c5cc(S(=O)(=O)[O-])ccc5F)c5ccc2[nH]5)C=C4)C=C3)cc1
REMARK SMILES IDX 5 1 4 2 3 3 1 4 2 5 29 7 30 8 91 9 31 10 90 11 32 12 33 13
REMARK SMILES IDX 34 14 84 15 35 16 89 17 83 18 85 19 36 20 88 21 82 22 81 23
REMARK SMILES IDX 37 25 69 26 49 27 68 28 50 29 53 30 67 31 86 32 51 33 52 34
REMARK SMILES IDX 66 36 87 37 54 38 38 39 39 40 47 41 40 42 46 43 48 44 45 45
REMARK SMILES IDX 41 46 42 47 43 48 44 49 70 50 71 51 79 52 72 53 78 54 80 55
REMARK SMILES IDX 77 56 73 57 74 58 75 59 76 60 55 61 56 62 64 63 57 64 63 65
REMARK SMILES IDX 65 66 62 67 58 68 59 69 60 70 61 71 6 72 7 73 8 74 9 75
REMARK SMILES IDX 10 77 11 78 16 79 28 80 17 81 18 82 12 83 13 86 14 87 15 88
REMARK SMILES IDX 19 89 20 90 27 91 21 93 26 94 22 95 25 96 23 97 24 99
REMARK H PARENT 3 6 85 24 53 35 8 76 12 84 12 85 19 92 22 98
REMARK Flexibility Score: inf
ROOT
ATOM      1  C   UNL A   1      32.355  29.221  24.789  1.00  0.00     0.023 C 
ENDROOT
BRANCH   1   2
ATOM      2  C   UNL A   1      32.047  29.585  26.240  1.00  0.00     0.116 C 
BRANCH   2   3
ATOM      3  N   UNL A   1      31.926  31.016  26.486  1.00  0.00    -0.352 N 
ATOM      4  O   UNL A   1      32.406  33.060  27.290  1.00  0.00    -0.269 OA
ATOM      5  C   UNL A   1      32.760  31.896  27.143  1.00  0.00     0.251 C 
ATOM      6  H   UNL A   1      31.110  31.425  26.119  1.00  0.00     0.163 HD
BRANCH   5   7
ATOM      7  C   UNL A   1      34.054  31.444  27.710  1.00  0.00     0.039 A 
ATOM      8  C   UNL A   1      34.329  30.093  27.912  1.00  0.00     0.014 A 
ATOM      9  C   UNL A   1      35.021  32.401  28.037  1.00  0.00     0.014 A 
ATOM     10  C   UNL A   1      35.465  29.714  28.623  1.00  0.00     0.010 A 
ATOM     11  C   UNL A   1      36.210  32.010  28.665  1.00  0.00     0.010 A 
ATOM     12  C   UNL A   1      36.417  30.668  29.019  1.00  0.00    -0.014 A 
BRANCH  12  13
ATOM     13  C   UNL A   1      37.608  30.236  29.803  1.00  0.00     0.031 A 
ATOM     14  C   UNL A   1      38.676  29.376  29.176  1.00  0.00     0.074 A 
ATOM     15  C   UNL A   1      37.754  30.663  31.073  1.00  0.00     0.049 A 
ATOM     16  N   UNL A   1      39.793  28.930  29.695  1.00  0.00    -0.248 NA
ATOM     17  C   UNL A   1      38.452  28.949  27.787  1.00  0.00     0.031 C 
ATOM     18  C   UNL A   1      36.793  31.500  31.793  1.00  0.00     0.029 A 
ATOM     19  N   UNL A   1      38.771  30.476  31.974  1.00  0.00    -0.354 N 
ATOM     20  C   UNL A   1      40.396  28.157  28.707  1.00  0.00     0.074 A 
ATOM     21  C   UNL A   1      39.495  28.161  27.573  1.00  0.00     0.031 C 
ATOM     22  C   UNL A   1      37.290  31.801  33.000  1.00  0.00     0.029 A 
ATOM     23  C   UNL A   1      38.571  31.124  33.170  1.00  0.00     0.049 A 
ATOM     24  H   UNL A   1      39.568  29.930  31.783  1.00  0.00     0.167 HD
ATOM     25  C   UNL A   1      41.592  27.513  28.739  1.00  0.00     0.034 A 
ATOM     26  C   UNL A   1      39.324  31.162  34.287  1.00  0.00     0.034 A 
ATOM     27  C   UNL A   1      42.483  27.524  29.876  1.00  0.00     0.049 A 
ATOM     28  C   UNL A   1      40.624  30.406  34.315  1.00  0.00     0.074 A 
ATOM     29  C   UNL A   1      43.731  26.936  30.002  1.00  0.00     0.029 A 
ATOM     30  N   UNL A   1      42.218  28.143  31.092  1.00  0.00    -0.354 N 
ATOM     31  N   UNL A   1      41.184  29.689  33.368  1.00  0.00    -0.248 NA
ATOM     32  C   UNL A   1      41.394  30.468  35.564  1.00  0.00     0.031 C 
ATOM     33  C   UNL A   1      44.187  27.142  31.310  1.00  0.00     0.029 A 
ATOM     34  C   UNL A   1      43.261  27.924  31.981  1.00  0.00     0.049 A 
ATOM     35  H   UNL A   1      41.407  28.665  31.294  1.00  0.00     0.167 HD
ATOM     36  C   UNL A   1      42.383  29.229  33.902  1.00  0.00     0.074 A 
ATOM     37  C   UNL A   1      42.471  29.764  35.246  1.00  0.00     0.031 C 
ATOM     38  C   UNL A   1      43.328  28.439  33.329  1.00  0.00     0.034 A 
BRANCH  25  39
ATOM     39  C   UNL A   1      41.975  26.703  27.519  1.00  0.00     0.023 A 
ATOM     40  C   UNL A   1      41.763  25.313  27.451  1.00  0.00     0.031 A 
ATOM     41  C   UNL A   1      42.603  27.321  26.424  1.00  0.00     0.131 A 
ATOM     42  C   UNL A   1      42.252  24.579  26.359  1.00  0.00     0.055 A 
ATOM     43  C   UNL A   1      43.010  26.599  25.300  1.00  0.00     0.041 A 
ATOM     44  F   UNL A   1      42.850  28.640  26.433  1.00  0.00    -0.206 F 
ATOM     45  C   UNL A   1      42.854  25.216  25.271  1.00  0.00     0.022 A 
BRANCH  42  46
ATOM     46  S   UNL A   1      42.247  22.768  26.459  1.00  0.00     0.124 S 
ATOM     47  O   UNL A   1      40.832  22.487  26.700  1.00  0.00    -0.237 OA
ATOM     48  O   UNL A   1      42.761  22.378  25.152  1.00  0.00    -0.237 OA
ATOM     49  O   UNL A   1      43.129  22.484  27.590  1.00  0.00    -0.744 OA
ENDBRANCH  42  46
ENDBRANCH  25  39
BRANCH  26  50
ATOM     50  C   UNL A   1      38.852  31.925  35.475  1.00  0.00     0.023 A 
ATOM     51  C   UNL A   1      38.239  31.276  36.557  1.00  0.00     0.031 A 
ATOM     52  C   UNL A   1      39.009  33.322  35.542  1.00  0.00     0.131 A 
ATOM     53  C   UNL A   1      37.781  32.027  37.651  1.00  0.00     0.055 A 
ATOM     54  C   UNL A   1      38.596  34.057  36.652  1.00  0.00     0.041 A 
ATOM     55  F   UNL A   1      39.595  33.987  34.534  1.00  0.00    -0.206 F 
ATOM     56  C   UNL A   1      37.969  33.410  37.713  1.00  0.00     0.022 A 
BRANCH  53  57
ATOM     57  S   UNL A   1      36.890  31.173  38.979  1.00  0.00     0.124 S 
ATOM     58  O   UNL A   1      36.745  29.831  38.426  1.00  0.00    -0.237 OA
ATOM     59  O   UNL A   1      37.814  31.308  40.101  1.00  0.00    -0.237 OA
ATOM     60  O   UNL A   1      35.650  31.936  39.102  1.00  0.00    -0.744 OA
ENDBRANCH  53  57
ENDBRANCH  26  50
BRANCH  38  61
ATOM     61  C   UNL A   1      44.557  28.144  34.155  1.00  0.00     0.023 A 
ATOM     62  C   UNL A   1      44.701  26.936  34.860  1.00  0.00     0.031 A 
ATOM     63  C   UNL A   1      45.583  29.099  34.262  1.00  0.00     0.131 A 
ATOM     64  C   UNL A   1      45.817  26.739  35.688  1.00  0.00     0.055 A 
ATOM     65  C   UNL A   1      46.719  28.873  35.040  1.00  0.00     0.041 A 
ATOM     66  F   UNL A   1      45.495  30.271  33.612  1.00  0.00    -0.206 F 
ATOM     67  C   UNL A   1      46.834  27.694  35.771  1.00  0.00     0.022 A 
BRANCH  64  68
ATOM     68  S   UNL A   1      45.877  25.259  36.736  1.00  0.00     0.124 S 
ATOM     69  O   UNL A   1      44.858  25.556  37.739  1.00  0.00    -0.237 OA
ATOM     70  O   UNL A   1      45.550  24.195  35.792  1.00  0.00    -0.237 OA
ATOM     71  O   UNL A   1      47.251  25.245  37.233  1.00  0.00    -0.744 OA
ENDBRANCH  64  68
ENDBRANCH  38  61
ENDBRANCH  12  13
ENDBRANCH   5   7
ENDBRANCH   2   3
ENDBRANCH   1   2
BRANCH   1  72
ATOM     72  C   UNL A   1      33.638  28.425  24.526  1.00  0.00     0.023 C 
BRANCH  72  73
ATOM     73  C   UNL A   1      33.556  26.911  24.710  1.00  0.00     0.116 C 
BRANCH  73  74
ATOM     74  N   UNL A   1      32.745  26.462  25.822  1.00  0.00    -0.351 N 
ATOM     75  C   UNL A   1      31.969  25.342  25.960  1.00  0.00     0.281 C 
ATOM     76  H   UNL A   1      32.753  27.057  26.606  1.00  0.00     0.163 HD
ATOM     77  O   UNL A   1      31.572  25.108  27.110  1.00  0.00    -0.268 OA
BRANCH  75  78
ATOM     78  C   UNL A   1      31.465  24.471  24.767  1.00  0.00     0.181 C 
ATOM     79  C   UNL A   1      32.587  24.080  23.781  1.00  0.00     0.085 C 
ATOM     80  C   UNL A   1      31.127  23.050  25.327  1.00  0.00     0.144 C 
ATOM     81  C   UNL A   1      32.012  22.868  23.055  1.00  0.00     0.072 C 
ATOM     82  C   UNL A   1      31.378  22.034  24.180  1.00  0.00     0.191 C 
BRANCH  78  83
ATOM     83  N   UNL A   1      30.311  25.011  24.007  1.00  0.00    -0.331 N 
ATOM     84  H   UNL A   1      29.552  24.338  24.116  1.00  0.00     0.347 HD
ATOM     85  H   UNL A   1      30.703  25.151  23.076  1.00  0.00     0.347 HD
BRANCH  83  86
ATOM     86  C   UNL A   1      29.747  26.332  24.322  1.00  0.00     0.183 C 
ATOM     87  C   UNL A   1      29.570  27.455  23.340  1.00  0.00     0.071 C 
ATOM     88  C   UNL A   1      28.371  26.715  23.859  1.00  0.00     0.071 C 
ENDBRANCH  83  86
ENDBRANCH  78  83
BRANCH  82  89
ATOM     89  N   UNL A   1      32.189  20.852  24.496  1.00  0.00    -0.323 N 
ATOM     90  C   UNL A   1      33.454  21.108  25.203  1.00  0.00     0.324 C 
ATOM     91  C   UNL A   1      32.334  19.820  23.468  1.00  0.00     0.328 C 
ATOM     92  H   UNL A   1      31.558  20.427  25.175  1.00  0.00     0.348 HD
ATOM     93  C   UNL A   1      34.563  20.024  25.000  1.00  0.00     0.324 C 
ATOM     94  C   UNL A   1      32.840  18.518  24.123  1.00  0.00     0.240 C 
ATOM     95  N   UNL A   1      34.080  18.638  24.922  1.00  0.00    -0.323 N 
ATOM     96  C   UNL A   1      33.084  17.409  23.104  1.00  0.00     0.077 C 
ATOM     97  C   UNL A   1      35.068  17.714  24.353  1.00  0.00     0.263 C 
ATOM     98  H   UNL A   1      33.897  18.379  25.891  1.00  0.00     0.348 HD
ATOM     99  C   UNL A   1      34.227  16.623  23.711  1.00  0.00     0.068 C 
ENDBRANCH  82  89
ENDBRANCH  75  78
ENDBRANCH  73  74
ENDBRANCH  72  73
ENDBRANCH   1  72
TORSDOF 17
ENDMDL
MODEL 3
REMARK VINA RESULT:     -12.0      5.400     10.937
REMARK SMILES O=C(NCCCCNC(=O)[C@@]1([NH2+]C2CC2)CC[C@@H]([N@@H+]2CC[N@@H+]3CCC[C@@H]3C2)C1)c1ccc(-c2c3nc(c(-c4cc(S(=O)(=O)[O-])ccc4F)c4ccc([nH]4)c(-c4cc(S(=O)(=O)[O-])ccc4F)c4nc(c(-c5cc(S(=O)(=O)[O-])ccc5F)c5ccc2[nH]5)C=C4)C=C3)cc1
REMARK SMILES IDX 5 1 4 2 3 3 1 4 2 5 29 7 30 8 91 9 31 10 90 11 32 12 33 13
REMARK SMILES IDX 34 14 84 15 35 16 89 17 83 18 85 19 36 20 88 21 82 22 81 23
REMARK SMILES IDX 37 25 69 26 49 27 68 28 50 29 53 30 67 31 86 32 51 33 52 34
REMARK SMILES IDX 66 36 87 37 54 38 38 39 39 40 47 41 40 42 46 43 48 44 45 45
REMARK SMILES IDX 41 46 42 47 43 48 44 49 70 50 71 51 79 52 72 53 78 54 80 55
REMARK SMILES IDX 77 56 73 57 74 58 75 59 76 60 55 61 56 62 64 63 57 64 63 65
REMARK SMILES IDX 65 66 62 67 58 68 59 69 60 70 61 71 6 72 7 73 8 74 9 75
REMARK SMILES IDX 10 77 11 78 16 79 28 80 17 81 18 82 12 83 13 86 14 87 15 88
REMARK SMILES IDX 19 89 20 90 27 91 21 93 26 94 22 95 25 96 23 97 24 99
REMARK H PARENT 3 6 85 24 53 35 8 76 12 84 12 85 19 92 22 98
REMARK Flexibility Score: inf
ROOT
ATOM      1  C   UNL A   1      31.510  31.585  26.804  1.00  0.00     0.023 C 
ENDROOT
BRANCH   1   2
ATOM      2  C   UNL A   1      32.765  32.344  27.228  1.00  0.00     0.116 C 
BRANCH   2   3
ATOM      3  N   UNL A   1      32.544  33.756  27.512  1.00  0.00    -0.352 N 
ATOM      4  O   UNL A   1      32.736  35.753  28.527  1.00  0.00    -0.269 OA
ATOM      5  C   UNL A   1      33.149  34.604  28.414  1.00  0.00     0.251 C 
ATOM      6  H   UNL A   1      31.840  34.175  26.967  1.00  0.00     0.163 HD
BRANCH   5   7
ATOM      7  C   UNL A   1      34.262  34.135  29.276  1.00  0.00     0.039 A 
ATOM      8  C   UNL A   1      35.586  34.477  29.007  1.00  0.00     0.014 A 
ATOM      9  C   UNL A   1      33.967  33.340  30.389  1.00  0.00     0.014 A 
ATOM     10  C   UNL A   1      36.618  33.865  29.713  1.00  0.00     0.010 A 
ATOM     11  C   UNL A   1      35.004  32.802  31.160  1.00  0.00     0.010 A 
ATOM     12  C   UNL A   1      36.343  33.010  30.794  1.00  0.00    -0.014 A 
BRANCH  12  13
ATOM     13  C   UNL A   1      37.467  32.348  31.512  1.00  0.00     0.031 A 
ATOM     14  C   UNL A   1      38.258  31.242  30.859  1.00  0.00     0.074 A 
ATOM     15  C   UNL A   1      37.812  32.779  32.741  1.00  0.00     0.049 A 
ATOM     16  N   UNL A   1      39.286  30.573  31.320  1.00  0.00    -0.248 NA
ATOM     17  C   UNL A   1      37.828  30.824  29.517  1.00  0.00     0.031 C 
ATOM     18  C   UNL A   1      37.128  33.842  33.480  1.00  0.00     0.029 A 
ATOM     19  N   UNL A   1      38.833  32.400  33.574  1.00  0.00    -0.354 N 
ATOM     20  C   UNL A   1      39.614  29.645  30.336  1.00  0.00     0.074 A 
ATOM     21  C   UNL A   1      38.645  29.811  29.273  1.00  0.00     0.031 C 
ATOM     22  C   UNL A   1      37.780  34.068  34.629  1.00  0.00     0.029 A 
ATOM     23  C   UNL A   1      38.886  33.123  34.743  1.00  0.00     0.049 A 
ATOM     24  H   UNL A   1      39.468  31.679  33.358  1.00  0.00     0.167 HD
ATOM     25  C   UNL A   1      40.632  28.746  30.317  1.00  0.00     0.034 A 
ATOM     26  C   UNL A   1      39.719  33.031  35.798  1.00  0.00     0.034 A 
ATOM     27  C   UNL A   1      41.595  28.597  31.384  1.00  0.00     0.049 A 
ATOM     28  C   UNL A   1      40.813  31.999  35.774  1.00  0.00     0.074 A 
ATOM     29  C   UNL A   1      42.685  27.744  31.451  1.00  0.00     0.029 A 
ATOM     30  N   UNL A   1      41.580  29.308  32.578  1.00  0.00    -0.354 N 
ATOM     31  N   UNL A   1      41.116  31.137  34.831  1.00  0.00    -0.248 NA
ATOM     32  C   UNL A   1      41.679  31.932  36.958  1.00  0.00     0.031 C 
ATOM     33  C   UNL A   1      43.284  27.891  32.708  1.00  0.00     0.029 A 
ATOM     34  C   UNL A   1      42.617  28.890  33.400  1.00  0.00     0.049 A 
ATOM     35  H   UNL A   1      40.927  30.008  32.808  1.00  0.00     0.167 HD
ATOM     36  C   UNL A   1      42.221  30.435  35.302  1.00  0.00     0.074 A 
ATOM     37  C   UNL A   1      42.540  30.988  36.604  1.00  0.00     0.031 C 
ATOM     38  C   UNL A   1      42.913  29.429  34.708  1.00  0.00     0.034 A 
BRANCH  25  39
ATOM     39  C   UNL A   1      40.719  27.822  29.121  1.00  0.00     0.023 A 
ATOM     40  C   UNL A   1      41.649  28.028  28.086  1.00  0.00     0.031 A 
ATOM     41  C   UNL A   1      39.827  26.743  28.991  1.00  0.00     0.131 A 
ATOM     42  C   UNL A   1      41.608  27.228  26.933  1.00  0.00     0.055 A 
ATOM     43  C   UNL A   1      39.847  25.896  27.881  1.00  0.00     0.041 A 
ATOM     44  F   UNL A   1      38.902  26.503  29.934  1.00  0.00    -0.206 F 
ATOM     45  C   UNL A   1      40.729  26.148  26.834  1.00  0.00     0.022 A 
BRANCH  42  46
ATOM     46  S   UNL A   1      42.600  27.725  25.497  1.00  0.00     0.124 S 
ATOM     47  O   UNL A   1      42.531  26.529  24.659  1.00  0.00    -0.237 OA
ATOM     48  O   UNL A   1      41.877  28.891  25.004  1.00  0.00    -0.237 OA
ATOM     49  O   UNL A   1      43.917  27.999  26.067  1.00  0.00    -0.744 OA
ENDBRANCH  42  46
ENDBRANCH  25  39
BRANCH  26  50
ATOM     50  C   UNL A   1      39.533  33.928  36.972  1.00  0.00     0.023 A 
ATOM     51  C   UNL A   1      38.932  33.463  38.152  1.00  0.00     0.031 A 
ATOM     52  C   UNL A   1      39.955  35.269  36.927  1.00  0.00     0.131 A 
ATOM     53  C   UNL A   1      38.747  34.340  39.231  1.00  0.00     0.055 A 
ATOM     54  C   UNL A   1      39.812  36.124  38.019  1.00  0.00     0.041 A 
ATOM     55  F   UNL A   1      40.541  35.759  35.823  1.00  0.00    -0.206 F 
ATOM     56  C   UNL A   1      39.196  35.662  39.179  1.00  0.00     0.022 A 
BRANCH  53  57
ATOM     57  S   UNL A   1      37.863  33.741  40.697  1.00  0.00     0.124 S 
ATOM     58  O   UNL A   1      36.615  33.259  40.115  1.00  0.00    -0.237 OA
ATOM     59  O   UNL A   1      38.772  32.718  41.203  1.00  0.00    -0.237 OA
ATOM     60  O   UNL A   1      37.743  34.933  41.533  1.00  0.00    -0.744 OA
ENDBRANCH  53  57
ENDBRANCH  26  50
BRANCH  38  61
ATOM     61  C   UNL A   1      44.108  28.892  35.457  1.00  0.00     0.023 A 
ATOM     62  C   UNL A   1      43.964  28.037  36.564  1.00  0.00     0.031 A 
ATOM     63  C   UNL A   1      45.408  29.269  35.076  1.00  0.00     0.131 A 
ATOM     64  C   UNL A   1      45.097  27.634  37.287  1.00  0.00     0.055 A 
ATOM     65  C   UNL A   1      46.535  28.817  35.763  1.00  0.00     0.041 A 
ATOM     66  F   UNL A   1      45.603  30.086  34.029  1.00  0.00    -0.206 F 
ATOM     67  C   UNL A   1      46.383  28.007  36.885  1.00  0.00     0.022 A 
BRANCH  64  68
ATOM     68  S   UNL A   1      44.865  26.695  38.822  1.00  0.00     0.124 S 
ATOM     69  O   UNL A   1      45.855  25.631  38.679  1.00  0.00    -0.237 OA
ATOM     70  O   UNL A   1      45.149  27.696  39.846  1.00  0.00    -0.237 OA
ATOM     71  O   UNL A   1      43.472  26.259  38.751  1.00  0.00    -0.744 OA
ENDBRANCH  64  68
ENDBRANCH  38  61
ENDBRANCH  12  13
ENDBRANCH   5   7
ENDBRANCH   2   3
ENDBRANCH   1   2
BRANCH   1  72
ATOM     72  C   UNL A   1      31.681  30.482  25.753  1.00  0.00     0.023 C 
BRANCH  72  73
ATOM     73  C   UNL A   1      32.977  29.677  25.808  1.00  0.00     0.116 C 
BRANCH  73  74
ATOM     74  N   UNL A   1      33.583  29.382  24.527  1.00  0.00    -0.351 N 
ATOM     75  C   UNL A   1      33.151  28.581  23.503  1.00  0.00     0.281 C 
ATOM     76  H   UNL A   1      34.445  29.829  24.365  1.00  0.00     0.163 HD
ATOM     77  O   UNL A   1      33.769  28.703  22.437  1.00  0.00    -0.268 OA
BRANCH  75  78
ATOM     78  C   UNL A   1      32.065  27.472  23.655  1.00  0.00     0.181 C 
ATOM     79  C   UNL A   1      32.015  26.499  22.458  1.00  0.00     0.085 C 
ATOM     80  C   UNL A   1      32.554  26.476  24.757  1.00  0.00     0.144 C 
ATOM     81  C   UNL A   1      31.313  25.270  23.029  1.00  0.00     0.072 C 
ATOM     82  C   UNL A   1      31.973  25.080  24.405  1.00  0.00     0.191 C 
BRANCH  78  83
ATOM     83  N   UNL A   1      30.691  27.941  23.962  1.00  0.00    -0.331 N 
ATOM     84  H   UNL A   1      30.784  28.673  24.665  1.00  0.00     0.347 HD
ATOM     85  H   UNL A   1      30.213  27.079  24.223  1.00  0.00     0.347 HD
BRANCH  83  86
ATOM     86  C   UNL A   1      29.822  28.486  22.907  1.00  0.00     0.183 C 
ATOM     87  C   UNL A   1      29.070  29.784  22.987  1.00  0.00     0.071 C 
ATOM     88  C   UNL A   1      30.257  29.658  22.076  1.00  0.00     0.071 C 
ENDBRANCH  83  86
ENDBRANCH  78  83
BRANCH  82  89
ATOM     89  N   UNL A   1      32.906  23.946  24.402  1.00  0.00    -0.323 N 
ATOM     90  C   UNL A   1      32.614  22.868  25.360  1.00  0.00     0.324 C 
ATOM     91  C   UNL A   1      34.338  24.233  24.319  1.00  0.00     0.328 C 
ATOM     92  H   UNL A   1      32.679  23.582  23.477  1.00  0.00     0.348 HD
ATOM     93  C   UNL A   1      33.847  22.016  25.803  1.00  0.00     0.324 C 
ATOM     94  C   UNL A   1      35.091  22.950  23.908  1.00  0.00     0.240 C 
ATOM     95  N   UNL A   1      34.843  21.760  24.752  1.00  0.00    -0.323 N 
ATOM     96  C   UNL A   1      36.602  23.147  23.866  1.00  0.00     0.077 C 
ATOM     97  C   UNL A   1      36.136  21.311  25.280  1.00  0.00     0.263 C 
ATOM     98  H   UNL A   1      34.432  21.013  24.192  1.00  0.00     0.348 HD
ATOM     99  C   UNL A   1      37.143  21.784  24.245  1.00  0.00     0.068 C 
ENDBRANCH  82  89
ENDBRANCH  75  78
ENDBRANCH  73  74
ENDBRANCH  72  73
ENDBRANCH   1  72
TORSDOF 17
ENDMDL
