MODEL 1
REMARK VINA RESULT:     -12.4      0.000      0.000
REMARK SMILES COc1cc(C)cc2c1O[C@H](C(F)(F)F)C(C(=O)NCCCCNC(=O)c1ccc(-c3c4nc(c(-c5cc(S(=O)(=O)[O-])ccc5F)c5ccc([nH]5)c(-c5cc(S(=O)(=O)[O-])ccc5F)c5nc(c(-c6cc(S(=O)(=O)[O-])ccc6F)c6ccc3[nH]6)C=C5)C=C4)cc1)=C2
REMARK SMILES IDX 22 1 21 2 20 3 19 4 17 5 18 6 16 8 3 9 4 10 9 11 5 12 8 13
REMARK SMILES IDX 10 14 6 15 7 16 90 17 11 18 2 19 1 20 12 21 13 22 14 23
REMARK SMILES IDX 15 24 23 25 24 26 25 27 26 29 27 30 28 31 89 32 29 33 88 34
REMARK SMILES IDX 30 35 31 36 32 37 82 38 33 39 87 40 81 41 83 42 34 43 86 44
REMARK SMILES IDX 80 45 79 46 35 48 67 49 47 50 66 51 48 52 51 53 65 54 84 55
REMARK SMILES IDX 49 56 50 57 64 59 85 60 52 61 36 62 37 63 45 64 38 65 44 66
REMARK SMILES IDX 46 67 43 68 39 69 40 70 41 71 42 72 68 73 69 74 77 75 70 76
REMARK SMILES IDX 76 77 78 78 75 79 71 80 72 81 73 82 74 83 53 84 54 85 62 86
REMARK SMILES IDX 55 87 61 88 63 89 60 90 56 91 57 92 58 93 59 94
REMARK H PARENT 19 7 24 28 83 47 51 58
REMARK Flexibility Score: inf
ROOT
ATOM      1  C   UNL A   1      31.364  32.153  26.770  1.00  0.00     0.023 C 
ENDROOT
BRANCH   1   2
ATOM      2  C   UNL A   1      31.671  30.660  26.630  1.00  0.00     0.023 C 
BRANCH   2   3
ATOM      3  C   UNL A   1      33.150  30.307  26.766  1.00  0.00     0.116 C 
BRANCH   3   4
ATOM      4  N   UNL A   1      33.692  29.743  25.543  1.00  0.00    -0.352 N 
ATOM      5  C   UNL A   1      33.675  28.543  24.919  1.00  0.00     0.251 C 
ATOM      6  O   UNL A   1      34.303  28.492  23.855  1.00  0.00    -0.270 OA
ATOM      7  H   UNL A   1      34.208  30.410  25.034  1.00  0.00     0.163 HD
BRANCH   5   8
ATOM      8  C   UNL A   1      32.972  27.320  25.412  1.00  0.00     0.067 C 
ATOM      9  C   UNL A   1      31.217  23.808  26.903  1.00  0.00     0.161 A 
ATOM     10  C   UNL A   1      31.934  22.610  26.883  1.00  0.00     0.054 A 
ATOM     11  C   UNL A   1      31.813  24.992  26.461  1.00  0.00     0.169 A 
ATOM     12  C   UNL A   1      33.271  22.598  26.465  1.00  0.00    -0.047 A 
ATOM     13  C   UNL A   1      33.141  24.991  26.035  1.00  0.00     0.021 A 
ATOM     14  O   UNL A   1      31.076  26.143  26.522  1.00  0.00    -0.471 OA
ATOM     15  C   UNL A   1      34.057  21.320  26.438  1.00  0.00     0.044 C 
ATOM     16  C   UNL A   1      33.868  23.795  26.043  1.00  0.00     0.015 A 
ATOM     17  C   UNL A   1      33.756  26.243  25.608  1.00  0.00     0.025 C 
ATOM     18  C   UNL A   1      31.488  27.218  25.635  1.00  0.00     0.314 C 
BRANCH   9  19
ATOM     19  O   UNL A   1      29.894  23.834  27.263  1.00  0.00    -0.493 OA
ATOM     20  C   UNL A   1      29.318  22.531  27.245  1.00  0.00     0.278 C 
ENDBRANCH   9  19
BRANCH  18  21
ATOM     21  C   UNL A   1      30.690  27.127  24.321  1.00  0.00     0.429 C 
ATOM     22  F   UNL A   1      30.419  28.368  23.843  1.00  0.00    -0.167 F 
ATOM     23  F   UNL A   1      31.371  26.482  23.345  1.00  0.00    -0.167 F 
ATOM     24  F   UNL A   1      29.511  26.482  24.469  1.00  0.00    -0.167 F 
ENDBRANCH  18  21
ENDBRANCH   5   8
ENDBRANCH   3   4
ENDBRANCH   2   3
ENDBRANCH   1   2
BRANCH   1  25
ATOM     25  C   UNL A   1      32.584  33.070  26.861  1.00  0.00     0.116 C 
BRANCH  25  26
ATOM     26  N   UNL A   1      32.438  34.172  27.802  1.00  0.00    -0.352 N 
ATOM     27  C   UNL A   1      33.275  34.499  28.849  1.00  0.00     0.251 C 
ATOM     28  H   UNL A   1      31.652  34.750  27.676  1.00  0.00     0.163 HD
ATOM     29  O   UNL A   1      32.996  35.421  29.608  1.00  0.00    -0.269 OA
BRANCH  27  30
ATOM     30  C   UNL A   1      34.478  33.671  29.066  1.00  0.00     0.039 A 
ATOM     31  C   UNL A   1      34.358  32.411  29.655  1.00  0.00     0.014 A 
ATOM     32  C   UNL A   1      35.734  34.218  28.798  1.00  0.00     0.014 A 
ATOM     33  C   UNL A   1      35.496  31.781  30.145  1.00  0.00     0.010 A 
ATOM     34  C   UNL A   1      36.881  33.543  29.223  1.00  0.00     0.010 A 
ATOM     35  C   UNL A   1      36.766  32.351  29.957  1.00  0.00    -0.014 A 
BRANCH  35  36
ATOM     36  C   UNL A   1      37.953  31.698  30.564  1.00  0.00     0.031 A 
ATOM     37  C   UNL A   1      38.356  32.000  31.983  1.00  0.00     0.074 A 
ATOM     38  C   UNL A   1      38.625  30.773  29.853  1.00  0.00     0.049 A 
ATOM     39  N   UNL A   1      39.334  31.490  32.686  1.00  0.00    -0.248 NA
ATOM     40  C   UNL A   1      37.562  33.006  32.708  1.00  0.00     0.031 C 
ATOM     41  C   UNL A   1      38.309  30.391  28.477  1.00  0.00     0.029 A 
ATOM     42  N   UNL A   1      39.682  29.967  30.189  1.00  0.00    -0.354 N 
ATOM     43  C   UNL A   1      39.284  32.119  33.926  1.00  0.00     0.074 A 
ATOM     44  C   UNL A   1      38.198  33.073  33.870  1.00  0.00     0.031 C 
ATOM     45  C   UNL A   1      39.113  29.387  28.106  1.00  0.00     0.029 A 
ATOM     46  C   UNL A   1      40.048  29.096  29.191  1.00  0.00     0.049 A 
ATOM     47  H   UNL A   1      40.136  30.008  31.062  1.00  0.00     0.167 HD
ATOM     48  C   UNL A   1      40.064  31.908  35.013  1.00  0.00     0.034 A 
ATOM     49  C   UNL A   1      41.028  28.170  29.145  1.00  0.00     0.034 A 
ATOM     50  C   UNL A   1      41.128  30.939  35.061  1.00  0.00     0.049 A 
ATOM     51  C   UNL A   1      41.896  27.972  30.358  1.00  0.00     0.074 A 
ATOM     52  C   UNL A   1      41.966  30.641  36.122  1.00  0.00     0.029 A 
ATOM     53  N   UNL A   1      41.498  30.104  34.016  1.00  0.00    -0.354 N 
ATOM     54  N   UNL A   1      41.820  28.560  31.529  1.00  0.00    -0.248 NA
ATOM     55  C   UNL A   1      42.986  26.993  30.250  1.00  0.00     0.031 C 
ATOM     56  C   UNL A   1      42.869  29.662  35.705  1.00  0.00     0.029 A 
ATOM     57  C   UNL A   1      42.563  29.307  34.401  1.00  0.00     0.049 A 
ATOM     58  H   UNL A   1      41.066  30.083  33.130  1.00  0.00     0.167 HD
ATOM     59  C   UNL A   1      42.846  28.019  32.298  1.00  0.00     0.074 A 
ATOM     60  C   UNL A   1      43.507  27.031  31.469  1.00  0.00     0.031 C 
ATOM     61  C   UNL A   1      43.211  28.321  33.568  1.00  0.00     0.034 A 
BRANCH  48  62
ATOM     62  C   UNL A   1      39.805  32.722  36.255  1.00  0.00     0.023 A 
ATOM     63  C   UNL A   1      38.880  32.271  37.216  1.00  0.00     0.031 A 
ATOM     64  C   UNL A   1      40.379  33.994  36.428  1.00  0.00     0.131 A 
ATOM     65  C   UNL A   1      38.536  33.097  38.293  1.00  0.00     0.055 A 
ATOM     66  C   UNL A   1      40.056  34.802  37.520  1.00  0.00     0.041 A 
ATOM     67  F   UNL A   1      41.270  34.466  35.541  1.00  0.00    -0.206 F 
ATOM     68  C   UNL A   1      39.122  34.357  38.452  1.00  0.00     0.022 A 
BRANCH  65  69
ATOM     69  S   UNL A   1      37.280  32.594  39.500  1.00  0.00     0.124 S 
ATOM     70  O   UNL A   1      37.382  33.657  40.499  1.00  0.00    -0.237 OA
ATOM     71  O   UNL A   1      36.061  32.609  38.697  1.00  0.00    -0.237 OA
ATOM     72  O   UNL A   1      37.727  31.280  39.945  1.00  0.00    -0.744 OA
ENDBRANCH  65  69
ENDBRANCH  48  62
BRANCH  49  73
ATOM     73  C   UNL A   1      41.185  27.345  27.913  1.00  0.00     0.023 A 
ATOM     74  C   UNL A   1      40.796  25.993  27.894  1.00  0.00     0.031 A 
ATOM     75  C   UNL A   1      41.845  27.858  26.785  1.00  0.00     0.131 A 
ATOM     76  C   UNL A   1      41.142  25.182  26.807  1.00  0.00     0.055 A 
ATOM     77  C   UNL A   1      42.125  27.064  25.671  1.00  0.00     0.041 A 
ATOM     78  F   UNL A   1      42.246  29.138  26.761  1.00  0.00    -0.206 F 
ATOM     79  C   UNL A   1      41.792  25.712  25.689  1.00  0.00     0.022 A 
BRANCH  76  80
ATOM     80  S   UNL A   1      40.905  23.384  26.880  1.00  0.00     0.124 S 
ATOM     81  O   UNL A   1      41.765  22.922  25.795  1.00  0.00    -0.237 OA
ATOM     82  O   UNL A   1      41.369  23.075  28.231  1.00  0.00    -0.237 OA
ATOM     83  O   UNL A   1      39.471  23.217  26.667  1.00  0.00    -0.744 OA
ENDBRANCH  76  80
ENDBRANCH  49  73
BRANCH  61  84
ATOM     84  C   UNL A   1      44.392  27.597  34.164  1.00  0.00     0.023 A 
ATOM     85  C   UNL A   1      44.200  26.404  34.886  1.00  0.00     0.031 A 
ATOM     86  C   UNL A   1      45.677  28.165  34.141  1.00  0.00     0.131 A 
ATOM     87  C   UNL A   1      45.272  25.835  35.585  1.00  0.00     0.055 A 
ATOM     88  C   UNL A   1      46.750  27.573  34.807  1.00  0.00     0.041 A 
ATOM     89  F   UNL A   1      45.905  29.307  33.473  1.00  0.00    -0.206 F 
ATOM     90  C   UNL A   1      46.547  26.410  35.544  1.00  0.00     0.022 A 
BRANCH  87  91
ATOM     91  S   UNL A   1      45.036  24.376  36.638  1.00  0.00     0.124 S 
ATOM     92  O   UNL A   1      44.199  23.529  35.793  1.00  0.00    -0.237 OA
ATOM     93  O   UNL A   1      46.406  23.909  36.829  1.00  0.00    -0.237 OA
ATOM     94  O   UNL A   1      44.381  24.904  37.830  1.00  0.00    -0.744 OA
ENDBRANCH  87  91
ENDBRANCH  61  84
ENDBRANCH  35  36
ENDBRANCH  27  30
ENDBRANCH  25  26
ENDBRANCH   1  25
TORSDOF 16
ENDMDL
MODEL 2
REMARK VINA RESULT:     -12.1      1.494      1.812
REMARK SMILES COc1cc(C)cc2c1O[C@H](C(F)(F)F)C(C(=O)NCCCCNC(=O)c1ccc(-c3c4nc(c(-c5cc(S(=O)(=O)[O-])ccc5F)c5ccc([nH]5)c(-c5cc(S(=O)(=O)[O-])ccc5F)c5nc(c(-c6cc(S(=O)(=O)[O-])ccc6F)c6ccc3[nH]6)C=C5)C=C4)cc1)=C2
REMARK SMILES IDX 22 1 21 2 20 3 19 4 17 5 18 6 16 8 3 9 4 10 9 11 5 12 8 13
REMARK SMILES IDX 10 14 6 15 7 16 90 17 11 18 2 19 1 20 12 21 13 22 14 23
REMARK SMILES IDX 15 24 23 25 24 26 25 27 26 29 27 30 28 31 89 32 29 33 88 34
REMARK SMILES IDX 30 35 31 36 32 37 82 38 33 39 87 40 81 41 83 42 34 43 86 44
REMARK SMILES IDX 80 45 79 46 35 48 67 49 47 50 66 51 48 52 51 53 65 54 84 55
REMARK SMILES IDX 49 56 50 57 64 59 85 60 52 61 36 62 37 63 45 64 38 65 44 66
REMARK SMILES IDX 46 67 43 68 39 69 40 70 41 71 42 72 68 73 69 74 77 75 70 76
REMARK SMILES IDX 76 77 78 78 75 79 71 80 72 81 73 82 74 83 53 84 54 85 62 86
REMARK SMILES IDX 55 87 61 88 63 89 60 90 56 91 57 92 58 93 59 94
REMARK H PARENT 19 7 24 28 83 47 51 58
REMARK Flexibility Score: inf
ROOT
ATOM      1  C   UNL A   1      31.611  32.222  26.851  1.00  0.00     0.023 C 
ENDROOT
BRANCH   1   2
ATOM      2  C   UNL A   1      31.869  30.715  26.939  1.00  0.00     0.023 C 
BRANCH   2   3
ATOM      3  C   UNL A   1      33.257  30.287  26.470  1.00  0.00     0.116 C 
BRANCH   3   4
ATOM      4  N   UNL A   1      33.253  29.835  25.090  1.00  0.00    -0.352 N 
ATOM      5  C   UNL A   1      33.075  28.664  24.437  1.00  0.00     0.251 C 
ATOM      6  O   UNL A   1      33.168  28.726  23.206  1.00  0.00    -0.270 OA
ATOM      7  H   UNL A   1      33.423  30.577  24.465  1.00  0.00     0.163 HD
BRANCH   5   8
ATOM      8  C   UNL A   1      32.783  27.348  25.082  1.00  0.00     0.067 C 
ATOM      9  C   UNL A   1      32.209  23.636  26.961  1.00  0.00     0.161 A 
ATOM     10  C   UNL A   1      33.177  22.638  26.838  1.00  0.00     0.054 A 
ATOM     11  C   UNL A   1      32.416  24.893  26.386  1.00  0.00     0.169 A 
ATOM     12  C   UNL A   1      34.384  22.906  26.180  1.00  0.00    -0.047 A 
ATOM     13  C   UNL A   1      33.611  25.170  25.721  1.00  0.00     0.021 A 
ATOM     14  O   UNL A   1      31.448  25.844  26.554  1.00  0.00    -0.471 OA
ATOM     15  C   UNL A   1      35.437  21.846  26.039  1.00  0.00     0.044 C 
ATOM     16  C   UNL A   1      34.594  24.178  25.625  1.00  0.00     0.015 A 
ATOM     17  C   UNL A   1      33.824  26.498  25.157  1.00  0.00     0.025 C 
ATOM     18  C   UNL A   1      31.429  26.921  25.579  1.00  0.00     0.314 C 
BRANCH   9  19
ATOM     19  O   UNL A   1      31.002  23.380  27.560  1.00  0.00    -0.493 OA
ATOM     20  C   UNL A   1      30.094  22.745  26.664  1.00  0.00     0.278 C 
ENDBRANCH   9  19
BRANCH  18  21
ATOM     21  C   UNL A   1      30.459  26.558  24.439  1.00  0.00     0.429 C 
ATOM     22  F   UNL A   1      29.544  25.651  24.864  1.00  0.00    -0.167 F 
ATOM     23  F   UNL A   1      29.758  27.628  23.995  1.00  0.00    -0.167 F 
ATOM     24  F   UNL A   1      31.088  26.029  23.366  1.00  0.00    -0.167 F 
ENDBRANCH  18  21
ENDBRANCH   5   8
ENDBRANCH   3   4
ENDBRANCH   2   3
ENDBRANCH   1   2
BRANCH   1  25
ATOM     25  C   UNL A   1      32.831  33.113  27.083  1.00  0.00     0.116 C 
BRANCH  25  26
ATOM     26  N   UNL A   1      32.601  34.217  28.005  1.00  0.00    -0.352 N 
ATOM     27  C   UNL A   1      33.355  34.561  29.109  1.00  0.00     0.251 C 
ATOM     28  H   UNL A   1      31.818  34.783  27.819  1.00  0.00     0.163 HD
ATOM     29  O   UNL A   1      33.009  35.482  29.840  1.00  0.00    -0.269 OA
BRANCH  27  30
ATOM     30  C   UNL A   1      34.550  33.751  29.418  1.00  0.00     0.039 A 
ATOM     31  C   UNL A   1      34.421  32.571  30.151  1.00  0.00     0.014 A 
ATOM     32  C   UNL A   1      35.811  34.250  29.083  1.00  0.00     0.014 A 
ATOM     33  C   UNL A   1      35.554  31.990  30.707  1.00  0.00     0.010 A 
ATOM     34  C   UNL A   1      36.953  33.617  29.580  1.00  0.00     0.010 A 
ATOM     35  C   UNL A   1      36.829  32.521  30.449  1.00  0.00    -0.014 A 
BRANCH  35  36
ATOM     36  C   UNL A   1      38.013  31.931  31.125  1.00  0.00     0.031 A 
ATOM     37  C   UNL A   1      38.389  32.350  32.521  1.00  0.00     0.074 A 
ATOM     38  C   UNL A   1      38.704  30.960  30.500  1.00  0.00     0.049 A 
ATOM     39  N   UNL A   1      39.360  31.908  33.278  1.00  0.00    -0.248 NA
ATOM     40  C   UNL A   1      37.573  33.401  33.151  1.00  0.00     0.031 C 
ATOM     41  C   UNL A   1      38.414  30.467  29.154  1.00  0.00     0.029 A 
ATOM     42  N   UNL A   1      39.764  30.195  30.916  1.00  0.00    -0.354 N 
ATOM     43  C   UNL A   1      39.284  32.633  34.462  1.00  0.00     0.074 A 
ATOM     44  C   UNL A   1      38.190  33.567  34.314  1.00  0.00     0.031 C 
ATOM     45  C   UNL A   1      39.234  29.444  28.877  1.00  0.00     0.029 A 
ATOM     46  C   UNL A   1      40.154  29.251  29.995  1.00  0.00     0.049 A 
ATOM     47  H   UNL A   1      40.203  30.310  31.790  1.00  0.00     0.167 HD
ATOM     48  C   UNL A   1      40.048  32.518  35.575  1.00  0.00     0.034 A 
ATOM     49  C   UNL A   1      41.144  28.336  30.039  1.00  0.00     0.034 A 
ATOM     50  C   UNL A   1      41.121  31.567  35.717  1.00  0.00     0.049 A 
ATOM     51  C   UNL A   1      41.994  28.244  31.277  1.00  0.00     0.074 A 
ATOM     52  C   UNL A   1      41.944  31.364  36.811  1.00  0.00     0.029 A 
ATOM     53  N   UNL A   1      41.515  30.656  34.747  1.00  0.00    -0.354 N 
ATOM     54  N   UNL A   1      41.893  28.923  32.396  1.00  0.00    -0.248 NA
ATOM     55  C   UNL A   1      43.095  27.272  31.264  1.00  0.00     0.031 C 
ATOM     56  C   UNL A   1      42.863  30.364  36.487  1.00  0.00     0.029 A 
ATOM     57  C   UNL A   1      42.582  29.903  35.211  1.00  0.00     0.049 A 
ATOM     58  H   UNL A   1      41.099  30.559  33.859  1.00  0.00     0.167 HD
ATOM     59  C   UNL A   1      42.911  28.455  33.222  1.00  0.00     0.074 A 
ATOM     60  C   UNL A   1      43.596  27.412  32.485  1.00  0.00     0.031 C 
ATOM     61  C   UNL A   1      43.253  28.861  34.469  1.00  0.00     0.034 A 
BRANCH  48  62
ATOM     62  C   UNL A   1      39.761  33.425  36.744  1.00  0.00     0.023 A 
ATOM     63  C   UNL A   1      39.091  32.926  37.878  1.00  0.00     0.031 A 
ATOM     64  C   UNL A   1      40.040  34.802  36.686  1.00  0.00     0.131 A 
ATOM     65  C   UNL A   1      38.699  33.804  38.896  1.00  0.00     0.055 A 
ATOM     66  C   UNL A   1      39.674  35.667  37.718  1.00  0.00     0.041 A 
ATOM     67  F   UNL A   1      40.682  35.323  35.628  1.00  0.00    -0.206 F 
ATOM     68  C   UNL A   1      38.991  35.170  38.824  1.00  0.00     0.022 A 
BRANCH  65  69
ATOM     69  S   UNL A   1      37.752  33.219  40.327  1.00  0.00     0.124 S 
ATOM     70  O   UNL A   1      37.784  34.388  41.205  1.00  0.00    -0.237 OA
ATOM     71  O   UNL A   1      36.452  32.922  39.733  1.00  0.00    -0.237 OA
ATOM     72  O   UNL A   1      38.507  32.066  40.802  1.00  0.00    -0.744 OA
ENDBRANCH  65  69
ENDBRANCH  48  62
BRANCH  49  73
ATOM     73  C   UNL A   1      41.329  27.417  28.879  1.00  0.00     0.023 A 
ATOM     74  C   UNL A   1      42.342  27.648  27.929  1.00  0.00     0.031 A 
ATOM     75  C   UNL A   1      40.418  26.377  28.634  1.00  0.00     0.131 A 
ATOM     76  C   UNL A   1      42.368  26.905  26.743  1.00  0.00     0.055 A 
ATOM     77  C   UNL A   1      40.492  25.590  27.484  1.00  0.00     0.041 A 
ATOM     78  F   UNL A   1      39.429  26.126  29.505  1.00  0.00    -0.206 F 
ATOM     79  C   UNL A   1      41.458  25.867  26.520  1.00  0.00     0.022 A 
BRANCH  76  80
ATOM     80  S   UNL A   1      43.479  27.368  25.385  1.00  0.00     0.124 S 
ATOM     81  O   UNL A   1      44.113  26.092  25.065  1.00  0.00    -0.237 OA
ATOM     82  O   UNL A   1      42.540  27.875  24.388  1.00  0.00    -0.237 OA
ATOM     83  O   UNL A   1      44.351  28.375  25.982  1.00  0.00    -0.744 OA
ENDBRANCH  76  80
ENDBRANCH  49  73
BRANCH  61  84
ATOM     84  C   UNL A   1      44.431  28.200  35.140  1.00  0.00     0.023 A 
ATOM     85  C   UNL A   1      44.225  27.245  36.152  1.00  0.00     0.031 A 
ATOM     86  C   UNL A   1      45.745  28.623  34.877  1.00  0.00     0.131 A 
ATOM     87  C   UNL A   1      45.316  26.768  36.891  1.00  0.00     0.055 A 
ATOM     88  C   UNL A   1      46.832  28.116  35.589  1.00  0.00     0.041 A 
ATOM     89  F   UNL A   1      45.989  29.539  33.926  1.00  0.00    -0.206 F 
ATOM     90  C   UNL A   1      46.618  27.195  36.610  1.00  0.00     0.022 A 
BRANCH  87  91
ATOM     91  S   UNL A   1      45.078  25.642  38.293  1.00  0.00     0.124 S 
ATOM     92  O   UNL A   1      46.439  25.507  38.804  1.00  0.00    -0.237 OA
ATOM     93  O   UNL A   1      44.163  26.398  39.144  1.00  0.00    -0.237 OA
ATOM     94  O   UNL A   1      44.519  24.438  37.687  1.00  0.00    -0.744 OA
ENDBRANCH  87  91
ENDBRANCH  61  84
ENDBRANCH  35  36
ENDBRANCH  27  30
ENDBRANCH  25  26
ENDBRANCH   1  25
TORSDOF 16
ENDMDL
MODEL 3
REMARK VINA RESULT:     -11.8      1.796      7.794
REMARK SMILES COc1cc(C)cc2c1O[C@H](C(F)(F)F)C(C(=O)NCCCCNC(=O)c1ccc(-c3c4nc(c(-c5cc(S(=O)(=O)[O-])ccc5F)c5ccc([nH]5)c(-c5cc(S(=O)(=O)[O-])ccc5F)c5nc(c(-c6cc(S(=O)(=O)[O-])ccc6F)c6ccc3[nH]6)C=C5)C=C4)cc1)=C2
REMARK SMILES IDX 22 1 21 2 20 3 19 4 17 5 18 6 16 8 3 9 4 10 9 11 5 12 8 13
REMARK SMILES IDX 10 14 6 15 7 16 90 17 11 18 2 19 1 20 12 21 13 22 14 23
REMARK SMILES IDX 15 24 23 25 24 26 25 27 26 29 27 30 28 31 89 32 29 33 88 34
REMARK SMILES IDX 30 35 31 36 32 37 82 38 33 39 87 40 81 41 83 42 34 43 86 44
REMARK SMILES IDX 80 45 79 46 35 48 67 49 47 50 66 51 48 52 51 53 65 54 84 55
REMARK SMILES IDX 49 56 50 57 64 59 85 60 52 61 36 62 37 63 45 64 38 65 44 66
REMARK SMILES IDX 46 67 43 68 39 69 40 70 41 71 42 72 68 73 69 74 77 75 70 76
REMARK SMILES IDX 76 77 78 78 75 79 71 80 72 81 73 82 74 83 53 84 54 85 62 86
REMARK SMILES IDX 55 87 61 88 63 89 60 90 56 91 57 92 58 93 59 94
REMARK H PARENT 19 7 24 28 83 47 51 58
REMARK Flexibility Score: inf
ROOT
ATOM      1  C   UNL A   1      33.946  31.755  27.967  1.00  0.00     0.023 C 
ENDROOT
BRANCH   1   2
ATOM      2  C   UNL A   1      35.142  30.800  28.025  1.00  0.00     0.023 C 
BRANCH   2   3
ATOM      3  C   UNL A   1      34.876  29.422  27.425  1.00  0.00     0.116 C 
BRANCH   3   4
ATOM      4  N   UNL A   1      34.386  29.506  26.061  1.00  0.00    -0.352 N 
ATOM      5  C   UNL A   1      33.589  28.770  25.253  1.00  0.00     0.251 C 
ATOM      6  O   UNL A   1      33.437  29.217  24.111  1.00  0.00    -0.270 OA
ATOM      7  H   UNL A   1      34.723  30.311  25.603  1.00  0.00     0.163 HD
BRANCH   5   8
ATOM      8  C   UNL A   1      32.903  27.499  25.637  1.00  0.00     0.067 C 
ATOM      9  C   UNL A   1      31.199  23.847  26.817  1.00  0.00     0.161 A 
ATOM     10  C   UNL A   1      31.934  22.665  26.697  1.00  0.00     0.054 A 
ATOM     11  C   UNL A   1      31.777  25.073  26.480  1.00  0.00     0.169 A 
ATOM     12  C   UNL A   1      33.272  22.709  26.284  1.00  0.00    -0.047 A 
ATOM     13  C   UNL A   1      33.106  25.128  26.059  1.00  0.00     0.021 A 
ATOM     14  O   UNL A   1      31.023  26.204  26.637  1.00  0.00    -0.471 OA
ATOM     15  C   UNL A   1      34.077  21.450  26.150  1.00  0.00     0.044 C 
ATOM     16  C   UNL A   1      33.851  23.947  25.968  1.00  0.00     0.015 A 
ATOM     17  C   UNL A   1      33.703  26.421  25.743  1.00  0.00     0.025 C 
ATOM     18  C   UNL A   1      31.421  27.356  25.846  1.00  0.00     0.314 C 
BRANCH   9  19
ATOM     19  O   UNL A   1      29.875  23.822  27.175  1.00  0.00    -0.493 OA
ATOM     20  C   UNL A   1      29.364  22.493  27.211  1.00  0.00     0.278 C 
ENDBRANCH   9  19
BRANCH  18  21
ATOM     21  C   UNL A   1      30.626  27.366  24.527  1.00  0.00     0.429 C 
ATOM     22  F   UNL A   1      29.479  26.652  24.658  1.00  0.00    -0.167 F 
ATOM     23  F   UNL A   1      30.259  28.614  24.153  1.00  0.00    -0.167 F 
ATOM     24  F   UNL A   1      31.319  26.836  23.495  1.00  0.00    -0.167 F 
ENDBRANCH  18  21
ENDBRANCH   5   8
ENDBRANCH   3   4
ENDBRANCH   2   3
ENDBRANCH   1   2
BRANCH   1  25
ATOM     25  C   UNL A   1      34.278  33.205  27.614  1.00  0.00     0.116 C 
BRANCH  25  26
ATOM     26  N   UNL A   1      33.364  34.185  28.183  1.00  0.00    -0.352 N 
ATOM     27  C   UNL A   1      33.386  34.712  29.459  1.00  0.00     0.251 C 
ATOM     28  H   UNL A   1      32.649  34.510  27.590  1.00  0.00     0.163 HD
ATOM     29  O   UNL A   1      32.512  35.487  29.830  1.00  0.00    -0.269 OA
BRANCH  27  30
ATOM     30  C   UNL A   1      34.452  34.270  30.379  1.00  0.00     0.039 A 
ATOM     31  C   UNL A   1      35.758  34.729  30.203  1.00  0.00     0.014 A 
ATOM     32  C   UNL A   1      34.161  33.293  31.333  1.00  0.00     0.014 A 
ATOM     33  C   UNL A   1      36.799  34.078  30.853  1.00  0.00     0.010 A 
ATOM     34  C   UNL A   1      35.205  32.694  32.042  1.00  0.00     0.010 A 
ATOM     35  C   UNL A   1      36.536  33.038  31.760  1.00  0.00    -0.014 A 
BRANCH  35  36
ATOM     36  C   UNL A   1      37.673  32.304  32.374  1.00  0.00     0.031 A 
ATOM     37  C   UNL A   1      38.376  31.207  31.622  1.00  0.00     0.074 A 
ATOM     38  C   UNL A   1      38.114  32.684  33.588  1.00  0.00     0.049 A 
ATOM     39  N   UNL A   1      39.412  30.495  31.985  1.00  0.00    -0.248 NA
ATOM     40  C   UNL A   1      37.853  30.861  30.290  1.00  0.00     0.031 C 
ATOM     41  C   UNL A   1      37.516  33.746  34.396  1.00  0.00     0.029 A 
ATOM     42  N   UNL A   1      39.177  32.250  34.339  1.00  0.00    -0.354 N 
ATOM     43  C   UNL A   1      39.654  29.609  30.941  1.00  0.00     0.074 A 
ATOM     44  C   UNL A   1      38.639  29.851  29.940  1.00  0.00     0.031 C 
ATOM     45  C   UNL A   1      38.252  33.922  35.501  1.00  0.00     0.029 A 
ATOM     46  C   UNL A   1      39.336  32.942  35.516  1.00  0.00     0.049 A 
ATOM     47  H   UNL A   1      39.769  31.513  34.061  1.00  0.00     0.167 HD
ATOM     48  C   UNL A   1      40.642  28.690  30.823  1.00  0.00     0.034 A 
ATOM     49  C   UNL A   1      40.245  32.804  36.502  1.00  0.00     0.034 A 
ATOM     50  C   UNL A   1      41.661  28.475  31.819  1.00  0.00     0.049 A 
ATOM     51  C   UNL A   1      41.319  31.759  36.359  1.00  0.00     0.074 A 
ATOM     52  C   UNL A   1      42.713  27.576  31.785  1.00  0.00     0.029 A 
ATOM     53  N   UNL A   1      41.765  29.166  33.018  1.00  0.00    -0.354 N 
ATOM     54  N   UNL A   1      41.546  30.946  35.353  1.00  0.00    -0.248 NA
ATOM     55  C   UNL A   1      42.257  31.603  37.478  1.00  0.00     0.031 C 
ATOM     56  C   UNL A   1      43.425  27.692  32.980  1.00  0.00     0.029 A 
ATOM     57  C   UNL A   1      42.852  28.699  33.740  1.00  0.00     0.049 A 
ATOM     58  H   UNL A   1      41.156  29.881  33.313  1.00  0.00     0.167 HD
ATOM     59  C   UNL A   1      42.656  30.188  35.716  1.00  0.00     0.074 A 
ATOM     60  C   UNL A   1      43.073  30.663  37.020  1.00  0.00     0.031 C 
ATOM     61  C   UNL A   1      43.263  29.184  35.036  1.00  0.00     0.034 A 
BRANCH  48  62
ATOM     62  C   UNL A   1      40.697  27.844  29.576  1.00  0.00     0.023 A 
ATOM     63  C   UNL A   1      41.601  28.163  28.545  1.00  0.00     0.031 A 
ATOM     64  C   UNL A   1      39.776  26.804  29.358  1.00  0.00     0.131 A 
ATOM     65  C   UNL A   1      41.547  27.465  27.332  1.00  0.00     0.055 A 
ATOM     66  C   UNL A   1      39.747  26.091  28.159  1.00  0.00     0.041 A 
ATOM     67  F   UNL A   1      38.897  26.461  30.314  1.00  0.00    -0.206 F 
ATOM     68  C   UNL A   1      40.628  26.429  27.135  1.00  0.00     0.022 A 
BRANCH  65  69
ATOM     69  S   UNL A   1      42.628  27.906  25.945  1.00  0.00     0.124 S 
ATOM     70  O   UNL A   1      43.940  27.504  26.450  1.00  0.00    -0.237 OA
ATOM     71  O   UNL A   1      42.095  27.078  24.867  1.00  0.00    -0.237 OA
ATOM     72  O   UNL A   1      42.436  29.343  25.792  1.00  0.00    -0.744 OA
ENDBRANCH  65  69
ENDBRANCH  48  62
BRANCH  49  73
ATOM     73  C   UNL A   1      40.183  33.721  37.676  1.00  0.00     0.023 A 
ATOM     74  C   UNL A   1      39.423  33.389  38.813  1.00  0.00     0.031 A 
ATOM     75  C   UNL A   1      40.771  34.995  37.624  1.00  0.00     0.131 A 
ATOM     76  C   UNL A   1      39.205  34.346  39.811  1.00  0.00     0.055 A 
ATOM     77  C   UNL A   1      40.612  35.922  38.656  1.00  0.00     0.041 A 
ATOM     78  F   UNL A   1      41.495  35.362  36.555  1.00  0.00    -0.206 F 
ATOM     79  C   UNL A   1      39.806  35.606  39.746  1.00  0.00     0.022 A 
BRANCH  76  80
ATOM     80  S   UNL A   1      38.006  34.042  41.139  1.00  0.00     0.124 S 
ATOM     81  O   UNL A   1      38.810  33.305  42.109  1.00  0.00    -0.237 OA
ATOM     82  O   UNL A   1      37.636  35.402  41.527  1.00  0.00    -0.237 OA
ATOM     83  O   UNL A   1      36.950  33.279  40.481  1.00  0.00    -0.744 OA
ENDBRANCH  76  80
ENDBRANCH  49  73
BRANCH  61  84
ATOM     84  C   UNL A   1      44.445  28.501  35.675  1.00  0.00     0.023 A 
ATOM     85  C   UNL A   1      44.246  27.509  36.653  1.00  0.00     0.031 A 
ATOM     86  C   UNL A   1      45.757  28.935  35.420  1.00  0.00     0.131 A 
ATOM     87  C   UNL A   1      45.342  27.007  37.368  1.00  0.00     0.055 A 
ATOM     88  C   UNL A   1      46.849  28.404  36.107  1.00  0.00     0.041 A 
ATOM     89  F   UNL A   1      45.994  29.885  34.502  1.00  0.00    -0.206 F 
ATOM     90  C   UNL A   1      46.643  27.446  37.095  1.00  0.00     0.022 A 
BRANCH  87  91
ATOM     91  S   UNL A   1      45.114  25.830  38.729  1.00  0.00     0.124 S 
ATOM     92  O   UNL A   1      46.458  25.763  39.297  1.00  0.00    -0.237 OA
ATOM     93  O   UNL A   1      44.119  26.506  39.557  1.00  0.00    -0.237 OA
ATOM     94  O   UNL A   1      44.657  24.612  38.069  1.00  0.00    -0.744 OA
ENDBRANCH  87  91
ENDBRANCH  61  84
ENDBRANCH  35  36
ENDBRANCH  27  30
ENDBRANCH  25  26
ENDBRANCH   1  25
TORSDOF 16
ENDMDL
