MODEL 1
REMARK VINA RESULT:     -12.0      0.000      0.000
REMARK SMILES COC(=O)[C@@H](NC(=O)CCC(=O)NCCCCNC(=O)c1ccc(-c2c3nc(c(-c4cc(S(=O)(=O)[O-])ccc4F)c4ccc([nH]4)c(-c4cc(S(=O)(=O)[O-])ccc4F)c4nc(c(-c5cc(S(=O)(=O)[O-])ccc5F)c5ccc2[nH]5)C=C4)C=C3)cc1)c1cccc2ccccc12
REMARK SMILES IDX 14 1 13 2 11 3 12 4 10 6 9 7 7 8 6 9 8 11 5 12 3 13 4 14
REMARK SMILES IDX 2 15 1 16 84 17 85 18 93 19 86 20 88 21 92 22 87 23 89 24
REMARK SMILES IDX 91 25 90 26 15 27 16 28 17 29 18 30 19 31 20 33 21 34 22 35
REMARK SMILES IDX 83 36 23 37 82 38 24 39 25 40 26 41 76 42 27 43 81 44 75 45
REMARK SMILES IDX 77 46 28 47 80 48 74 49 73 50 29 52 61 53 41 54 60 55 42 56
REMARK SMILES IDX 45 57 59 58 78 59 43 60 44 61 58 63 79 64 46 65 30 66 31 67
REMARK SMILES IDX 39 68 32 69 38 70 40 71 37 72 33 73 34 74 35 75 36 76 62 77
REMARK SMILES IDX 63 78 71 79 64 80 70 81 72 82 69 83 65 84 66 85 67 86 68 87
REMARK SMILES IDX 47 88 48 89 56 90 49 91 55 92 57 93 54 94 50 95 51 96 52 97
REMARK SMILES IDX 53 98
REMARK H PARENT 13 5 6 10 18 32 77 51 45 62
REMARK Flexibility Score: inf
ROOT
ATOM      1  C   UNL A   1      35.908  20.896  25.385  1.00  0.00     0.116 C 
ENDROOT
BRANCH   1   2
ATOM      2  N   UNL A   1      35.171  19.715  24.997  1.00  0.00    -0.356 N 
ATOM      3  C   UNL A   1      33.869  19.588  24.628  1.00  0.00     0.220 C 
ATOM      4  O   UNL A   1      33.420  18.506  24.251  1.00  0.00    -0.275 OA
ATOM      5  H   UNL A   1      35.689  18.878  25.001  1.00  0.00     0.163 HD
BRANCH   3   6
ATOM      6  C   UNL A   1      32.985  20.783  24.715  1.00  0.00     0.110 C 
BRANCH   6   7
ATOM      7  C   UNL A   1      32.979  21.663  23.480  1.00  0.00     0.110 C 
BRANCH   7   8
ATOM      8  C   UNL A   1      33.630  23.028  23.427  1.00  0.00     0.221 C 
ATOM      9  N   UNL A   1      33.503  24.110  24.202  1.00  0.00    -0.339 N 
ATOM     10  H   UNL A   1      34.082  24.791  23.791  1.00  0.00     0.164 HD
ATOM     11  O   UNL A   1      34.381  23.221  22.452  1.00  0.00    -0.275 OA
BRANCH   9  12
ATOM     12  C   UNL A   1      32.894  24.784  25.404  1.00  0.00     0.224 C 
BRANCH  12  13
ATOM     13  C   UNL A   1      32.368  23.988  26.667  1.00  0.00     0.333 C 
ATOM     14  O   UNL A   1      33.054  23.146  27.248  1.00  0.00    -0.249 OA
BRANCH  13  15
ATOM     15  O   UNL A   1      31.122  24.291  27.087  1.00  0.00    -0.467 OA
ATOM     16  C   UNL A   1      30.126  23.274  26.876  1.00  0.00     0.282 C 
ENDBRANCH  13  15
ENDBRANCH  12  13
BRANCH  12  17
ATOM     17  C   UNL A   1      32.561  26.304  25.417  1.00  0.00    -0.007 A 
ATOM     18  C   UNL A   1      33.514  27.118  26.087  1.00  0.00     0.007 A 
ATOM     19  C   UNL A   1      31.493  26.987  24.765  1.00  0.00    -0.013 A 
ATOM     20  C   UNL A   1      33.476  28.503  26.062  1.00  0.00     0.001 A 
ATOM     21  C   UNL A   1      31.553  28.401  24.617  1.00  0.00    -0.018 A 
ATOM     22  C   UNL A   1      30.319  26.394  24.284  1.00  0.00     0.009 A 
ATOM     23  C   UNL A   1      32.532  29.139  25.281  1.00  0.00     0.009 A 
ATOM     24  C   UNL A   1      30.613  29.093  23.834  1.00  0.00     0.009 A 
ATOM     25  C   UNL A   1      29.354  27.087  23.538  1.00  0.00     0.001 A 
ATOM     26  C   UNL A   1      29.530  28.434  23.269  1.00  0.00     0.001 A 
ENDBRANCH  12  17
ENDBRANCH   9  12
ENDBRANCH   7   8
ENDBRANCH   6   7
ENDBRANCH   3   6
ENDBRANCH   1   2
BRANCH   1  27
ATOM     27  C   UNL A   1      37.278  21.024  24.714  1.00  0.00     0.023 C 
BRANCH  27  28
ATOM     28  C   UNL A   1      38.303  19.946  25.036  1.00  0.00     0.023 C 
BRANCH  28  29
ATOM     29  C   UNL A   1      39.411  20.417  25.957  1.00  0.00     0.116 C 
BRANCH  29  30
ATOM     30  N   UNL A   1      40.431  19.387  26.129  1.00  0.00    -0.352 N 
ATOM     31  C   UNL A   1      41.791  19.501  26.116  1.00  0.00     0.251 C 
ATOM     32  H   UNL A   1      40.087  18.477  26.277  1.00  0.00     0.163 HD
ATOM     33  O   UNL A   1      42.492  18.501  25.941  1.00  0.00    -0.269 OA
BRANCH  31  34
ATOM     34  C   UNL A   1      42.386  20.825  26.309  1.00  0.00     0.039 A 
ATOM     35  C   UNL A   1      42.687  21.622  25.206  1.00  0.00     0.014 A 
ATOM     36  C   UNL A   1      42.608  21.284  27.609  1.00  0.00     0.014 A 
ATOM     37  C   UNL A   1      43.176  22.907  25.418  1.00  0.00     0.010 A 
ATOM     38  C   UNL A   1      42.944  22.605  27.817  1.00  0.00     0.010 A 
ATOM     39  C   UNL A   1      43.280  23.413  26.724  1.00  0.00    -0.014 A 
BRANCH  39  40
ATOM     40  C   UNL A   1      43.826  24.760  26.995  1.00  0.00     0.031 A 
ATOM     41  C   UNL A   1      42.912  25.810  27.568  1.00  0.00     0.074 A 
ATOM     42  C   UNL A   1      45.096  25.044  26.657  1.00  0.00     0.049 A 
ATOM     43  N   UNL A   1      43.138  27.080  27.779  1.00  0.00    -0.248 NA
ATOM     44  C   UNL A   1      41.538  25.387  27.888  1.00  0.00     0.031 C 
ATOM     45  C   UNL A   1      46.039  24.108  26.040  1.00  0.00     0.029 A 
ATOM     46  N   UNL A   1      45.814  26.202  26.787  1.00  0.00    -0.354 N 
ATOM     47  C   UNL A   1      41.928  27.604  28.223  1.00  0.00     0.074 A 
ATOM     48  C   UNL A   1      40.952  26.543  28.148  1.00  0.00     0.031 C 
ATOM     49  C   UNL A   1      47.227  24.716  25.892  1.00  0.00     0.029 A 
ATOM     50  C   UNL A   1      47.115  26.094  26.354  1.00  0.00     0.049 A 
ATOM     51  H   UNL A   1      45.436  27.032  27.155  1.00  0.00     0.167 HD
ATOM     52  C   UNL A   1      41.668  28.848  28.691  1.00  0.00     0.034 A 
ATOM     53  C   UNL A   1      48.098  27.013  26.336  1.00  0.00     0.034 A 
ATOM     54  C   UNL A   1      42.679  29.870  28.789  1.00  0.00     0.049 A 
ATOM     55  C   UNL A   1      47.794  28.390  26.867  1.00  0.00     0.074 A 
ATOM     56  C   UNL A   1      42.571  31.147  29.306  1.00  0.00     0.029 A 
ATOM     57  N   UNL A   1      43.993  29.724  28.357  1.00  0.00    -0.354 N 
ATOM     58  N   UNL A   1      46.661  28.863  27.339  1.00  0.00    -0.248 NA
ATOM     59  C   UNL A   1      48.901  29.352  26.876  1.00  0.00     0.031 C 
ATOM     60  C   UNL A   1      43.797  31.795  29.124  1.00  0.00     0.029 A 
ATOM     61  C   UNL A   1      44.697  30.897  28.568  1.00  0.00     0.049 A 
ATOM     62  H   UNL A   1      44.368  28.905  27.959  1.00  0.00     0.167 HD
ATOM     63  C   UNL A   1      46.929  30.172  27.728  1.00  0.00     0.074 A 
ATOM     64  C   UNL A   1      48.333  30.403  27.450  1.00  0.00     0.031 C 
ATOM     65  C   UNL A   1      46.096  31.099  28.268  1.00  0.00     0.034 A 
BRANCH  52  66
ATOM     66  C   UNL A   1      40.247  29.151  29.106  1.00  0.00     0.023 A 
ATOM     67  C   UNL A   1      39.861  29.185  30.460  1.00  0.00     0.031 A 
ATOM     68  C   UNL A   1      39.245  29.338  28.139  1.00  0.00     0.131 A 
ATOM     69  C   UNL A   1      38.505  29.288  30.803  1.00  0.00     0.055 A 
ATOM     70  C   UNL A   1      37.909  29.544  28.491  1.00  0.00     0.041 A 
ATOM     71  F   UNL A   1      39.540  29.292  26.831  1.00  0.00    -0.206 F 
ATOM     72  C   UNL A   1      37.528  29.497  29.829  1.00  0.00     0.022 A 
BRANCH  69  73
ATOM     73  S   UNL A   1      38.021  28.957  32.521  1.00  0.00     0.124 S 
ATOM     74  O   UNL A   1      39.011  29.738  33.260  1.00  0.00    -0.237 OA
ATOM     75  O   UNL A   1      36.652  29.456  32.565  1.00  0.00    -0.237 OA
ATOM     76  O   UNL A   1      38.164  27.508  32.644  1.00  0.00    -0.744 OA
ENDBRANCH  69  73
ENDBRANCH  52  66
BRANCH  53  77
ATOM     77  C   UNL A   1      49.451  26.659  25.821  1.00  0.00     0.023 A 
ATOM     78  C   UNL A   1      49.873  27.089  24.554  1.00  0.00     0.031 A 
ATOM     79  C   UNL A   1      50.338  25.878  26.582  1.00  0.00     0.131 A 
ATOM     80  C   UNL A   1      51.131  26.702  24.066  1.00  0.00     0.055 A 
ATOM     81  C   UNL A   1      51.609  25.537  26.114  1.00  0.00     0.041 A 
ATOM     82  F   UNL A   1      49.989  25.449  27.806  1.00  0.00    -0.206 F 
ATOM     83  C   UNL A   1      52.007  25.940  24.842  1.00  0.00     0.022 A 
BRANCH  80  84
ATOM     84  S   UNL A   1      51.577  27.147  22.365  1.00  0.00     0.124 S 
ATOM     85  O   UNL A   1      52.659  26.209  22.087  1.00  0.00    -0.237 OA
ATOM     86  O   UNL A   1      50.325  26.913  21.653  1.00  0.00    -0.237 OA
ATOM     87  O   UNL A   1      51.977  28.548  22.475  1.00  0.00    -0.744 OA
ENDBRANCH  80  84
ENDBRANCH  53  77
BRANCH  65  88
ATOM     88  C   UNL A   1      46.704  32.431  28.627  1.00  0.00     0.023 A 
ATOM     89  C   UNL A   1      46.676  33.518  27.738  1.00  0.00     0.031 A 
ATOM     90  C   UNL A   1      47.323  32.610  29.877  1.00  0.00     0.131 A 
ATOM     91  C   UNL A   1      47.308  34.719  28.088  1.00  0.00     0.055 A 
ATOM     92  C   UNL A   1      47.890  33.829  30.246  1.00  0.00     0.041 A 
ATOM     93  F   UNL A   1      47.380  31.602  30.763  1.00  0.00    -0.206 F 
ATOM     94  C   UNL A   1      47.897  34.888  29.343  1.00  0.00     0.022 A 
BRANCH  91  95
ATOM     95  S   UNL A   1      47.438  36.027  26.839  1.00  0.00     0.124 S 
ATOM     96  O   UNL A   1      47.523  35.257  25.603  1.00  0.00    -0.237 OA
ATOM     97  O   UNL A   1      46.201  36.775  27.039  1.00  0.00    -0.237 OA
ATOM     98  O   UNL A   1      48.660  36.737  27.211  1.00  0.00    -0.744 OA
ENDBRANCH  91  95
ENDBRANCH  65  88
ENDBRANCH  39  40
ENDBRANCH  31  34
ENDBRANCH  29  30
ENDBRANCH  28  29
ENDBRANCH  27  28
ENDBRANCH   1  27
TORSDOF 20
ENDMDL
MODEL 2
REMARK VINA RESULT:     -12.0      5.694     11.733
REMARK SMILES COC(=O)[C@@H](NC(=O)CCC(=O)NCCCCNC(=O)c1ccc(-c2c3nc(c(-c4cc(S(=O)(=O)[O-])ccc4F)c4ccc([nH]4)c(-c4cc(S(=O)(=O)[O-])ccc4F)c4nc(c(-c5cc(S(=O)(=O)[O-])ccc5F)c5ccc2[nH]5)C=C4)C=C3)cc1)c1cccc2ccccc12
REMARK SMILES IDX 14 1 13 2 11 3 12 4 10 6 9 7 7 8 6 9 8 11 5 12 3 13 4 14
REMARK SMILES IDX 2 15 1 16 84 17 85 18 93 19 86 20 88 21 92 22 87 23 89 24
REMARK SMILES IDX 91 25 90 26 15 27 16 28 17 29 18 30 19 31 20 33 21 34 22 35
REMARK SMILES IDX 83 36 23 37 82 38 24 39 25 40 26 41 76 42 27 43 81 44 75 45
REMARK SMILES IDX 77 46 28 47 80 48 74 49 73 50 29 52 61 53 41 54 60 55 42 56
REMARK SMILES IDX 45 57 59 58 78 59 43 60 44 61 58 63 79 64 46 65 30 66 31 67
REMARK SMILES IDX 39 68 32 69 38 70 40 71 37 72 33 73 34 74 35 75 36 76 62 77
REMARK SMILES IDX 63 78 71 79 64 80 70 81 72 82 69 83 65 84 66 85 67 86 68 87
REMARK SMILES IDX 47 88 48 89 56 90 49 91 55 92 57 93 54 94 50 95 51 96 52 97
REMARK SMILES IDX 53 98
REMARK H PARENT 13 5 6 10 18 32 77 51 45 62
REMARK Flexibility Score: inf
ROOT
ATOM      1  C   UNL A   1      32.833  29.826  25.812  1.00  0.00     0.116 C 
ENDROOT
BRANCH   1   2
ATOM      2  N   UNL A   1      33.503  29.742  24.533  1.00  0.00    -0.356 N 
ATOM      3  C   UNL A   1      33.427  28.781  23.576  1.00  0.00     0.220 C 
ATOM      4  O   UNL A   1      34.013  28.908  22.502  1.00  0.00    -0.275 OA
ATOM      5  H   UNL A   1      34.105  30.494  24.326  1.00  0.00     0.163 HD
BRANCH   3   6
ATOM      6  C   UNL A   1      32.638  27.551  23.864  1.00  0.00     0.110 C 
BRANCH   6   7
ATOM      7  C   UNL A   1      32.208  26.768  22.639  1.00  0.00     0.110 C 
BRANCH   7   8
ATOM      8  C   UNL A   1      32.812  25.437  22.247  1.00  0.00     0.221 C 
ATOM      9  N   UNL A   1      32.954  24.288  22.915  1.00  0.00    -0.339 N 
ATOM     10  H   UNL A   1      33.432  23.688  22.298  1.00  0.00     0.164 HD
ATOM     11  O   UNL A   1      33.335  25.402  21.117  1.00  0.00    -0.275 OA
BRANCH   9  12
ATOM     12  C   UNL A   1      32.732  23.474  24.164  1.00  0.00     0.224 C 
BRANCH  12  13
ATOM     13  C   UNL A   1      31.567  23.771  25.193  1.00  0.00     0.333 C 
ATOM     14  O   UNL A   1      31.408  24.880  25.705  1.00  0.00    -0.249 OA
BRANCH  13  15
ATOM     15  O   UNL A   1      30.742  22.742  25.474  1.00  0.00    -0.467 OA
ATOM     16  C   UNL A   1      30.104  22.785  26.764  1.00  0.00     0.282 C 
ENDBRANCH  13  15
ENDBRANCH  12  13
BRANCH  12  17
ATOM     17  C   UNL A   1      33.749  22.395  24.637  1.00  0.00    -0.007 A 
ATOM     18  C   UNL A   1      33.290  21.055  24.528  1.00  0.00     0.007 A 
ATOM     19  C   UNL A   1      35.099  22.569  25.062  1.00  0.00    -0.013 A 
ATOM     20  C   UNL A   1      34.107  19.956  24.744  1.00  0.00     0.001 A 
ATOM     21  C   UNL A   1      35.963  21.440  25.128  1.00  0.00    -0.018 A 
ATOM     22  C   UNL A   1      35.670  23.773  25.490  1.00  0.00     0.009 A 
ATOM     23  C   UNL A   1      35.452  20.151  24.984  1.00  0.00     0.009 A 
ATOM     24  C   UNL A   1      37.339  21.589  25.373  1.00  0.00     0.009 A 
ATOM     25  C   UNL A   1      37.034  23.921  25.779  1.00  0.00     0.001 A 
ATOM     26  C   UNL A   1      37.882  22.831  25.670  1.00  0.00     0.001 A 
ENDBRANCH  12  17
ENDBRANCH   9  12
ENDBRANCH   7   8
ENDBRANCH   6   7
ENDBRANCH   3   6
ENDBRANCH   1   2
BRANCH   1  27
ATOM     27  C   UNL A   1      31.558  30.672  25.793  1.00  0.00     0.023 C 
BRANCH  27  28
ATOM     28  C   UNL A   1      31.462  31.792  26.819  1.00  0.00     0.023 C 
BRANCH  28  29
ATOM     29  C   UNL A   1      32.800  32.412  27.168  1.00  0.00     0.116 C 
BRANCH  29  30
ATOM     30  N   UNL A   1      32.649  33.811  27.560  1.00  0.00    -0.352 N 
ATOM     31  C   UNL A   1      33.210  34.484  28.606  1.00  0.00     0.251 C 
ATOM     32  H   UNL A   1      32.057  34.346  26.984  1.00  0.00     0.163 HD
ATOM     33  O   UNL A   1      32.722  35.552  28.985  1.00  0.00    -0.269 OA
BRANCH  31  34
ATOM     34  C   UNL A   1      34.388  33.910  29.261  1.00  0.00     0.039 A 
ATOM     35  C   UNL A   1      35.665  34.317  28.879  1.00  0.00     0.014 A 
ATOM     36  C   UNL A   1      34.206  32.985  30.291  1.00  0.00     0.014 A 
ATOM     37  C   UNL A   1      36.764  33.819  29.571  1.00  0.00     0.010 A 
ATOM     38  C   UNL A   1      35.282  32.614  31.070  1.00  0.00     0.010 A 
ATOM     39  C   UNL A   1      36.575  32.987  30.686  1.00  0.00    -0.014 A 
BRANCH  39  40
ATOM     40  C   UNL A   1      37.716  32.409  31.428  1.00  0.00     0.031 A 
ATOM     41  C   UNL A   1      38.485  31.275  30.807  1.00  0.00     0.074 A 
ATOM     42  C   UNL A   1      37.997  32.852  32.666  1.00  0.00     0.049 A 
ATOM     43  N   UNL A   1      39.441  30.543  31.315  1.00  0.00    -0.248 NA
ATOM     44  C   UNL A   1      38.081  30.867  29.450  1.00  0.00     0.031 C 
ATOM     45  C   UNL A   1      37.268  33.906  33.377  1.00  0.00     0.029 A 
ATOM     46  N   UNL A   1      38.973  32.471  33.548  1.00  0.00    -0.354 N 
ATOM     47  C   UNL A   1      39.723  29.577  30.355  1.00  0.00     0.074 A 
ATOM     48  C   UNL A   1      38.768  29.750  29.286  1.00  0.00     0.031 C 
ATOM     49  C   UNL A   1      37.855  34.121  34.564  1.00  0.00     0.029 A 
ATOM     50  C   UNL A   1      38.965  33.189  34.720  1.00  0.00     0.049 A 
ATOM     51  H   UNL A   1      39.618  31.752  33.360  1.00  0.00     0.167 HD
ATOM     52  C   UNL A   1      40.717  28.658  30.349  1.00  0.00     0.034 A 
ATOM     53  C   UNL A   1      39.769  33.095  35.795  1.00  0.00     0.034 A 
ATOM     54  C   UNL A   1      41.677  28.541  31.418  1.00  0.00     0.049 A 
ATOM     55  C   UNL A   1      40.874  32.071  35.770  1.00  0.00     0.074 A 
ATOM     56  C   UNL A   1      42.772  27.704  31.509  1.00  0.00     0.029 A 
ATOM     57  N   UNL A   1      41.652  29.296  32.586  1.00  0.00    -0.354 N 
ATOM     58  N   UNL A   1      41.171  31.198  34.833  1.00  0.00    -0.248 NA
ATOM     59  C   UNL A   1      41.760  32.029  36.938  1.00  0.00     0.031 C 
ATOM     60  C   UNL A   1      43.367  27.902  32.759  1.00  0.00     0.029 A 
ATOM     61  C   UNL A   1      42.694  28.922  33.416  1.00  0.00     0.049 A 
ATOM     62  H   UNL A   1      40.990  29.995  32.791  1.00  0.00     0.167 HD
ATOM     63  C   UNL A   1      42.297  30.520  35.288  1.00  0.00     0.074 A 
ATOM     64  C   UNL A   1      42.634  31.100  36.573  1.00  0.00     0.031 C 
ATOM     65  C   UNL A   1      42.996  29.514  34.700  1.00  0.00     0.034 A 
BRANCH  52  66
ATOM     66  C   UNL A   1      40.787  27.718  29.168  1.00  0.00     0.023 A 
ATOM     67  C   UNL A   1      41.731  27.892  28.137  1.00  0.00     0.031 A 
ATOM     68  C   UNL A   1      39.855  26.675  29.028  1.00  0.00     0.131 A 
ATOM     69  C   UNL A   1      41.651  27.117  26.971  1.00  0.00     0.055 A 
ATOM     70  C   UNL A   1      39.846  25.839  27.909  1.00  0.00     0.041 A 
ATOM     71  F   UNL A   1      38.913  26.470  29.961  1.00  0.00    -0.206 F 
ATOM     72  C   UNL A   1      40.734  26.070  26.861  1.00  0.00     0.022 A 
BRANCH  69  73
ATOM     73  S   UNL A   1      42.636  27.617  25.531  1.00  0.00     0.124 S 
ATOM     74  O   UNL A   1      43.932  27.897  26.146  1.00  0.00    -0.237 OA
ATOM     75  O   UNL A   1      42.575  26.435  24.681  1.00  0.00    -0.237 OA
ATOM     76  O   UNL A   1      41.930  28.792  25.024  1.00  0.00    -0.744 OA
ENDBRANCH  69  73
ENDBRANCH  52  66
BRANCH  53  77
ATOM     77  C   UNL A   1      39.573  34.000  36.964  1.00  0.00     0.023 A 
ATOM     78  C   UNL A   1      39.031  33.516  38.165  1.00  0.00     0.031 A 
ATOM     79  C   UNL A   1      39.916  35.362  36.896  1.00  0.00     0.131 A 
ATOM     80  C   UNL A   1      38.807  34.394  39.236  1.00  0.00     0.055 A 
ATOM     81  C   UNL A   1      39.738  36.222  37.982  1.00  0.00     0.041 A 
ATOM     82  F   UNL A   1      40.448  35.874  35.776  1.00  0.00    -0.206 F 
ATOM     83  C   UNL A   1      39.169  35.741  39.157  1.00  0.00     0.022 A 
BRANCH  80  84
ATOM     84  S   UNL A   1      37.963  33.764  40.713  1.00  0.00     0.124 S 
ATOM     85  O   UNL A   1      37.690  34.995  41.446  1.00  0.00    -0.237 OA
ATOM     86  O   UNL A   1      36.805  33.091  40.135  1.00  0.00    -0.237 OA
ATOM     87  O   UNL A   1      38.956  32.882  41.321  1.00  0.00    -0.744 OA
ENDBRANCH  80  84
ENDBRANCH  53  77
BRANCH  65  88
ATOM     88  C   UNL A   1      44.213  29.013  35.434  1.00  0.00     0.023 A 
ATOM     89  C   UNL A   1      44.128  27.991  36.393  1.00  0.00     0.031 A 
ATOM     90  C   UNL A   1      45.476  29.573  35.169  1.00  0.00     0.131 A 
ATOM     91  C   UNL A   1      45.275  27.599  37.096  1.00  0.00     0.055 A 
ATOM     92  C   UNL A   1      46.625  29.130  35.824  1.00  0.00     0.041 A 
ATOM     93  F   UNL A   1      45.613  30.554  34.264  1.00  0.00    -0.206 F 
ATOM     94  C   UNL A   1      46.526  28.147  36.804  1.00  0.00     0.022 A 
BRANCH  91  95
ATOM     95  S   UNL A   1      45.093  26.431  38.472  1.00  0.00     0.124 S 
ATOM     96  O   UNL A   1      45.631  25.202  37.898  1.00  0.00    -0.237 OA
ATOM     97  O   UNL A   1      45.900  27.051  39.517  1.00  0.00    -0.237 OA
ATOM     98  O   UNL A   1      43.654  26.419  38.723  1.00  0.00    -0.744 OA
ENDBRANCH  91  95
ENDBRANCH  65  88
ENDBRANCH  39  40
ENDBRANCH  31  34
ENDBRANCH  29  30
ENDBRANCH  28  29
ENDBRANCH  27  28
ENDBRANCH   1  27
TORSDOF 20
ENDMDL
MODEL 3
REMARK VINA RESULT:     -11.9      5.784     11.860
REMARK SMILES COC(=O)[C@@H](NC(=O)CCC(=O)NCCCCNC(=O)c1ccc(-c2c3nc(c(-c4cc(S(=O)(=O)[O-])ccc4F)c4ccc([nH]4)c(-c4cc(S(=O)(=O)[O-])ccc4F)c4nc(c(-c5cc(S(=O)(=O)[O-])ccc5F)c5ccc2[nH]5)C=C4)C=C3)cc1)c1cccc2ccccc12
REMARK SMILES IDX 14 1 13 2 11 3 12 4 10 6 9 7 7 8 6 9 8 11 5 12 3 13 4 14
REMARK SMILES IDX 2 15 1 16 84 17 85 18 93 19 86 20 88 21 92 22 87 23 89 24
REMARK SMILES IDX 91 25 90 26 15 27 16 28 17 29 18 30 19 31 20 33 21 34 22 35
REMARK SMILES IDX 83 36 23 37 82 38 24 39 25 40 26 41 76 42 27 43 81 44 75 45
REMARK SMILES IDX 77 46 28 47 80 48 74 49 73 50 29 52 61 53 41 54 60 55 42 56
REMARK SMILES IDX 45 57 59 58 78 59 43 60 44 61 58 63 79 64 46 65 30 66 31 67
REMARK SMILES IDX 39 68 32 69 38 70 40 71 37 72 33 73 34 74 35 75 36 76 62 77
REMARK SMILES IDX 63 78 71 79 64 80 70 81 72 82 69 83 65 84 66 85 67 86 68 87
REMARK SMILES IDX 47 88 48 89 56 90 49 91 55 92 57 93 54 94 50 95 51 96 52 97
REMARK SMILES IDX 53 98
REMARK H PARENT 13 5 6 10 18 32 77 51 45 62
REMARK Flexibility Score: inf
ROOT
ATOM      1  C   UNL A   1      32.881  30.213  26.109  1.00  0.00     0.116 C 
ENDROOT
BRANCH   1   2
ATOM      2  N   UNL A   1      33.094  29.610  24.812  1.00  0.00    -0.356 N 
ATOM      3  C   UNL A   1      33.567  28.376  24.497  1.00  0.00     0.220 C 
ATOM      4  O   UNL A   1      33.613  27.994  23.329  1.00  0.00    -0.275 OA
ATOM      5  H   UNL A   1      32.862  30.179  24.043  1.00  0.00     0.163 HD
BRANCH   3   6
ATOM      6  C   UNL A   1      34.059  27.500  25.597  1.00  0.00     0.110 C 
BRANCH   6   7
ATOM      7  C   UNL A   1      32.975  26.930  26.490  1.00  0.00     0.110 C 
BRANCH   7   8
ATOM      8  C   UNL A   1      32.084  25.775  26.085  1.00  0.00     0.221 C 
ATOM      9  N   UNL A   1      32.218  24.827  25.152  1.00  0.00    -0.339 N 
ATOM     10  H   UNL A   1      31.390  24.297  25.203  1.00  0.00     0.164 HD
ATOM     11  O   UNL A   1      30.990  25.714  26.678  1.00  0.00    -0.275 OA
BRANCH   9  12
ATOM     12  C   UNL A   1      33.031  24.186  24.058  1.00  0.00     0.224 C 
BRANCH  12  13
ATOM     13  C   UNL A   1      32.881  24.570  22.530  1.00  0.00     0.333 C 
ATOM     14  O   UNL A   1      33.673  24.177  21.672  1.00  0.00    -0.249 OA
BRANCH  13  15
ATOM     15  O   UNL A   1      31.826  25.346  22.210  1.00  0.00    -0.467 OA
ATOM     16  C   UNL A   1      31.880  25.974  20.916  1.00  0.00     0.282 C 
ENDBRANCH  13  15
ENDBRANCH  12  13
BRANCH  12  17
ATOM     17  C   UNL A   1      33.948  22.957  24.326  1.00  0.00    -0.007 A 
ATOM     18  C   UNL A   1      35.209  23.269  24.901  1.00  0.00     0.007 A 
ATOM     19  C   UNL A   1      33.652  21.572  24.166  1.00  0.00    -0.013 A 
ATOM     20  C   UNL A   1      36.091  22.302  25.360  1.00  0.00     0.001 A 
ATOM     21  C   UNL A   1      34.490  20.600  24.780  1.00  0.00    -0.018 A 
ATOM     22  C   UNL A   1      32.609  21.046  23.393  1.00  0.00     0.009 A 
ATOM     23  C   UNL A   1      35.705  20.977  25.352  1.00  0.00     0.009 A 
ATOM     24  C   UNL A   1      34.140  19.239  24.794  1.00  0.00     0.009 A 
ATOM     25  C   UNL A   1      32.279  19.683  23.367  1.00  0.00     0.001 A 
ATOM     26  C   UNL A   1      33.020  18.782  24.114  1.00  0.00     0.001 A 
ENDBRANCH  12  17
ENDBRANCH   9  12
ENDBRANCH   7   8
ENDBRANCH   6   7
ENDBRANCH   3   6
ENDBRANCH   1   2
BRANCH   1  27
ATOM     27  C   UNL A   1      31.508  30.869  26.273  1.00  0.00     0.023 C 
BRANCH  27  28
ATOM     28  C   UNL A   1      31.489  32.302  26.789  1.00  0.00     0.023 C 
BRANCH  28  29
ATOM     29  C   UNL A   1      32.829  32.775  27.316  1.00  0.00     0.116 C 
BRANCH  29  30
ATOM     30  N   UNL A   1      32.789  34.191  27.667  1.00  0.00    -0.352 N 
ATOM     31  C   UNL A   1      33.412  34.850  28.687  1.00  0.00     0.251 C 
ATOM     32  H   UNL A   1      32.232  34.753  27.082  1.00  0.00     0.163 HD
ATOM     33  O   UNL A   1      33.011  35.963  29.039  1.00  0.00    -0.269 OA
BRANCH  31  34
ATOM     34  C   UNL A   1      34.552  34.208  29.346  1.00  0.00     0.039 A 
ATOM     35  C   UNL A   1      35.848  34.465  28.904  1.00  0.00     0.014 A 
ATOM     36  C   UNL A   1      34.317  33.372  30.440  1.00  0.00     0.014 A 
ATOM     37  C   UNL A   1      36.917  33.907  29.598  1.00  0.00     0.010 A 
ATOM     38  C   UNL A   1      35.378  32.949  31.213  1.00  0.00     0.010 A 
ATOM     39  C   UNL A   1      36.687  33.170  30.771  1.00  0.00    -0.014 A 
BRANCH  39  40
ATOM     40  C   UNL A   1      37.792  32.533  31.518  1.00  0.00     0.031 A 
ATOM     41  C   UNL A   1      38.538  31.393  30.878  1.00  0.00     0.074 A 
ATOM     42  C   UNL A   1      38.059  32.928  32.776  1.00  0.00     0.049 A 
ATOM     43  N   UNL A   1      39.459  30.616  31.384  1.00  0.00    -0.248 NA
ATOM     44  C   UNL A   1      38.151  31.041  29.501  1.00  0.00     0.031 C 
ATOM     45  C   UNL A   1      37.349  33.983  33.503  1.00  0.00     0.029 A 
ATOM     46  N   UNL A   1      39.003  32.489  33.665  1.00  0.00    -0.354 N 
ATOM     47  C   UNL A   1      39.731  29.671  30.401  1.00  0.00     0.074 A 
ATOM     48  C   UNL A   1      38.807  29.908  29.318  1.00  0.00     0.031 C 
ATOM     49  C   UNL A   1      37.917  34.143  34.709  1.00  0.00     0.029 A 
ATOM     50  C   UNL A   1      38.992  33.171  34.859  1.00  0.00     0.049 A 
ATOM     51  H   UNL A   1      39.629  31.756  33.469  1.00  0.00     0.167 HD
ATOM     52  C   UNL A   1      40.695  28.720  30.387  1.00  0.00     0.034 A 
ATOM     53  C   UNL A   1      39.769  33.018  35.948  1.00  0.00     0.034 A 
ATOM     54  C   UNL A   1      41.627  28.540  31.472  1.00  0.00     0.049 A 
ATOM     55  C   UNL A   1      40.841  31.960  35.914  1.00  0.00     0.074 A 
ATOM     56  C   UNL A   1      42.692  27.665  31.560  1.00  0.00     0.029 A 
ATOM     57  N   UNL A   1      41.600  29.259  32.662  1.00  0.00    -0.354 N 
ATOM     58  N   UNL A   1      41.130  31.107  34.956  1.00  0.00    -0.248 NA
ATOM     59  C   UNL A   1      41.698  31.853  37.098  1.00  0.00     0.031 C 
ATOM     60  C   UNL A   1      43.266  27.805  32.828  1.00  0.00     0.029 A 
ATOM     61  C   UNL A   1      42.611  28.826  33.502  1.00  0.00     0.049 A 
ATOM     62  H   UNL A   1      40.956  29.973  32.875  1.00  0.00     0.167 HD
ATOM     63  C   UNL A   1      42.224  30.379  35.414  1.00  0.00     0.074 A 
ATOM     64  C   UNL A   1      42.550  30.908  36.724  1.00  0.00     0.031 C 
ATOM     65  C   UNL A   1      42.902  29.368  34.810  1.00  0.00     0.034 A 
BRANCH  52  66
ATOM     66  C   UNL A   1      40.762  27.815  29.178  1.00  0.00     0.023 A 
ATOM     67  C   UNL A   1      41.690  28.030  28.142  1.00  0.00     0.031 A 
ATOM     68  C   UNL A   1      39.840  26.766  29.020  1.00  0.00     0.131 A 
ATOM     69  C   UNL A   1      41.605  27.286  26.955  1.00  0.00     0.055 A 
ATOM     70  C   UNL A   1      39.827  25.961  27.878  1.00  0.00     0.041 A 
ATOM     71  F   UNL A   1      38.912  26.523  29.959  1.00  0.00    -0.206 F 
ATOM     72  C   UNL A   1      40.698  26.233  26.827  1.00  0.00     0.022 A 
BRANCH  69  73
ATOM     73  S   UNL A   1      42.567  27.839  25.519  1.00  0.00     0.124 S 
ATOM     74  O   UNL A   1      41.669  28.831  24.929  1.00  0.00    -0.237 OA
ATOM     75  O   UNL A   1      43.780  28.361  26.133  1.00  0.00    -0.237 OA
ATOM     76  O   UNL A   1      42.736  26.619  24.731  1.00  0.00    -0.744 OA
ENDBRANCH  69  73
ENDBRANCH  52  66
BRANCH  53  77
ATOM     77  C   UNL A   1      39.576  33.893  37.140  1.00  0.00     0.023 A 
ATOM     78  C   UNL A   1      38.926  33.412  38.287  1.00  0.00     0.031 A 
ATOM     79  C   UNL A   1      40.029  35.223  37.147  1.00  0.00     0.131 A 
ATOM     80  C   UNL A   1      38.709  34.266  39.379  1.00  0.00     0.055 A 
ATOM     81  C   UNL A   1      39.855  36.055  38.255  1.00  0.00     0.041 A 
ATOM     82  F   UNL A   1      40.666  35.731  36.080  1.00  0.00    -0.206 F 
ATOM     83  C   UNL A   1      39.180  35.580  39.376  1.00  0.00     0.022 A 
BRANCH  80  84
ATOM     84  S   UNL A   1      37.730  33.654  40.778  1.00  0.00     0.124 S 
ATOM     85  O   UNL A   1      36.620  32.995  40.099  1.00  0.00    -0.237 OA
ATOM     86  O   UNL A   1      38.682  32.777  41.452  1.00  0.00    -0.237 OA
ATOM     87  O   UNL A   1      37.383  34.871  41.508  1.00  0.00    -0.744 OA
ENDBRANCH  80  84
ENDBRANCH  53  77
BRANCH  65  88
ATOM     88  C   UNL A   1      44.086  28.806  35.554  1.00  0.00     0.023 A 
ATOM     89  C   UNL A   1      43.958  27.714  36.427  1.00  0.00     0.031 A 
ATOM     90  C   UNL A   1      45.361  29.377  35.386  1.00  0.00     0.131 A 
ATOM     91  C   UNL A   1      45.074  27.262  37.146  1.00  0.00     0.055 A 
ATOM     92  C   UNL A   1      46.480  28.879  36.052  1.00  0.00     0.041 A 
ATOM     93  F   UNL A   1      45.538  30.425  34.565  1.00  0.00    -0.206 F 
ATOM     94  C   UNL A   1      46.337  27.825  36.949  1.00  0.00     0.022 A 
BRANCH  91  95
ATOM     95  S   UNL A   1      44.831  25.994  38.418  1.00  0.00     0.124 S 
ATOM     96  O   UNL A   1      46.171  25.873  38.984  1.00  0.00    -0.237 OA
ATOM     97  O   UNL A   1      43.829  26.607  39.283  1.00  0.00    -0.237 OA
ATOM     98  O   UNL A   1      44.371  24.832  37.661  1.00  0.00    -0.744 OA
ENDBRANCH  91  95
ENDBRANCH  65  88
ENDBRANCH  39  40
ENDBRANCH  31  34
ENDBRANCH  29  30
ENDBRANCH  28  29
ENDBRANCH  27  28
ENDBRANCH   1  27
TORSDOF 20
ENDMDL
