MODEL 1
REMARK VINA RESULT:     -11.3      0.000      0.000
REMARK SMILES CO[C@H]1C[C@@H](C(=O)NCCCCNC(=O)c2ccc(-c3c4nc(c(-c5cc(S(=O)(=O)[O-])ccc5F)c5ccc([nH]5)c(-c5cc(S(=O)(=O)[O-])ccc5F)c5nc(c(-c6cc(S(=O)(=O)[O-])ccc6F)c6ccc3[nH]6)C=C5)C=C4)cc2)N(C(=O)c2cc(SC)ccc2C)C1
REMARK SMILES IDX 10 1 9 2 8 3 6 4 7 5 5 7 3 8 4 9 91 10 79 11 2 12 1 13 80 14
REMARK SMILES IDX 81 15 82 16 83 17 89 18 84 19 88 20 90 21 87 22 85 23 86 24
REMARK SMILES IDX 11 25 12 26 13 27 14 28 15 30 16 31 17 32 78 33 18 34 77 35
REMARK SMILES IDX 19 36 20 37 21 38 71 39 22 40 76 41 70 42 72 43 23 44 75 45
REMARK SMILES IDX 69 46 68 47 24 49 56 50 36 51 55 52 37 53 40 54 54 55 73 56
REMARK SMILES IDX 38 57 39 58 53 60 74 61 41 62 25 63 26 64 34 65 27 66 33 67
REMARK SMILES IDX 35 68 32 69 28 70 29 71 30 72 31 73 57 74 58 75 66 76 59 77
REMARK SMILES IDX 65 78 67 79 64 80 60 81 61 82 62 83 63 84 42 85 43 86 51 87
REMARK SMILES IDX 44 88 50 89 52 90 49 91 45 92 46 93 47 94 48 95
REMARK H PARENT 8 6 13 29 72 48 40 59
REMARK Flexibility Score: inf
ROOT
ATOM      1  C   UNL A   1      36.673  22.571  23.611  1.00  0.00     0.023 C 
ENDROOT
BRANCH   1   2
ATOM      2  C   UNL A   1      35.518  23.475  24.025  1.00  0.00     0.116 C 
BRANCH   2   3
ATOM      3  N   UNL A   1      34.542  23.678  22.972  1.00  0.00    -0.354 N 
ATOM      4  C   UNL A   1      33.564  24.599  22.784  1.00  0.00     0.242 C 
ATOM      5  O   UNL A   1      33.244  24.773  21.601  1.00  0.00    -0.273 OA
ATOM      6  H   UNL A   1      34.601  23.015  22.248  1.00  0.00     0.163 HD
BRANCH   4   7
ATOM      7  C   UNL A   1      32.819  25.397  23.886  1.00  0.00     0.177 C 
ATOM      8  C   UNL A   1      32.625  27.023  25.646  1.00  0.00     0.139 C 
ATOM      9  C   UNL A   1      33.550  26.576  24.520  1.00  0.00     0.069 C 
ATOM     10  C   UNL A   1      32.047  25.703  26.148  1.00  0.00     0.152 C 
ATOM     11  N   UNL A   1      32.267  24.724  25.090  1.00  0.00    -0.324 N 
BRANCH   8  12
ATOM     12  O   UNL A   1      33.386  27.720  26.627  1.00  0.00    -0.380 OA
ATOM     13  C   UNL A   1      32.593  28.621  27.391  1.00  0.00     0.195 C 
ENDBRANCH   8  12
BRANCH  11  14
ATOM     14  C   UNL A   1      31.586  23.522  25.223  1.00  0.00     0.254 C 
ATOM     15  O   UNL A   1      30.364  23.477  25.374  1.00  0.00    -0.269 OA
BRANCH  14  16
ATOM     16  C   UNL A   1      32.308  22.238  25.301  1.00  0.00     0.044 A 
ATOM     17  C   UNL A   1      32.081  21.326  24.257  1.00  0.00     0.029 A 
ATOM     18  C   UNL A   1      33.065  21.862  26.425  1.00  0.00    -0.038 A 
ATOM     19  C   UNL A   1      32.652  20.048  24.278  1.00  0.00     0.008 A 
ATOM     20  C   UNL A   1      33.663  20.592  26.421  1.00  0.00     0.005 A 
ATOM     21  C   UNL A   1      33.248  22.715  27.647  1.00  0.00     0.045 C 
ATOM     22  C   UNL A   1      33.467  19.703  25.358  1.00  0.00     0.015 A 
BRANCH  19  23
ATOM     23  S   UNL A   1      32.280  18.961  22.904  1.00  0.00    -0.130 SA
ATOM     24  C   UNL A   1      33.407  17.567  23.173  1.00  0.00     0.091 C 
ENDBRANCH  19  23
ENDBRANCH  14  16
ENDBRANCH  11  14
ENDBRANCH   4   7
ENDBRANCH   2   3
ENDBRANCH   1   2
BRANCH   1  25
ATOM     25  C   UNL A   1      36.655  21.165  24.219  1.00  0.00     0.023 C 
BRANCH  25  26
ATOM     26  C   UNL A   1      37.321  21.004  25.586  1.00  0.00     0.116 C 
BRANCH  26  27
ATOM     27  N   UNL A   1      38.459  20.098  25.586  1.00  0.00    -0.352 N 
ATOM     28  C   UNL A   1      39.740  20.310  26.048  1.00  0.00     0.251 C 
ATOM     29  H   UNL A   1      38.290  19.206  25.202  1.00  0.00     0.163 HD
ATOM     30  O   UNL A   1      40.590  19.440  25.913  1.00  0.00    -0.269 OA
BRANCH  28  31
ATOM     31  C   UNL A   1      40.090  21.614  26.653  1.00  0.00     0.039 A 
ATOM     32  C   UNL A   1      40.969  21.633  27.740  1.00  0.00     0.014 A 
ATOM     33  C   UNL A   1      39.605  22.810  26.118  1.00  0.00     0.014 A 
ATOM     34  C   UNL A   1      41.447  22.854  28.223  1.00  0.00     0.010 A 
ATOM     35  C   UNL A   1      40.122  24.024  26.568  1.00  0.00     0.010 A 
ATOM     36  C   UNL A   1      41.071  24.054  27.602  1.00  0.00    -0.014 A 
BRANCH  36  37
ATOM     37  C   UNL A   1      41.716  25.345  27.959  1.00  0.00     0.031 A 
ATOM     38  C   UNL A   1      40.930  26.425  28.645  1.00  0.00     0.074 A 
ATOM     39  C   UNL A   1      42.983  25.577  27.557  1.00  0.00     0.049 A 
ATOM     40  N   UNL A   1      41.278  27.658  28.909  1.00  0.00    -0.248 NA
ATOM     41  C   UNL A   1      39.564  26.079  29.066  1.00  0.00     0.031 C 
ATOM     42  C   UNL A   1      43.832  24.618  26.844  1.00  0.00     0.029 A 
ATOM     43  N   UNL A   1      43.770  26.697  27.662  1.00  0.00    -0.354 N 
ATOM     44  C   UNL A   1      40.170  28.245  29.510  1.00  0.00     0.074 A 
ATOM     45  C   UNL A   1      39.128  27.239  29.539  1.00  0.00     0.031 C 
ATOM     46  C   UNL A   1      45.014  25.192  26.572  1.00  0.00     0.029 A 
ATOM     47  C   UNL A   1      44.995  26.572  27.045  1.00  0.00     0.049 A 
ATOM     48  H   UNL A   1      43.486  27.513  28.133  1.00  0.00     0.167 HD
ATOM     49  C   UNL A   1      40.042  29.502  30.000  1.00  0.00     0.034 A 
ATOM     50  C   UNL A   1      45.978  27.474  26.850  1.00  0.00     0.034 A 
ATOM     51  C   UNL A   1      41.099  30.484  29.982  1.00  0.00     0.049 A 
ATOM     52  C   UNL A   1      45.797  28.874  27.377  1.00  0.00     0.074 A 
ATOM     53  C   UNL A   1      41.110  31.747  30.549  1.00  0.00     0.029 A 
ATOM     54  N   UNL A   1      42.323  30.324  29.348  1.00  0.00    -0.354 N 
ATOM     55  N   UNL A   1      44.771  29.388  28.015  1.00  0.00    -0.248 NA
ATOM     56  C   UNL A   1      46.904  29.814  27.160  1.00  0.00     0.031 C 
ATOM     57  C   UNL A   1      42.311  32.374  30.200  1.00  0.00     0.029 A 
ATOM     58  C   UNL A   1      43.077  31.481  29.468  1.00  0.00     0.049 A 
ATOM     59  H   UNL A   1      42.615  29.507  28.881  1.00  0.00     0.167 HD
ATOM     60  C   UNL A   1      45.117  30.707  28.287  1.00  0.00     0.074 A 
ATOM     61  C   UNL A   1      46.453  30.904  27.762  1.00  0.00     0.031 C 
ATOM     62  C   UNL A   1      44.398  31.670  28.916  1.00  0.00     0.034 A 
BRANCH  49  63
ATOM     63  C   UNL A   1      38.705  29.898  30.571  1.00  0.00     0.023 A 
ATOM     64  C   UNL A   1      37.742  30.575  29.803  1.00  0.00     0.031 A 
ATOM     65  C   UNL A   1      38.387  29.588  31.906  1.00  0.00     0.131 A 
ATOM     66  C   UNL A   1      36.532  30.971  30.392  1.00  0.00     0.055 A 
ATOM     67  C   UNL A   1      37.154  29.925  32.466  1.00  0.00     0.041 A 
ATOM     68  F   UNL A   1      39.275  28.958  32.691  1.00  0.00    -0.206 F 
ATOM     69  C   UNL A   1      36.222  30.631  31.711  1.00  0.00     0.022 A 
BRANCH  66  70
ATOM     70  S   UNL A   1      35.411  32.033  29.440  1.00  0.00     0.124 S 
ATOM     71  O   UNL A   1      34.923  31.107  28.420  1.00  0.00    -0.237 OA
ATOM     72  O   UNL A   1      34.438  32.447  30.444  1.00  0.00    -0.237 OA
ATOM     73  O   UNL A   1      36.284  33.093  28.942  1.00  0.00    -0.744 OA
ENDBRANCH  66  70
ENDBRANCH  49  63
BRANCH  50  74
ATOM     74  C   UNL A   1      47.200  27.106  26.079  1.00  0.00     0.023 A 
ATOM     75  C   UNL A   1      48.273  26.445  26.694  1.00  0.00     0.031 A 
ATOM     76  C   UNL A   1      47.330  27.457  24.722  1.00  0.00     0.131 A 
ATOM     77  C   UNL A   1      49.449  26.195  25.968  1.00  0.00     0.055 A 
ATOM     78  C   UNL A   1      48.481  27.162  23.991  1.00  0.00     0.041 A 
ATOM     79  F   UNL A   1      46.330  28.087  24.085  1.00  0.00    -0.206 F 
ATOM     80  C   UNL A   1      49.554  26.538  24.618  1.00  0.00     0.022 A 
BRANCH  77  81
ATOM     81  S   UNL A   1      50.873  25.491  26.840  1.00  0.00     0.124 S 
ATOM     82  O   UNL A   1      50.258  24.398  27.583  1.00  0.00    -0.237 OA
ATOM     83  O   UNL A   1      51.744  25.106  25.734  1.00  0.00    -0.237 OA
ATOM     84  O   UNL A   1      51.358  26.604  27.654  1.00  0.00    -0.744 OA
ENDBRANCH  77  81
ENDBRANCH  50  74
BRANCH  62  85
ATOM     85  C   UNL A   1      45.056  33.015  29.081  1.00  0.00     0.023 A 
ATOM     86  C   UNL A   1      44.794  34.072  28.192  1.00  0.00     0.031 A 
ATOM     87  C   UNL A   1      45.958  33.241  30.136  1.00  0.00     0.131 A 
ATOM     88  C   UNL A   1      45.460  35.296  28.350  1.00  0.00     0.055 A 
ATOM     89  C   UNL A   1      46.578  34.477  30.317  1.00  0.00     0.041 A 
ATOM     90  F   UNL A   1      46.243  32.263  31.010  1.00  0.00    -0.206 F 
ATOM     91  C   UNL A   1      46.338  35.511  29.416  1.00  0.00     0.022 A 
BRANCH  88  92
ATOM     92  S   UNL A   1      45.211  36.592  27.105  1.00  0.00     0.124 S 
ATOM     93  O   UNL A   1      45.352  37.807  27.901  1.00  0.00    -0.237 OA
ATOM     94  O   UNL A   1      46.285  36.325  26.154  1.00  0.00    -0.237 OA
ATOM     95  O   UNL A   1      43.862  36.330  26.604  1.00  0.00    -0.744 OA
ENDBRANCH  88  92
ENDBRANCH  62  85
ENDBRANCH  36  37
ENDBRANCH  28  31
ENDBRANCH  26  27
ENDBRANCH  25  26
ENDBRANCH   1  25
TORSDOF 18
ENDMDL
MODEL 2
REMARK VINA RESULT:     -11.2      2.157      3.756
REMARK SMILES CO[C@H]1C[C@@H](C(=O)NCCCCNC(=O)c2ccc(-c3c4nc(c(-c5cc(S(=O)(=O)[O-])ccc5F)c5ccc([nH]5)c(-c5cc(S(=O)(=O)[O-])ccc5F)c5nc(c(-c6cc(S(=O)(=O)[O-])ccc6F)c6ccc3[nH]6)C=C5)C=C4)cc2)N(C(=O)c2cc(SC)ccc2C)C1
REMARK SMILES IDX 10 1 9 2 8 3 6 4 7 5 5 7 3 8 4 9 91 10 79 11 2 12 1 13 80 14
REMARK SMILES IDX 81 15 82 16 83 17 89 18 84 19 88 20 90 21 87 22 85 23 86 24
REMARK SMILES IDX 11 25 12 26 13 27 14 28 15 30 16 31 17 32 78 33 18 34 77 35
REMARK SMILES IDX 19 36 20 37 21 38 71 39 22 40 76 41 70 42 72 43 23 44 75 45
REMARK SMILES IDX 69 46 68 47 24 49 56 50 36 51 55 52 37 53 40 54 54 55 73 56
REMARK SMILES IDX 38 57 39 58 53 60 74 61 41 62 25 63 26 64 34 65 27 66 33 67
REMARK SMILES IDX 35 68 32 69 28 70 29 71 30 72 31 73 57 74 58 75 66 76 59 77
REMARK SMILES IDX 65 78 67 79 64 80 60 81 61 82 62 83 63 84 42 85 43 86 51 87
REMARK SMILES IDX 44 88 50 89 52 90 49 91 45 92 46 93 47 94 48 95
REMARK H PARENT 8 6 13 29 72 48 40 59
REMARK Flexibility Score: inf
ROOT
ATOM      1  C   UNL A   1      34.256  21.429  26.968  1.00  0.00     0.023 C 
ENDROOT
BRANCH   1   2
ATOM      2  C   UNL A   1      33.440  22.703  27.160  1.00  0.00     0.116 C 
BRANCH   2   3
ATOM      3  N   UNL A   1      32.010  22.490  27.050  1.00  0.00    -0.354 N 
ATOM      4  C   UNL A   1      31.146  22.548  26.006  1.00  0.00     0.242 C 
ATOM      5  O   UNL A   1      30.121  21.868  26.150  1.00  0.00    -0.273 OA
ATOM      6  H   UNL A   1      31.580  22.256  27.903  1.00  0.00     0.163 HD
BRANCH   4   7
ATOM      7  C   UNL A   1      31.310  23.388  24.712  1.00  0.00     0.177 C 
ATOM      8  C   UNL A   1      32.436  24.122  22.719  1.00  0.00     0.139 C 
ATOM      9  C   UNL A   1      32.463  23.028  23.780  1.00  0.00     0.069 C 
ATOM     10  C   UNL A   1      32.029  25.355  23.520  1.00  0.00     0.152 C 
ATOM     11  N   UNL A   1      31.435  24.867  24.759  1.00  0.00    -0.324 N 
BRANCH   8  12
ATOM     12  O   UNL A   1      33.726  24.230  22.126  1.00  0.00    -0.380 OA
ATOM     13  C   UNL A   1      34.755  23.720  22.965  1.00  0.00     0.195 C 
ENDBRANCH   8  12
BRANCH  11  14
ATOM     14  C   UNL A   1      30.755  25.808  25.519  1.00  0.00     0.254 C 
ATOM     15  O   UNL A   1      30.032  25.486  26.464  1.00  0.00    -0.269 OA
BRANCH  14  16
ATOM     16  C   UNL A   1      30.774  27.240  25.163  1.00  0.00     0.044 A 
ATOM     17  C   UNL A   1      29.889  27.647  24.151  1.00  0.00     0.029 A 
ATOM     18  C   UNL A   1      31.724  28.137  25.683  1.00  0.00    -0.038 A 
ATOM     19  C   UNL A   1      29.887  28.966  23.681  1.00  0.00     0.008 A 
ATOM     20  C   UNL A   1      31.691  29.466  25.232  1.00  0.00     0.005 A 
ATOM     21  C   UNL A   1      32.797  27.760  26.663  1.00  0.00     0.045 C 
ATOM     22  C   UNL A   1      30.779  29.875  24.252  1.00  0.00     0.015 A 
BRANCH  19  23
ATOM     23  S   UNL A   1      28.730  29.368  22.375  1.00  0.00    -0.130 SA
ATOM     24  C   UNL A   1      27.832  30.790  23.053  1.00  0.00     0.091 C 
ENDBRANCH  19  23
ENDBRANCH  14  16
ENDBRANCH  11  14
ENDBRANCH   4   7
ENDBRANCH   2   3
ENDBRANCH   1   2
BRANCH   1  25
ATOM     25  C   UNL A   1      35.117  21.389  25.701  1.00  0.00     0.023 C 
BRANCH  25  26
ATOM     26  C   UNL A   1      36.508  22.015  25.803  1.00  0.00     0.116 C 
BRANCH  26  27
ATOM     27  N   UNL A   1      37.597  21.073  25.594  1.00  0.00    -0.352 N 
ATOM     28  C   UNL A   1      38.933  21.206  25.906  1.00  0.00     0.251 C 
ATOM     29  H   UNL A   1      37.345  20.221  25.169  1.00  0.00     0.163 HD
ATOM     30  O   UNL A   1      39.722  20.321  25.601  1.00  0.00    -0.269 OA
BRANCH  28  31
ATOM     31  C   UNL A   1      39.411  22.445  26.557  1.00  0.00     0.039 A 
ATOM     32  C   UNL A   1      40.389  22.345  27.551  1.00  0.00     0.014 A 
ATOM     33  C   UNL A   1      38.942  23.698  26.153  1.00  0.00     0.014 A 
ATOM     34  C   UNL A   1      40.977  23.504  28.063  1.00  0.00     0.010 A 
ATOM     35  C   UNL A   1      39.566  24.851  26.627  1.00  0.00     0.010 A 
ATOM     36  C   UNL A   1      40.610  24.763  27.562  1.00  0.00    -0.014 A 
BRANCH  36  37
ATOM     37  C   UNL A   1      41.356  25.992  27.936  1.00  0.00     0.031 A 
ATOM     38  C   UNL A   1      40.657  27.124  28.632  1.00  0.00     0.074 A 
ATOM     39  C   UNL A   1      42.639  26.126  27.542  1.00  0.00     0.049 A 
ATOM     40  N   UNL A   1      41.102  28.322  28.912  1.00  0.00    -0.248 NA
ATOM     41  C   UNL A   1      39.265  26.886  29.044  1.00  0.00     0.031 C 
ATOM     42  C   UNL A   1      43.411  25.109  26.821  1.00  0.00     0.029 A 
ATOM     43  N   UNL A   1      43.514  27.177  27.663  1.00  0.00    -0.354 N 
ATOM     44  C   UNL A   1      40.043  28.990  29.515  1.00  0.00     0.074 A 
ATOM     45  C   UNL A   1      38.922  28.072  29.529  1.00  0.00     0.031 C 
ATOM     46  C   UNL A   1      44.637  25.588  26.560  1.00  0.00     0.029 A 
ATOM     47  C   UNL A   1      44.727  26.959  27.049  1.00  0.00     0.049 A 
ATOM     48  H   UNL A   1      43.295  28.008  28.143  1.00  0.00     0.167 HD
ATOM     49  C   UNL A   1      40.015  30.248  30.020  1.00  0.00     0.034 A 
ATOM     50  C   UNL A   1      45.781  27.781  26.869  1.00  0.00     0.034 A 
ATOM     51  C   UNL A   1      41.148  31.141  30.017  1.00  0.00     0.049 A 
ATOM     52  C   UNL A   1      45.712  29.185  27.412  1.00  0.00     0.074 A 
ATOM     53  C   UNL A   1      41.259  32.393  30.600  1.00  0.00     0.029 A 
ATOM     54  N   UNL A   1      42.358  30.889  29.387  1.00  0.00    -0.354 N 
ATOM     55  N   UNL A   1      44.728  29.773  28.052  1.00  0.00    -0.248 NA
ATOM     56  C   UNL A   1      46.893  30.035  27.210  1.00  0.00     0.031 C 
ATOM     57  C   UNL A   1      42.509  32.924  30.263  1.00  0.00     0.029 A 
ATOM     58  C   UNL A   1      43.203  31.980  29.523  1.00  0.00     0.049 A 
ATOM     59  H   UNL A   1      42.585  30.057  28.911  1.00  0.00     0.167 HD
ATOM     60  C   UNL A   1      45.179  31.056  28.340  1.00  0.00     0.074 A 
ATOM     61  C   UNL A   1      46.529  31.151  27.823  1.00  0.00     0.031 C 
ATOM     62  C   UNL A   1      44.537  32.068  28.979  1.00  0.00     0.034 A 
BRANCH  49  63
ATOM     63  C   UNL A   1      38.712  30.744  30.591  1.00  0.00     0.023 A 
ATOM     64  C   UNL A   1      37.732  31.349  29.785  1.00  0.00     0.031 A 
ATOM     65  C   UNL A   1      38.443  30.606  31.965  1.00  0.00     0.131 A 
ATOM     66  C   UNL A   1      36.556  31.844  30.368  1.00  0.00     0.055 A 
ATOM     67  C   UNL A   1      37.242  31.040  32.527  1.00  0.00     0.041 A 
ATOM     68  F   UNL A   1      39.350  30.052  32.785  1.00  0.00    -0.206 F 
ATOM     69  C   UNL A   1      36.294  31.673  31.729  1.00  0.00     0.022 A 
BRANCH  66  70
ATOM     70  S   UNL A   1      35.419  32.813  29.339  1.00  0.00     0.124 S 
ATOM     71  O   UNL A   1      34.856  33.742  30.316  1.00  0.00    -0.237 OA
ATOM     72  O   UNL A   1      36.311  33.396  28.344  1.00  0.00    -0.237 OA
ATOM     73  O   UNL A   1      34.483  31.814  28.829  1.00  0.00    -0.744 OA
ENDBRANCH  66  70
ENDBRANCH  49  63
BRANCH  50  74
ATOM     74  C   UNL A   1      46.973  27.324  26.098  1.00  0.00     0.023 A 
ATOM     75  C   UNL A   1      47.161  27.706  24.761  1.00  0.00     0.031 A 
ATOM     76  C   UNL A   1      47.917  26.456  26.676  1.00  0.00     0.131 A 
ATOM     77  C   UNL A   1      48.242  27.185  24.031  1.00  0.00     0.055 A 
ATOM     78  C   UNL A   1      49.018  25.981  25.962  1.00  0.00     0.041 A 
ATOM     79  F   UNL A   1      47.786  26.064  27.954  1.00  0.00    -0.206 F 
ATOM     80  C   UNL A   1      49.177  26.336  24.626  1.00  0.00     0.022 A 
BRANCH  77  81
ATOM     81  S   UNL A   1      48.358  27.567  22.263  1.00  0.00     0.124 S 
ATOM     82  O   UNL A   1      49.532  28.432  22.221  1.00  0.00    -0.237 OA
ATOM     83  O   UNL A   1      48.517  26.240  21.677  1.00  0.00    -0.237 OA
ATOM     84  O   UNL A   1      47.086  28.226  21.972  1.00  0.00    -0.744 OA
ENDBRANCH  77  81
ENDBRANCH  50  74
BRANCH  62  85
ATOM     85  C   UNL A   1      45.301  33.353  29.162  1.00  0.00     0.023 A 
ATOM     86  C   UNL A   1      45.205  34.402  28.231  1.00  0.00     0.031 A 
ATOM     87  C   UNL A   1      46.139  33.529  30.278  1.00  0.00     0.131 A 
ATOM     88  C   UNL A   1      45.966  35.565  28.411  1.00  0.00     0.055 A 
ATOM     89  C   UNL A   1      46.854  34.709  30.477  1.00  0.00     0.041 A 
ATOM     90  F   UNL A   1      46.268  32.556  31.194  1.00  0.00    -0.206 F 
ATOM     91  C   UNL A   1      46.778  35.733  29.536  1.00  0.00     0.022 A 
BRANCH  88  92
ATOM     92  S   UNL A   1      45.929  36.839  27.120  1.00  0.00     0.124 S 
ATOM     93  O   UNL A   1      44.497  37.089  26.984  1.00  0.00    -0.237 OA
ATOM     94  O   UNL A   1      46.710  37.916  27.719  1.00  0.00    -0.237 OA
ATOM     95  O   UNL A   1      46.556  36.184  25.974  1.00  0.00    -0.744 OA
ENDBRANCH  88  92
ENDBRANCH  62  85
ENDBRANCH  36  37
ENDBRANCH  28  31
ENDBRANCH  26  27
ENDBRANCH  25  26
ENDBRANCH   1  25
TORSDOF 18
ENDMDL
MODEL 3
REMARK VINA RESULT:     -11.2      2.669      4.189
REMARK SMILES CO[C@H]1C[C@@H](C(=O)NCCCCNC(=O)c2ccc(-c3c4nc(c(-c5cc(S(=O)(=O)[O-])ccc5F)c5ccc([nH]5)c(-c5cc(S(=O)(=O)[O-])ccc5F)c5nc(c(-c6cc(S(=O)(=O)[O-])ccc6F)c6ccc3[nH]6)C=C5)C=C4)cc2)N(C(=O)c2cc(SC)ccc2C)C1
REMARK SMILES IDX 10 1 9 2 8 3 6 4 7 5 5 7 3 8 4 9 91 10 79 11 2 12 1 13 80 14
REMARK SMILES IDX 81 15 82 16 83 17 89 18 84 19 88 20 90 21 87 22 85 23 86 24
REMARK SMILES IDX 11 25 12 26 13 27 14 28 15 30 16 31 17 32 78 33 18 34 77 35
REMARK SMILES IDX 19 36 20 37 21 38 71 39 22 40 76 41 70 42 72 43 23 44 75 45
REMARK SMILES IDX 69 46 68 47 24 49 56 50 36 51 55 52 37 53 40 54 54 55 73 56
REMARK SMILES IDX 38 57 39 58 53 60 74 61 41 62 25 63 26 64 34 65 27 66 33 67
REMARK SMILES IDX 35 68 32 69 28 70 29 71 30 72 31 73 57 74 58 75 66 76 59 77
REMARK SMILES IDX 65 78 67 79 64 80 60 81 61 82 62 83 63 84 42 85 43 86 51 87
REMARK SMILES IDX 44 88 50 89 52 90 49 91 45 92 46 93 47 94 48 95
REMARK H PARENT 8 6 13 29 72 48 40 59
REMARK Flexibility Score: inf
ROOT
ATOM      1  C   UNL A   1      34.074  23.476  24.709  1.00  0.00     0.023 C 
ENDROOT
BRANCH   1   2
ATOM      2  C   UNL A   1      32.635  23.812  24.332  1.00  0.00     0.116 C 
BRANCH   2   3
ATOM      3  N   UNL A   1      31.860  24.336  25.440  1.00  0.00    -0.354 N 
ATOM      4  C   UNL A   1      31.520  25.594  25.815  1.00  0.00     0.242 C 
ATOM      5  O   UNL A   1      30.491  25.664  26.501  1.00  0.00    -0.273 OA
ATOM      6  H   UNL A   1      31.510  23.639  26.039  1.00  0.00     0.163 HD
BRANCH   4   7
ATOM      7  C   UNL A   1      32.298  26.898  25.499  1.00  0.00     0.177 C 
ATOM      8  C   UNL A   1      33.312  29.013  26.025  1.00  0.00     0.139 C 
ATOM      9  C   UNL A   1      32.734  27.762  26.677  1.00  0.00     0.069 C 
ATOM     10  C   UNL A   1      32.408  29.205  24.811  1.00  0.00     0.152 C 
ATOM     11  N   UNL A   1      31.743  27.928  24.582  1.00  0.00    -0.324 N 
BRANCH   8  12
ATOM     12  O   UNL A   1      33.255  30.093  26.952  1.00  0.00    -0.380 OA
ATOM     13  C   UNL A   1      32.136  30.942  26.730  1.00  0.00     0.195 C 
ENDBRANCH   8  12
BRANCH  11  14
ATOM     14  C   UNL A   1      31.078  27.796  23.371  1.00  0.00     0.254 C 
ATOM     15  O   UNL A   1      31.587  27.227  22.404  1.00  0.00    -0.269 OA
BRANCH  14  16
ATOM     16  C   UNL A   1      29.766  28.432  23.146  1.00  0.00     0.044 A 
ATOM     17  C   UNL A   1      29.778  29.798  22.817  1.00  0.00     0.029 A 
ATOM     18  C   UNL A   1      28.551  27.769  23.391  1.00  0.00    -0.038 A 
ATOM     19  C   UNL A   1      28.586  30.515  22.664  1.00  0.00     0.008 A 
ATOM     20  C   UNL A   1      27.359  28.486  23.201  1.00  0.00     0.005 A 
ATOM     21  C   UNL A   1      28.441  26.353  23.879  1.00  0.00     0.045 C 
ATOM     22  C   UNL A   1      27.378  29.837  22.833  1.00  0.00     0.015 A 
BRANCH  19  23
ATOM     23  S   UNL A   1      28.721  32.255  22.265  1.00  0.00    -0.130 SA
ATOM     24  C   UNL A   1      28.030  32.342  20.591  1.00  0.00     0.091 C 
ENDBRANCH  19  23
ENDBRANCH  14  16
ENDBRANCH  11  14
ENDBRANCH   4   7
ENDBRANCH   2   3
ENDBRANCH   1   2
BRANCH   1  25
ATOM     25  C   UNL A   1      34.319  23.233  26.202  1.00  0.00     0.023 C 
BRANCH  25  26
ATOM     26  C   UNL A   1      35.773  23.033  26.630  1.00  0.00     0.116 C 
BRANCH  26  27
ATOM     27  N   UNL A   1      36.390  21.832  26.087  1.00  0.00    -0.352 N 
ATOM     28  C   UNL A   1      37.717  21.586  25.809  1.00  0.00     0.251 C 
ATOM     29  H   UNL A   1      35.772  21.091  25.890  1.00  0.00     0.163 HD
ATOM     30  O   UNL A   1      38.047  20.525  25.297  1.00  0.00    -0.269 OA
BRANCH  28  31
ATOM     31  C   UNL A   1      38.726  22.634  26.081  1.00  0.00     0.039 A 
ATOM     32  C   UNL A   1      38.629  23.849  25.397  1.00  0.00     0.014 A 
ATOM     33  C   UNL A   1      39.722  22.442  27.042  1.00  0.00     0.014 A 
ATOM     34  C   UNL A   1      39.464  24.912  25.754  1.00  0.00     0.010 A 
ATOM     35  C   UNL A   1      40.518  23.519  27.430  1.00  0.00     0.010 A 
ATOM     36  C   UNL A   1      40.374  24.771  26.812  1.00  0.00    -0.014 A 
BRANCH  36  37
ATOM     37  C   UNL A   1      41.126  25.936  27.346  1.00  0.00     0.031 A 
ATOM     38  C   UNL A   1      40.411  27.025  28.094  1.00  0.00     0.074 A 
ATOM     39  C   UNL A   1      42.437  26.060  27.053  1.00  0.00     0.049 A 
ATOM     40  N   UNL A   1      40.869  28.177  28.511  1.00  0.00    -0.248 NA
ATOM     41  C   UNL A   1      38.988  26.799  28.388  1.00  0.00     0.031 C 
ATOM     42  C   UNL A   1      43.229  25.086  26.296  1.00  0.00     0.029 A 
ATOM     43  N   UNL A   1      43.330  27.066  27.328  1.00  0.00    -0.354 N 
ATOM     44  C   UNL A   1      39.790  28.824  29.100  1.00  0.00     0.074 A 
ATOM     45  C   UNL A   1      38.645  27.948  28.954  1.00  0.00     0.031 C 
ATOM     46  C   UNL A   1      44.483  25.545  26.163  1.00  0.00     0.029 A 
ATOM     47  C   UNL A   1      44.577  26.863  26.780  1.00  0.00     0.049 A 
ATOM     48  H   UNL A   1      43.101  27.858  27.866  1.00  0.00     0.167 HD
ATOM     49  C   UNL A   1      39.761  30.033  29.714  1.00  0.00     0.034 A 
ATOM     50  C   UNL A   1      45.663  27.661  26.746  1.00  0.00     0.034 A 
ATOM     51  C   UNL A   1      40.916  30.884  29.869  1.00  0.00     0.049 A 
ATOM     52  C   UNL A   1      45.595  29.013  27.410  1.00  0.00     0.074 A 
ATOM     53  C   UNL A   1      41.020  32.074  30.569  1.00  0.00     0.029 A 
ATOM     54  N   UNL A   1      42.160  30.647  29.301  1.00  0.00    -0.354 N 
ATOM     55  N   UNL A   1      44.585  29.574  28.032  1.00  0.00    -0.248 NA
ATOM     56  C   UNL A   1      46.811  29.837  27.365  1.00  0.00     0.031 C 
ATOM     57  C   UNL A   1      42.305  32.590  30.367  1.00  0.00     0.029 A 
ATOM     58  C   UNL A   1      43.023  31.692  29.593  1.00  0.00     0.049 A 
ATOM     59  H   UNL A   1      42.396  29.853  28.768  1.00  0.00     0.167 HD
ATOM     60  C   UNL A   1      45.051  30.811  28.466  1.00  0.00     0.074 A 
ATOM     61  C   UNL A   1      46.435  30.906  28.052  1.00  0.00     0.031 C 
ATOM     62  C   UNL A   1      44.394  31.783  29.150  1.00  0.00     0.034 A 
BRANCH  49  63
ATOM     63  C   UNL A   1      38.435  30.520  30.239  1.00  0.00     0.023 A 
ATOM     64  C   UNL A   1      37.556  31.275  29.443  1.00  0.00     0.031 A 
ATOM     65  C   UNL A   1      38.043  30.221  31.556  1.00  0.00     0.131 A 
ATOM     66  C   UNL A   1      36.355  31.753  29.990  1.00  0.00     0.055 A 
ATOM     67  C   UNL A   1      36.817  30.643  32.072  1.00  0.00     0.041 A 
ATOM     68  F   UNL A   1      38.851  29.519  32.366  1.00  0.00    -0.206 F 
ATOM     69  C   UNL A   1      35.969  31.423  31.291  1.00  0.00     0.022 A 
BRANCH  66  70
ATOM     70  S   UNL A   1      35.354  32.905  29.010  1.00  0.00     0.124 S 
ATOM     71  O   UNL A   1      34.029  32.714  29.595  1.00  0.00    -0.237 OA
ATOM     72  O   UNL A   1      35.992  34.188  29.280  1.00  0.00    -0.237 OA
ATOM     73  O   UNL A   1      35.501  32.410  27.643  1.00  0.00    -0.744 OA
ENDBRANCH  66  70
ENDBRANCH  49  63
BRANCH  50  74
ATOM     74  C   UNL A   1      46.893  27.235  26.019  1.00  0.00     0.023 A 
ATOM     75  C   UNL A   1      47.136  27.649  24.702  1.00  0.00     0.031 A 
ATOM     76  C   UNL A   1      47.820  26.363  26.619  1.00  0.00     0.131 A 
ATOM     77  C   UNL A   1      48.253  27.157  24.008  1.00  0.00     0.055 A 
ATOM     78  C   UNL A   1      48.957  25.916  25.944  1.00  0.00     0.041 A 
ATOM     79  F   UNL A   1      47.637  25.940  27.880  1.00  0.00    -0.206 F 
ATOM     80  C   UNL A   1      49.171  26.303  24.625  1.00  0.00     0.022 A 
BRANCH  77  81
ATOM     81  S   UNL A   1      48.444  27.581  22.256  1.00  0.00     0.124 S 
ATOM     82  O   UNL A   1      49.603  28.464  22.288  1.00  0.00    -0.237 OA
ATOM     83  O   UNL A   1      48.651  26.270  21.649  1.00  0.00    -0.237 OA
ATOM     84  O   UNL A   1      47.176  28.226  21.922  1.00  0.00    -0.744 OA
ENDBRANCH  77  81
ENDBRANCH  50  74
BRANCH  62  85
ATOM     85  C   UNL A   1      45.179  33.020  29.500  1.00  0.00     0.023 A 
ATOM     86  C   UNL A   1      45.262  34.110  28.616  1.00  0.00     0.031 A 
ATOM     87  C   UNL A   1      45.855  33.108  30.730  1.00  0.00     0.131 A 
ATOM     88  C   UNL A   1      46.039  35.226  28.957  1.00  0.00     0.055 A 
ATOM     89  C   UNL A   1      46.585  34.243  31.084  1.00  0.00     0.041 A 
ATOM     90  F   UNL A   1      45.809  32.093  31.607  1.00  0.00    -0.206 F 
ATOM     91  C   UNL A   1      46.688  35.306  30.192  1.00  0.00     0.022 A 
BRANCH  88  92
ATOM     92  S   UNL A   1      46.242  36.553  27.736  1.00  0.00     0.124 S 
ATOM     93  O   UNL A   1      46.559  35.802  26.525  1.00  0.00    -0.237 OA
ATOM     94  O   UNL A   1      44.937  37.204  27.760  1.00  0.00    -0.237 OA
ATOM     95  O   UNL A   1      47.342  37.350  28.277  1.00  0.00    -0.744 OA
ENDBRANCH  88  92
ENDBRANCH  62  85
ENDBRANCH  36  37
ENDBRANCH  28  31
ENDBRANCH  26  27
ENDBRANCH  25  26
ENDBRANCH   1  25
TORSDOF 18
ENDMDL
