MODEL 1
REMARK VINA RESULT:     -11.7      0.000      0.000
REMARK SMILES CCN(CC)c1ccc([C@@H]2c3[nH]c4ccccc4c3C[C@@H](C(=O)NCCCCNC(=O)c3ccc(-c4c5nc(c(-c6cc(S(=O)(=O)[O-])ccc6F)c6ccc([nH]6)c(-c6cc(S(=O)(=O)[O-])ccc6F)c6nc(c(-c7cc(S(=O)(=O)[O-])ccc7F)c7ccc4[nH]7)C=C6)C=C5)cc3)N2C(C)=O)cc1
REMARK SMILES IDX 26 1 25 2 24 3 22 4 23 5 21 7 10 8 11 9 95 10 12 11 19 12
REMARK SMILES IDX 13 13 18 15 20 16 14 17 17 18 15 19 16 20 9 21 6 22 7 23
REMARK SMILES IDX 100 24 8 25 99 26 3 27 2 28 1 29 4 30 5 31 96 32 97 33 98 34
REMARK SMILES IDX 27 35 28 36 29 37 30 38 31 40 32 41 33 42 94 43 34 44 93 45
REMARK SMILES IDX 35 46 36 47 37 48 87 49 38 50 92 51 86 52 88 53 39 54 91 55
REMARK SMILES IDX 85 56 84 57 40 59 72 60 52 61 71 62 53 63 56 64 70 65 89 66
REMARK SMILES IDX 54 67 55 68 69 70 90 71 57 72 41 73 42 74 50 75 43 76 49 77
REMARK SMILES IDX 51 78 48 79 44 80 45 81 46 82 47 83 73 84 74 85 82 86 75 87
REMARK SMILES IDX 81 88 83 89 80 90 76 91 77 92 78 93 79 94 58 95 59 96 67 97
REMARK SMILES IDX 60 98 66 99 68 100 65 101 61 102 62 103 63 104 64 105
REMARK H PARENT 24 6 12 14 29 39 88 58 56 69
REMARK Flexibility Score: inf
ROOT
ATOM      1  C   UNL A   1      35.882  30.961  27.778  1.00  0.00     0.023 C 
ENDROOT
BRANCH   1   2
ATOM      2  C   UNL A   1      35.717  29.441  27.847  1.00  0.00     0.116 C 
BRANCH   2   3
ATOM      3  N   UNL A   1      34.320  28.997  27.936  1.00  0.00    -0.354 N 
ATOM      4  C   UNL A   1      33.326  28.620  27.088  1.00  0.00     0.243 C 
ATOM      5  O   UNL A   1      32.285  28.252  27.657  1.00  0.00    -0.273 OA
ATOM      6  H   UNL A   1      34.018  28.963  28.872  1.00  0.00     0.163 HD
BRANCH   4   7
ATOM      7  C   UNL A   1      33.296  28.748  25.530  1.00  0.00     0.179 C 
ATOM      8  C   UNL A   1      32.111  26.613  25.224  1.00  0.00     0.163 C 
ATOM      9  C   UNL A   1      30.984  27.442  24.641  1.00  0.00     0.047 A 
ATOM     10  N   UNL A   1      33.292  27.402  24.855  1.00  0.00    -0.318 N 
ATOM     11  N   UNL A   1      29.730  27.039  24.278  1.00  0.00    -0.356 N 
ATOM     12  C   UNL A   1      31.032  28.827  24.483  1.00  0.00    -0.014 A 
ATOM     13  C   UNL A   1      29.071  28.079  23.659  1.00  0.00     0.046 A 
ATOM     14  H   UNL A   1      29.353  26.143  24.436  1.00  0.00     0.166 HD
ATOM     15  C   UNL A   1      29.865  29.220  23.788  1.00  0.00     0.003 A 
ATOM     16  C   UNL A   1      32.209  29.649  24.914  1.00  0.00     0.073 C 
ATOM     17  C   UNL A   1      27.838  28.096  23.005  1.00  0.00     0.026 A 
ATOM     18  C   UNL A   1      29.415  30.436  23.246  1.00  0.00     0.010 A 
ATOM     19  C   UNL A   1      27.426  29.307  22.441  1.00  0.00     0.002 A 
ATOM     20  C   UNL A   1      28.199  30.460  22.558  1.00  0.00     0.001 A 
BRANCH   8  21
ATOM     21  C   UNL A   1      32.150  25.107  25.088  1.00  0.00    -0.019 A 
ATOM     22  C   UNL A   1      32.525  22.351  24.387  1.00  0.00     0.037 A 
ATOM     23  C   UNL A   1      33.128  22.923  25.513  1.00  0.00     0.026 A 
ATOM     24  C   UNL A   1      31.602  23.164  23.719  1.00  0.00     0.026 A 
ATOM     25  C   UNL A   1      32.940  24.265  25.868  1.00  0.00     0.008 A 
ATOM     26  C   UNL A   1      31.415  24.511  24.054  1.00  0.00     0.008 A 
BRANCH  22  27
ATOM     27  N   UNL A   1      32.828  21.069  23.947  1.00  0.00    -0.372 N 
BRANCH  27  28
ATOM     28  C   UNL A   1      33.517  20.137  24.858  1.00  0.00     0.113 C 
ATOM     29  C   UNL A   1      35.025  20.331  24.864  1.00  0.00     0.027 C 
ENDBRANCH  27  28
BRANCH  27  30
ATOM     30  C   UNL A   1      32.173  20.476  22.775  1.00  0.00     0.113 C 
ATOM     31  C   UNL A   1      32.216  18.950  22.780  1.00  0.00     0.027 C 
ENDBRANCH  27  30
ENDBRANCH  22  27
ENDBRANCH   8  21
BRANCH  10  32
ATOM     32  C   UNL A   1      33.827  27.161  23.590  1.00  0.00     0.220 C 
ATOM     33  C   UNL A   1      34.264  28.318  22.725  1.00  0.00     0.114 C 
ATOM     34  O   UNL A   1      33.894  26.037  23.085  1.00  0.00    -0.275 OA
ENDBRANCH  10  32
ENDBRANCH   4   7
ENDBRANCH   2   3
ENDBRANCH   1   2
BRANCH   1  35
ATOM     35  C   UNL A   1      34.613  31.795  27.695  1.00  0.00     0.023 C 
BRANCH  35  36
ATOM     36  C   UNL A   1      34.804  33.297  27.860  1.00  0.00     0.116 C 
BRANCH  36  37
ATOM     37  N   UNL A   1      33.736  33.987  28.580  1.00  0.00    -0.352 N 
ATOM     38  C   UNL A   1      33.663  34.331  29.922  1.00  0.00     0.251 C 
ATOM     39  H   UNL A   1      32.958  34.246  28.036  1.00  0.00     0.163 HD
ATOM     40  O   UNL A   1      32.675  34.895  30.368  1.00  0.00    -0.269 OA
BRANCH  38  41
ATOM     41  C   UNL A   1      34.767  33.937  30.834  1.00  0.00     0.039 A 
ATOM     42  C   UNL A   1      34.757  32.663  31.412  1.00  0.00     0.014 A 
ATOM     43  C   UNL A   1      35.866  34.774  31.019  1.00  0.00     0.014 A 
ATOM     44  C   UNL A   1      35.914  32.171  32.028  1.00  0.00     0.010 A 
ATOM     45  C   UNL A   1      37.047  34.242  31.522  1.00  0.00     0.010 A 
ATOM     46  C   UNL A   1      37.099  32.921  32.003  1.00  0.00    -0.014 A 
BRANCH  46  47
ATOM     47  C   UNL A   1      38.422  32.374  32.428  1.00  0.00     0.031 A 
ATOM     48  C   UNL A   1      39.086  31.318  31.586  1.00  0.00     0.074 A 
ATOM     49  C   UNL A   1      38.943  32.694  33.632  1.00  0.00     0.049 A 
ATOM     50  N   UNL A   1      40.040  30.480  31.898  1.00  0.00    -0.248 NA
ATOM     51  C   UNL A   1      38.549  31.142  30.228  1.00  0.00     0.031 C 
ATOM     52  C   UNL A   1      38.392  33.676  34.569  1.00  0.00     0.029 A 
ATOM     53  N   UNL A   1      40.046  32.201  34.290  1.00  0.00    -0.354 N 
ATOM     54  C   UNL A   1      40.172  29.635  30.801  1.00  0.00     0.074 A 
ATOM     55  C   UNL A   1      39.164  30.036  29.842  1.00  0.00     0.031 C 
ATOM     56  C   UNL A   1      39.165  33.724  35.666  1.00  0.00     0.029 A 
ATOM     57  C   UNL A   1      40.227  32.731  35.548  1.00  0.00     0.049 A 
ATOM     58  H   UNL A   1      40.650  31.529  33.898  1.00  0.00     0.167 HD
ATOM     59  C   UNL A   1      41.061  28.629  30.605  1.00  0.00     0.034 A 
ATOM     60  C   UNL A   1      41.124  32.433  36.511  1.00  0.00     0.034 A 
ATOM     61  C   UNL A   1      42.100  28.287  31.544  1.00  0.00     0.049 A 
ATOM     62  C   UNL A   1      42.126  31.333  36.261  1.00  0.00     0.074 A 
ATOM     63  C   UNL A   1      43.097  27.334  31.420  1.00  0.00     0.029 A 
ATOM     64  N   UNL A   1      42.288  28.899  32.776  1.00  0.00    -0.354 N 
ATOM     65  N   UNL A   1      42.240  30.543  35.218  1.00  0.00    -0.248 NA
ATOM     66  C   UNL A   1      43.119  31.082  37.316  1.00  0.00     0.031 C 
ATOM     67  C   UNL A   1      43.859  27.340  32.594  1.00  0.00     0.029 A 
ATOM     68  C   UNL A   1      43.378  28.339  33.424  1.00  0.00     0.049 A 
ATOM     69  H   UNL A   1      41.729  29.625  33.137  1.00  0.00     0.167 HD
ATOM     70  C   UNL A   1      43.342  29.732  35.477  1.00  0.00     0.074 A 
ATOM     71  C   UNL A   1      43.855  30.123  36.773  1.00  0.00     0.031 C 
ATOM     72  C   UNL A   1      43.885  28.757  34.707  1.00  0.00     0.034 A 
BRANCH  59  73
ATOM     73  C   UNL A   1      40.926  27.822  29.335  1.00  0.00     0.023 A 
ATOM     74  C   UNL A   1      41.817  27.984  28.262  1.00  0.00     0.031 A 
ATOM     75  C   UNL A   1      39.861  26.918  29.175  1.00  0.00     0.131 A 
ATOM     76  C   UNL A   1      41.567  27.338  27.042  1.00  0.00     0.055 A 
ATOM     77  C   UNL A   1      39.676  26.201  27.990  1.00  0.00     0.041 A 
ATOM     78  F   UNL A   1      38.967  26.730  30.159  1.00  0.00    -0.206 F 
ATOM     79  C   UNL A   1      40.520  26.426  26.907  1.00  0.00     0.022 A 
BRANCH  76  80
ATOM     80  S   UNL A   1      42.529  27.845  25.591  1.00  0.00     0.124 S 
ATOM     81  O   UNL A   1      41.825  29.058  25.183  1.00  0.00    -0.237 OA
ATOM     82  O   UNL A   1      43.863  28.038  26.147  1.00  0.00    -0.237 OA
ATOM     83  O   UNL A   1      42.391  26.714  24.675  1.00  0.00    -0.744 OA
ENDBRANCH  76  80
ENDBRANCH  59  73
BRANCH  60  84
ATOM     84  C   UNL A   1      41.116  33.165  37.810  1.00  0.00     0.023 A 
ATOM     85  C   UNL A   1      40.282  32.752  38.862  1.00  0.00     0.031 A 
ATOM     86  C   UNL A   1      41.905  34.312  38.007  1.00  0.00     0.131 A 
ATOM     87  C   UNL A   1      40.221  33.503  40.045  1.00  0.00     0.055 A 
ATOM     88  C   UNL A   1      41.878  35.028  39.205  1.00  0.00     0.041 A 
ATOM     89  F   UNL A   1      42.725  34.747  37.037  1.00  0.00    -0.206 F 
ATOM     90  C   UNL A   1      41.022  34.633  40.229  1.00  0.00     0.022 A 
BRANCH  87  91
ATOM     91  S   UNL A   1      39.013  33.029  41.313  1.00  0.00     0.124 S 
ATOM     92  O   UNL A   1      39.661  33.500  42.530  1.00  0.00    -0.237 OA
ATOM     93  O   UNL A   1      37.827  33.766  40.890  1.00  0.00    -0.237 OA
ATOM     94  O   UNL A   1      38.924  31.578  41.172  1.00  0.00    -0.744 OA
ENDBRANCH  87  91
ENDBRANCH  60  84
BRANCH  72  95
ATOM     95  C   UNL A   1      45.146  28.101  35.207  1.00  0.00     0.023 A 
ATOM     96  C   UNL A   1      45.123  26.914  35.956  1.00  0.00     0.031 A 
ATOM     97  C   UNL A   1      46.395  28.666  34.890  1.00  0.00     0.131 A 
ATOM     98  C   UNL A   1      46.329  26.341  36.388  1.00  0.00     0.055 A 
ATOM     99  C   UNL A   1      47.591  28.070  35.285  1.00  0.00     0.041 A 
ATOM    100  F   UNL A   1      46.468  29.801  34.175  1.00  0.00    -0.206 F 
ATOM    101  C   UNL A   1      47.563  26.903  36.043  1.00  0.00     0.022 A 
BRANCH  98 102
ATOM    102  S   UNL A   1      46.270  24.863  37.437  1.00  0.00     0.124 S 
ATOM    103  O   UNL A   1      46.220  23.791  36.449  1.00  0.00    -0.237 OA
ATOM    104  O   UNL A   1      47.509  24.969  38.201  1.00  0.00    -0.237 OA
ATOM    105  O   UNL A   1      45.047  25.045  38.217  1.00  0.00    -0.744 OA
ENDBRANCH  98 102
ENDBRANCH  72  95
ENDBRANCH  46  47
ENDBRANCH  38  41
ENDBRANCH  36  37
ENDBRANCH  35  36
ENDBRANCH   1  35
TORSDOF 19
ENDMDL
MODEL 2
REMARK VINA RESULT:     -11.6      6.097     10.849
REMARK SMILES CCN(CC)c1ccc([C@@H]2c3[nH]c4ccccc4c3C[C@@H](C(=O)NCCCCNC(=O)c3ccc(-c4c5nc(c(-c6cc(S(=O)(=O)[O-])ccc6F)c6ccc([nH]6)c(-c6cc(S(=O)(=O)[O-])ccc6F)c6nc(c(-c7cc(S(=O)(=O)[O-])ccc7F)c7ccc4[nH]7)C=C6)C=C5)cc3)N2C(C)=O)cc1
REMARK SMILES IDX 26 1 25 2 24 3 22 4 23 5 21 7 10 8 11 9 95 10 12 11 19 12
REMARK SMILES IDX 13 13 18 15 20 16 14 17 17 18 15 19 16 20 9 21 6 22 7 23
REMARK SMILES IDX 100 24 8 25 99 26 3 27 2 28 1 29 4 30 5 31 96 32 97 33 98 34
REMARK SMILES IDX 27 35 28 36 29 37 30 38 31 40 32 41 33 42 94 43 34 44 93 45
REMARK SMILES IDX 35 46 36 47 37 48 87 49 38 50 92 51 86 52 88 53 39 54 91 55
REMARK SMILES IDX 85 56 84 57 40 59 72 60 52 61 71 62 53 63 56 64 70 65 89 66
REMARK SMILES IDX 54 67 55 68 69 70 90 71 57 72 41 73 42 74 50 75 43 76 49 77
REMARK SMILES IDX 51 78 48 79 44 80 45 81 46 82 47 83 73 84 74 85 82 86 75 87
REMARK SMILES IDX 81 88 83 89 80 90 76 91 77 92 78 93 79 94 58 95 59 96 67 97
REMARK SMILES IDX 60 98 66 99 68 100 65 101 61 102 62 103 63 104 64 105
REMARK H PARENT 24 6 12 14 29 39 88 58 56 69
REMARK Flexibility Score: inf
ROOT
ATOM      1  C   UNL A   1      39.880  21.622  25.903  1.00  0.00     0.023 C 
ENDROOT
BRANCH   1   2
ATOM      2  C   UNL A   1      38.413  21.538  25.475  1.00  0.00     0.116 C 
BRANCH   2   3
ATOM      3  N   UNL A   1      37.745  22.842  25.380  1.00  0.00    -0.354 N 
ATOM      4  C   UNL A   1      36.580  23.411  25.792  1.00  0.00     0.243 C 
ATOM      5  O   UNL A   1      36.477  24.618  25.515  1.00  0.00    -0.273 OA
ATOM      6  H   UNL A   1      38.293  23.486  24.877  1.00  0.00     0.163 HD
BRANCH   4   7
ATOM      7  C   UNL A   1      35.332  22.699  26.409  1.00  0.00     0.179 C 
ATOM      8  C   UNL A   1      33.807  23.516  24.659  1.00  0.00     0.163 C 
ATOM      9  C   UNL A   1      33.617  22.059  24.291  1.00  0.00     0.047 A 
ATOM     10  N   UNL A   1      34.055  23.435  26.103  1.00  0.00    -0.318 N 
ATOM     11  N   UNL A   1      32.948  21.530  23.223  1.00  0.00    -0.356 N 
ATOM     12  C   UNL A   1      34.219  20.996  24.965  1.00  0.00    -0.014 A 
ATOM     13  C   UNL A   1      32.894  20.158  23.344  1.00  0.00     0.046 A 
ATOM     14  H   UNL A   1      32.563  22.049  22.480  1.00  0.00     0.166 HD
ATOM     15  C   UNL A   1      33.700  19.796  24.425  1.00  0.00     0.003 A 
ATOM     16  C   UNL A   1      35.157  21.197  26.117  1.00  0.00     0.073 C 
ATOM     17  C   UNL A   1      32.204  19.217  22.577  1.00  0.00     0.026 A 
ATOM     18  C   UNL A   1      33.829  18.438  24.762  1.00  0.00     0.010 A 
ATOM     19  C   UNL A   1      32.317  17.875  22.952  1.00  0.00     0.002 A 
ATOM     20  C   UNL A   1      33.115  17.488  24.026  1.00  0.00     0.001 A 
BRANCH   8  21
ATOM     21  C   UNL A   1      32.905  24.603  24.118  1.00  0.00    -0.019 A 
ATOM     22  C   UNL A   1      30.901  26.572  23.543  1.00  0.00     0.037 A 
ATOM     23  C   UNL A   1      32.212  26.921  23.887  1.00  0.00     0.026 A 
ATOM     24  C   UNL A   1      30.673  25.206  23.340  1.00  0.00     0.026 A 
ATOM     25  C   UNL A   1      33.198  25.964  24.158  1.00  0.00     0.008 A 
ATOM     26  C   UNL A   1      31.647  24.239  23.621  1.00  0.00     0.008 A 
BRANCH  22  27
ATOM     27  N   UNL A   1      29.885  27.512  23.424  1.00  0.00    -0.372 N 
BRANCH  27  28
ATOM     28  C   UNL A   1      28.488  27.096  23.637  1.00  0.00     0.113 C 
ATOM     29  C   UNL A   1      27.497  28.227  23.407  1.00  0.00     0.027 C 
ENDBRANCH  27  28
BRANCH  27  30
ATOM     30  C   UNL A   1      30.154  28.955  23.471  1.00  0.00     0.113 C 
ATOM     31  C   UNL A   1      30.380  29.562  22.088  1.00  0.00     0.027 C 
ENDBRANCH  27  30
ENDBRANCH  22  27
ENDBRANCH   8  21
BRANCH  10  32
ATOM     32  C   UNL A   1      32.928  23.420  26.924  1.00  0.00     0.220 C 
ATOM     33  C   UNL A   1      32.723  22.285  27.898  1.00  0.00     0.114 C 
ATOM     34  O   UNL A   1      32.022  24.254  26.849  1.00  0.00    -0.275 OA
ENDBRANCH  10  32
ENDBRANCH   4   7
ENDBRANCH   2   3
ENDBRANCH   1   2
BRANCH   1  35
ATOM     35  C   UNL A   1      40.532  20.344  26.408  1.00  0.00     0.023 C 
BRANCH  35  36
ATOM     36  C   UNL A   1      42.042  20.409  26.596  1.00  0.00     0.116 C 
BRANCH  36  37
ATOM     37  N   UNL A   1      42.814  19.480  25.772  1.00  0.00    -0.352 N 
ATOM     38  C   UNL A   1      43.983  19.704  25.060  1.00  0.00     0.251 C 
ATOM     39  H   UNL A   1      42.454  18.566  25.716  1.00  0.00     0.163 HD
ATOM     40  O   UNL A   1      44.491  18.809  24.400  1.00  0.00    -0.269 OA
BRANCH  38  41
ATOM     41  C   UNL A   1      44.574  21.066  25.042  1.00  0.00     0.039 A 
ATOM     42  C   UNL A   1      44.197  21.963  24.038  1.00  0.00     0.014 A 
ATOM     43  C   UNL A   1      45.400  21.493  26.080  1.00  0.00     0.014 A 
ATOM     44  C   UNL A   1      44.508  23.322  24.169  1.00  0.00     0.010 A 
ATOM     45  C   UNL A   1      45.604  22.855  26.268  1.00  0.00     0.010 A 
ATOM     46  C   UNL A   1      45.131  23.794  25.333  1.00  0.00    -0.014 A 
BRANCH  46  47
ATOM     47  C   UNL A   1      45.287  25.245  25.648  1.00  0.00     0.031 A 
ATOM     48  C   UNL A   1      46.646  25.882  25.530  1.00  0.00     0.074 A 
ATOM     49  C   UNL A   1      44.267  25.944  26.191  1.00  0.00     0.049 A 
ATOM     50  N   UNL A   1      47.091  26.999  26.041  1.00  0.00    -0.248 NA
ATOM     51  C   UNL A   1      47.656  25.113  24.788  1.00  0.00     0.031 C 
ATOM     52  C   UNL A   1      42.904  25.447  26.397  1.00  0.00     0.029 A 
ATOM     53  N   UNL A   1      44.227  27.222  26.699  1.00  0.00    -0.354 N 
ATOM     54  C   UNL A   1      48.448  27.037  25.740  1.00  0.00     0.074 A 
ATOM     55  C   UNL A   1      48.756  25.803  25.046  1.00  0.00     0.031 C 
ATOM     56  C   UNL A   1      42.163  26.410  26.969  1.00  0.00     0.029 A 
ATOM     57  C   UNL A   1      43.007  27.570  27.236  1.00  0.00     0.049 A 
ATOM     58  H   UNL A   1      45.000  27.831  26.682  1.00  0.00     0.167 HD
ATOM     59  C   UNL A   1      49.352  28.014  26.004  1.00  0.00     0.034 A 
ATOM     60  C   UNL A   1      42.619  28.680  27.897  1.00  0.00     0.034 A 
ATOM     61  C   UNL A   1      49.013  29.264  26.638  1.00  0.00     0.049 A 
ATOM     62  C   UNL A   1      43.629  29.771  28.151  1.00  0.00     0.074 A 
ATOM     63  C   UNL A   1      49.829  30.353  26.893  1.00  0.00     0.029 A 
ATOM     64  N   UNL A   1      47.748  29.601  27.102  1.00  0.00    -0.354 N 
ATOM     65  N   UNL A   1      44.909  29.793  27.859  1.00  0.00    -0.248 NA
ATOM     66  C   UNL A   1      43.145  30.986  28.825  1.00  0.00     0.031 C 
ATOM     67  C   UNL A   1      49.071  31.327  27.550  1.00  0.00     0.029 A 
ATOM     68  C   UNL A   1      47.765  30.874  27.648  1.00  0.00     0.049 A 
ATOM     69  H   UNL A   1      46.955  29.019  27.052  1.00  0.00     0.167 HD
ATOM     70  C   UNL A   1      45.371  31.039  28.277  1.00  0.00     0.074 A 
ATOM     71  C   UNL A   1      44.237  31.737  28.844  1.00  0.00     0.031 C 
ATOM     72  C   UNL A   1      46.619  31.561  28.191  1.00  0.00     0.034 A 
BRANCH  59  73
ATOM     73  C   UNL A   1      50.789  27.753  25.621  1.00  0.00     0.023 A 
ATOM     74  C   UNL A   1      51.238  27.901  24.300  1.00  0.00     0.031 A 
ATOM     75  C   UNL A   1      51.710  27.297  26.581  1.00  0.00     0.131 A 
ATOM     76  C   UNL A   1      52.535  27.496  23.951  1.00  0.00     0.055 A 
ATOM     77  C   UNL A   1      53.031  26.990  26.246  1.00  0.00     0.041 A 
ATOM     78  F   UNL A   1      51.338  27.119  27.859  1.00  0.00    -0.206 F 
ATOM     79  C   UNL A   1      53.444  27.067  24.920  1.00  0.00     0.022 A 
BRANCH  76  80
ATOM     80  S   UNL A   1      52.951  27.373  22.190  1.00  0.00     0.124 S 
ATOM     81  O   UNL A   1      53.268  28.762  21.868  1.00  0.00    -0.237 OA
ATOM     82  O   UNL A   1      54.076  26.446  22.194  1.00  0.00    -0.237 OA
ATOM     83  O   UNL A   1      51.723  26.863  21.583  1.00  0.00    -0.744 OA
ENDBRANCH  76  80
ENDBRANCH  59  73
BRANCH  60  84
ATOM     84  C   UNL A   1      41.217  28.822  28.385  1.00  0.00     0.023 A 
ATOM     85  C   UNL A   1      40.918  28.707  29.752  1.00  0.00     0.031 A 
ATOM     86  C   UNL A   1      40.150  29.030  27.493  1.00  0.00     0.131 A 
ATOM     87  C   UNL A   1      39.584  28.754  30.185  1.00  0.00     0.055 A 
ATOM     88  C   UNL A   1      38.829  29.127  27.934  1.00  0.00     0.041 A 
ATOM     89  F   UNL A   1      40.380  29.154  26.176  1.00  0.00    -0.206 F 
ATOM     90  C   UNL A   1      38.537  28.975  29.286  1.00  0.00     0.022 A 
BRANCH  87  91
ATOM     91  S   UNL A   1      39.227  28.438  31.936  1.00  0.00     0.124 S 
ATOM     92  O   UNL A   1      38.466  29.626  32.301  1.00  0.00    -0.237 OA
ATOM     93  O   UNL A   1      38.477  27.189  31.870  1.00  0.00    -0.237 OA
ATOM     94  O   UNL A   1      40.554  28.335  32.540  1.00  0.00    -0.744 OA
ENDBRANCH  87  91
ENDBRANCH  60  84
BRANCH  72  95
ATOM     95  C   UNL A   1      46.808  32.984  28.645  1.00  0.00     0.023 A 
ATOM     96  C   UNL A   1      46.521  34.077  27.812  1.00  0.00     0.031 A 
ATOM     97  C   UNL A   1      47.253  33.242  29.956  1.00  0.00     0.131 A 
ATOM     98  C   UNL A   1      46.707  35.383  28.291  1.00  0.00     0.055 A 
ATOM     99  C   UNL A   1      47.394  34.541  30.439  1.00  0.00     0.041 A 
ATOM    100  F   UNL A   1      47.539  32.229  30.790  1.00  0.00    -0.206 F 
ATOM    101  C   UNL A   1      47.126  35.622  29.604  1.00  0.00     0.022 A 
BRANCH  98 102
ATOM    102  S   UNL A   1      46.424  36.777  27.165  1.00  0.00     0.124 S 
ATOM    103  O   UNL A   1      47.407  36.523  26.116  1.00  0.00    -0.237 OA
ATOM    104  O   UNL A   1      45.027  36.597  26.786  1.00  0.00    -0.237 OA
ATOM    105  O   UNL A   1      46.693  37.949  27.995  1.00  0.00    -0.744 OA
ENDBRANCH  98 102
ENDBRANCH  72  95
ENDBRANCH  46  47
ENDBRANCH  38  41
ENDBRANCH  36  37
ENDBRANCH  35  36
ENDBRANCH   1  35
TORSDOF 19
ENDMDL
MODEL 3
REMARK VINA RESULT:     -11.4      5.638     11.300
REMARK SMILES CCN(CC)c1ccc([C@@H]2c3[nH]c4ccccc4c3C[C@@H](C(=O)NCCCCNC(=O)c3ccc(-c4c5nc(c(-c6cc(S(=O)(=O)[O-])ccc6F)c6ccc([nH]6)c(-c6cc(S(=O)(=O)[O-])ccc6F)c6nc(c(-c7cc(S(=O)(=O)[O-])ccc7F)c7ccc4[nH]7)C=C6)C=C5)cc3)N2C(C)=O)cc1
REMARK SMILES IDX 26 1 25 2 24 3 22 4 23 5 21 7 10 8 11 9 95 10 12 11 19 12
REMARK SMILES IDX 13 13 18 15 20 16 14 17 17 18 15 19 16 20 9 21 6 22 7 23
REMARK SMILES IDX 100 24 8 25 99 26 3 27 2 28 1 29 4 30 5 31 96 32 97 33 98 34
REMARK SMILES IDX 27 35 28 36 29 37 30 38 31 40 32 41 33 42 94 43 34 44 93 45
REMARK SMILES IDX 35 46 36 47 37 48 87 49 38 50 92 51 86 52 88 53 39 54 91 55
REMARK SMILES IDX 85 56 84 57 40 59 72 60 52 61 71 62 53 63 56 64 70 65 89 66
REMARK SMILES IDX 54 67 55 68 69 70 90 71 57 72 41 73 42 74 50 75 43 76 49 77
REMARK SMILES IDX 51 78 48 79 44 80 45 81 46 82 47 83 73 84 74 85 82 86 75 87
REMARK SMILES IDX 81 88 83 89 80 90 76 91 77 92 78 93 79 94 58 95 59 96 67 97
REMARK SMILES IDX 60 98 66 99 68 100 65 101 61 102 62 103 63 104 64 105
REMARK H PARENT 24 6 12 14 29 39 88 58 56 69
REMARK Flexibility Score: inf
ROOT
ATOM      1  C   UNL A   1      38.470  21.134  25.423  1.00  0.00     0.023 C 
ENDROOT
BRANCH   1   2
ATOM      2  C   UNL A   1      37.517  21.873  24.482  1.00  0.00     0.116 C 
BRANCH   2   3
ATOM      3  N   UNL A   1      37.054  23.167  25.000  1.00  0.00    -0.354 N 
ATOM      4  C   UNL A   1      36.078  23.632  25.825  1.00  0.00     0.243 C 
ATOM      5  O   UNL A   1      36.120  24.858  26.023  1.00  0.00    -0.273 OA
ATOM      6  H   UNL A   1      37.604  23.906  24.652  1.00  0.00     0.163 HD
BRANCH   4   7
ATOM      7  C   UNL A   1      34.857  22.845  26.402  1.00  0.00     0.179 C 
ATOM      8  C   UNL A   1      33.332  23.606  24.627  1.00  0.00     0.163 C 
ATOM      9  C   UNL A   1      33.229  22.146  24.234  1.00  0.00     0.047 A 
ATOM     10  N   UNL A   1      33.550  23.517  26.075  1.00  0.00    -0.318 N 
ATOM     11  N   UNL A   1      32.614  21.599  23.143  1.00  0.00    -0.356 N 
ATOM     12  C   UNL A   1      33.871  21.107  24.908  1.00  0.00    -0.014 A 
ATOM     13  C   UNL A   1      32.632  20.224  23.244  1.00  0.00     0.046 A 
ATOM     14  H   UNL A   1      32.220  22.107  22.398  1.00  0.00     0.166 HD
ATOM     15  C   UNL A   1      33.430  19.890  24.339  1.00  0.00     0.003 A 
ATOM     16  C   UNL A   1      34.769  21.340  26.085  1.00  0.00     0.073 C 
ATOM     17  C   UNL A   1      32.012  19.260  22.447  1.00  0.00     0.026 A 
ATOM     18  C   UNL A   1      33.624  18.536  24.660  1.00  0.00     0.010 A 
ATOM     19  C   UNL A   1      32.187  17.920  22.806  1.00  0.00     0.002 A 
ATOM     20  C   UNL A   1      32.981  17.560  23.894  1.00  0.00     0.001 A 
BRANCH   8  21
ATOM     21  C   UNL A   1      32.385  24.651  24.079  1.00  0.00    -0.019 A 
ATOM     22  C   UNL A   1      30.322  26.560  23.510  1.00  0.00     0.037 A 
ATOM     23  C   UNL A   1      31.643  26.945  23.768  1.00  0.00     0.026 A 
ATOM     24  C   UNL A   1      30.107  25.183  23.388  1.00  0.00     0.026 A 
ATOM     25  C   UNL A   1      32.657  26.016  24.035  1.00  0.00     0.008 A 
ATOM     26  C   UNL A   1      31.109  24.244  23.667  1.00  0.00     0.008 A 
BRANCH  22  27
ATOM     27  N   UNL A   1      29.286  27.479  23.397  1.00  0.00    -0.372 N 
BRANCH  27  28
ATOM     28  C   UNL A   1      29.487  28.699  22.595  1.00  0.00     0.113 C 
ATOM     29  C   UNL A   1      30.044  29.853  23.413  1.00  0.00     0.027 C 
ENDBRANCH  27  28
BRANCH  27  30
ATOM     30  C   UNL A   1      27.897  27.124  23.714  1.00  0.00     0.113 C 
ATOM     31  C   UNL A   1      26.911  28.247  23.400  1.00  0.00     0.027 C 
ENDBRANCH  27  30
ENDBRANCH  22  27
ENDBRANCH   8  21
BRANCH  10  32
ATOM     32  C   UNL A   1      32.406  23.429  26.869  1.00  0.00     0.220 C 
ATOM     33  C   UNL A   1      31.445  24.591  26.933  1.00  0.00     0.114 C 
ATOM     34  O   UNL A   1      32.162  22.469  27.604  1.00  0.00    -0.275 OA
ENDBRANCH  10  32
ENDBRANCH   4   7
ENDBRANCH   2   3
ENDBRANCH   1   2
BRANCH   1  35
ATOM     35  C   UNL A   1      39.303  21.979  26.376  1.00  0.00     0.023 C 
BRANCH  35  36
ATOM     36  C   UNL A   1      40.443  21.250  27.074  1.00  0.00     0.116 C 
BRANCH  36  37
ATOM     37  N   UNL A   1      41.148  20.265  26.256  1.00  0.00    -0.352 N 
ATOM     38  C   UNL A   1      42.420  20.329  25.709  1.00  0.00     0.251 C 
ATOM     39  H   UNL A   1      40.649  19.437  26.069  1.00  0.00     0.163 HD
ATOM     40  O   UNL A   1      42.852  19.412  25.026  1.00  0.00    -0.269 OA
BRANCH  38  41
ATOM     41  C   UNL A   1      43.231  21.560  25.895  1.00  0.00     0.039 A 
ATOM     42  C   UNL A   1      42.970  22.678  25.096  1.00  0.00     0.014 A 
ATOM     43  C   UNL A   1      44.156  21.649  26.933  1.00  0.00     0.014 A 
ATOM     44  C   UNL A   1      43.510  23.922  25.446  1.00  0.00     0.010 A 
ATOM     45  C   UNL A   1      44.593  22.901  27.347  1.00  0.00     0.010 A 
ATOM     46  C   UNL A   1      44.248  24.062  26.631  1.00  0.00    -0.014 A 
BRANCH  46  47
ATOM     47  C   UNL A   1      44.656  25.385  27.189  1.00  0.00     0.031 A 
ATOM     48  C   UNL A   1      43.613  26.274  27.812  1.00  0.00     0.074 A 
ATOM     49  C   UNL A   1      45.906  25.858  26.993  1.00  0.00     0.049 A 
ATOM     50  N   UNL A   1      43.651  27.556  28.061  1.00  0.00    -0.248 NA
ATOM     51  C   UNL A   1      42.329  25.635  28.132  1.00  0.00     0.031 C 
ATOM     52  C   UNL A   1      47.012  25.122  26.374  1.00  0.00     0.029 A 
ATOM     53  N   UNL A   1      46.452  27.090  27.271  1.00  0.00    -0.354 N 
ATOM     54  C   UNL A   1      42.377  27.892  28.506  1.00  0.00     0.074 A 
ATOM     55  C   UNL A   1      41.581  26.683  28.440  1.00  0.00     0.031 C 
ATOM     56  C   UNL A   1      48.101  25.907  26.336  1.00  0.00     0.029 A 
ATOM     57  C   UNL A   1      47.760  27.224  26.862  1.00  0.00     0.049 A 
ATOM     58  H   UNL A   1      45.952  27.809  27.720  1.00  0.00     0.167 HD
ATOM     59  C   UNL A   1      41.916  29.091  28.942  1.00  0.00     0.034 A 
ATOM     60  C   UNL A   1      48.583  28.293  26.877  1.00  0.00     0.034 A 
ATOM     61  C   UNL A   1      42.740  30.267  29.062  1.00  0.00     0.049 A 
ATOM     62  C   UNL A   1      48.063  29.610  27.397  1.00  0.00     0.074 A 
ATOM     63  C   UNL A   1      42.399  31.515  29.556  1.00  0.00     0.029 A 
ATOM     64  N   UNL A   1      44.079  30.337  28.701  1.00  0.00    -0.354 N 
ATOM     65  N   UNL A   1      46.855  29.912  27.815  1.00  0.00    -0.248 NA
ATOM     66  C   UNL A   1      49.013  30.731  27.447  1.00  0.00     0.031 C 
ATOM     67  C   UNL A   1      43.516  32.350  29.451  1.00  0.00     0.029 A 
ATOM     68  C   UNL A   1      44.574  31.607  28.952  1.00  0.00     0.049 A 
ATOM     69  H   UNL A   1      44.601  29.594  28.320  1.00  0.00     0.167 HD
ATOM     70  C   UNL A   1      46.915  31.244  28.215  1.00  0.00     0.074 A 
ATOM     71  C   UNL A   1      48.272  31.690  27.984  1.00  0.00     0.031 C 
ATOM     72  C   UNL A   1      45.936  32.026  28.734  1.00  0.00     0.034 A 
BRANCH  59  73
ATOM     73  C   UNL A   1      40.451  29.183  29.299  1.00  0.00     0.023 A 
ATOM     74  C   UNL A   1      40.014  29.138  30.633  1.00  0.00     0.031 A 
ATOM     75  C   UNL A   1      39.475  29.262  28.291  1.00  0.00     0.131 A 
ATOM     76  C   UNL A   1      38.643  29.064  30.918  1.00  0.00     0.055 A 
ATOM     77  C   UNL A   1      38.110  29.289  28.587  1.00  0.00     0.041 A 
ATOM     78  F   UNL A   1      39.829  29.292  26.995  1.00  0.00    -0.206 F 
ATOM     79  C   UNL A   1      37.687  29.167  29.907  1.00  0.00     0.022 A 
BRANCH  76  80
ATOM     80  S   UNL A   1      38.140  28.654  32.612  1.00  0.00     0.124 S 
ATOM     81  O   UNL A   1      38.253  27.197  32.605  1.00  0.00    -0.237 OA
ATOM     82  O   UNL A   1      39.126  29.366  33.416  1.00  0.00    -0.237 OA
ATOM     83  O   UNL A   1      36.774  29.167  32.697  1.00  0.00    -0.744 OA
ENDBRANCH  76  80
ENDBRANCH  59  73
BRANCH  60  84
ATOM     84  C   UNL A   1      49.981  28.182  26.371  1.00  0.00     0.023 A 
ATOM     85  C   UNL A   1      50.274  28.401  25.015  1.00  0.00     0.031 A 
ATOM     86  C   UNL A   1      51.039  27.813  27.221  1.00  0.00     0.131 A 
ATOM     87  C   UNL A   1      51.579  28.206  24.539  1.00  0.00     0.055 A 
ATOM     88  C   UNL A   1      52.346  27.668  26.752  1.00  0.00     0.041 A 
ATOM     89  F   UNL A   1      50.816  27.598  28.527  1.00  0.00    -0.206 F 
ATOM     90  C   UNL A   1      52.621  27.852  25.400  1.00  0.00     0.022 A 
BRANCH  87  91
ATOM     91  S   UNL A   1      51.881  28.340  22.754  1.00  0.00     0.124 S 
ATOM     92  O   UNL A   1      50.976  29.419  22.381  1.00  0.00    -0.237 OA
ATOM     93  O   UNL A   1      53.306  28.652  22.713  1.00  0.00    -0.237 OA
ATOM     94  O   UNL A   1      51.521  27.018  22.248  1.00  0.00    -0.744 OA
ENDBRANCH  87  91
ENDBRANCH  60  84
BRANCH  72  95
ATOM     95  C   UNL A   1      46.317  33.418  29.166  1.00  0.00     0.023 A 
ATOM     96  C   UNL A   1      46.138  34.533  28.331  1.00  0.00     0.031 A 
ATOM     97  C   UNL A   1      46.836  33.627  30.457  1.00  0.00     0.131 A 
ATOM     98  C   UNL A   1      46.502  35.809  28.789  1.00  0.00     0.055 A 
ATOM     99  C   UNL A   1      47.155  34.901  30.922  1.00  0.00     0.041 A 
ATOM    100  F   UNL A   1      47.023  32.592  31.292  1.00  0.00    -0.206 F 
ATOM    101  C   UNL A   1      46.993  36.002  30.084  1.00  0.00     0.022 A 
BRANCH  98 102
ATOM    102  S   UNL A   1      46.355  37.219  27.658  1.00  0.00     0.124 S 
ATOM    103  O   UNL A   1      45.943  38.289  28.560  1.00  0.00    -0.237 OA
ATOM    104  O   UNL A   1      47.705  37.329  27.115  1.00  0.00    -0.237 OA
ATOM    105  O   UNL A   1      45.337  36.788  26.702  1.00  0.00    -0.744 OA
ENDBRANCH  98 102
ENDBRANCH  72  95
ENDBRANCH  46  47
ENDBRANCH  38  41
ENDBRANCH  36  37
ENDBRANCH  35  36
ENDBRANCH   1  35
TORSDOF 19
ENDMDL
