MODEL 1
REMARK VINA RESULT:     -11.1      0.000      0.000
REMARK SMILES CC(C)(C)[N@H+](CCC(=O)NCCCCNC(=O)c1ccc(-c2c3nc(c(-c4cc(S(=O)(=O)[O-])ccc4F)c4ccc([nH]4)c(-c4cc(S(=O)(=O)[O-])ccc4F)c4nc(c(-c5cc(S(=O)(=O)[O-])ccc5F)c5ccc2[nH]5)C=C4)C=C3)cc1)Cc1ccccc1C1CC1
REMARK SMILES IDX 11 1 10 2 8 3 9 4 7 6 6 7 5 8 2 10 1 11 3 12 4 13 81 14
REMARK SMILES IDX 82 15 83 16 87 17 84 18 86 19 85 20 88 21 89 22 90 23 12 24
REMARK SMILES IDX 13 25 14 26 15 27 16 28 17 30 18 31 19 32 80 33 20 34 79 35
REMARK SMILES IDX 21 36 22 37 23 38 73 39 24 40 78 41 72 42 74 43 25 44 77 45
REMARK SMILES IDX 71 46 70 47 26 49 58 50 38 51 57 52 39 53 42 54 56 55 75 56
REMARK SMILES IDX 40 57 41 58 55 60 76 61 43 62 27 63 28 64 36 65 29 66 35 67
REMARK SMILES IDX 37 68 34 69 30 70 31 71 32 72 33 73 59 74 60 75 68 76 61 77
REMARK SMILES IDX 67 78 69 79 66 80 62 81 63 82 64 83 65 84 44 85 45 86 53 87
REMARK SMILES IDX 46 88 52 89 54 90 51 91 47 92 48 93 49 94 50 95
REMARK H PARENT 10 5 5 9 15 29 74 48 42 59
REMARK Flexibility Score: inf
ROOT
ATOM      1  C   UNL A   1      34.590  24.427  24.122  1.00  0.00     0.116 C 
ENDROOT
BRANCH   1   2
ATOM      2  N   UNL A   1      33.511  25.327  23.699  1.00  0.00    -0.356 N 
ATOM      3  C   UNL A   1      33.694  26.217  22.653  1.00  0.00     0.225 C 
ATOM      4  O   UNL A   1      33.668  25.799  21.492  1.00  0.00    -0.275 OA
ATOM      5  H   UNL A   1      32.644  25.296  24.164  1.00  0.00     0.163 HD
BRANCH   3   6
ATOM      6  C   UNL A   1      33.643  27.723  22.889  1.00  0.00     0.161 C 
BRANCH   6   7
ATOM      7  C   UNL A   1      33.616  28.256  24.312  1.00  0.00     0.272 C 
BRANCH   7   8
ATOM      8  N   UNL A   1      32.305  28.434  24.979  1.00  0.00    -0.327 N 
ATOM      9  H   UNL A   1      31.890  27.511  25.108  1.00  0.00     0.348 HD
BRANCH   8  10
ATOM     10  C   UNL A   1      32.472  29.021  26.365  1.00  0.00     0.089 C 
ATOM     11  C   UNL A   1      33.943  29.036  26.885  1.00  0.00     0.078 C 
ATOM     12  C   UNL A   1      31.695  28.139  27.369  1.00  0.00     0.078 C 
ATOM     13  C   UNL A   1      31.969  30.481  26.466  1.00  0.00     0.078 C 
ENDBRANCH   8  10
BRANCH   8  14
ATOM     14  C   UNL A   1      31.325  29.186  24.119  1.00  0.00     0.299 C 
BRANCH  14  15
ATOM     15  C   UNL A   1      30.039  28.464  23.661  1.00  0.00     0.010 A 
ATOM     16  C   UNL A   1      30.068  27.084  24.025  1.00  0.00     0.010 A 
ATOM     17  C   UNL A   1      28.785  29.021  23.213  1.00  0.00    -0.036 A 
ATOM     18  C   UNL A   1      28.930  26.285  24.081  1.00  0.00     0.001 A 
ATOM     19  C   UNL A   1      27.660  28.143  23.323  1.00  0.00     0.004 A 
ATOM     20  C   UNL A   1      27.711  26.828  23.756  1.00  0.00     0.000 A 
BRANCH  17  21
ATOM     21  C   UNL A   1      28.284  30.443  22.813  1.00  0.00     0.020 C 
ATOM     22  C   UNL A   1      28.869  31.780  22.387  1.00  0.00     0.009 C 
ATOM     23  C   UNL A   1      28.745  30.772  21.345  1.00  0.00     0.009 C 
ENDBRANCH  17  21
ENDBRANCH  14  15
ENDBRANCH   8  14
ENDBRANCH   7   8
ENDBRANCH   6   7
ENDBRANCH   3   6
ENDBRANCH   1   2
BRANCH   1  24
ATOM     24  C   UNL A   1      34.712  23.057  23.463  1.00  0.00     0.023 C 
BRANCH  24  25
ATOM     25  C   UNL A   1      34.853  21.955  24.546  1.00  0.00     0.023 C 
BRANCH  25  26
ATOM     26  C   UNL A   1      35.976  22.184  25.572  1.00  0.00     0.116 C 
BRANCH  26  27
ATOM     27  N   UNL A   1      36.927  21.088  25.590  1.00  0.00    -0.352 N 
ATOM     28  C   UNL A   1      38.297  21.118  25.727  1.00  0.00     0.251 C 
ATOM     29  H   UNL A   1      36.535  20.190  25.489  1.00  0.00     0.163 HD
ATOM     30  O   UNL A   1      38.950  20.119  25.458  1.00  0.00    -0.269 OA
BRANCH  28  31
ATOM     31  C   UNL A   1      38.985  22.356  26.167  1.00  0.00     0.039 A 
ATOM     32  C   UNL A   1      40.038  22.248  27.078  1.00  0.00     0.014 A 
ATOM     33  C   UNL A   1      38.549  23.619  25.754  1.00  0.00     0.014 A 
ATOM     34  C   UNL A   1      40.678  23.402  27.544  1.00  0.00     0.010 A 
ATOM     35  C   UNL A   1      39.227  24.768  26.180  1.00  0.00     0.010 A 
ATOM     36  C   UNL A   1      40.296  24.675  27.086  1.00  0.00    -0.014 A 
BRANCH  36  37
ATOM     37  C   UNL A   1      41.010  25.897  27.567  1.00  0.00     0.031 A 
ATOM     38  C   UNL A   1      42.450  26.147  27.194  1.00  0.00     0.074 A 
ATOM     39  C   UNL A   1      40.358  26.786  28.345  1.00  0.00     0.049 A 
ATOM     40  N   UNL A   1      43.226  27.153  27.513  1.00  0.00    -0.248 NA
ATOM     41  C   UNL A   1      43.111  25.121  26.374  1.00  0.00     0.031 C 
ATOM     42  C   UNL A   1      38.974  26.647  28.805  1.00  0.00     0.029 A 
ATOM     43  N   UNL A   1      40.762  27.985  28.881  1.00  0.00    -0.354 N 
ATOM     44  C   UNL A   1      44.463  26.882  26.935  1.00  0.00     0.074 A 
ATOM     45  C   UNL A   1      44.350  25.585  26.303  1.00  0.00     0.031 C 
ATOM     46  C   UNL A   1      38.635  27.733  29.519  1.00  0.00     0.029 A 
ATOM     47  C   UNL A   1      39.786  28.626  29.612  1.00  0.00     0.049 A 
ATOM     48  H   UNL A   1      41.667  28.354  28.755  1.00  0.00     0.167 HD
ATOM     49  C   UNL A   1      45.581  27.652  26.911  1.00  0.00     0.034 A 
ATOM     50  C   UNL A   1      39.812  29.795  30.286  1.00  0.00     0.034 A 
ATOM     51  C   UNL A   1      45.680  28.949  27.537  1.00  0.00     0.049 A 
ATOM     52  C   UNL A   1      41.079  30.617  30.270  1.00  0.00     0.074 A 
ATOM     53  C   UNL A   1      46.751  29.828  27.535  1.00  0.00     0.029 A 
ATOM     54  N   UNL A   1      44.677  29.554  28.284  1.00  0.00    -0.354 N 
ATOM     55  N   UNL A   1      42.220  30.365  29.671  1.00  0.00    -0.248 NA
ATOM     56  C   UNL A   1      41.054  31.886  31.007  1.00  0.00     0.031 C 
ATOM     57  C   UNL A   1      46.423  30.926  28.338  1.00  0.00     0.029 A 
ATOM     58  C   UNL A   1      45.116  30.776  28.772  1.00  0.00     0.049 A 
ATOM     59  H   UNL A   1      43.784  29.172  28.443  1.00  0.00     0.167 HD
ATOM     60  C   UNL A   1      43.037  31.462  29.936  1.00  0.00     0.074 A 
ATOM     61  C   UNL A   1      42.247  32.387  30.722  1.00  0.00     0.031 C 
ATOM     62  C   UNL A   1      44.325  31.687  29.566  1.00  0.00     0.034 A 
BRANCH  49  63
ATOM     63  C   UNL A   1      46.796  27.103  26.197  1.00  0.00     0.023 A 
ATOM     64  C   UNL A   1      47.803  26.401  26.883  1.00  0.00     0.031 A 
ATOM     65  C   UNL A   1      46.950  27.281  24.810  1.00  0.00     0.131 A 
ATOM     66  C   UNL A   1      48.945  25.962  26.197  1.00  0.00     0.055 A 
ATOM     67  C   UNL A   1      48.051  26.771  24.119  1.00  0.00     0.041 A 
ATOM     68  F   UNL A   1      46.033  27.959  24.101  1.00  0.00    -0.206 F 
ATOM     69  C   UNL A   1      49.064  26.118  24.814  1.00  0.00     0.022 A 
BRANCH  66  70
ATOM     70  S   UNL A   1      50.333  25.301  27.158  1.00  0.00     0.124 S 
ATOM     71  O   UNL A   1      50.704  26.456  27.972  1.00  0.00    -0.237 OA
ATOM     72  O   UNL A   1      49.721  24.186  27.872  1.00  0.00    -0.237 OA
ATOM     73  O   UNL A   1      51.311  24.928  26.137  1.00  0.00    -0.744 OA
ENDBRANCH  66  70
ENDBRANCH  49  63
BRANCH  50  74
ATOM     74  C   UNL A   1      38.618  30.264  31.052  1.00  0.00     0.023 A 
ATOM     75  C   UNL A   1      37.594  30.994  30.426  1.00  0.00     0.031 A 
ATOM     76  C   UNL A   1      38.518  30.053  32.439  1.00  0.00     0.131 A 
ATOM     77  C   UNL A   1      36.551  31.539  31.194  1.00  0.00     0.055 A 
ATOM     78  C   UNL A   1      37.445  30.540  33.187  1.00  0.00     0.041 A 
ATOM     79  F   UNL A   1      39.468  29.363  33.091  1.00  0.00    -0.206 F 
ATOM     80  C   UNL A   1      36.462  31.304  32.567  1.00  0.00     0.022 A 
BRANCH  77  81
ATOM     81  S   UNL A   1      35.376  32.663  30.389  1.00  0.00     0.124 S 
ATOM     82  O   UNL A   1      34.287  32.698  31.359  1.00  0.00    -0.237 OA
ATOM     83  O   UNL A   1      36.164  33.885  30.264  1.00  0.00    -0.237 OA
ATOM     84  O   UNL A   1      35.069  31.990  29.130  1.00  0.00    -0.744 OA
ENDBRANCH  77  81
ENDBRANCH  50  74
BRANCH  62  85
ATOM     85  C   UNL A   1      44.937  33.005  29.977  1.00  0.00     0.023 A 
ATOM     86  C   UNL A   1      45.617  33.156  31.199  1.00  0.00     0.031 A 
ATOM     87  C   UNL A   1      44.813  34.134  29.148  1.00  0.00     0.131 A 
ATOM     88  C   UNL A   1      46.083  34.421  31.589  1.00  0.00     0.055 A 
ATOM     89  C   UNL A   1      45.344  35.375  29.509  1.00  0.00     0.041 A 
ATOM     90  F   UNL A   1      44.172  34.053  27.972  1.00  0.00    -0.206 F 
ATOM     91  C   UNL A   1      45.968  35.527  30.744  1.00  0.00     0.022 A 
BRANCH  88  92
ATOM     92  S   UNL A   1      46.737  34.625  33.269  1.00  0.00     0.124 S 
ATOM     93  O   UNL A   1      47.288  35.976  33.218  1.00  0.00    -0.237 OA
ATOM     94  O   UNL A   1      45.544  34.455  34.091  1.00  0.00    -0.237 OA
ATOM     95  O   UNL A   1      47.727  33.555  33.384  1.00  0.00    -0.744 OA
ENDBRANCH  88  92
ENDBRANCH  62  85
ENDBRANCH  36  37
ENDBRANCH  28  31
ENDBRANCH  26  27
ENDBRANCH  25  26
ENDBRANCH  24  25
ENDBRANCH   1  24
TORSDOF 20
ENDMDL
MODEL 2
REMARK VINA RESULT:     -11.1      1.328      7.855
REMARK SMILES CC(C)(C)[N@H+](CCC(=O)NCCCCNC(=O)c1ccc(-c2c3nc(c(-c4cc(S(=O)(=O)[O-])ccc4F)c4ccc([nH]4)c(-c4cc(S(=O)(=O)[O-])ccc4F)c4nc(c(-c5cc(S(=O)(=O)[O-])ccc5F)c5ccc2[nH]5)C=C4)C=C3)cc1)Cc1ccccc1C1CC1
REMARK SMILES IDX 11 1 10 2 8 3 9 4 7 6 6 7 5 8 2 10 1 11 3 12 4 13 81 14
REMARK SMILES IDX 82 15 83 16 87 17 84 18 86 19 85 20 88 21 89 22 90 23 12 24
REMARK SMILES IDX 13 25 14 26 15 27 16 28 17 30 18 31 19 32 80 33 20 34 79 35
REMARK SMILES IDX 21 36 22 37 23 38 73 39 24 40 78 41 72 42 74 43 25 44 77 45
REMARK SMILES IDX 71 46 70 47 26 49 58 50 38 51 57 52 39 53 42 54 56 55 75 56
REMARK SMILES IDX 40 57 41 58 55 60 76 61 43 62 27 63 28 64 36 65 29 66 35 67
REMARK SMILES IDX 37 68 34 69 30 70 31 71 32 72 33 73 59 74 60 75 68 76 61 77
REMARK SMILES IDX 67 78 69 79 66 80 62 81 63 82 64 83 65 84 44 85 45 86 53 87
REMARK SMILES IDX 46 88 52 89 54 90 51 91 47 92 48 93 49 94 50 95
REMARK H PARENT 10 5 5 9 15 29 74 48 42 59
REMARK Flexibility Score: inf
ROOT
ATOM      1  C   UNL A   1      34.583  24.447  24.077  1.00  0.00     0.116 C 
ENDROOT
BRANCH   1   2
ATOM      2  N   UNL A   1      33.498  25.348  23.670  1.00  0.00    -0.356 N 
ATOM      3  C   UNL A   1      33.669  26.243  22.626  1.00  0.00     0.225 C 
ATOM      4  O   UNL A   1      33.632  25.831  21.464  1.00  0.00    -0.275 OA
ATOM      5  H   UNL A   1      32.636  25.313  24.144  1.00  0.00     0.163 HD
BRANCH   3   6
ATOM      6  C   UNL A   1      33.619  27.748  22.870  1.00  0.00     0.161 C 
BRANCH   6   7
ATOM      7  C   UNL A   1      33.623  28.274  24.296  1.00  0.00     0.272 C 
BRANCH   7   8
ATOM      8  N   UNL A   1      32.326  28.468  24.986  1.00  0.00    -0.327 N 
ATOM      9  H   UNL A   1      31.901  27.550  25.119  1.00  0.00     0.348 HD
BRANCH   8  10
ATOM     10  C   UNL A   1      32.523  29.049  26.370  1.00  0.00     0.089 C 
ATOM     11  C   UNL A   1      34.006  29.066  26.855  1.00  0.00     0.078 C 
ATOM     12  C   UNL A   1      31.773  28.160  27.388  1.00  0.00     0.078 C 
ATOM     13  C   UNL A   1      32.019  30.507  26.489  1.00  0.00     0.078 C 
ENDBRANCH   8  10
BRANCH   8  14
ATOM     14  C   UNL A   1      31.341  29.235  24.144  1.00  0.00     0.299 C 
BRANCH  14  15
ATOM     15  C   UNL A   1      30.057  28.518  23.671  1.00  0.00     0.010 A 
ATOM     16  C   UNL A   1      30.081  27.136  24.028  1.00  0.00     0.010 A 
ATOM     17  C   UNL A   1      28.809  29.080  23.214  1.00  0.00    -0.036 A 
ATOM     18  C   UNL A   1      28.941  26.339  24.071  1.00  0.00     0.001 A 
ATOM     19  C   UNL A   1      27.682  28.204  23.309  1.00  0.00     0.004 A 
ATOM     20  C   UNL A   1      27.725  26.886  23.737  1.00  0.00     0.000 A 
BRANCH  17  21
ATOM     21  C   UNL A   1      28.315  30.505  22.816  1.00  0.00     0.020 C 
ATOM     22  C   UNL A   1      28.815  31.707  22.031  1.00  0.00     0.009 C 
ATOM     23  C   UNL A   1      28.245  30.621  21.248  1.00  0.00     0.009 C 
ENDBRANCH  17  21
ENDBRANCH  14  15
ENDBRANCH   8  14
ENDBRANCH   7   8
ENDBRANCH   6   7
ENDBRANCH   3   6
ENDBRANCH   1   2
BRANCH   1  24
ATOM     24  C   UNL A   1      34.740  23.108  23.365  1.00  0.00     0.023 C 
BRANCH  24  25
ATOM     25  C   UNL A   1      34.846  21.961  24.403  1.00  0.00     0.023 C 
BRANCH  25  26
ATOM     26  C   UNL A   1      35.943  22.138  25.467  1.00  0.00     0.116 C 
BRANCH  26  27
ATOM     27  N   UNL A   1      36.834  20.994  25.524  1.00  0.00    -0.352 N 
ATOM     28  C   UNL A   1      38.201  20.954  25.683  1.00  0.00     0.251 C 
ATOM     29  H   UNL A   1      36.396  20.116  25.437  1.00  0.00     0.163 HD
ATOM     30  O   UNL A   1      38.804  19.915  25.448  1.00  0.00    -0.269 OA
BRANCH  28  31
ATOM     31  C   UNL A   1      38.948  22.163  26.106  1.00  0.00     0.039 A 
ATOM     32  C   UNL A   1      38.469  23.416  25.717  1.00  0.00     0.014 A 
ATOM     33  C   UNL A   1      40.153  22.068  26.809  1.00  0.00     0.014 A 
ATOM     34  C   UNL A   1      39.177  24.573  26.064  1.00  0.00     0.010 A 
ATOM     35  C   UNL A   1      40.829  23.229  27.203  1.00  0.00     0.010 A 
ATOM     36  C   UNL A   1      40.353  24.497  26.830  1.00  0.00    -0.014 A 
BRANCH  36  37
ATOM     37  C   UNL A   1      41.081  25.741  27.222  1.00  0.00     0.031 A 
ATOM     38  C   UNL A   1      40.384  26.832  27.996  1.00  0.00     0.074 A 
ATOM     39  C   UNL A   1      42.378  25.892  26.878  1.00  0.00     0.049 A 
ATOM     40  N   UNL A   1      40.857  27.974  28.428  1.00  0.00    -0.248 NA
ATOM     41  C   UNL A   1      38.963  26.620  28.307  1.00  0.00     0.031 C 
ATOM     42  C   UNL A   1      43.160  24.927  26.101  1.00  0.00     0.029 A 
ATOM     43  N   UNL A   1      43.271  26.902  27.141  1.00  0.00    -0.354 N 
ATOM     44  C   UNL A   1      39.795  28.617  29.058  1.00  0.00     0.074 A 
ATOM     45  C   UNL A   1      38.638  27.763  28.893  1.00  0.00     0.031 C 
ATOM     46  C   UNL A   1      44.421  25.374  25.984  1.00  0.00     0.029 A 
ATOM     47  C   UNL A   1      44.532  26.677  26.633  1.00  0.00     0.049 A 
ATOM     48  H   UNL A   1      43.033  27.714  27.646  1.00  0.00     0.167 HD
ATOM     49  C   UNL A   1      39.789  29.795  29.734  1.00  0.00     0.034 A 
ATOM     50  C   UNL A   1      45.650  27.432  26.678  1.00  0.00     0.034 A 
ATOM     51  C   UNL A   1      40.952  30.634  29.900  1.00  0.00     0.049 A 
ATOM     52  C   UNL A   1      45.607  28.753  27.407  1.00  0.00     0.074 A 
ATOM     53  C   UNL A   1      41.064  31.823  30.602  1.00  0.00     0.029 A 
ATOM     54  N   UNL A   1      42.205  30.382  29.355  1.00  0.00    -0.354 N 
ATOM     55  N   UNL A   1      44.604  29.315  28.043  1.00  0.00    -0.248 NA
ATOM     56  C   UNL A   1      46.851  29.533  27.439  1.00  0.00     0.031 C 
ATOM     57  C   UNL A   1      42.357  32.324  30.420  1.00  0.00     0.029 A 
ATOM     58  C   UNL A   1      43.082  31.407  29.677  1.00  0.00     0.049 A 
ATOM     59  H   UNL A   1      42.436  29.589  28.818  1.00  0.00     0.167 HD
ATOM     60  C   UNL A   1      45.109  30.499  28.575  1.00  0.00     0.074 A 
ATOM     61  C   UNL A   1      46.510  30.554  28.210  1.00  0.00     0.031 C 
ATOM     62  C   UNL A   1      44.474  31.458  29.298  1.00  0.00     0.034 A 
BRANCH  49  63
ATOM     63  C   UNL A   1      38.479  30.255  30.330  1.00  0.00     0.023 A 
ATOM     64  C   UNL A   1      37.595  31.087  29.621  1.00  0.00     0.031 A 
ATOM     65  C   UNL A   1      38.104  29.855  31.626  1.00  0.00     0.131 A 
ATOM     66  C   UNL A   1      36.417  31.544  30.231  1.00  0.00     0.055 A 
ATOM     67  C   UNL A   1      36.892  30.248  32.198  1.00  0.00     0.041 A 
ATOM     68  F   UNL A   1      38.913  29.077  32.362  1.00  0.00    -0.206 F 
ATOM     69  C   UNL A   1      36.046  31.109  31.505  1.00  0.00     0.022 A 
BRANCH  66  70
ATOM     70  S   UNL A   1      35.442  32.820  29.389  1.00  0.00     0.124 S 
ATOM     71  O   UNL A   1      36.374  33.944  29.380  1.00  0.00    -0.237 OA
ATOM     72  O   UNL A   1      35.168  32.206  28.094  1.00  0.00    -0.237 OA
ATOM     73  O   UNL A   1      34.278  32.992  30.257  1.00  0.00    -0.744 OA
ENDBRANCH  66  70
ENDBRANCH  49  63
BRANCH  50  74
ATOM     74  C   UNL A   1      46.905  26.983  26.002  1.00  0.00     0.023 A 
ATOM     75  C   UNL A   1      47.903  26.292  26.708  1.00  0.00     0.031 A 
ATOM     76  C   UNL A   1      47.157  27.302  24.656  1.00  0.00     0.131 A 
ATOM     77  C   UNL A   1      49.129  26.001  26.087  1.00  0.00     0.055 A 
ATOM     78  C   UNL A   1      48.350  26.952  24.023  1.00  0.00     0.041 A 
ATOM     79  F   UNL A   1      46.239  27.962  23.930  1.00  0.00    -0.206 F 
ATOM     80  C   UNL A   1      49.353  26.313  24.745  1.00  0.00     0.022 A 
BRANCH  77  81
ATOM     81  S   UNL A   1      50.473  25.316  27.095  1.00  0.00     0.124 S 
ATOM     82  O   UNL A   1      51.398  24.842  26.071  1.00  0.00    -0.237 OA
ATOM     83  O   UNL A   1      50.903  26.483  27.857  1.00  0.00    -0.237 OA
ATOM     84  O   UNL A   1      49.815  24.271  27.874  1.00  0.00    -0.744 OA
ENDBRANCH  77  81
ENDBRANCH  50  74
BRANCH  62  85
ATOM     85  C   UNL A   1      45.309  32.624  29.774  1.00  0.00     0.023 A 
ATOM     86  C   UNL A   1      45.461  33.789  29.001  1.00  0.00     0.031 A 
ATOM     87  C   UNL A   1      45.985  32.558  31.005  1.00  0.00     0.131 A 
ATOM     88  C   UNL A   1      46.324  34.808  29.432  1.00  0.00     0.055 A 
ATOM     89  C   UNL A   1      46.786  33.606  31.463  1.00  0.00     0.041 A 
ATOM     90  F   UNL A   1      45.882  31.470  31.785  1.00  0.00    -0.206 F 
ATOM     91  C   UNL A   1      46.973  34.732  30.666  1.00  0.00     0.022 A 
BRANCH  88  92
ATOM     92  S   UNL A   1      46.681  36.181  28.301  1.00  0.00     0.124 S 
ATOM     93  O   UNL A   1      45.380  36.835  28.198  1.00  0.00    -0.237 OA
ATOM     94  O   UNL A   1      47.711  36.921  29.022  1.00  0.00    -0.237 OA
ATOM     95  O   UNL A   1      47.137  35.512  27.083  1.00  0.00    -0.744 OA
ENDBRANCH  88  92
ENDBRANCH  62  85
ENDBRANCH  36  37
ENDBRANCH  28  31
ENDBRANCH  26  27
ENDBRANCH  25  26
ENDBRANCH  24  25
ENDBRANCH   1  24
TORSDOF 20
ENDMDL
MODEL 3
REMARK VINA RESULT:     -11.0      4.178      9.466
REMARK SMILES CC(C)(C)[N@H+](CCC(=O)NCCCCNC(=O)c1ccc(-c2c3nc(c(-c4cc(S(=O)(=O)[O-])ccc4F)c4ccc([nH]4)c(-c4cc(S(=O)(=O)[O-])ccc4F)c4nc(c(-c5cc(S(=O)(=O)[O-])ccc5F)c5ccc2[nH]5)C=C4)C=C3)cc1)Cc1ccccc1C1CC1
REMARK SMILES IDX 11 1 10 2 8 3 9 4 7 6 6 7 5 8 2 10 1 11 3 12 4 13 81 14
REMARK SMILES IDX 82 15 83 16 87 17 84 18 86 19 85 20 88 21 89 22 90 23 12 24
REMARK SMILES IDX 13 25 14 26 15 27 16 28 17 30 18 31 19 32 80 33 20 34 79 35
REMARK SMILES IDX 21 36 22 37 23 38 73 39 24 40 78 41 72 42 74 43 25 44 77 45
REMARK SMILES IDX 71 46 70 47 26 49 58 50 38 51 57 52 39 53 42 54 56 55 75 56
REMARK SMILES IDX 40 57 41 58 55 60 76 61 43 62 27 63 28 64 36 65 29 66 35 67
REMARK SMILES IDX 37 68 34 69 30 70 31 71 32 72 33 73 59 74 60 75 68 76 61 77
REMARK SMILES IDX 67 78 69 79 66 80 62 81 63 82 64 83 65 84 44 85 45 86 53 87
REMARK SMILES IDX 46 88 52 89 54 90 51 91 47 92 48 93 49 94 50 95
REMARK H PARENT 10 5 5 9 15 29 74 48 42 59
REMARK Flexibility Score: inf
ROOT
ATOM      1  C   UNL A   1      30.986  27.099  27.302  1.00  0.00     0.116 C 
ENDROOT
BRANCH   1   2
ATOM      2  N   UNL A   1      31.236  26.043  26.313  1.00  0.00    -0.356 N 
ATOM      3  C   UNL A   1      31.767  24.821  26.695  1.00  0.00     0.225 C 
ATOM      4  O   UNL A   1      31.040  23.994  27.251  1.00  0.00    -0.275 OA
ATOM      5  H   UNL A   1      31.022  26.205  25.367  1.00  0.00     0.163 HD
BRANCH   3   6
ATOM      6  C   UNL A   1      33.136  24.372  26.196  1.00  0.00     0.161 C 
BRANCH   6   7
ATOM      7  C   UNL A   1      33.695  24.965  24.912  1.00  0.00     0.272 C 
BRANCH   7   8
ATOM      8  N   UNL A   1      33.295  24.362  23.619  1.00  0.00    -0.327 N 
ATOM      9  H   UNL A   1      32.655  23.592  23.816  1.00  0.00     0.348 HD
BRANCH   8  10
ATOM     10  C   UNL A   1      32.521  25.350  22.771  1.00  0.00     0.089 C 
ATOM     11  C   UNL A   1      32.747  26.844  23.157  1.00  0.00     0.078 C 
ATOM     12  C   UNL A   1      31.011  25.100  22.981  1.00  0.00     0.078 C 
ATOM     13  C   UNL A   1      32.857  25.243  21.264  1.00  0.00     0.078 C 
ENDBRANCH   8  10
BRANCH   8  14
ATOM     14  C   UNL A   1      34.457  23.730  22.900  1.00  0.00     0.299 C 
BRANCH  14  15
ATOM     15  C   UNL A   1      35.182  22.542  23.571  1.00  0.00     0.010 A 
ATOM     16  C   UNL A   1      36.599  22.699  23.496  1.00  0.00     0.010 A 
ATOM     17  C   UNL A   1      34.657  21.527  24.451  1.00  0.00    -0.036 A 
ATOM     18  C   UNL A   1      37.487  22.005  24.312  1.00  0.00     0.001 A 
ATOM     19  C   UNL A   1      35.631  20.876  25.272  1.00  0.00     0.004 A 
ATOM     20  C   UNL A   1      36.997  21.108  25.230  1.00  0.00     0.000 A 
BRANCH  17  21
ATOM     21  C   UNL A   1      33.231  21.077  24.898  1.00  0.00     0.020 C 
ATOM     22  C   UNL A   1      31.786  21.286  24.479  1.00  0.00     0.009 C 
ATOM     23  C   UNL A   1      32.534  20.290  23.728  1.00  0.00     0.009 C 
ENDBRANCH  17  21
ENDBRANCH  14  15
ENDBRANCH   8  14
ENDBRANCH   7   8
ENDBRANCH   6   7
ENDBRANCH   3   6
ENDBRANCH   1   2
BRANCH   1  24
ATOM     24  C   UNL A   1      31.815  28.377  27.245  1.00  0.00     0.023 C 
BRANCH  24  25
ATOM     25  C   UNL A   1      33.283  28.044  26.869  1.00  0.00     0.023 C 
BRANCH  25  26
ATOM     26  C   UNL A   1      34.020  29.135  26.074  1.00  0.00     0.116 C 
BRANCH  26  27
ATOM     27  N   UNL A   1      33.841  30.450  26.660  1.00  0.00    -0.352 N 
ATOM     28  C   UNL A   1      34.535  31.056  27.683  1.00  0.00     0.251 C 
ATOM     29  H   UNL A   1      33.115  30.989  26.268  1.00  0.00     0.163 HD
ATOM     30  O   UNL A   1      34.074  32.060  28.211  1.00  0.00    -0.269 OA
BRANCH  28  31
ATOM     31  C   UNL A   1      35.816  30.487  28.168  1.00  0.00     0.039 A 
ATOM     32  C   UNL A   1      35.826  29.799  29.383  1.00  0.00     0.014 A 
ATOM     33  C   UNL A   1      37.014  30.697  27.478  1.00  0.00     0.014 A 
ATOM     34  C   UNL A   1      37.028  29.289  29.887  1.00  0.00     0.010 A 
ATOM     35  C   UNL A   1      38.205  30.137  27.957  1.00  0.00     0.010 A 
ATOM     36  C   UNL A   1      38.229  29.432  29.171  1.00  0.00    -0.014 A 
BRANCH  36  37
ATOM     37  C   UNL A   1      39.499  28.854  29.704  1.00  0.00     0.031 A 
ATOM     38  C   UNL A   1      40.146  29.422  30.943  1.00  0.00     0.074 A 
ATOM     39  C   UNL A   1      40.077  27.813  29.069  1.00  0.00     0.049 A 
ATOM     40  N   UNL A   1      41.242  29.046  31.553  1.00  0.00    -0.248 NA
ATOM     41  C   UNL A   1      39.485  30.579  31.566  1.00  0.00     0.031 C 
ATOM     42  C   UNL A   1      39.572  27.191  27.842  1.00  0.00     0.029 A 
ATOM     43  N   UNL A   1      41.204  27.085  29.365  1.00  0.00    -0.354 N 
ATOM     44  C   UNL A   1      41.403  29.916  32.627  1.00  0.00     0.074 A 
ATOM     45  C   UNL A   1      40.327  30.880  32.544  1.00  0.00     0.031 C 
ATOM     46  C   UNL A   1      40.363  26.156  27.514  1.00  0.00     0.029 A 
ATOM     47  C   UNL A   1      41.459  26.065  28.474  1.00  0.00     0.049 A 
ATOM     48  H   UNL A   1      41.779  27.275  30.142  1.00  0.00     0.167 HD
ATOM     49  C   UNL A   1      42.344  29.900  33.606  1.00  0.00     0.034 A 
ATOM     50  C   UNL A   1      42.461  25.162  28.429  1.00  0.00     0.034 A 
ATOM     51  C   UNL A   1      43.409  28.928  33.685  1.00  0.00     0.049 A 
ATOM     52  C   UNL A   1      43.512  25.187  29.512  1.00  0.00     0.074 A 
ATOM     53  C   UNL A   1      44.386  28.797  34.657  1.00  0.00     0.029 A 
ATOM     54  N   UNL A   1      43.644  27.924  32.754  1.00  0.00    -0.354 N 
ATOM     55  N   UNL A   1      43.613  25.987  30.549  1.00  0.00    -0.248 NA
ATOM     56  C   UNL A   1      44.575  24.177  29.427  1.00  0.00     0.031 C 
ATOM     57  C   UNL A   1      45.252  27.766  34.278  1.00  0.00     0.029 A 
ATOM     58  C   UNL A   1      44.767  27.193  33.113  1.00  0.00     0.049 A 
ATOM     59  H   UNL A   1      43.093  27.755  31.956  1.00  0.00     0.167 HD
ATOM     60  C   UNL A   1      44.734  25.553  31.253  1.00  0.00     0.074 A 
ATOM     61  C   UNL A   1      45.255  24.406  30.540  1.00  0.00     0.031 C 
ATOM     62  C   UNL A   1      45.286  26.058  32.388  1.00  0.00     0.034 A 
BRANCH  49  63
ATOM     63  C   UNL A   1      42.275  30.978  34.663  1.00  0.00     0.023 A 
ATOM     64  C   UNL A   1      42.946  32.205  34.516  1.00  0.00     0.031 A 
ATOM     65  C   UNL A   1      41.524  30.780  35.838  1.00  0.00     0.131 A 
ATOM     66  C   UNL A   1      42.909  33.155  35.547  1.00  0.00     0.055 A 
ATOM     67  C   UNL A   1      41.425  31.763  36.825  1.00  0.00     0.041 A 
ATOM     68  F   UNL A   1      40.876  29.623  36.047  1.00  0.00    -0.206 F 
ATOM     69  C   UNL A   1      42.131  32.955  36.689  1.00  0.00     0.022 A 
BRANCH  66  70
ATOM     70  S   UNL A   1      43.997  34.602  35.433  1.00  0.00     0.124 S 
ATOM     71  O   UNL A   1      45.247  33.994  34.981  1.00  0.00    -0.237 OA
ATOM     72  O   UNL A   1      43.306  35.441  34.461  1.00  0.00    -0.237 OA
ATOM     73  O   UNL A   1      44.024  35.120  36.799  1.00  0.00    -0.744 OA
ENDBRANCH  66  70
ENDBRANCH  49  63
BRANCH  50  74
ATOM     74  C   UNL A   1      42.543  24.165  27.319  1.00  0.00     0.023 A 
ATOM     75  C   UNL A   1      41.918  22.912  27.420  1.00  0.00     0.031 A 
ATOM     76  C   UNL A   1      43.312  24.423  26.170  1.00  0.00     0.131 A 
ATOM     77  C   UNL A   1      42.123  21.943  26.423  1.00  0.00     0.055 A 
ATOM     78  C   UNL A   1      43.459  23.481  25.151  1.00  0.00     0.041 A 
ATOM     79  F   UNL A   1      43.934  25.604  26.019  1.00  0.00    -0.206 F 
ATOM     80  C   UNL A   1      42.877  22.224  25.283  1.00  0.00     0.022 A 
BRANCH  77  81
ATOM     81  S   UNL A   1      41.489  20.265  26.699  1.00  0.00     0.124 S 
ATOM     82  O   UNL A   1      40.067  20.516  26.906  1.00  0.00    -0.237 OA
ATOM     83  O   UNL A   1      41.849  19.598  25.453  1.00  0.00    -0.237 OA
ATOM     84  O   UNL A   1      42.222  19.815  27.880  1.00  0.00    -0.744 OA
ENDBRANCH  77  81
ENDBRANCH  50  74
BRANCH  62  85
ATOM     85  C   UNL A   1      46.493  25.338  32.942  1.00  0.00     0.023 A 
ATOM     86  C   UNL A   1      46.366  24.275  33.854  1.00  0.00     0.031 A 
ATOM     87  C   UNL A   1      47.790  25.739  32.576  1.00  0.00     0.131 A 
ATOM     88  C   UNL A   1      47.512  23.699  34.422  1.00  0.00     0.055 A 
ATOM     89  C   UNL A   1      48.928  25.113  33.089  1.00  0.00     0.041 A 
ATOM     90  F   UNL A   1      47.976  26.750  31.712  1.00  0.00    -0.206 F 
ATOM     91  C   UNL A   1      48.792  24.098  34.032  1.00  0.00     0.022 A 
BRANCH  88  92
ATOM     92  S   UNL A   1      47.305  22.501  35.769  1.00  0.00     0.124 S 
ATOM     93  O   UNL A   1      46.348  23.181  36.636  1.00  0.00    -0.237 OA
ATOM     94  O   UNL A   1      46.804  21.324  35.066  1.00  0.00    -0.237 OA
ATOM     95  O   UNL A   1      48.653  22.366  36.318  1.00  0.00    -0.744 OA
ENDBRANCH  88  92
ENDBRANCH  62  85
ENDBRANCH  36  37
ENDBRANCH  28  31
ENDBRANCH  26  27
ENDBRANCH  25  26
ENDBRANCH  24  25
ENDBRANCH   1  24
TORSDOF 20
ENDMDL
