MODEL 1
REMARK VINA RESULT:     -13.2      0.000      0.000
REMARK SMILES Cc1ccc(C)c(NS(=O)(=O)c2cc(C(=O)NCCCCNC(=O)c3ccc(-c4c5nc(c(-c6cc(S(=O)(=O)[O-])ccc6F)c6ccc([nH]6)c(-c6cc(S(=O)(=O)[O-])ccc6F)c6nc(c(-c7cc(S(=O)(=O)[O-])ccc7F)c7ccc4[nH]7)C=C6)C=C5)cc3)ccc2Cl)c1
REMARK SMILES IDX 19 1 18 2 17 3 15 4 16 5 14 7 12 8 13 9 90 10 89 11 91 12
REMARK SMILES IDX 88 13 9 14 10 15 11 16 8 17 7 19 1 20 2 21 3 22 92 23 4 24
REMARK SMILES IDX 5 25 6 26 20 27 21 28 22 29 23 30 24 32 25 33 26 34 87 35
REMARK SMILES IDX 27 36 86 37 28 38 29 39 30 40 80 41 31 42 85 43 79 44 81 45
REMARK SMILES IDX 32 46 84 47 78 48 77 49 33 51 65 52 45 53 64 54 46 55 49 56
REMARK SMILES IDX 63 57 82 58 47 59 48 60 62 62 83 63 50 64 34 65 35 66 43 67
REMARK SMILES IDX 36 68 42 69 44 70 41 71 37 72 38 73 39 74 40 75 66 76 67 77
REMARK SMILES IDX 75 78 68 79 74 80 76 81 73 82 69 83 70 84 71 85 72 86 51 87
REMARK SMILES IDX 52 88 60 89 53 90 59 91 61 92 58 93 54 94 55 95 56 96 57 97
REMARK H PARENT 17 6 8 18 22 31 81 50 49 61
REMARK Flexibility Score: inf
ROOT
ATOM      1  C   UNL A   1      34.029  28.400  25.379  1.00  0.00     0.023 C 
ENDROOT
BRANCH   1   2
ATOM      2  C   UNL A   1      33.298  27.114  24.973  1.00  0.00     0.116 C 
BRANCH   2   3
ATOM      3  N   UNL A   1      33.424  26.736  23.589  1.00  0.00    -0.352 N 
ATOM      4  C   UNL A   1      33.703  25.544  22.985  1.00  0.00     0.251 C 
ATOM      5  O   UNL A   1      33.440  25.470  21.783  1.00  0.00    -0.269 OA
ATOM      6  H   UNL A   1      33.282  27.478  22.959  1.00  0.00     0.163 HD
BRANCH   4   7
ATOM      7  C   UNL A   1      34.370  24.387  23.650  1.00  0.00     0.041 A 
ATOM      8  C   UNL A   1      34.029  22.422  25.074  1.00  0.00     0.107 A 
ATOM      9  C   UNL A   1      33.558  23.609  24.487  1.00  0.00     0.037 A 
ATOM     10  C   UNL A   1      35.274  21.925  24.718  1.00  0.00     0.061 A 
ATOM     11  C   UNL A   1      36.130  22.745  23.981  1.00  0.00     0.023 A 
ATOM     12  Cl  UNL A   1      35.800  20.315  25.033  1.00  0.00    -0.083 Cl
ATOM     13  C   UNL A   1      35.691  23.978  23.479  1.00  0.00     0.015 A 
BRANCH   8  14
ATOM     14  S   UNL A   1      33.045  21.741  26.370  1.00  0.00     0.263 S 
ATOM     15  O   UNL A   1      32.138  22.769  26.789  1.00  0.00    -0.201 OA
ATOM     16  O   UNL A   1      33.961  21.140  27.339  1.00  0.00    -0.201 OA
BRANCH  14  17
ATOM     17  N   UNL A   1      32.088  20.485  25.801  1.00  0.00    -0.279 N 
ATOM     18  H   UNL A   1      31.181  20.418  26.178  1.00  0.00     0.180 HD
BRANCH  17  19
ATOM     19  C   UNL A   1      32.447  19.500  24.825  1.00  0.00     0.052 A 
ATOM     20  C   UNL A   1      34.055  16.048  25.210  1.00  0.00     0.044 C 
ATOM     21  C   UNL A   1      33.385  17.238  24.594  1.00  0.00    -0.049 A 
ATOM     22  C   UNL A   1      33.065  17.261  23.242  1.00  0.00     0.004 A 
ATOM     23  C   UNL A   1      33.041  18.345  25.375  1.00  0.00     0.030 A 
ATOM     24  C   UNL A   1      32.566  18.430  22.666  1.00  0.00     0.006 A 
ATOM     25  C   UNL A   1      32.337  19.593  23.432  1.00  0.00    -0.027 A 
ATOM     26  C   UNL A   1      32.064  20.861  22.673  1.00  0.00     0.046 C 
ENDBRANCH  17  19
ENDBRANCH  14  17
ENDBRANCH   8  14
ENDBRANCH   4   7
ENDBRANCH   2   3
ENDBRANCH   1   2
BRANCH   1  27
ATOM     27  C   UNL A   1      34.278  28.683  26.874  1.00  0.00     0.023 C 
BRANCH  27  28
ATOM     28  C   UNL A   1      33.592  29.873  27.575  1.00  0.00     0.116 C 
BRANCH  28  29
ATOM     29  N   UNL A   1      34.147  31.205  27.262  1.00  0.00    -0.352 N 
ATOM     30  C   UNL A   1      35.245  31.933  27.723  1.00  0.00     0.251 C 
ATOM     31  H   UNL A   1      33.628  31.686  26.578  1.00  0.00     0.163 HD
ATOM     32  O   UNL A   1      35.250  33.151  27.552  1.00  0.00    -0.269 OA
BRANCH  30  33
ATOM     33  C   UNL A   1      36.421  31.279  28.364  1.00  0.00     0.039 A 
ATOM     34  C   UNL A   1      37.197  31.817  29.391  1.00  0.00     0.014 A 
ATOM     35  C   UNL A   1      36.845  30.090  27.817  1.00  0.00     0.014 A 
ATOM     36  C   UNL A   1      38.382  31.152  29.766  1.00  0.00     0.010 A 
ATOM     37  C   UNL A   1      37.864  29.326  28.287  1.00  0.00     0.010 A 
ATOM     38  C   UNL A   1      38.717  29.920  29.174  1.00  0.00    -0.014 A 
BRANCH  38  39
ATOM     39  C   UNL A   1      39.920  29.160  29.451  1.00  0.00     0.031 A 
ATOM     40  C   UNL A   1      40.169  28.938  30.880  1.00  0.00     0.074 A 
ATOM     41  C   UNL A   1      40.587  28.397  28.557  1.00  0.00     0.049 A 
ATOM     42  N   UNL A   1      40.973  29.607  31.629  1.00  0.00    -0.248 NA
ATOM     43  C   UNL A   1      39.319  27.981  31.601  1.00  0.00     0.031 C 
ATOM     44  C   UNL A   1      40.238  28.077  27.168  1.00  0.00     0.029 A 
ATOM     45  N   UNL A   1      41.709  27.654  28.770  1.00  0.00    -0.354 N 
ATOM     46  C   UNL A   1      40.937  28.973  32.858  1.00  0.00     0.074 A 
ATOM     47  C   UNL A   1      39.739  28.176  32.853  1.00  0.00     0.031 C 
ATOM     48  C   UNL A   1      41.033  27.076  26.722  1.00  0.00     0.029 A 
ATOM     49  C   UNL A   1      42.046  26.800  27.728  1.00  0.00     0.049 A 
ATOM     50  H   UNL A   1      42.240  27.718  29.596  1.00  0.00     0.167 HD
ATOM     51  C   UNL A   1      42.035  28.958  33.661  1.00  0.00     0.034 A 
ATOM     52  C   UNL A   1      43.083  25.923  27.703  1.00  0.00     0.034 A 
ATOM     53  C   UNL A   1      43.061  29.852  33.152  1.00  0.00     0.049 A 
ATOM     54  C   UNL A   1      44.082  26.406  28.688  1.00  0.00     0.074 A 
ATOM     55  C   UNL A   1      43.104  31.194  32.819  1.00  0.00     0.029 A 
ATOM     56  N   UNL A   1      44.147  29.283  32.519  1.00  0.00    -0.354 N 
ATOM     57  N   UNL A   1      44.719  27.540  28.575  1.00  0.00    -0.248 NA
ATOM     58  C   UNL A   1      44.088  25.834  30.026  1.00  0.00     0.031 C 
ATOM     59  C   UNL A   1      43.906  31.262  31.639  1.00  0.00     0.029 A 
ATOM     60  C   UNL A   1      44.364  29.974  31.350  1.00  0.00     0.049 A 
ATOM     61  H   UNL A   1      44.673  28.519  32.847  1.00  0.00     0.167 HD
ATOM     62  C   UNL A   1      44.822  28.029  29.866  1.00  0.00     0.074 A 
ATOM     63  C   UNL A   1      44.543  26.881  30.721  1.00  0.00     0.031 C 
ATOM     64  C   UNL A   1      44.839  29.374  30.113  1.00  0.00     0.034 A 
BRANCH  51  65
ATOM     65  C   UNL A   1      42.339  27.909  34.701  1.00  0.00     0.023 A 
ATOM     66  C   UNL A   1      43.155  26.837  34.297  1.00  0.00     0.031 A 
ATOM     67  C   UNL A   1      41.711  27.761  35.959  1.00  0.00     0.131 A 
ATOM     68  C   UNL A   1      43.254  25.671  35.071  1.00  0.00     0.055 A 
ATOM     69  C   UNL A   1      41.879  26.631  36.765  1.00  0.00     0.041 A 
ATOM     70  F   UNL A   1      40.827  28.643  36.438  1.00  0.00    -0.206 F 
ATOM     71  C   UNL A   1      42.631  25.563  36.310  1.00  0.00     0.022 A 
BRANCH  68  72
ATOM     72  S   UNL A   1      44.065  24.230  34.335  1.00  0.00     0.124 S 
ATOM     73  O   UNL A   1      43.317  23.132  34.941  1.00  0.00    -0.237 OA
ATOM     74  O   UNL A   1      43.840  24.455  32.912  1.00  0.00    -0.237 OA
ATOM     75  O   UNL A   1      45.450  24.360  34.778  1.00  0.00    -0.744 OA
ENDBRANCH  68  72
ENDBRANCH  51  65
BRANCH  52  76
ATOM     76  C   UNL A   1      43.151  24.592  27.050  1.00  0.00     0.023 A 
ATOM     77  C   UNL A   1      44.022  24.322  25.977  1.00  0.00     0.031 A 
ATOM     78  C   UNL A   1      42.524  23.482  27.657  1.00  0.00     0.131 A 
ATOM     79  C   UNL A   1      44.241  22.991  25.555  1.00  0.00     0.055 A 
ATOM     80  C   UNL A   1      42.733  22.169  27.230  1.00  0.00     0.041 A 
ATOM     81  F   UNL A   1      41.756  23.631  28.750  1.00  0.00    -0.206 F 
ATOM     82  C   UNL A   1      43.604  21.916  26.180  1.00  0.00     0.022 A 
BRANCH  79  83
ATOM     83  S   UNL A   1      45.471  22.633  24.260  1.00  0.00     0.124 S 
ATOM     84  O   UNL A   1      44.635  22.193  23.150  1.00  0.00    -0.237 OA
ATOM     85  O   UNL A   1      46.139  23.920  24.097  1.00  0.00    -0.237 OA
ATOM     86  O   UNL A   1      46.303  21.588  24.858  1.00  0.00    -0.744 OA
ENDBRANCH  79  83
ENDBRANCH  52  76
BRANCH  64  87
ATOM     87  C   UNL A   1      45.151  30.312  28.960  1.00  0.00     0.023 A 
ATOM     88  C   UNL A   1      46.444  30.750  28.597  1.00  0.00     0.031 A 
ATOM     89  C   UNL A   1      44.079  30.700  28.135  1.00  0.00     0.131 A 
ATOM     90  C   UNL A   1      46.625  31.554  27.453  1.00  0.00     0.055 A 
ATOM     91  C   UNL A   1      44.263  31.481  26.994  1.00  0.00     0.041 A 
ATOM     92  F   UNL A   1      42.827  30.297  28.411  1.00  0.00    -0.206 F 
ATOM     93  C   UNL A   1      45.537  31.917  26.652  1.00  0.00     0.022 A 
BRANCH  90  94
ATOM     94  S   UNL A   1      48.284  32.152  26.991  1.00  0.00     0.124 S 
ATOM     95  O   UNL A   1      48.015  33.185  25.997  1.00  0.00    -0.237 OA
ATOM     96  O   UNL A   1      48.821  32.620  28.266  1.00  0.00    -0.237 OA
ATOM     97  O   UNL A   1      48.943  30.956  26.461  1.00  0.00    -0.744 OA
ENDBRANCH  90  94
ENDBRANCH  64  87
ENDBRANCH  38  39
ENDBRANCH  30  33
ENDBRANCH  28  29
ENDBRANCH  27  28
ENDBRANCH   1  27
TORSDOF 17
ENDMDL
MODEL 2
REMARK VINA RESULT:     -13.2      1.703      2.772
REMARK SMILES Cc1ccc(C)c(NS(=O)(=O)c2cc(C(=O)NCCCCNC(=O)c3ccc(-c4c5nc(c(-c6cc(S(=O)(=O)[O-])ccc6F)c6ccc([nH]6)c(-c6cc(S(=O)(=O)[O-])ccc6F)c6nc(c(-c7cc(S(=O)(=O)[O-])ccc7F)c7ccc4[nH]7)C=C6)C=C5)cc3)ccc2Cl)c1
REMARK SMILES IDX 19 1 18 2 17 3 15 4 16 5 14 7 12 8 13 9 90 10 89 11 91 12
REMARK SMILES IDX 88 13 9 14 10 15 11 16 8 17 7 19 1 20 2 21 3 22 92 23 4 24
REMARK SMILES IDX 5 25 6 26 20 27 21 28 22 29 23 30 24 32 25 33 26 34 87 35
REMARK SMILES IDX 27 36 86 37 28 38 29 39 30 40 80 41 31 42 85 43 79 44 81 45
REMARK SMILES IDX 32 46 84 47 78 48 77 49 33 51 65 52 45 53 64 54 46 55 49 56
REMARK SMILES IDX 63 57 82 58 47 59 48 60 62 62 83 63 50 64 34 65 35 66 43 67
REMARK SMILES IDX 36 68 42 69 44 70 41 71 37 72 38 73 39 74 40 75 66 76 67 77
REMARK SMILES IDX 75 78 68 79 74 80 76 81 73 82 69 83 70 84 71 85 72 86 51 87
REMARK SMILES IDX 52 88 60 89 53 90 59 91 61 92 58 93 54 94 55 95 56 96 57 97
REMARK H PARENT 17 6 8 18 22 31 81 50 49 61
REMARK Flexibility Score: inf
ROOT
ATOM      1  C   UNL A   1      32.674  28.740  25.677  1.00  0.00     0.023 C 
ENDROOT
BRANCH   1   2
ATOM      2  C   UNL A   1      31.556  29.772  25.482  1.00  0.00     0.116 C 
BRANCH   2   3
ATOM      3  N   UNL A   1      31.145  29.995  24.120  1.00  0.00    -0.352 N 
ATOM      4  C   UNL A   1      30.511  29.200  23.210  1.00  0.00     0.251 C 
ATOM      5  O   UNL A   1      30.024  29.774  22.233  1.00  0.00    -0.269 OA
ATOM      6  H   UNL A   1      31.364  30.893  23.779  1.00  0.00     0.163 HD
BRANCH   4   7
ATOM      7  C   UNL A   1      30.448  27.711  23.277  1.00  0.00     0.041 A 
ATOM      8  C   UNL A   1      31.724  25.635  23.019  1.00  0.00     0.107 A 
ATOM      9  C   UNL A   1      31.608  27.030  22.885  1.00  0.00     0.037 A 
ATOM     10  C   UNL A   1      30.732  24.922  23.676  1.00  0.00     0.061 A 
ATOM     11  C   UNL A   1      29.529  25.569  23.964  1.00  0.00     0.023 A 
ATOM     12  Cl  UNL A   1      30.922  23.313  24.262  1.00  0.00    -0.083 Cl
ATOM     13  C   UNL A   1      29.379  26.944  23.737  1.00  0.00     0.015 A 
BRANCH   8  14
ATOM     14  S   UNL A   1      33.068  24.872  22.171  1.00  0.00     0.263 S 
ATOM     15  O   UNL A   1      33.572  25.836  21.236  1.00  0.00    -0.201 OA
ATOM     16  O   UNL A   1      32.598  23.572  21.693  1.00  0.00    -0.201 OA
BRANCH  14  17
ATOM     17  N   UNL A   1      34.335  24.545  23.223  1.00  0.00    -0.279 N 
ATOM     18  H   UNL A   1      35.198  24.972  23.018  1.00  0.00     0.180 HD
BRANCH  17  19
ATOM     19  C   UNL A   1      34.296  23.713  24.389  1.00  0.00     0.052 A 
ATOM     20  C   UNL A   1      34.751  19.935  24.797  1.00  0.00     0.044 C 
ATOM     21  C   UNL A   1      34.578  21.385  25.130  1.00  0.00    -0.049 A 
ATOM     22  C   UNL A   1      34.520  21.815  26.450  1.00  0.00     0.004 A 
ATOM     23  C   UNL A   1      34.499  22.344  24.116  1.00  0.00     0.030 A 
ATOM     24  C   UNL A   1      34.224  23.150  26.733  1.00  0.00     0.006 A 
ATOM     25  C   UNL A   1      34.018  24.096  25.707  1.00  0.00    -0.027 A 
ATOM     26  C   UNL A   1      33.441  25.422  26.114  1.00  0.00     0.046 C 
ENDBRANCH  17  19
ENDBRANCH  14  17
ENDBRANCH   8  14
ENDBRANCH   4   7
ENDBRANCH   2   3
ENDBRANCH   1   2
BRANCH   1  27
ATOM     27  C   UNL A   1      33.906  29.117  26.524  1.00  0.00     0.023 C 
BRANCH  27  28
ATOM     28  C   UNL A   1      33.803  30.184  27.632  1.00  0.00     0.116 C 
BRANCH  28  29
ATOM     29  N   UNL A   1      34.399  31.496  27.313  1.00  0.00    -0.352 N 
ATOM     30  C   UNL A   1      35.527  32.187  27.761  1.00  0.00     0.251 C 
ATOM     31  H   UNL A   1      33.889  31.995  26.635  1.00  0.00     0.163 HD
ATOM     32  O   UNL A   1      35.571  33.403  27.590  1.00  0.00    -0.269 OA
BRANCH  30  33
ATOM     33  C   UNL A   1      36.687  31.493  28.389  1.00  0.00     0.039 A 
ATOM     34  C   UNL A   1      37.567  32.048  29.319  1.00  0.00     0.014 A 
ATOM     35  C   UNL A   1      36.981  30.232  27.925  1.00  0.00     0.014 A 
ATOM     36  C   UNL A   1      38.718  31.320  29.682  1.00  0.00     0.010 A 
ATOM     37  C   UNL A   1      37.966  29.427  28.401  1.00  0.00     0.010 A 
ATOM     38  C   UNL A   1      38.918  30.020  29.183  1.00  0.00    -0.014 A 
BRANCH  38  39
ATOM     39  C   UNL A   1      40.073  29.188  29.455  1.00  0.00     0.031 A 
ATOM     40  C   UNL A   1      40.305  28.940  30.883  1.00  0.00     0.074 A 
ATOM     41  C   UNL A   1      40.697  28.395  28.557  1.00  0.00     0.049 A 
ATOM     42  N   UNL A   1      41.145  29.555  31.639  1.00  0.00    -0.248 NA
ATOM     43  C   UNL A   1      39.399  28.029  31.595  1.00  0.00     0.031 C 
ATOM     44  C   UNL A   1      40.333  28.107  27.164  1.00  0.00     0.029 A 
ATOM     45  N   UNL A   1      41.773  27.586  28.766  1.00  0.00    -0.354 N 
ATOM     46  C   UNL A   1      41.069  28.914  32.863  1.00  0.00     0.074 A 
ATOM     47  C   UNL A   1      39.825  28.189  32.849  1.00  0.00     0.031 C 
ATOM     48  C   UNL A   1      41.070  27.065  26.712  1.00  0.00     0.029 A 
ATOM     49  C   UNL A   1      42.062  26.722  27.718  1.00  0.00     0.049 A 
ATOM     50  H   UNL A   1      42.304  27.611  29.594  1.00  0.00     0.167 HD
ATOM     51  C   UNL A   1      42.162  28.828  33.668  1.00  0.00     0.034 A 
ATOM     52  C   UNL A   1      43.046  25.786  27.688  1.00  0.00     0.034 A 
ATOM     53  C   UNL A   1      43.239  29.665  33.169  1.00  0.00     0.049 A 
ATOM     54  C   UNL A   1      44.069  26.201  28.679  1.00  0.00     0.074 A 
ATOM     55  C   UNL A   1      43.363  31.004  32.847  1.00  0.00     0.029 A 
ATOM     56  N   UNL A   1      44.292  29.038  32.534  1.00  0.00    -0.354 N 
ATOM     57  N   UNL A   1      44.772  27.297  28.576  1.00  0.00    -0.248 NA
ATOM     58  C   UNL A   1      44.038  25.619  30.012  1.00  0.00     0.031 C 
ATOM     59  C   UNL A   1      44.170  31.035  31.670  1.00  0.00     0.029 A 
ATOM     60  C   UNL A   1      44.553  29.725  31.372  1.00  0.00     0.049 A 
ATOM     61  H   UNL A   1      44.772  28.242  32.857  1.00  0.00     0.167 HD
ATOM     62  C   UNL A   1      44.899  27.768  29.873  1.00  0.00     0.074 A 
ATOM     63  C   UNL A   1      44.551  26.631  30.717  1.00  0.00     0.031 C 
ATOM     64  C   UNL A   1      44.995  29.107  30.130  1.00  0.00     0.034 A 
BRANCH  51  65
ATOM     65  C   UNL A   1      42.401  27.754  34.701  1.00  0.00     0.023 A 
ATOM     66  C   UNL A   1      43.259  26.703  34.331  1.00  0.00     0.031 A 
ATOM     67  C   UNL A   1      41.682  27.566  35.903  1.00  0.00     0.131 A 
ATOM     68  C   UNL A   1      43.315  25.517  35.079  1.00  0.00     0.055 A 
ATOM     69  C   UNL A   1      41.804  26.416  36.690  1.00  0.00     0.041 A 
ATOM     70  F   UNL A   1      40.753  28.424  36.338  1.00  0.00    -0.206 F 
ATOM     71  C   UNL A   1      42.602  25.369  36.265  1.00  0.00     0.022 A 
BRANCH  68  72
ATOM     72  S   UNL A   1      44.197  24.106  34.369  1.00  0.00     0.124 S 
ATOM     73  O   UNL A   1      44.001  23.090  35.398  1.00  0.00    -0.237 OA
ATOM     74  O   UNL A   1      43.478  23.904  33.117  1.00  0.00    -0.237 OA
ATOM     75  O   UNL A   1      45.565  24.598  34.232  1.00  0.00    -0.744 OA
ENDBRANCH  68  72
ENDBRANCH  51  65
BRANCH  52  76
ATOM     76  C   UNL A   1      43.037  24.459  27.024  1.00  0.00     0.023 A 
ATOM     77  C   UNL A   1      43.968  24.108  26.027  1.00  0.00     0.031 A 
ATOM     78  C   UNL A   1      42.251  23.414  27.558  1.00  0.00     0.131 A 
ATOM     79  C   UNL A   1      44.089  22.764  25.606  1.00  0.00     0.055 A 
ATOM     80  C   UNL A   1      42.365  22.088  27.131  1.00  0.00     0.041 A 
ATOM     81  F   UNL A   1      41.409  23.633  28.581  1.00  0.00    -0.206 F 
ATOM     82  C   UNL A   1      43.295  21.756  26.158  1.00  0.00     0.022 A 
BRANCH  79  83
ATOM     83  S   UNL A   1      45.386  22.291  24.418  1.00  0.00     0.124 S 
ATOM     84  O   UNL A   1      46.265  21.459  25.231  1.00  0.00    -0.237 OA
ATOM     85  O   UNL A   1      44.625  21.606  23.378  1.00  0.00    -0.237 OA
ATOM     86  O   UNL A   1      45.957  23.575  24.008  1.00  0.00    -0.744 OA
ENDBRANCH  79  83
ENDBRANCH  52  76
BRANCH  64  87
ATOM     87  C   UNL A   1      45.364  30.035  28.986  1.00  0.00     0.023 A 
ATOM     88  C   UNL A   1      46.682  30.403  28.633  1.00  0.00     0.031 A 
ATOM     89  C   UNL A   1      44.320  30.488  28.159  1.00  0.00     0.131 A 
ATOM     90  C   UNL A   1      46.913  31.205  27.496  1.00  0.00     0.055 A 
ATOM     91  C   UNL A   1      44.553  31.266  27.025  1.00  0.00     0.041 A 
ATOM     92  F   UNL A   1      43.046  30.153  28.425  1.00  0.00    -0.206 F 
ATOM     93  C   UNL A   1      45.851  31.633  26.692  1.00  0.00     0.022 A 
BRANCH  90  94
ATOM     94  S   UNL A   1      48.605  31.712  27.046  1.00  0.00     0.124 S 
ATOM     95  O   UNL A   1      49.152  30.537  26.377  1.00  0.00    -0.237 OA
ATOM     96  O   UNL A   1      48.374  32.878  26.198  1.00  0.00    -0.237 OA
ATOM     97  O   UNL A   1      49.225  32.019  28.338  1.00  0.00    -0.744 OA
ENDBRANCH  90  94
ENDBRANCH  64  87
ENDBRANCH  38  39
ENDBRANCH  30  33
ENDBRANCH  28  29
ENDBRANCH  27  28
ENDBRANCH   1  27
TORSDOF 17
ENDMDL
MODEL 3
REMARK VINA RESULT:     -13.2      3.485      7.953
REMARK SMILES Cc1ccc(C)c(NS(=O)(=O)c2cc(C(=O)NCCCCNC(=O)c3ccc(-c4c5nc(c(-c6cc(S(=O)(=O)[O-])ccc6F)c6ccc([nH]6)c(-c6cc(S(=O)(=O)[O-])ccc6F)c6nc(c(-c7cc(S(=O)(=O)[O-])ccc7F)c7ccc4[nH]7)C=C6)C=C5)cc3)ccc2Cl)c1
REMARK SMILES IDX 19 1 18 2 17 3 15 4 16 5 14 7 12 8 13 9 90 10 89 11 91 12
REMARK SMILES IDX 88 13 9 14 10 15 11 16 8 17 7 19 1 20 2 21 3 22 92 23 4 24
REMARK SMILES IDX 5 25 6 26 20 27 21 28 22 29 23 30 24 32 25 33 26 34 87 35
REMARK SMILES IDX 27 36 86 37 28 38 29 39 30 40 80 41 31 42 85 43 79 44 81 45
REMARK SMILES IDX 32 46 84 47 78 48 77 49 33 51 65 52 45 53 64 54 46 55 49 56
REMARK SMILES IDX 63 57 82 58 47 59 48 60 62 62 83 63 50 64 34 65 35 66 43 67
REMARK SMILES IDX 36 68 42 69 44 70 41 71 37 72 38 73 39 74 40 75 66 76 67 77
REMARK SMILES IDX 75 78 68 79 74 80 76 81 73 82 69 83 70 84 71 85 72 86 51 87
REMARK SMILES IDX 52 88 60 89 53 90 59 91 61 92 58 93 54 94 55 95 56 96 57 97
REMARK H PARENT 17 6 8 18 22 31 81 50 49 61
REMARK Flexibility Score: inf
ROOT
ATOM      1  C   UNL A   1      37.497  21.274  24.231  1.00  0.00     0.023 C 
ENDROOT
BRANCH   1   2
ATOM      2  C   UNL A   1      35.989  21.284  24.508  1.00  0.00     0.116 C 
BRANCH   2   3
ATOM      3  N   UNL A   1      35.610  21.280  25.897  1.00  0.00    -0.352 N 
ATOM      4  C   UNL A   1      34.733  22.045  26.611  1.00  0.00     0.251 C 
ATOM      5  O   UNL A   1      34.400  21.603  27.713  1.00  0.00    -0.269 OA
ATOM      6  H   UNL A   1      36.071  20.596  26.434  1.00  0.00     0.163 HD
BRANCH   4   7
ATOM      7  C   UNL A   1      34.235  23.387  26.192  1.00  0.00     0.041 A 
ATOM      8  C   UNL A   1      32.312  24.905  26.199  1.00  0.00     0.107 A 
ATOM      9  C   UNL A   1      32.877  23.639  26.432  1.00  0.00     0.037 A 
ATOM     10  C   UNL A   1      33.129  25.972  25.856  1.00  0.00     0.061 A 
ATOM     11  C   UNL A   1      34.454  25.707  25.505  1.00  0.00     0.023 A 
ATOM     12  Cl  UNL A   1      32.650  27.625  25.938  1.00  0.00    -0.083 Cl
ATOM     13  C   UNL A   1      34.991  24.420  25.642  1.00  0.00     0.015 A 
BRANCH   8  14
ATOM     14  S   UNL A   1      30.550  24.991  26.198  1.00  0.00     0.263 S 
ATOM     15  O   UNL A   1      30.192  26.226  26.833  1.00  0.00    -0.201 OA
ATOM     16  O   UNL A   1      30.053  23.725  26.737  1.00  0.00    -0.201 OA
BRANCH  14  17
ATOM     17  N   UNL A   1      29.955  25.088  24.631  1.00  0.00    -0.279 N 
ATOM     18  H   UNL A   1      29.543  24.272  24.266  1.00  0.00     0.180 HD
BRANCH  17  19
ATOM     19  C   UNL A   1      29.980  26.231  23.767  1.00  0.00     0.052 A 
ATOM     20  C   UNL A   1      27.350  28.926  23.087  1.00  0.00     0.044 C 
ATOM     21  C   UNL A   1      28.648  28.178  23.074  1.00  0.00    -0.049 A 
ATOM     22  C   UNL A   1      29.749  28.666  22.382  1.00  0.00     0.004 A 
ATOM     23  C   UNL A   1      28.788  26.983  23.786  1.00  0.00     0.030 A 
ATOM     24  C   UNL A   1      30.902  27.886  22.274  1.00  0.00     0.006 A 
ATOM     25  C   UNL A   1      30.999  26.620  22.888  1.00  0.00    -0.027 A 
ATOM     26  C   UNL A   1      32.163  25.758  22.486  1.00  0.00     0.046 C 
ENDBRANCH  17  19
ENDBRANCH  14  17
ENDBRANCH   8  14
ENDBRANCH   4   7
ENDBRANCH   2   3
ENDBRANCH   1   2
BRANCH   1  27
ATOM     27  C   UNL A   1      38.466  20.855  25.355  1.00  0.00     0.023 C 
BRANCH  27  28
ATOM     28  C   UNL A   1      38.599  19.376  25.769  1.00  0.00     0.116 C 
BRANCH  28  29
ATOM     29  N   UNL A   1      39.978  18.854  25.839  1.00  0.00    -0.352 N 
ATOM     30  C   UNL A   1      41.242  19.448  25.874  1.00  0.00     0.251 C 
ATOM     31  H   UNL A   1      40.015  17.871  25.866  1.00  0.00     0.163 HD
ATOM     32  O   UNL A   1      42.215  18.764  25.563  1.00  0.00    -0.269 OA
BRANCH  30  33
ATOM     33  C   UNL A   1      41.447  20.855  26.320  1.00  0.00     0.039 A 
ATOM     34  C   UNL A   1      42.055  21.868  25.577  1.00  0.00     0.014 A 
ATOM     35  C   UNL A   1      41.111  21.149  27.620  1.00  0.00     0.014 A 
ATOM     36  C   UNL A   1      42.335  23.097  26.208  1.00  0.00     0.010 A 
ATOM     37  C   UNL A   1      41.183  22.378  28.194  1.00  0.00     0.010 A 
ATOM     38  C   UNL A   1      41.921  23.320  27.533  1.00  0.00    -0.014 A 
BRANCH  38  39
ATOM     39  C   UNL A   1      42.177  24.525  28.298  1.00  0.00     0.031 A 
ATOM     40  C   UNL A   1      41.155  25.565  28.133  1.00  0.00     0.074 A 
ATOM     41  C   UNL A   1      43.030  24.624  29.341  1.00  0.00     0.049 A 
ATOM     42  N   UNL A   1      41.226  26.591  27.360  1.00  0.00    -0.248 NA
ATOM     43  C   UNL A   1      39.842  25.366  28.762  1.00  0.00     0.031 C 
ATOM     44  C   UNL A   1      43.811  23.572  30.002  1.00  0.00     0.029 A 
ATOM     45  N   UNL A   1      43.295  25.725  30.098  1.00  0.00    -0.354 N 
ATOM     46  C   UNL A   1      40.078  27.319  27.618  1.00  0.00     0.074 A 
ATOM     47  C   UNL A   1      39.172  26.407  28.265  1.00  0.00     0.031 C 
ATOM     48  C   UNL A   1      44.324  24.052  31.160  1.00  0.00     0.029 A 
ATOM     49  C   UNL A   1      44.048  25.477  31.238  1.00  0.00     0.049 A 
ATOM     50  H   UNL A   1      42.979  26.625  29.857  1.00  0.00     0.167 HD
ATOM     51  C   UNL A   1      40.081  28.676  27.512  1.00  0.00     0.034 A 
ATOM     52  C   UNL A   1      44.409  26.384  32.182  1.00  0.00     0.034 A 
ATOM     53  C   UNL A   1      41.312  29.144  26.900  1.00  0.00     0.049 A 
ATOM     54  C   UNL A   1      44.357  27.722  31.541  1.00  0.00     0.074 A 
ATOM     55  C   UNL A   1      41.974  28.875  25.716  1.00  0.00     0.029 A 
ATOM     56  N   UNL A   1      42.257  29.718  27.725  1.00  0.00    -0.354 N 
ATOM     57  N   UNL A   1      45.130  28.079  30.551  1.00  0.00    -0.248 NA
ATOM     58  C   UNL A   1      43.167  28.540  31.713  1.00  0.00     0.031 C 
ATOM     59  C   UNL A   1      43.360  28.848  26.059  1.00  0.00     0.029 A 
ATOM     60  C   UNL A   1      43.478  29.167  27.414  1.00  0.00     0.049 A 
ATOM     61  H   UNL A   1      42.087  30.400  28.413  1.00  0.00     0.167 HD
ATOM     62  C   UNL A   1      44.331  28.859  29.732  1.00  0.00     0.074 A 
ATOM     63  C   UNL A   1      43.188  29.219  30.562  1.00  0.00     0.031 C 
ATOM     64  C   UNL A   1      44.533  28.899  28.380  1.00  0.00     0.034 A 
BRANCH  51  65
ATOM     65  C   UNL A   1      39.154  29.609  28.252  1.00  0.00     0.023 A 
ATOM     66  C   UNL A   1      39.498  29.918  29.580  1.00  0.00     0.031 A 
ATOM     67  C   UNL A   1      37.865  30.018  27.841  1.00  0.00     0.131 A 
ATOM     68  C   UNL A   1      38.572  30.519  30.447  1.00  0.00     0.055 A 
ATOM     69  C   UNL A   1      36.976  30.691  28.684  1.00  0.00     0.041 A 
ATOM     70  F   UNL A   1      37.351  29.711  26.645  1.00  0.00    -0.206 F 
ATOM     71  C   UNL A   1      37.315  30.919  30.005  1.00  0.00     0.022 A 
BRANCH  68  72
ATOM     72  S   UNL A   1      38.982  30.595  32.207  1.00  0.00     0.124 S 
ATOM     73  O   UNL A   1      39.300  29.199  32.494  1.00  0.00    -0.237 OA
ATOM     74  O   UNL A   1      40.105  31.526  32.212  1.00  0.00    -0.237 OA
ATOM     75  O   UNL A   1      37.754  31.093  32.818  1.00  0.00    -0.744 OA
ENDBRANCH  68  72
ENDBRANCH  51  65
BRANCH  52  76
ATOM     76  C   UNL A   1      44.574  26.180  33.643  1.00  0.00     0.023 A 
ATOM     77  C   UNL A   1      43.527  26.406  34.559  1.00  0.00     0.031 A 
ATOM     78  C   UNL A   1      45.714  25.506  34.132  1.00  0.00     0.131 A 
ATOM     79  C   UNL A   1      43.642  25.960  35.896  1.00  0.00     0.055 A 
ATOM     80  C   UNL A   1      45.829  25.078  35.457  1.00  0.00     0.041 A 
ATOM     81  F   UNL A   1      46.719  25.157  33.311  1.00  0.00    -0.206 F 
ATOM     82  C   UNL A   1      44.785  25.295  36.344  1.00  0.00     0.022 A 
BRANCH  79  83
ATOM     83  S   UNL A   1      42.234  26.130  37.040  1.00  0.00     0.124 S 
ATOM     84  O   UNL A   1      41.487  27.235  36.452  1.00  0.00    -0.237 OA
ATOM     85  O   UNL A   1      41.609  24.814  36.966  1.00  0.00    -0.237 OA
ATOM     86  O   UNL A   1      42.872  26.430  38.323  1.00  0.00    -0.744 OA
ENDBRANCH  79  83
ENDBRANCH  52  76
BRANCH  64  87
ATOM     87  C   UNL A   1      45.865  28.414  27.837  1.00  0.00     0.023 A 
ATOM     88  C   UNL A   1      46.149  27.083  27.455  1.00  0.00     0.031 A 
ATOM     89  C   UNL A   1      46.862  29.381  27.611  1.00  0.00     0.131 A 
ATOM     90  C   UNL A   1      47.397  26.762  26.882  1.00  0.00     0.055 A 
ATOM     91  C   UNL A   1      48.088  29.063  27.027  1.00  0.00     0.041 A 
ATOM     92  F   UNL A   1      46.646  30.668  27.929  1.00  0.00    -0.206 F 
ATOM     93  C   UNL A   1      48.363  27.750  26.666  1.00  0.00     0.022 A 
BRANCH  90  94
ATOM     94  S   UNL A   1      47.788  25.044  26.412  1.00  0.00     0.124 S 
ATOM     95  O   UNL A   1      49.048  24.777  27.097  1.00  0.00    -0.237 OA
ATOM     96  O   UNL A   1      46.628  24.307  26.905  1.00  0.00    -0.237 OA
ATOM     97  O   UNL A   1      47.891  25.103  24.952  1.00  0.00    -0.744 OA
ENDBRANCH  90  94
ENDBRANCH  64  87
ENDBRANCH  38  39
ENDBRANCH  30  33
ENDBRANCH  28  29
ENDBRANCH  27  28
ENDBRANCH   1  27
TORSDOF 17
ENDMDL
