MODEL 1
REMARK VINA RESULT:      -8.8      0.000      0.000
REMARK SMILES CS(=O)(=O)c1ccc(/C=C(/C(=O)NCCCCNC(=O)c2ccc(-c3c4nc(c(-c5cc(S(=O)(=O)[O-])ccc5F)c5ccc([nH]5)c(-c5cc(S(=O)(=O)[O-])ccc5F)c5nc(c(-c6cc(S(=O)(=O)[O-])ccc6F)c6ccc3[nH]6)C=C5)C=C4)cc2)c2cccc(-c3ccc(S(C)(=O)=O)cc3)c2)cc1
REMARK SMILES IDX 15 1 14 2 13 3 11 4 12 5 10 7 9 8 8 9 5 10 6 11 101 12 7 13
REMARK SMILES IDX 100 14 2 15 1 16 3 17 4 18 84 19 85 20 99 21 86 22 88 23
REMARK SMILES IDX 87 24 89 25 90 26 98 27 91 28 97 29 92 30 93 31 94 32 95 33
REMARK SMILES IDX 96 34 16 35 17 36 18 37 19 38 20 40 21 41 22 42 83 43 23 44
REMARK SMILES IDX 82 45 24 46 25 47 26 48 76 49 27 50 81 51 75 52 77 53 28 54
REMARK SMILES IDX 80 55 74 56 73 57 29 59 61 60 41 61 60 62 42 63 45 64 59 65
REMARK SMILES IDX 78 66 43 67 44 68 58 70 79 71 46 72 30 73 31 74 39 75 32 76
REMARK SMILES IDX 38 77 40 78 37 79 33 80 34 81 35 82 36 83 62 84 63 85 71 86
REMARK SMILES IDX 64 87 70 88 72 89 69 90 65 91 66 92 67 93 68 94 47 95 48 96
REMARK SMILES IDX 56 97 49 98 55 99 57 100 54 101 50 102 51 103 52 104 53 105
REMARK H PARENT 13 6 18 39 77 58 45 69
REMARK Flexibility Score: inf
ROOT
ATOM      1  C   UNL A   1      37.546  33.316  29.696  1.00  0.00     0.023 C 
ENDROOT
BRANCH   1   2
ATOM      2  C   UNL A   1      37.624  34.169  30.964  1.00  0.00     0.116 C 
BRANCH   2   3
ATOM      3  N   UNL A   1      39.007  34.382  31.342  1.00  0.00    -0.352 N 
ATOM      4  C   UNL A   1      39.715  34.173  32.484  1.00  0.00     0.251 C 
ATOM      5  O   UNL A   1      40.898  34.521  32.455  1.00  0.00    -0.269 OA
ATOM      6  H   UNL A   1      39.552  34.758  30.613  1.00  0.00     0.163 HD
BRANCH   4   7
ATOM      7  C   UNL A   1      39.154  33.481  33.709  1.00  0.00     0.047 C 
ATOM      8  C   UNL A   1      38.832  34.153  34.840  1.00  0.00     0.022 C 
BRANCH   8   9
ATOM      9  C   UNL A   1      38.190  33.660  36.080  1.00  0.00    -0.025 A 
ATOM     10  C   UNL A   1      37.114  32.832  38.536  1.00  0.00     0.067 A 
ATOM     11  C   UNL A   1      36.262  33.181  37.486  1.00  0.00     0.021 A 
ATOM     12  C   UNL A   1      38.496  32.831  38.355  1.00  0.00     0.021 A 
ATOM     13  C   UNL A   1      36.803  33.576  36.259  1.00  0.00     0.009 A 
ATOM     14  C   UNL A   1      39.028  33.249  37.130  1.00  0.00     0.009 A 
BRANCH  10  15
ATOM     15  S   UNL A   1      36.417  32.334  40.094  1.00  0.00     0.175 S 
ATOM     16  C   UNL A   1      37.651  31.263  40.785  1.00  0.00     0.163 C 
ATOM     17  O   UNL A   1      35.236  31.538  39.820  1.00  0.00    -0.224 OA
ATOM     18  O   UNL A   1      36.334  33.522  40.924  1.00  0.00    -0.224 OA
ENDBRANCH  10  15
ENDBRANCH   8   9
BRANCH   7  19
ATOM     19  C   UNL A   1      39.122  31.994  33.686  1.00  0.00    -0.012 A 
ATOM     20  C   UNL A   1      38.017  31.341  33.117  1.00  0.00     0.009 A 
ATOM     21  C   UNL A   1      40.217  31.225  34.103  1.00  0.00     0.017 A 
ATOM     22  C   UNL A   1      38.012  29.959  32.948  1.00  0.00     0.001 A 
ATOM     23  C   UNL A   1      40.258  29.838  33.876  1.00  0.00    -0.018 A 
ATOM     24  C   UNL A   1      39.132  29.215  33.311  1.00  0.00     0.009 A 
BRANCH  23  25
ATOM     25  C   UNL A   1      41.498  29.089  34.109  1.00  0.00    -0.018 A 
ATOM     26  C   UNL A   1      42.065  29.063  35.398  1.00  0.00     0.010 A 
ATOM     27  C   UNL A   1      42.097  28.326  33.096  1.00  0.00     0.010 A 
ATOM     28  C   UNL A   1      43.183  28.278  35.674  1.00  0.00     0.021 A 
ATOM     29  C   UNL A   1      43.221  27.539  33.362  1.00  0.00     0.021 A 
ATOM     30  C   UNL A   1      43.753  27.518  34.652  1.00  0.00     0.067 A 
BRANCH  30  31
ATOM     31  S   UNL A   1      45.124  26.460  35.037  1.00  0.00     0.175 S 
ATOM     32  C   UNL A   1      45.901  27.263  36.414  1.00  0.00     0.163 C 
ATOM     33  O   UNL A   1      44.559  25.202  35.500  1.00  0.00    -0.224 OA
ATOM     34  O   UNL A   1      46.046  26.497  33.923  1.00  0.00    -0.224 OA
ENDBRANCH  30  31
ENDBRANCH  23  25
ENDBRANCH   7  19
ENDBRANCH   4   7
ENDBRANCH   2   3
ENDBRANCH   1   2
BRANCH   1  35
ATOM     35  C   UNL A   1      36.170  33.309  29.015  1.00  0.00     0.023 C 
BRANCH  35  36
ATOM     36  C   UNL A   1      35.093  32.488  29.722  1.00  0.00     0.116 C 
BRANCH  36  37
ATOM     37  N   UNL A   1      34.380  31.597  28.823  1.00  0.00    -0.352 N 
ATOM     38  C   UNL A   1      34.833  30.493  28.147  1.00  0.00     0.251 C 
ATOM     39  H   UNL A   1      33.431  31.819  28.678  1.00  0.00     0.163 HD
ATOM     40  O   UNL A   1      34.090  29.942  27.340  1.00  0.00    -0.269 OA
BRANCH  38  41
ATOM     41  C   UNL A   1      36.213  29.999  28.350  1.00  0.00     0.039 A 
ATOM     42  C   UNL A   1      37.137  30.173  27.316  1.00  0.00     0.014 A 
ATOM     43  C   UNL A   1      36.600  29.360  29.533  1.00  0.00     0.014 A 
ATOM     44  C   UNL A   1      38.459  29.760  27.490  1.00  0.00     0.010 A 
ATOM     45  C   UNL A   1      37.934  29.003  29.727  1.00  0.00     0.010 A 
ATOM     46  C   UNL A   1      38.877  29.201  28.708  1.00  0.00    -0.014 A 
BRANCH  46  47
ATOM     47  C   UNL A   1      40.303  28.846  28.921  1.00  0.00     0.031 A 
ATOM     48  C   UNL A   1      41.202  29.733  29.736  1.00  0.00     0.074 A 
ATOM     49  C   UNL A   1      40.794  27.732  28.341  1.00  0.00     0.049 A 
ATOM     50  N   UNL A   1      42.464  29.574  30.042  1.00  0.00    -0.248 NA
ATOM     51  C   UNL A   1      40.610  30.976  30.250  1.00  0.00     0.031 C 
ATOM     52  C   UNL A   1      40.035  26.829  27.473  1.00  0.00     0.029 A 
ATOM     53  N   UNL A   1      42.043  27.167  28.395  1.00  0.00    -0.354 N 
ATOM     54  C   UNL A   1      42.822  30.697  30.782  1.00  0.00     0.074 A 
ATOM     55  C   UNL A   1      41.656  31.556  30.821  1.00  0.00     0.031 C 
ATOM     56  C   UNL A   1      40.823  25.808  27.103  1.00  0.00     0.029 A 
ATOM     57  C   UNL A   1      42.149  25.996  27.683  1.00  0.00     0.049 A 
ATOM     58  H   UNL A   1      42.792  27.564  28.894  1.00  0.00     0.167 HD
ATOM     59  C   UNL A   1      44.003  30.973  31.389  1.00  0.00     0.034 A 
ATOM     60  C   UNL A   1      43.195  25.162  27.523  1.00  0.00     0.034 A 
ATOM     61  C   UNL A   1      45.154  30.101  31.343  1.00  0.00     0.049 A 
ATOM     62  C   UNL A   1      44.486  25.474  28.231  1.00  0.00     0.074 A 
ATOM     63  C   UNL A   1      46.384  30.258  31.959  1.00  0.00     0.029 A 
ATOM     64  N   UNL A   1      45.220  28.908  30.632  1.00  0.00    -0.354 N 
ATOM     65  N   UNL A   1      44.788  26.508  28.983  1.00  0.00    -0.248 NA
ATOM     66  C   UNL A   1      45.568  24.493  28.089  1.00  0.00     0.031 C 
ATOM     67  C   UNL A   1      47.208  29.192  31.577  1.00  0.00     0.029 A 
ATOM     68  C   UNL A   1      46.474  28.331  30.778  1.00  0.00     0.049 A 
ATOM     69  H   UNL A   1      44.482  28.528  30.102  1.00  0.00     0.167 HD
ATOM     70  C   UNL A   1      46.091  26.288  29.421  1.00  0.00     0.074 A 
ATOM     71  C   UNL A   1      46.500  25.010  28.872  1.00  0.00     0.031 C 
ATOM     72  C   UNL A   1      46.877  27.068  30.206  1.00  0.00     0.034 A 
BRANCH  59  73
ATOM     73  C   UNL A   1      44.108  32.285  32.133  1.00  0.00     0.023 A 
ATOM     74  C   UNL A   1      43.818  32.377  33.507  1.00  0.00     0.031 A 
ATOM     75  C   UNL A   1      44.467  33.464  31.458  1.00  0.00     0.131 A 
ATOM     76  C   UNL A   1      43.813  33.630  34.142  1.00  0.00     0.055 A 
ATOM     77  C   UNL A   1      44.541  34.696  32.114  1.00  0.00     0.041 A 
ATOM     78  F   UNL A   1      44.737  33.445  30.144  1.00  0.00    -0.206 F 
ATOM     79  C   UNL A   1      44.198  34.786  33.460  1.00  0.00     0.022 A 
BRANCH  76  80
ATOM     80  S   UNL A   1      43.158  33.744  35.829  1.00  0.00     0.124 S 
ATOM     81  O   UNL A   1      42.130  34.770  35.677  1.00  0.00    -0.237 OA
ATOM     82  O   UNL A   1      42.678  32.388  36.074  1.00  0.00    -0.237 OA
ATOM     83  O   UNL A   1      44.319  34.147  36.620  1.00  0.00    -0.744 OA
ENDBRANCH  76  80
ENDBRANCH  59  73
BRANCH  60  84
ATOM     84  C   UNL A   1      43.063  23.943  26.676  1.00  0.00     0.023 A 
ATOM     85  C   UNL A   1      42.348  22.824  27.128  1.00  0.00     0.031 A 
ATOM     86  C   UNL A   1      43.682  23.870  25.416  1.00  0.00     0.131 A 
ATOM     87  C   UNL A   1      42.307  21.659  26.346  1.00  0.00     0.055 A 
ATOM     88  C   UNL A   1      43.598  22.726  24.621  1.00  0.00     0.041 A 
ATOM     89  F   UNL A   1      44.366  24.919  24.934  1.00  0.00    -0.206 F 
ATOM     90  C   UNL A   1      42.918  21.606  25.091  1.00  0.00     0.022 A 
BRANCH  87  91
ATOM     91  S   UNL A   1      41.500  20.184  27.027  1.00  0.00     0.124 S 
ATOM     92  O   UNL A   1      42.638  19.303  27.265  1.00  0.00    -0.237 OA
ATOM     93  O   UNL A   1      40.846  20.721  28.216  1.00  0.00    -0.237 OA
ATOM     94  O   UNL A   1      40.598  19.765  25.957  1.00  0.00    -0.744 OA
ENDBRANCH  87  91
ENDBRANCH  60  84
BRANCH  72  95
ATOM     95  C   UNL A   1      48.251  26.532  30.530  1.00  0.00     0.023 A 
ATOM     96  C   UNL A   1      48.457  25.623  31.584  1.00  0.00     0.031 A 
ATOM     97  C   UNL A   1      49.374  26.978  29.813  1.00  0.00     0.131 A 
ATOM     98  C   UNL A   1      49.762  25.251  31.941  1.00  0.00     0.055 A 
ATOM     99  C   UNL A   1      50.665  26.552  30.131  1.00  0.00     0.041 A 
ATOM    100  F   UNL A   1      49.238  27.847  28.798  1.00  0.00    -0.206 F 
ATOM    101  C   UNL A   1      50.866  25.699  31.213  1.00  0.00     0.022 A 
BRANCH  98 102
ATOM    102  S   UNL A   1      50.003  24.275  33.451  1.00  0.00     0.124 S 
ATOM    103  O   UNL A   1      48.640  24.161  33.962  1.00  0.00    -0.237 OA
ATOM    104  O   UNL A   1      50.595  23.045  32.934  1.00  0.00    -0.237 OA
ATOM    105  O   UNL A   1      50.899  25.105  34.255  1.00  0.00    -0.744 OA
ENDBRANCH  98 102
ENDBRANCH  72  95
ENDBRANCH  46  47
ENDBRANCH  38  41
ENDBRANCH  36  37
ENDBRANCH  35  36
ENDBRANCH   1  35
TORSDOF 19
ENDMDL
MODEL 2
REMARK VINA RESULT:      -8.8      4.248     11.808
REMARK SMILES CS(=O)(=O)c1ccc(/C=C(/C(=O)NCCCCNC(=O)c2ccc(-c3c4nc(c(-c5cc(S(=O)(=O)[O-])ccc5F)c5ccc([nH]5)c(-c5cc(S(=O)(=O)[O-])ccc5F)c5nc(c(-c6cc(S(=O)(=O)[O-])ccc6F)c6ccc3[nH]6)C=C5)C=C4)cc2)c2cccc(-c3ccc(S(C)(=O)=O)cc3)c2)cc1
REMARK SMILES IDX 15 1 14 2 13 3 11 4 12 5 10 7 9 8 8 9 5 10 6 11 101 12 7 13
REMARK SMILES IDX 100 14 2 15 1 16 3 17 4 18 84 19 85 20 99 21 86 22 88 23
REMARK SMILES IDX 87 24 89 25 90 26 98 27 91 28 97 29 92 30 93 31 94 32 95 33
REMARK SMILES IDX 96 34 16 35 17 36 18 37 19 38 20 40 21 41 22 42 83 43 23 44
REMARK SMILES IDX 82 45 24 46 25 47 26 48 76 49 27 50 81 51 75 52 77 53 28 54
REMARK SMILES IDX 80 55 74 56 73 57 29 59 61 60 41 61 60 62 42 63 45 64 59 65
REMARK SMILES IDX 78 66 43 67 44 68 58 70 79 71 46 72 30 73 31 74 39 75 32 76
REMARK SMILES IDX 38 77 40 78 37 79 33 80 34 81 35 82 36 83 62 84 63 85 71 86
REMARK SMILES IDX 64 87 70 88 72 89 69 90 65 91 66 92 67 93 68 94 47 95 48 96
REMARK SMILES IDX 56 97 49 98 55 99 57 100 54 101 50 102 51 103 52 104 53 105
REMARK H PARENT 13 6 18 39 77 58 45 69
REMARK Flexibility Score: inf
ROOT
ATOM      1  C   UNL A   1      46.718  29.151  26.552  1.00  0.00     0.023 C 
ENDROOT
BRANCH   1   2
ATOM      2  C   UNL A   1      45.610  28.131  26.830  1.00  0.00     0.116 C 
BRANCH   2   3
ATOM      3  N   UNL A   1      44.654  28.120  25.740  1.00  0.00    -0.352 N 
ATOM      4  C   UNL A   1      43.314  27.905  25.666  1.00  0.00     0.251 C 
ATOM      5  O   UNL A   1      42.826  27.934  24.533  1.00  0.00    -0.269 OA
ATOM      6  H   UNL A   1      45.063  28.309  24.865  1.00  0.00     0.163 HD
BRANCH   4   7
ATOM      7  C   UNL A   1      42.419  27.727  26.877  1.00  0.00     0.047 C 
ATOM      8  C   UNL A   1      42.033  28.766  27.654  1.00  0.00     0.022 C 
BRANCH   8   9
ATOM      9  C   UNL A   1      41.096  28.789  28.800  1.00  0.00    -0.025 A 
ATOM     10  C   UNL A   1      39.191  28.718  30.860  1.00  0.00     0.067 A 
ATOM     11  C   UNL A   1      40.548  28.598  31.164  1.00  0.00     0.021 A 
ATOM     12  C   UNL A   1      38.777  28.936  29.547  1.00  0.00     0.021 A 
ATOM     13  C   UNL A   1      41.495  28.652  30.136  1.00  0.00     0.009 A 
ATOM     14  C   UNL A   1      39.730  28.966  28.523  1.00  0.00     0.009 A 
BRANCH  10  15
ATOM     15  S   UNL A   1      37.995  28.645  32.173  1.00  0.00     0.175 S 
ATOM     16  C   UNL A   1      38.459  29.985  33.240  1.00  0.00     0.163 C 
ATOM     17  O   UNL A   1      38.202  27.405  32.896  1.00  0.00    -0.224 OA
ATOM     18  O   UNL A   1      36.702  28.957  31.593  1.00  0.00    -0.224 OA
ENDBRANCH  10  15
ENDBRANCH   8   9
BRANCH   7  19
ATOM     19  C   UNL A   1      42.110  26.330  27.284  1.00  0.00    -0.012 A 
ATOM     20  C   UNL A   1      42.795  25.767  28.373  1.00  0.00     0.009 A 
ATOM     21  C   UNL A   1      41.070  25.601  26.694  1.00  0.00     0.017 A 
ATOM     22  C   UNL A   1      42.439  24.518  28.874  1.00  0.00     0.001 A 
ATOM     23  C   UNL A   1      40.651  24.370  27.231  1.00  0.00    -0.018 A 
ATOM     24  C   UNL A   1      41.363  23.832  28.316  1.00  0.00     0.009 A 
BRANCH  23  25
ATOM     25  C   UNL A   1      39.421  23.735  26.743  1.00  0.00    -0.018 A 
ATOM     26  C   UNL A   1      38.265  24.513  26.544  1.00  0.00     0.010 A 
ATOM     27  C   UNL A   1      39.387  22.377  26.390  1.00  0.00     0.010 A 
ATOM     28  C   UNL A   1      37.115  23.959  25.984  1.00  0.00     0.021 A 
ATOM     29  C   UNL A   1      38.236  21.812  25.833  1.00  0.00     0.021 A 
ATOM     30  C   UNL A   1      37.109  22.610  25.630  1.00  0.00     0.067 A 
BRANCH  30  31
ATOM     31  S   UNL A   1      35.668  21.939  24.843  1.00  0.00     0.175 S 
ATOM     32  C   UNL A   1      34.338  22.908  25.504  1.00  0.00     0.163 C 
ATOM     33  O   UNL A   1      35.793  22.240  23.425  1.00  0.00    -0.224 OA
ATOM     34  O   UNL A   1      35.498  20.578  25.303  1.00  0.00    -0.224 OA
ENDBRANCH  30  31
ENDBRANCH  23  25
ENDBRANCH   7  19
ENDBRANCH   4   7
ENDBRANCH   2   3
ENDBRANCH   1   2
BRANCH   1  35
ATOM     35  C   UNL A   1      46.260  30.395  25.779  1.00  0.00     0.023 C 
BRANCH  35  36
ATOM     36  C   UNL A   1      46.117  31.668  26.611  1.00  0.00     0.116 C 
BRANCH  36  37
ATOM     37  N   UNL A   1      45.512  32.762  25.873  1.00  0.00    -0.352 N 
ATOM     38  C   UNL A   1      44.511  33.620  26.249  1.00  0.00     0.251 C 
ATOM     39  H   UNL A   1      45.874  32.909  24.968  1.00  0.00     0.163 HD
ATOM     40  O   UNL A   1      44.061  34.411  25.423  1.00  0.00    -0.269 OA
BRANCH  38  41
ATOM     41  C   UNL A   1      43.946  33.566  27.615  1.00  0.00     0.039 A 
ATOM     42  C   UNL A   1      43.709  34.771  28.282  1.00  0.00     0.014 A 
ATOM     43  C   UNL A   1      43.660  32.351  28.247  1.00  0.00     0.014 A 
ATOM     44  C   UNL A   1      43.135  34.760  29.554  1.00  0.00     0.010 A 
ATOM     45  C   UNL A   1      43.032  32.343  29.492  1.00  0.00     0.010 A 
ATOM     46  C   UNL A   1      42.762  33.547  30.157  1.00  0.00    -0.014 A 
BRANCH  46  47
ATOM     47  C   UNL A   1      42.069  33.545  31.471  1.00  0.00     0.031 A 
ATOM     48  C   UNL A   1      40.579  33.723  31.554  1.00  0.00     0.074 A 
ATOM     49  C   UNL A   1      42.801  33.417  32.596  1.00  0.00     0.049 A 
ATOM     50  N   UNL A   1      39.804  33.728  32.609  1.00  0.00    -0.248 NA
ATOM     51  C   UNL A   1      39.871  33.952  30.286  1.00  0.00     0.031 C 
ATOM     52  C   UNL A   1      44.260  33.306  32.644  1.00  0.00     0.029 A 
ATOM     53  N   UNL A   1      42.420  33.357  33.912  1.00  0.00    -0.354 N 
ATOM     54  C   UNL A   1      38.517  33.965  32.136  1.00  0.00     0.074 A 
ATOM     55  C   UNL A   1      38.631  34.160  30.705  1.00  0.00     0.031 C 
ATOM     56  C   UNL A   1      44.648  33.158  33.920  1.00  0.00     0.029 A 
ATOM     57  C   UNL A   1      43.472  33.192  34.783  1.00  0.00     0.049 A 
ATOM     58  H   UNL A   1      41.484  33.427  34.206  1.00  0.00     0.167 HD
ATOM     59  C   UNL A   1      37.350  33.995  32.826  1.00  0.00     0.034 A 
ATOM     60  C   UNL A   1      43.485  33.070  36.125  1.00  0.00     0.034 A 
ATOM     61  C   UNL A   1      37.256  33.793  34.253  1.00  0.00     0.049 A 
ATOM     62  C   UNL A   1      42.175  33.075  36.867  1.00  0.00     0.074 A 
ATOM     63  C   UNL A   1      36.123  33.755  35.049  1.00  0.00     0.029 A 
ATOM     64  N   UNL A   1      38.339  33.603  35.103  1.00  0.00    -0.354 N 
ATOM     65  N   UNL A   1      40.959  33.234  36.396  1.00  0.00    -0.248 NA
ATOM     66  C   UNL A   1      42.239  32.860  38.316  1.00  0.00     0.031 C 
ATOM     67  C   UNL A   1      36.525  33.598  36.382  1.00  0.00     0.029 A 
ATOM     68  C   UNL A   1      37.903  33.468  36.414  1.00  0.00     0.049 A 
ATOM     69  H   UNL A   1      39.281  33.568  34.816  1.00  0.00     0.167 HD
ATOM     70  C   UNL A   1      40.112  33.115  37.494  1.00  0.00     0.074 A 
ATOM     71  C   UNL A   1      40.956  32.842  38.640  1.00  0.00     0.031 C 
ATOM     72  C   UNL A   1      38.759  33.219  37.551  1.00  0.00     0.034 A 
BRANCH  59  73
ATOM     73  C   UNL A   1      36.090  34.278  32.042  1.00  0.00     0.023 A 
ATOM     74  C   UNL A   1      35.365  35.471  32.219  1.00  0.00     0.031 A 
ATOM     75  C   UNL A   1      35.585  33.334  31.131  1.00  0.00     0.131 A 
ATOM     76  C   UNL A   1      34.138  35.652  31.560  1.00  0.00     0.055 A 
ATOM     77  C   UNL A   1      34.406  33.556  30.416  1.00  0.00     0.041 A 
ATOM     78  F   UNL A   1      36.222  32.169  30.931  1.00  0.00    -0.206 F 
ATOM     79  C   UNL A   1      33.666  34.713  30.641  1.00  0.00     0.022 A 
BRANCH  76  80
ATOM     80  S   UNL A   1      33.100  37.062  32.033  1.00  0.00     0.124 S 
ATOM     81  O   UNL A   1      32.978  37.776  30.765  1.00  0.00    -0.237 OA
ATOM     82  O   UNL A   1      31.888  36.413  32.521  1.00  0.00    -0.237 OA
ATOM     83  O   UNL A   1      33.895  37.746  33.051  1.00  0.00    -0.744 OA
ENDBRANCH  76  80
ENDBRANCH  59  73
BRANCH  60  84
ATOM     84  C   UNL A   1      44.774  32.913  36.854  1.00  0.00     0.023 A 
ATOM     85  C   UNL A   1      45.395  31.659  36.961  1.00  0.00     0.031 A 
ATOM     86  C   UNL A   1      45.387  34.011  37.482  1.00  0.00     0.131 A 
ATOM     87  C   UNL A   1      46.567  31.523  37.722  1.00  0.00     0.055 A 
ATOM     88  C   UNL A   1      46.578  33.879  38.197  1.00  0.00     0.041 A 
ATOM     89  F   UNL A   1      44.840  35.233  37.397  1.00  0.00    -0.206 F 
ATOM     90  C   UNL A   1      47.168  32.626  38.331  1.00  0.00     0.022 A 
BRANCH  87  91
ATOM     91  S   UNL A   1      47.257  29.862  37.962  1.00  0.00     0.124 S 
ATOM     92  O   UNL A   1      46.075  29.101  38.351  1.00  0.00    -0.237 OA
ATOM     93  O   UNL A   1      47.803  29.569  36.641  1.00  0.00    -0.237 OA
ATOM     94  O   UNL A   1      48.250  30.056  39.016  1.00  0.00    -0.744 OA
ENDBRANCH  87  91
ENDBRANCH  60  84
BRANCH  72  95
ATOM     95  C   UNL A   1      38.123  33.008  38.904  1.00  0.00     0.023 A 
ATOM     96  C   UNL A   1      38.195  33.985  39.913  1.00  0.00     0.031 A 
ATOM     97  C   UNL A   1      37.486  31.792  39.205  1.00  0.00     0.131 A 
ATOM     98  C   UNL A   1      37.709  33.700  41.198  1.00  0.00     0.055 A 
ATOM     99  C   UNL A   1      36.946  31.539  40.468  1.00  0.00     0.041 A 
ATOM    100  F   UNL A   1      37.389  30.822  38.282  1.00  0.00    -0.206 F 
ATOM    101  C   UNL A   1      37.073  32.489  41.478  1.00  0.00     0.022 A 
BRANCH  98 102
ATOM    102  S   UNL A   1      38.037  34.886  42.532  1.00  0.00     0.124 S 
ATOM    103  O   UNL A   1      36.758  34.915  43.235  1.00  0.00    -0.237 OA
ATOM    104  O   UNL A   1      39.142  34.254  43.244  1.00  0.00    -0.237 OA
ATOM    105  O   UNL A   1      38.380  36.116  41.819  1.00  0.00    -0.744 OA
ENDBRANCH  98 102
ENDBRANCH  72  95
ENDBRANCH  46  47
ENDBRANCH  38  41
ENDBRANCH  36  37
ENDBRANCH  35  36
ENDBRANCH   1  35
TORSDOF 19
ENDMDL
MODEL 3
REMARK VINA RESULT:      -8.7      4.093     11.642
REMARK SMILES CS(=O)(=O)c1ccc(/C=C(/C(=O)NCCCCNC(=O)c2ccc(-c3c4nc(c(-c5cc(S(=O)(=O)[O-])ccc5F)c5ccc([nH]5)c(-c5cc(S(=O)(=O)[O-])ccc5F)c5nc(c(-c6cc(S(=O)(=O)[O-])ccc6F)c6ccc3[nH]6)C=C5)C=C4)cc2)c2cccc(-c3ccc(S(C)(=O)=O)cc3)c2)cc1
REMARK SMILES IDX 15 1 14 2 13 3 11 4 12 5 10 7 9 8 8 9 5 10 6 11 101 12 7 13
REMARK SMILES IDX 100 14 2 15 1 16 3 17 4 18 84 19 85 20 99 21 86 22 88 23
REMARK SMILES IDX 87 24 89 25 90 26 98 27 91 28 97 29 92 30 93 31 94 32 95 33
REMARK SMILES IDX 96 34 16 35 17 36 18 37 19 38 20 40 21 41 22 42 83 43 23 44
REMARK SMILES IDX 82 45 24 46 25 47 26 48 76 49 27 50 81 51 75 52 77 53 28 54
REMARK SMILES IDX 80 55 74 56 73 57 29 59 61 60 41 61 60 62 42 63 45 64 59 65
REMARK SMILES IDX 78 66 43 67 44 68 58 70 79 71 46 72 30 73 31 74 39 75 32 76
REMARK SMILES IDX 38 77 40 78 37 79 33 80 34 81 35 82 36 83 62 84 63 85 71 86
REMARK SMILES IDX 64 87 70 88 72 89 69 90 65 91 66 92 67 93 68 94 47 95 48 96
REMARK SMILES IDX 56 97 49 98 55 99 57 100 54 101 50 102 51 103 52 104 53 105
REMARK H PARENT 13 6 18 39 77 58 45 69
REMARK Flexibility Score: inf
ROOT
ATOM      1  C   UNL A   1      46.562  29.131  26.660  1.00  0.00     0.023 C 
ENDROOT
BRANCH   1   2
ATOM      2  C   UNL A   1      45.366  28.230  26.976  1.00  0.00     0.116 C 
BRANCH   2   3
ATOM      3  N   UNL A   1      44.414  28.255  25.883  1.00  0.00    -0.352 N 
ATOM      4  C   UNL A   1      43.067  28.091  25.804  1.00  0.00     0.251 C 
ATOM      5  O   UNL A   1      42.585  28.139  24.669  1.00  0.00    -0.269 OA
ATOM      6  H   UNL A   1      44.834  28.430  25.010  1.00  0.00     0.163 HD
BRANCH   4   7
ATOM      7  C   UNL A   1      42.162  27.944  27.010  1.00  0.00     0.047 C 
ATOM      8  C   UNL A   1      42.075  28.892  27.973  1.00  0.00     0.022 C 
BRANCH   8   9
ATOM      9  C   UNL A   1      41.183  28.959  29.153  1.00  0.00    -0.025 A 
ATOM     10  C   UNL A   1      39.333  29.076  31.260  1.00  0.00     0.067 A 
ATOM     11  C   UNL A   1      40.496  28.315  31.397  1.00  0.00     0.021 A 
ATOM     12  C   UNL A   1      39.112  29.829  30.109  1.00  0.00     0.021 A 
ATOM     13  C   UNL A   1      41.423  28.274  30.351  1.00  0.00     0.009 A 
ATOM     14  C   UNL A   1      40.035  29.764  29.059  1.00  0.00     0.009 A 
BRANCH  10  15
ATOM     15  S   UNL A   1      38.158  29.118  32.594  1.00  0.00     0.175 S 
ATOM     16  C   UNL A   1      36.676  29.723  31.830  1.00  0.00     0.163 C 
ATOM     17  O   UNL A   1      38.606  30.111  33.551  1.00  0.00    -0.224 OA
ATOM     18  O   UNL A   1      37.927  27.745  33.004  1.00  0.00    -0.224 OA
ENDBRANCH  10  15
ENDBRANCH   8   9
BRANCH   7  19
ATOM     19  C   UNL A   1      41.487  26.630  27.188  1.00  0.00    -0.012 A 
ATOM     20  C   UNL A   1      40.118  26.601  27.501  1.00  0.00     0.009 A 
ATOM     21  C   UNL A   1      42.145  25.421  26.932  1.00  0.00     0.017 A 
ATOM     22  C   UNL A   1      39.418  25.398  27.537  1.00  0.00     0.001 A 
ATOM     23  C   UNL A   1      41.439  24.205  26.895  1.00  0.00    -0.018 A 
ATOM     24  C   UNL A   1      40.072  24.210  27.220  1.00  0.00     0.009 A 
BRANCH  23  25
ATOM     25  C   UNL A   1      42.095  22.987  26.404  1.00  0.00    -0.018 A 
ATOM     26  C   UNL A   1      43.068  23.079  25.391  1.00  0.00     0.010 A 
ATOM     27  C   UNL A   1      41.836  21.733  26.976  1.00  0.00     0.010 A 
ATOM     28  C   UNL A   1      43.782  21.955  24.978  1.00  0.00     0.021 A 
ATOM     29  C   UNL A   1      42.543  20.599  26.565  1.00  0.00     0.021 A 
ATOM     30  C   UNL A   1      43.515  20.721  25.571  1.00  0.00     0.067 A 
BRANCH  30  31
ATOM     31  S   UNL A   1      44.489  19.316  25.095  1.00  0.00     0.175 S 
ATOM     32  C   UNL A   1      44.651  19.493  23.337  1.00  0.00     0.163 C 
ATOM     33  O   UNL A   1      45.800  19.498  25.696  1.00  0.00    -0.224 OA
ATOM     34  O   UNL A   1      43.711  18.124  25.351  1.00  0.00    -0.224 OA
ENDBRANCH  30  31
ENDBRANCH  23  25
ENDBRANCH   7  19
ENDBRANCH   4   7
ENDBRANCH   2   3
ENDBRANCH   1   2
BRANCH   1  35
ATOM     35  C   UNL A   1      46.215  30.392  25.854  1.00  0.00     0.023 C 
BRANCH  35  36
ATOM     36  C   UNL A   1      46.128  31.684  26.664  1.00  0.00     0.116 C 
BRANCH  36  37
ATOM     37  N   UNL A   1      45.525  32.777  25.924  1.00  0.00    -0.352 N 
ATOM     38  C   UNL A   1      44.520  33.633  26.295  1.00  0.00     0.251 C 
ATOM     39  H   UNL A   1      45.892  32.926  25.022  1.00  0.00     0.163 HD
ATOM     40  O   UNL A   1      44.073  34.424  25.467  1.00  0.00    -0.269 OA
BRANCH  38  41
ATOM     41  C   UNL A   1      43.946  33.576  27.657  1.00  0.00     0.039 A 
ATOM     42  C   UNL A   1      43.737  34.779  28.338  1.00  0.00     0.014 A 
ATOM     43  C   UNL A   1      43.627  32.361  28.272  1.00  0.00     0.014 A 
ATOM     44  C   UNL A   1      43.156  34.767  29.607  1.00  0.00     0.010 A 
ATOM     45  C   UNL A   1      42.992  32.354  29.514  1.00  0.00     0.010 A 
ATOM     46  C   UNL A   1      42.748  33.557  30.193  1.00  0.00    -0.014 A 
BRANCH  46  47
ATOM     47  C   UNL A   1      42.049  33.556  31.503  1.00  0.00     0.031 A 
ATOM     48  C   UNL A   1      40.562  33.761  31.580  1.00  0.00     0.074 A 
ATOM     49  C   UNL A   1      42.772  33.404  32.631  1.00  0.00     0.049 A 
ATOM     50  N   UNL A   1      39.782  33.772  32.630  1.00  0.00    -0.248 NA
ATOM     51  C   UNL A   1      39.866  34.016  30.311  1.00  0.00     0.031 C 
ATOM     52  C   UNL A   1      44.229  33.265  32.685  1.00  0.00     0.029 A 
ATOM     53  N   UNL A   1      42.384  33.340  33.944  1.00  0.00    -0.354 N 
ATOM     54  C   UNL A   1      38.502  34.038  32.153  1.00  0.00     0.074 A 
ATOM     55  C   UNL A   1      38.628  34.243  30.724  1.00  0.00     0.031 C 
ATOM     56  C   UNL A   1      44.607  33.098  33.962  1.00  0.00     0.029 A 
ATOM     57  C   UNL A   1      43.427  33.146  34.819  1.00  0.00     0.049 A 
ATOM     58  H   UNL A   1      41.447  33.425  34.234  1.00  0.00     0.167 HD
ATOM     59  C   UNL A   1      37.332  34.083  32.837  1.00  0.00     0.034 A 
ATOM     60  C   UNL A   1      43.431  33.012  36.159  1.00  0.00     0.034 A 
ATOM     61  C   UNL A   1      37.226  33.871  34.263  1.00  0.00     0.049 A 
ATOM     62  C   UNL A   1      42.117  33.036  36.894  1.00  0.00     0.074 A 
ATOM     63  C   UNL A   1      36.089  33.847  35.052  1.00  0.00     0.029 A 
ATOM     64  N   UNL A   1      38.302  33.652  35.116  1.00  0.00    -0.354 N 
ATOM     65  N   UNL A   1      40.907  33.222  36.419  1.00  0.00    -0.248 NA
ATOM     66  C   UNL A   1      42.170  32.806  38.342  1.00  0.00     0.031 C 
ATOM     67  C   UNL A   1      36.481  33.670  36.385  1.00  0.00     0.029 A 
ATOM     68  C   UNL A   1      37.856  33.514  36.424  1.00  0.00     0.049 A 
ATOM     69  H   UNL A   1      39.244  33.602  34.833  1.00  0.00     0.167 HD
ATOM     70  C   UNL A   1      40.052  33.109  37.511  1.00  0.00     0.074 A 
ATOM     71  C   UNL A   1      40.885  32.810  38.659  1.00  0.00     0.031 C 
ATOM     72  C   UNL A   1      38.701  33.239  37.563  1.00  0.00     0.034 A 
BRANCH  59  73
ATOM     73  C   UNL A   1      36.082  34.398  32.049  1.00  0.00     0.023 A 
ATOM     74  C   UNL A   1      35.336  35.567  32.287  1.00  0.00     0.031 A 
ATOM     75  C   UNL A   1      35.608  33.505  31.072  1.00  0.00     0.131 A 
ATOM     76  C   UNL A   1      34.118  35.771  31.619  1.00  0.00     0.055 A 
ATOM     77  C   UNL A   1      34.438  33.755  30.351  1.00  0.00     0.041 A 
ATOM     78  F   UNL A   1      36.265  32.364  30.812  1.00  0.00    -0.206 F 
ATOM     79  C   UNL A   1      33.677  34.886  30.634  1.00  0.00     0.022 A 
BRANCH  76  80
ATOM     80  S   UNL A   1      33.051  37.134  32.159  1.00  0.00     0.124 S 
ATOM     81  O   UNL A   1      32.939  37.924  30.935  1.00  0.00    -0.237 OA
ATOM     82  O   UNL A   1      31.842  36.440  32.586  1.00  0.00    -0.237 OA
ATOM     83  O   UNL A   1      33.819  37.766  33.231  1.00  0.00    -0.744 OA
ENDBRANCH  76  80
ENDBRANCH  59  73
BRANCH  60  84
ATOM     84  C   UNL A   1      44.713  32.824  36.893  1.00  0.00     0.023 A 
ATOM     85  C   UNL A   1      45.172  31.541  37.228  1.00  0.00     0.031 A 
ATOM     86  C   UNL A   1      45.481  33.929  37.300  1.00  0.00     0.131 A 
ATOM     87  C   UNL A   1      46.342  31.394  37.991  1.00  0.00     0.055 A 
ATOM     88  C   UNL A   1      46.669  33.776  38.016  1.00  0.00     0.041 A 
ATOM     89  F   UNL A   1      45.092  35.176  36.992  1.00  0.00    -0.206 F 
ATOM     90  C   UNL A   1      47.098  32.502  38.377  1.00  0.00     0.022 A 
BRANCH  87  91
ATOM     91  S   UNL A   1      46.822  29.731  38.532  1.00  0.00     0.124 S 
ATOM     92  O   UNL A   1      48.232  29.691  38.159  1.00  0.00    -0.237 OA
ATOM     93  O   UNL A   1      46.538  29.785  39.962  1.00  0.00    -0.237 OA
ATOM     94  O   UNL A   1      45.946  28.855  37.756  1.00  0.00    -0.744 OA
ENDBRANCH  87  91
ENDBRANCH  60  84
BRANCH  72  95
ATOM     95  C   UNL A   1      38.054  33.028  38.910  1.00  0.00     0.023 A 
ATOM     96  C   UNL A   1      38.145  33.991  39.931  1.00  0.00     0.031 A 
ATOM     97  C   UNL A   1      37.386  31.824  39.195  1.00  0.00     0.131 A 
ATOM     98  C   UNL A   1      37.647  33.703  41.210  1.00  0.00     0.055 A 
ATOM     99  C   UNL A   1      36.834  31.571  40.452  1.00  0.00     0.041 A 
ATOM    100  F   UNL A   1      37.269  30.868  38.260  1.00  0.00    -0.206 F 
ATOM    101  C   UNL A   1      36.980  32.505  41.474  1.00  0.00     0.022 A 
BRANCH  98 102
ATOM    102  S   UNL A   1      37.998  34.865  42.559  1.00  0.00     0.124 S 
ATOM    103  O   UNL A   1      36.724  34.899  43.271  1.00  0.00    -0.237 OA
ATOM    104  O   UNL A   1      39.100  34.208  43.255  1.00  0.00    -0.237 OA
ATOM    105  O   UNL A   1      38.352  36.101  41.863  1.00  0.00    -0.744 OA
ENDBRANCH  98 102
ENDBRANCH  72  95
ENDBRANCH  46  47
ENDBRANCH  38  41
ENDBRANCH  36  37
ENDBRANCH  35  36
ENDBRANCH   1  35
TORSDOF 19
ENDMDL
