MODEL 1
REMARK VINA RESULT:     -10.7      0.000      0.000
REMARK SMILES C[C@H](CCC(=O)NCCCCNC(=O)c1ccc(-c2c3nc(c(-c4cc(S(=O)(=O)[O-])ccc4F)c4ccc([nH]4)c(-c4cc(S(=O)(=O)[O-])ccc4F)c4nc(c(-c5cc(S(=O)(=O)[O-])ccc5F)c5ccc2[nH]5)C=C4)C=C3)cc1)NC(=O)c1ccc(C[NH3+])o1
REMARK SMILES IDX 8 1 7 2 5 3 6 4 4 6 3 7 2 8 1 9 78 10 79 11 80 13 81 14
REMARK SMILES IDX 82 15 87 16 83 17 84 18 85 19 86 20 9 24 10 25 11 26 12 27
REMARK SMILES IDX 13 28 14 30 15 31 16 32 77 33 17 34 76 35 18 36 19 37 20 38
REMARK SMILES IDX 70 39 21 40 75 41 69 42 71 43 22 44 74 45 68 46 67 47 23 49
REMARK SMILES IDX 55 50 35 51 54 52 36 53 39 54 53 55 72 56 37 57 38 58 52 60
REMARK SMILES IDX 73 61 40 62 24 63 25 64 33 65 26 66 32 67 34 68 31 69 27 70
REMARK SMILES IDX 28 71 29 72 30 73 56 74 57 75 65 76 58 77 64 78 66 79 63 80
REMARK SMILES IDX 59 81 60 82 61 83 62 84 41 85 42 86 50 87 43 88 49 89 51 90
REMARK SMILES IDX 48 91 44 92 45 93 46 94 47 95
REMARK H PARENT 7 5 78 12 86 21 86 22 86 23 12 29 71 48 39 59
REMARK Flexibility Score: inf
ROOT
ATOM      1  C   UNL A   1      33.221  26.268  25.264  1.00  0.00     0.116 C 
ENDROOT
BRANCH   1   2
ATOM      2  N   UNL A   1      32.037  25.947  24.461  1.00  0.00    -0.356 N 
ATOM      3  C   UNL A   1      30.849  25.328  24.726  1.00  0.00     0.220 C 
ATOM      4  O   UNL A   1      30.150  25.017  23.756  1.00  0.00    -0.275 OA
ATOM      5  H   UNL A   1      32.116  26.241  23.525  1.00  0.00     0.163 HD
BRANCH   3   6
ATOM      6  C   UNL A   1      30.330  25.069  26.139  1.00  0.00     0.102 C 
BRANCH   6   7
ATOM      7  C   UNL A   1      30.438  23.591  26.632  1.00  0.00     0.034 C 
BRANCH   7   8
ATOM      8  C   UNL A   1      31.745  22.805  26.313  1.00  0.00     0.079 C 
ATOM      9  C   UNL A   1      32.550  22.638  27.561  1.00  0.00     0.031 C 
BRANCH   8  10
ATOM     10  N   UNL A   1      31.559  21.485  25.734  1.00  0.00    -0.347 N 
ATOM     11  C   UNL A   1      32.476  20.755  24.984  1.00  0.00     0.287 C 
ATOM     12  H   UNL A   1      30.686  21.059  25.890  1.00  0.00     0.164 HD
ATOM     13  O   UNL A   1      32.155  19.603  24.684  1.00  0.00    -0.266 OA
BRANCH  11  14
ATOM     14  C   UNL A   1      33.742  21.350  24.571  1.00  0.00     0.191 A 
ATOM     15  C   UNL A   1      34.085  22.376  23.700  1.00  0.00     0.057 A 
ATOM     16  O   UNL A   1      34.881  20.942  25.222  1.00  0.00    -0.450 OA
ATOM     17  C   UNL A   1      35.489  22.520  23.739  1.00  0.00     0.052 A 
ATOM     18  C   UNL A   1      35.923  21.677  24.733  1.00  0.00     0.159 A 
BRANCH  18  19
ATOM     19  C   UNL A   1      37.247  21.479  25.368  1.00  0.00     0.335 C 
BRANCH  19  20
ATOM     20  N   UNL A   1      38.123  22.614  25.110  1.00  0.00    -0.351 N 
ATOM     21  H   UNL A   1      39.024  22.458  25.564  1.00  0.00     0.344 HD
ATOM     22  H   UNL A   1      37.698  23.462  25.483  1.00  0.00     0.344 HD
ATOM     23  H   UNL A   1      38.261  22.716  24.106  1.00  0.00     0.344 HD
ENDBRANCH  19  20
ENDBRANCH  18  19
ENDBRANCH  11  14
ENDBRANCH   8  10
ENDBRANCH   7   8
ENDBRANCH   6   7
ENDBRANCH   3   6
ENDBRANCH   1   2
BRANCH   1  24
ATOM     24  C   UNL A   1      32.856  27.248  26.397  1.00  0.00     0.023 C 
BRANCH  24  25
ATOM     25  C   UNL A   1      32.057  28.484  26.048  1.00  0.00     0.023 C 
BRANCH  25  26
ATOM     26  C   UNL A   1      32.902  29.699  25.717  1.00  0.00     0.116 C 
BRANCH  26  27
ATOM     27  N   UNL A   1      32.472  30.944  26.355  1.00  0.00    -0.352 N 
ATOM     28  C   UNL A   1      33.171  31.751  27.237  1.00  0.00     0.251 C 
ATOM     29  H   UNL A   1      31.564  31.249  26.126  1.00  0.00     0.163 HD
ATOM     30  O   UNL A   1      32.653  32.748  27.714  1.00  0.00    -0.269 OA
BRANCH  28  31
ATOM     31  C   UNL A   1      34.535  31.334  27.636  1.00  0.00     0.039 A 
ATOM     32  C   UNL A   1      35.523  32.305  27.815  1.00  0.00     0.014 A 
ATOM     33  C   UNL A   1      34.770  30.009  27.997  1.00  0.00     0.014 A 
ATOM     34  C   UNL A   1      36.699  31.965  28.489  1.00  0.00     0.010 A 
ATOM     35  C   UNL A   1      35.866  29.714  28.792  1.00  0.00     0.010 A 
ATOM     36  C   UNL A   1      36.846  30.685  29.051  1.00  0.00    -0.014 A 
BRANCH  36  37
ATOM     37  C   UNL A   1      38.012  30.316  29.899  1.00  0.00     0.031 A 
ATOM     38  C   UNL A   1      39.051  29.375  29.347  1.00  0.00     0.074 A 
ATOM     39  C   UNL A   1      38.079  30.725  31.182  1.00  0.00     0.049 A 
ATOM     40  N   UNL A   1      40.044  28.784  29.956  1.00  0.00    -0.248 NA
ATOM     41  C   UNL A   1      38.907  28.997  27.932  1.00  0.00     0.031 C 
ATOM     42  C   UNL A   1      37.097  31.576  31.861  1.00  0.00     0.029 A 
ATOM     43  N   UNL A   1      39.014  30.470  32.155  1.00  0.00    -0.354 N 
ATOM     44  C   UNL A   1      40.607  27.929  29.013  1.00  0.00     0.074 A 
ATOM     45  C   UNL A   1      39.790  28.019  27.823  1.00  0.00     0.031 C 
ATOM     46  C   UNL A   1      37.504  31.806  33.120  1.00  0.00     0.029 A 
ATOM     47  C   UNL A   1      38.748  31.084  33.358  1.00  0.00     0.049 A 
ATOM     48  H   UNL A   1      39.803  29.900  32.006  1.00  0.00     0.167 HD
ATOM     49  C   UNL A   1      41.724  27.167  29.115  1.00  0.00     0.034 A 
ATOM     50  C   UNL A   1      39.433  31.065  34.520  1.00  0.00     0.034 A 
ATOM     51  C   UNL A   1      42.563  27.146  30.285  1.00  0.00     0.049 A 
ATOM     52  C   UNL A   1      40.704  30.257  34.594  1.00  0.00     0.074 A 
ATOM     53  C   UNL A   1      43.766  26.488  30.474  1.00  0.00     0.029 A 
ATOM     54  N   UNL A   1      42.293  27.830  31.463  1.00  0.00    -0.354 N 
ATOM     55  N   UNL A   1      41.254  29.496  33.676  1.00  0.00    -0.248 NA
ATOM     56  C   UNL A   1      41.453  30.313  35.857  1.00  0.00     0.031 C 
ATOM     57  C   UNL A   1      44.198  26.737  31.781  1.00  0.00     0.029 A 
ATOM     58  C   UNL A   1      43.298  27.599  32.388  1.00  0.00     0.049 A 
ATOM     59  H   UNL A   1      41.503  28.396  31.618  1.00  0.00     0.167 HD
ATOM     60  C   UNL A   1      42.430  29.010  34.241  1.00  0.00     0.074 A 
ATOM     61  C   UNL A   1      42.514  29.574  35.572  1.00  0.00     0.031 C 
ATOM     62  C   UNL A   1      43.359  28.176  33.709  1.00  0.00     0.034 A 
BRANCH  49  63
ATOM     63  C   UNL A   1      42.081  26.300  27.930  1.00  0.00     0.023 A 
ATOM     64  C   UNL A   1      41.582  24.991  27.797  1.00  0.00     0.031 A 
ATOM     65  C   UNL A   1      42.977  26.763  26.951  1.00  0.00     0.131 A 
ATOM     66  C   UNL A   1      42.064  24.159  26.777  1.00  0.00     0.055 A 
ATOM     67  C   UNL A   1      43.377  25.960  25.881  1.00  0.00     0.041 A 
ATOM     68  F   UNL A   1      43.501  27.997  27.032  1.00  0.00    -0.206 F 
ATOM     69  C   UNL A   1      42.937  24.641  25.801  1.00  0.00     0.022 A 
BRANCH  66  70
ATOM     70  S   UNL A   1      41.663  22.391  26.847  1.00  0.00     0.124 S 
ATOM     71  O   UNL A   1      40.260  22.426  27.255  1.00  0.00    -0.237 OA
ATOM     72  O   UNL A   1      41.919  21.954  25.479  1.00  0.00    -0.237 OA
ATOM     73  O   UNL A   1      42.585  21.871  27.853  1.00  0.00    -0.744 OA
ENDBRANCH  66  70
ENDBRANCH  49  63
BRANCH  50  74
ATOM     74  C   UNL A   1      38.955  31.838  35.701  1.00  0.00     0.023 A 
ATOM     75  C   UNL A   1      38.304  31.193  36.765  1.00  0.00     0.031 A 
ATOM     76  C   UNL A   1      39.099  33.234  35.769  1.00  0.00     0.131 A 
ATOM     77  C   UNL A   1      37.776  31.945  37.827  1.00  0.00     0.055 A 
ATOM     78  C   UNL A   1      38.616  33.975  36.851  1.00  0.00     0.041 A 
ATOM     79  F   UNL A   1      39.723  33.901  34.784  1.00  0.00    -0.206 F 
ATOM     80  C   UNL A   1      37.937  33.332  37.882  1.00  0.00     0.022 A 
BRANCH  77  81
ATOM     81  S   UNL A   1      36.805  31.090  39.099  1.00  0.00     0.124 S 
ATOM     82  O   UNL A   1      36.625  29.773  38.500  1.00  0.00    -0.237 OA
ATOM     83  O   UNL A   1      37.696  31.155  40.253  1.00  0.00    -0.237 OA
ATOM     84  O   UNL A   1      35.593  31.901  39.203  1.00  0.00    -0.744 OA
ENDBRANCH  77  81
ENDBRANCH  50  74
BRANCH  62  85
ATOM     85  C   UNL A   1      44.567  27.872  34.556  1.00  0.00     0.023 A 
ATOM     86  C   UNL A   1      45.719  28.676  34.512  1.00  0.00     0.031 A 
ATOM     87  C   UNL A   1      44.564  26.759  35.415  1.00  0.00     0.131 A 
ATOM     88  C   UNL A   1      46.841  28.326  35.277  1.00  0.00     0.055 A 
ATOM     89  C   UNL A   1      45.663  26.448  36.214  1.00  0.00     0.041 A 
ATOM     90  F   UNL A   1      43.487  25.961  35.493  1.00  0.00    -0.206 F 
ATOM     91  C   UNL A   1      46.814  27.226  36.139  1.00  0.00     0.022 A 
BRANCH  88  92
ATOM     92  S   UNL A   1      48.366  29.285  35.072  1.00  0.00     0.124 S 
ATOM     93  O   UNL A   1      48.190  30.347  36.058  1.00  0.00    -0.237 OA
ATOM     94  O   UNL A   1      49.398  28.300  35.374  1.00  0.00    -0.237 OA
ATOM     95  O   UNL A   1      48.313  29.720  33.677  1.00  0.00    -0.744 OA
ENDBRANCH  88  92
ENDBRANCH  62  85
ENDBRANCH  36  37
ENDBRANCH  28  31
ENDBRANCH  26  27
ENDBRANCH  25  26
ENDBRANCH  24  25
ENDBRANCH   1  24
TORSDOF 20
ENDMDL
MODEL 2
REMARK VINA RESULT:     -10.4      2.288      7.969
REMARK SMILES C[C@H](CCC(=O)NCCCCNC(=O)c1ccc(-c2c3nc(c(-c4cc(S(=O)(=O)[O-])ccc4F)c4ccc([nH]4)c(-c4cc(S(=O)(=O)[O-])ccc4F)c4nc(c(-c5cc(S(=O)(=O)[O-])ccc5F)c5ccc2[nH]5)C=C4)C=C3)cc1)NC(=O)c1ccc(C[NH3+])o1
REMARK SMILES IDX 8 1 7 2 5 3 6 4 4 6 3 7 2 8 1 9 78 10 79 11 80 13 81 14
REMARK SMILES IDX 82 15 87 16 83 17 84 18 85 19 86 20 9 24 10 25 11 26 12 27
REMARK SMILES IDX 13 28 14 30 15 31 16 32 77 33 17 34 76 35 18 36 19 37 20 38
REMARK SMILES IDX 70 39 21 40 75 41 69 42 71 43 22 44 74 45 68 46 67 47 23 49
REMARK SMILES IDX 55 50 35 51 54 52 36 53 39 54 53 55 72 56 37 57 38 58 52 60
REMARK SMILES IDX 73 61 40 62 24 63 25 64 33 65 26 66 32 67 34 68 31 69 27 70
REMARK SMILES IDX 28 71 29 72 30 73 56 74 57 75 65 76 58 77 64 78 66 79 63 80
REMARK SMILES IDX 59 81 60 82 61 83 62 84 41 85 42 86 50 87 43 88 49 89 51 90
REMARK SMILES IDX 48 91 44 92 45 93 46 94 47 95
REMARK H PARENT 7 5 78 12 86 21 86 22 86 23 12 29 71 48 39 59
REMARK Flexibility Score: inf
ROOT
ATOM      1  C   UNL A   1      32.758  27.309  25.029  1.00  0.00     0.116 C 
ENDROOT
BRANCH   1   2
ATOM      2  N   UNL A   1      33.222  27.181  23.645  1.00  0.00    -0.356 N 
ATOM      3  C   UNL A   1      32.915  26.342  22.612  1.00  0.00     0.220 C 
ATOM      4  O   UNL A   1      33.661  26.365  21.628  1.00  0.00    -0.275 OA
ATOM      5  H   UNL A   1      33.907  27.847  23.406  1.00  0.00     0.163 HD
BRANCH   3   6
ATOM      6  C   UNL A   1      31.678  25.445  22.596  1.00  0.00     0.102 C 
BRANCH   6   7
ATOM      7  C   UNL A   1      31.788  24.138  23.443  1.00  0.00     0.034 C 
BRANCH   7   8
ATOM      8  C   UNL A   1      32.251  22.835  22.725  1.00  0.00     0.079 C 
ATOM      9  C   UNL A   1      33.723  22.892  22.475  1.00  0.00     0.031 C 
BRANCH   8  10
ATOM     10  N   UNL A   1      31.977  21.595  23.432  1.00  0.00    -0.347 N 
ATOM     11  C   UNL A   1      32.558  21.151  24.615  1.00  0.00     0.287 C 
ATOM     12  H   UNL A   1      31.304  21.001  23.027  1.00  0.00     0.164 HD
ATOM     13  O   UNL A   1      32.096  20.118  25.107  1.00  0.00    -0.266 OA
BRANCH  11  14
ATOM     14  C   UNL A   1      33.668  21.879  25.219  1.00  0.00     0.191 A 
ATOM     15  C   UNL A   1      33.752  22.908  26.147  1.00  0.00     0.057 A 
ATOM     16  O   UNL A   1      34.941  21.436  24.953  1.00  0.00    -0.450 OA
ATOM     17  C   UNL A   1      35.122  23.176  26.368  1.00  0.00     0.052 A 
ATOM     18  C   UNL A   1      35.806  22.206  25.676  1.00  0.00     0.159 A 
BRANCH  18  19
ATOM     19  C   UNL A   1      37.241  21.840  25.626  1.00  0.00     0.335 C 
BRANCH  19  20
ATOM     20  N   UNL A   1      38.070  23.015  25.389  1.00  0.00    -0.351 N 
ATOM     21  H   UNL A   1      38.753  23.106  26.142  1.00  0.00     0.344 HD
ATOM     22  H   UNL A   1      37.481  23.846  25.362  1.00  0.00     0.344 HD
ATOM     23  H   UNL A   1      38.557  22.914  24.499  1.00  0.00     0.344 HD
ENDBRANCH  19  20
ENDBRANCH  18  19
ENDBRANCH  11  14
ENDBRANCH   8  10
ENDBRANCH   7   8
ENDBRANCH   6   7
ENDBRANCH   3   6
ENDBRANCH   1   2
BRANCH   1  24
ATOM     24  C   UNL A   1      31.451  28.125  25.089  1.00  0.00     0.023 C 
BRANCH  24  25
ATOM     25  C   UNL A   1      31.549  29.626  25.242  1.00  0.00     0.023 C 
BRANCH  25  26
ATOM     26  C   UNL A   1      32.637  30.086  26.192  1.00  0.00     0.116 C 
BRANCH  26  27
ATOM     27  N   UNL A   1      32.456  31.433  26.736  1.00  0.00    -0.352 N 
ATOM     28  C   UNL A   1      33.352  32.202  27.460  1.00  0.00     0.251 C 
ATOM     29  H   UNL A   1      31.580  31.847  26.564  1.00  0.00     0.163 HD
ATOM     30  O   UNL A   1      33.031  33.303  27.878  1.00  0.00    -0.269 OA
BRANCH  28  31
ATOM     31  C   UNL A   1      34.680  31.625  27.769  1.00  0.00     0.039 A 
ATOM     32  C   UNL A   1      35.766  32.478  27.976  1.00  0.00     0.014 A 
ATOM     33  C   UNL A   1      34.793  30.259  28.021  1.00  0.00     0.014 A 
ATOM     34  C   UNL A   1      36.925  31.973  28.572  1.00  0.00     0.010 A 
ATOM     35  C   UNL A   1      35.882  29.798  28.744  1.00  0.00     0.010 A 
ATOM     36  C   UNL A   1      36.962  30.646  29.031  1.00  0.00    -0.014 A 
BRANCH  36  37
ATOM     37  C   UNL A   1      38.115  30.101  29.799  1.00  0.00     0.031 A 
ATOM     38  C   UNL A   1      38.314  30.534  31.228  1.00  0.00     0.074 A 
ATOM     39  C   UNL A   1      39.033  29.322  29.191  1.00  0.00     0.049 A 
ATOM     40  N   UNL A   1      39.330  30.330  32.025  1.00  0.00    -0.248 NA
ATOM     41  C   UNL A   1      37.252  31.368  31.814  1.00  0.00     0.031 C 
ATOM     42  C   UNL A   1      38.997  28.893  27.790  1.00  0.00     0.029 A 
ATOM     43  N   UNL A   1      40.188  28.757  29.673  1.00  0.00    -0.354 N 
ATOM     44  C   UNL A   1      39.051  31.053  33.181  1.00  0.00     0.074 A 
ATOM     45  C   UNL A   1      37.814  31.764  32.944  1.00  0.00     0.031 C 
ATOM     46  C   UNL A   1      40.052  28.101  27.541  1.00  0.00     0.029 A 
ATOM     47  C   UNL A   1      40.868  28.000  28.745  1.00  0.00     0.049 A 
ATOM     48  H   UNL A   1      40.502  28.882  30.598  1.00  0.00     0.167 HD
ATOM     49  C   UNL A   1      39.741  31.092  34.347  1.00  0.00     0.034 A 
ATOM     50  C   UNL A   1      42.018  27.306  28.857  1.00  0.00     0.034 A 
ATOM     51  C   UNL A   1      40.933  30.319  34.587  1.00  0.00     0.049 A 
ATOM     52  C   UNL A   1      42.741  27.315  30.182  1.00  0.00     0.074 A 
ATOM     53  C   UNL A   1      41.667  30.204  35.754  1.00  0.00     0.029 A 
ATOM     54  N   UNL A   1      41.557  29.517  33.642  1.00  0.00    -0.354 N 
ATOM     55  N   UNL A   1      42.435  27.959  31.284  1.00  0.00    -0.248 NA
ATOM     56  C   UNL A   1      43.955  26.495  30.280  1.00  0.00     0.031 C 
ATOM     57  C   UNL A   1      42.760  29.368  35.501  1.00  0.00     0.029 A 
ATOM     58  C   UNL A   1      42.676  28.913  34.194  1.00  0.00     0.049 A 
ATOM     59  H   UNL A   1      41.251  29.394  32.715  1.00  0.00     0.167 HD
ATOM     60  C   UNL A   1      43.403  27.596  32.216  1.00  0.00     0.074 A 
ATOM     61  C   UNL A   1      44.292  26.667  31.549  1.00  0.00     0.031 C 
ATOM     62  C   UNL A   1      43.545  27.990  33.507  1.00  0.00     0.034 A 
BRANCH  49  63
ATOM     63  C   UNL A   1      39.216  32.002  35.432  1.00  0.00     0.023 A 
ATOM     64  C   UNL A   1      39.623  33.345  35.529  1.00  0.00     0.031 A 
ATOM     65  C   UNL A   1      38.344  31.509  36.419  1.00  0.00     0.131 A 
ATOM     66  C   UNL A   1      39.248  34.113  36.641  1.00  0.00     0.055 A 
ATOM     67  C   UNL A   1      37.896  32.309  37.471  1.00  0.00     0.041 A 
ATOM     68  F   UNL A   1      37.934  30.230  36.392  1.00  0.00    -0.206 F 
ATOM     69  C   UNL A   1      38.365  33.614  37.599  1.00  0.00     0.022 A 
BRANCH  66  70
ATOM     70  S   UNL A   1      40.068  35.710  36.901  1.00  0.00     0.124 S 
ATOM     71  O   UNL A   1      41.476  35.319  36.897  1.00  0.00    -0.237 OA
ATOM     72  O   UNL A   1      39.619  36.487  35.751  1.00  0.00    -0.237 OA
ATOM     73  O   UNL A   1      39.554  36.152  38.194  1.00  0.00    -0.744 OA
ENDBRANCH  66  70
ENDBRANCH  49  63
BRANCH  50  74
ATOM     74  C   UNL A   1      42.558  26.531  27.704  1.00  0.00     0.023 A 
ATOM     75  C   UNL A   1      42.144  25.210  27.470  1.00  0.00     0.031 A 
ATOM     76  C   UNL A   1      43.526  27.079  26.845  1.00  0.00     0.131 A 
ATOM     77  C   UNL A   1      42.731  24.462  26.437  1.00  0.00     0.055 A 
ATOM     78  C   UNL A   1      44.073  26.347  25.787  1.00  0.00     0.041 A 
ATOM     79  F   UNL A   1      43.951  28.341  27.016  1.00  0.00    -0.206 F 
ATOM     80  C   UNL A   1      43.685  25.025  25.587  1.00  0.00     0.022 A 
BRANCH  77  81
ATOM     81  S   UNL A   1      42.284  22.711  26.270  1.00  0.00     0.124 S 
ATOM     82  O   UNL A   1      42.750  22.413  24.920  1.00  0.00    -0.237 OA
ATOM     83  O   UNL A   1      43.039  22.102  27.360  1.00  0.00    -0.237 OA
ATOM     84  O   UNL A   1      40.833  22.713  26.443  1.00  0.00    -0.744 OA
ENDBRANCH  77  81
ENDBRANCH  50  74
BRANCH  62  85
ATOM     85  C   UNL A   1      44.675  27.371  34.289  1.00  0.00     0.023 A 
ATOM     86  C   UNL A   1      44.552  26.104  34.883  1.00  0.00     0.031 A 
ATOM     87  C   UNL A   1      45.888  28.064  34.441  1.00  0.00     0.131 A 
ATOM     88  C   UNL A   1      45.610  25.590  35.647  1.00  0.00     0.055 A 
ATOM     89  C   UNL A   1      46.956  27.523  35.156  1.00  0.00     0.041 A 
ATOM     90  F   UNL A   1      46.054  29.278  33.891  1.00  0.00    -0.206 F 
ATOM     91  C   UNL A   1      46.816  26.284  35.774  1.00  0.00     0.022 A 
BRANCH  88  92
ATOM     92  S   UNL A   1      45.360  24.030  36.538  1.00  0.00     0.124 S 
ATOM     93  O   UNL A   1      45.102  24.496  37.898  1.00  0.00    -0.237 OA
ATOM     94  O   UNL A   1      44.221  23.448  35.837  1.00  0.00    -0.237 OA
ATOM     95  O   UNL A   1      46.627  23.324  36.355  1.00  0.00    -0.744 OA
ENDBRANCH  88  92
ENDBRANCH  62  85
ENDBRANCH  36  37
ENDBRANCH  28  31
ENDBRANCH  26  27
ENDBRANCH  25  26
ENDBRANCH  24  25
ENDBRANCH   1  24
TORSDOF 20
ENDMDL
MODEL 3
REMARK VINA RESULT:     -10.4      2.428      3.033
REMARK SMILES C[C@H](CCC(=O)NCCCCNC(=O)c1ccc(-c2c3nc(c(-c4cc(S(=O)(=O)[O-])ccc4F)c4ccc([nH]4)c(-c4cc(S(=O)(=O)[O-])ccc4F)c4nc(c(-c5cc(S(=O)(=O)[O-])ccc5F)c5ccc2[nH]5)C=C4)C=C3)cc1)NC(=O)c1ccc(C[NH3+])o1
REMARK SMILES IDX 8 1 7 2 5 3 6 4 4 6 3 7 2 8 1 9 78 10 79 11 80 13 81 14
REMARK SMILES IDX 82 15 87 16 83 17 84 18 85 19 86 20 9 24 10 25 11 26 12 27
REMARK SMILES IDX 13 28 14 30 15 31 16 32 77 33 17 34 76 35 18 36 19 37 20 38
REMARK SMILES IDX 70 39 21 40 75 41 69 42 71 43 22 44 74 45 68 46 67 47 23 49
REMARK SMILES IDX 55 50 35 51 54 52 36 53 39 54 53 55 72 56 37 57 38 58 52 60
REMARK SMILES IDX 73 61 40 62 24 63 25 64 33 65 26 66 32 67 34 68 31 69 27 70
REMARK SMILES IDX 28 71 29 72 30 73 56 74 57 75 65 76 58 77 64 78 66 79 63 80
REMARK SMILES IDX 59 81 60 82 61 83 62 84 41 85 42 86 50 87 43 88 49 89 51 90
REMARK SMILES IDX 48 91 44 92 45 93 46 94 47 95
REMARK H PARENT 7 5 78 12 86 21 86 22 86 23 12 29 71 48 39 59
REMARK Flexibility Score: inf
ROOT
ATOM      1  C   UNL A   1      33.259  28.808  24.494  1.00  0.00     0.116 C 
ENDROOT
BRANCH   1   2
ATOM      2  N   UNL A   1      33.521  28.238  23.169  1.00  0.00    -0.356 N 
ATOM      3  C   UNL A   1      33.401  26.988  22.632  1.00  0.00     0.220 C 
ATOM      4  O   UNL A   1      33.923  26.799  21.529  1.00  0.00    -0.275 OA
ATOM      5  H   UNL A   1      33.858  28.902  22.525  1.00  0.00     0.163 HD
BRANCH   3   6
ATOM      6  C   UNL A   1      32.609  25.860  23.291  1.00  0.00     0.102 C 
BRANCH   6   7
ATOM      7  C   UNL A   1      33.420  24.960  24.276  1.00  0.00     0.034 C 
BRANCH   7   8
ATOM      8  C   UNL A   1      33.679  23.478  23.871  1.00  0.00     0.079 C 
ATOM      9  C   UNL A   1      33.379  23.292  22.419  1.00  0.00     0.031 C 
BRANCH   8  10
ATOM     10  N   UNL A   1      35.028  22.988  24.104  1.00  0.00    -0.347 N 
ATOM     11  C   UNL A   1      35.403  21.718  24.531  1.00  0.00     0.287 C 
ATOM     12  H   UNL A   1      35.758  23.628  23.943  1.00  0.00     0.164 HD
ATOM     13  O   UNL A   1      36.612  21.477  24.555  1.00  0.00    -0.266 OA
BRANCH  11  14
ATOM     14  C   UNL A   1      34.399  20.742  24.940  1.00  0.00     0.191 A 
ATOM     15  C   UNL A   1      33.646  20.562  26.092  1.00  0.00     0.057 A 
ATOM     16  O   UNL A   1      33.966  19.841  23.998  1.00  0.00    -0.450 OA
ATOM     17  C   UNL A   1      32.806  19.445  25.885  1.00  0.00     0.052 A 
ATOM     18  C   UNL A   1      32.983  19.086  24.571  1.00  0.00     0.159 A 
BRANCH  18  19
ATOM     19  C   UNL A   1      32.290  18.106  23.701  1.00  0.00     0.335 C 
BRANCH  19  20
ATOM     20  N   UNL A   1      33.038  16.859  23.623  1.00  0.00    -0.351 N 
ATOM     21  H   UNL A   1      32.390  16.071  23.670  1.00  0.00     0.344 HD
ATOM     22  H   UNL A   1      33.693  16.806  24.402  1.00  0.00     0.344 HD
ATOM     23  H   UNL A   1      33.551  16.824  22.743  1.00  0.00     0.344 HD
ENDBRANCH  19  20
ENDBRANCH  18  19
ENDBRANCH  11  14
ENDBRANCH   8  10
ENDBRANCH   7   8
ENDBRANCH   6   7
ENDBRANCH   3   6
ENDBRANCH   1   2
BRANCH   1  24
ATOM     24  C   UNL A   1      31.749  29.050  24.690  1.00  0.00     0.023 C 
BRANCH  24  25
ATOM     25  C   UNL A   1      31.307  30.342  25.342  1.00  0.00     0.023 C 
BRANCH  25  26
ATOM     26  C   UNL A   1      32.146  30.757  26.534  1.00  0.00     0.116 C 
BRANCH  26  27
ATOM     27  N   UNL A   1      31.996  32.156  26.940  1.00  0.00    -0.352 N 
ATOM     28  C   UNL A   1      32.922  32.985  27.549  1.00  0.00     0.251 C 
ATOM     29  H   UNL A   1      31.118  32.561  26.753  1.00  0.00     0.163 HD
ATOM     30  O   UNL A   1      32.626  34.127  27.861  1.00  0.00    -0.269 OA
BRANCH  28  31
ATOM     31  C   UNL A   1      34.254  32.426  27.874  1.00  0.00     0.039 A 
ATOM     32  C   UNL A   1      35.362  33.276  27.913  1.00  0.00     0.014 A 
ATOM     33  C   UNL A   1      34.359  31.106  28.306  1.00  0.00     0.014 A 
ATOM     34  C   UNL A   1      36.540  32.832  28.520  1.00  0.00     0.010 A 
ATOM     35  C   UNL A   1      35.473  30.724  29.035  1.00  0.00     0.010 A 
ATOM     36  C   UNL A   1      36.579  31.579  29.154  1.00  0.00    -0.014 A 
BRANCH  36  37
ATOM     37  C   UNL A   1      37.759  31.119  29.936  1.00  0.00     0.031 A 
ATOM     38  C   UNL A   1      38.693  30.107  29.326  1.00  0.00     0.074 A 
ATOM     39  C   UNL A   1      37.925  31.512  31.216  1.00  0.00     0.049 A 
ATOM     40  N   UNL A   1      39.672  29.439  29.878  1.00  0.00    -0.248 NA
ATOM     41  C   UNL A   1      38.446  29.751  27.920  1.00  0.00     0.031 C 
ATOM     42  C   UNL A   1      37.047  32.428  31.949  1.00  0.00     0.029 A 
ATOM     43  N   UNL A   1      38.889  31.181  32.136  1.00  0.00    -0.354 N 
ATOM     44  C   UNL A   1      40.117  28.552  28.903  1.00  0.00     0.074 A 
ATOM     45  C   UNL A   1      39.247  28.711  27.760  1.00  0.00     0.031 C 
ATOM     46  C   UNL A   1      37.537  32.619  33.185  1.00  0.00     0.029 A 
ATOM     47  C   UNL A   1      38.735  31.805  33.354  1.00  0.00     0.049 A 
ATOM     48  H   UNL A   1      39.624  30.555  31.942  1.00  0.00     0.167 HD
ATOM     49  C   UNL A   1      41.178  27.708  28.942  1.00  0.00     0.034 A 
ATOM     50  C   UNL A   1      39.478  31.726  34.476  1.00  0.00     0.034 A 
ATOM     51  C   UNL A   1      42.076  27.617  30.065  1.00  0.00     0.049 A 
ATOM     52  C   UNL A   1      40.688  30.825  34.479  1.00  0.00     0.074 A 
ATOM     53  C   UNL A   1      43.234  26.870  30.187  1.00  0.00     0.029 A 
ATOM     54  N   UNL A   1      41.921  28.310  31.259  1.00  0.00    -0.354 N 
ATOM     55  N   UNL A   1      41.129  30.032  33.530  1.00  0.00    -0.248 NA
ATOM     56  C   UNL A   1      41.505  30.817  35.700  1.00  0.00     0.031 C 
ATOM     57  C   UNL A   1      43.753  27.077  31.470  1.00  0.00     0.029 A 
ATOM     58  C   UNL A   1      42.954  27.999  32.127  1.00  0.00     0.049 A 
ATOM     59  H   UNL A   1      41.185  28.933  31.458  1.00  0.00     0.167 HD
ATOM     60  C   UNL A   1      42.294  29.457  34.029  1.00  0.00     0.074 A 
ATOM     61  C   UNL A   1      42.492  30.004  35.356  1.00  0.00     0.031 C 
ATOM     62  C   UNL A   1      43.129  28.560  33.444  1.00  0.00     0.034 A 
BRANCH  49  63
ATOM     63  C   UNL A   1      41.406  26.826  27.737  1.00  0.00     0.023 A 
ATOM     64  C   UNL A   1      40.944  25.498  27.698  1.00  0.00     0.031 A 
ATOM     65  C   UNL A   1      42.144  27.296  26.638  1.00  0.00     0.131 A 
ATOM     66  C   UNL A   1      41.315  24.658  26.638  1.00  0.00     0.055 A 
ATOM     67  C   UNL A   1      42.427  26.482  25.539  1.00  0.00     0.041 A 
ATOM     68  F   UNL A   1      42.627  28.549  26.623  1.00  0.00    -0.206 F 
ATOM     69  C   UNL A   1      42.030  25.147  25.545  1.00  0.00     0.022 A 
BRANCH  66  70
ATOM     70  S   UNL A   1      40.995  22.880  26.796  1.00  0.00     0.124 S 
ATOM     71  O   UNL A   1      39.545  22.827  26.617  1.00  0.00    -0.237 OA
ATOM     72  O   UNL A   1      41.793  22.317  25.713  1.00  0.00    -0.237 OA
ATOM     73  O   UNL A   1      41.460  22.566  28.144  1.00  0.00    -0.744 OA
ENDBRANCH  66  70
ENDBRANCH  49  63
BRANCH  50  74
ATOM     74  C   UNL A   1      39.123  32.524  35.684  1.00  0.00     0.023 A 
ATOM     75  C   UNL A   1      39.585  33.841  35.836  1.00  0.00     0.031 A 
ATOM     76  C   UNL A   1      38.356  31.972  36.725  1.00  0.00     0.131 A 
ATOM     77  C   UNL A   1      39.321  34.547  37.020  1.00  0.00     0.055 A 
ATOM     78  C   UNL A   1      38.055  32.696  37.883  1.00  0.00     0.041 A 
ATOM     79  F   UNL A   1      37.880  30.721  36.629  1.00  0.00    -0.206 F 
ATOM     80  C   UNL A   1      38.550  33.987  38.041  1.00  0.00     0.022 A 
BRANCH  77  81
ATOM     81  S   UNL A   1      40.070  36.185  37.241  1.00  0.00     0.124 S 
ATOM     82  O   UNL A   1      39.233  36.756  38.290  1.00  0.00    -0.237 OA
ATOM     83  O   UNL A   1      41.436  35.843  37.623  1.00  0.00    -0.237 OA
ATOM     84  O   UNL A   1      39.929  36.803  35.924  1.00  0.00    -0.744 OA
ENDBRANCH  77  81
ENDBRANCH  50  74
BRANCH  62  85
ATOM     85  C   UNL A   1      44.355  28.161  34.224  1.00  0.00     0.023 A 
ATOM     86  C   UNL A   1      44.352  27.051  35.085  1.00  0.00     0.031 A 
ATOM     87  C   UNL A   1      45.540  28.909  34.104  1.00  0.00     0.131 A 
ATOM     88  C   UNL A   1      45.499  26.749  35.833  1.00  0.00     0.055 A 
ATOM     89  C   UNL A   1      46.694  28.570  34.808  1.00  0.00     0.041 A 
ATOM     90  F   UNL A   1      45.592  29.978  33.293  1.00  0.00    -0.206 F 
ATOM     91  C   UNL A   1      46.675  27.492  35.688  1.00  0.00     0.022 A 
BRANCH  88  92
ATOM     92  S   UNL A   1      45.412  25.414  37.057  1.00  0.00     0.124 S 
ATOM     93  O   UNL A   1      46.125  24.335  36.381  1.00  0.00    -0.237 OA
ATOM     94  O   UNL A   1      46.087  26.002  38.209  1.00  0.00    -0.237 OA
ATOM     95  O   UNL A   1      43.976  25.198  37.225  1.00  0.00    -0.744 OA
ENDBRANCH  88  92
ENDBRANCH  62  85
ENDBRANCH  36  37
ENDBRANCH  28  31
ENDBRANCH  26  27
ENDBRANCH  25  26
ENDBRANCH  24  25
ENDBRANCH   1  24
TORSDOF 20
ENDMDL
