MODEL 1
REMARK VINA RESULT:     -13.0      0.000      0.000
REMARK SMILES COc1ccc(-n2ccnc2C[N@@H+]2CCn3nc(C(=O)NCCCCNC(=O)c4ccc(-c5c6nc(c(-c7cc(S(=O)(=O)[O-])ccc7F)c7ccc([nH]7)c(-c7cc(S(=O)(=O)[O-])ccc7F)c7nc(c(-c8cc(S(=O)(=O)[O-])ccc8F)c8ccc5[nH]8)C=C7)C=C6)cc4)cc3C2)cc1
REMARK SMILES IDX 23 1 22 2 21 3 19 4 20 5 18 7 13 8 14 9 94 10 15 12 93 13
REMARK SMILES IDX 16 14 92 15 17 16 12 17 11 18 7 19 8 20 9 21 10 22 6 23 3 24
REMARK SMILES IDX 4 25 96 26 5 27 95 28 2 29 1 30 24 31 25 32 26 33 27 34
REMARK SMILES IDX 28 36 29 37 30 38 91 39 31 40 90 41 32 42 33 43 34 44 84 45
REMARK SMILES IDX 35 46 89 47 83 48 85 49 36 50 88 51 82 52 81 53 37 55 69 56
REMARK SMILES IDX 49 57 68 58 50 59 53 60 67 61 86 62 51 63 52 64 66 66 87 67
REMARK SMILES IDX 54 68 38 69 39 70 47 71 40 72 46 73 48 74 45 75 41 76 42 77
REMARK SMILES IDX 43 78 44 79 70 80 71 81 79 82 72 83 78 84 80 85 77 86 73 87
REMARK SMILES IDX 74 88 75 89 76 90 55 91 56 92 64 93 57 94 63 95 65 96 62 97
REMARK SMILES IDX 58 98 59 99 60 100 61 101
REMARK H PARENT 21 6 13 11 26 35 85 54 53 65
REMARK Flexibility Score: inf
ROOT
ATOM      1  C   UNL A   1      33.381  28.777  25.719  1.00  0.00     0.023 C 
ENDROOT
BRANCH   1   2
ATOM      2  C   UNL A   1      32.736  30.167  25.672  1.00  0.00     0.116 C 
BRANCH   2   3
ATOM      3  N   UNL A   1      31.368  30.023  25.150  1.00  0.00    -0.351 N 
ATOM      4  C   UNL A   1      30.567  29.349  24.074  1.00  0.00     0.271 C 
ATOM      5  O   UNL A   1      29.709  30.342  24.124  1.00  0.00    -0.267 OA
ATOM      6  H   UNL A   1      30.760  30.563  25.705  1.00  0.00     0.163 HD
BRANCH   4   7
ATOM      7  C   UNL A   1      30.630  27.609  22.957  1.00  0.00     0.150 A 
ATOM      8  N   UNL A   1      33.050  24.425  23.273  1.00  0.00    -0.322 N 
ATOM      9  C   UNL A   1      33.708  25.192  22.174  1.00  0.00     0.286 C 
ATOM     10  C   UNL A   1      31.662  24.028  22.915  1.00  0.00     0.319 C 
ATOM     11  H   UNL A   1      33.663  23.612  23.346  1.00  0.00     0.348 HD
ATOM     12  C   UNL A   1      32.793  25.658  21.017  1.00  0.00     0.206 C 
ATOM     13  C   UNL A   1      30.956  25.273  22.533  1.00  0.00     0.094 A 
ATOM     14  N   UNL A   1      31.534  26.065  21.610  1.00  0.00    -0.257 N 
ATOM     15  C   UNL A   1      30.063  26.084  23.175  1.00  0.00     0.065 A 
ATOM     16  N   UNL A   1      31.204  27.348  21.669  1.00  0.00    -0.167 NA
BRANCH   8  17
ATOM     17  C   UNL A   1      33.060  25.019  24.645  1.00  0.00     0.339 C 
BRANCH  17  18
ATOM     18  C   UNL A   1      32.759  24.183  25.861  1.00  0.00     0.168 A 
ATOM     19  N   UNL A   1      33.627  23.280  26.466  1.00  0.00    -0.299 N 
ATOM     20  C   UNL A   1      32.933  22.685  27.492  1.00  0.00     0.113 A 
ATOM     21  C   UNL A   1      31.715  23.313  27.532  1.00  0.00     0.132 A 
ATOM     22  N   UNL A   1      31.606  24.219  26.517  1.00  0.00    -0.236 NA
BRANCH  19  23
ATOM     23  C   UNL A   1      34.929  22.902  26.098  1.00  0.00     0.047 A 
ATOM     24  C   UNL A   1      38.406  21.892  25.616  1.00  0.00     0.119 A 
ATOM     25  C   UNL A   1      37.067  20.715  25.240  1.00  0.00     0.048 A 
ATOM     26  C   UNL A   1      38.019  23.564  26.212  1.00  0.00     0.048 A 
ATOM     27  C   UNL A   1      35.295  21.234  25.495  1.00  0.00     0.030 A 
ATOM     28  C   UNL A   1      36.261  24.073  26.450  1.00  0.00     0.030 A 
BRANCH  24  29
ATOM     29  O   UNL A   1      39.681  21.437  25.440  1.00  0.00    -0.497 OA
ATOM     30  C   UNL A   1      40.239  20.923  26.642  1.00  0.00     0.278 C 
ENDBRANCH  24  29
ENDBRANCH  19  23
ENDBRANCH  17  18
ENDBRANCH   8  17
ENDBRANCH   4   7
ENDBRANCH   2   3
ENDBRANCH   1   2
BRANCH   1  31
ATOM     31  C   UNL A   1      34.020  28.441  27.074  1.00  0.00     0.023 C 
BRANCH  31  32
ATOM     32  C   UNL A   1      35.434  28.985  27.234  1.00  0.00     0.116 C 
BRANCH  32  33
ATOM     33  N   UNL A   1      35.615  29.709  28.495  1.00  0.00    -0.352 N 
ATOM     34  C   UNL A   1      36.607  29.518  29.442  1.00  0.00     0.251 C 
ATOM     35  H   UNL A   1      34.955  30.411  28.692  1.00  0.00     0.163 HD
ATOM     36  O   UNL A   1      36.422  29.825  30.614  1.00  0.00    -0.269 OA
BRANCH  34  37
ATOM     37  C   UNL A   1      37.911  29.006  28.982  1.00  0.00     0.039 A 
ATOM     38  C   UNL A   1      38.591  29.511  27.868  1.00  0.00     0.014 A 
ATOM     39  C   UNL A   1      38.473  27.998  29.759  1.00  0.00     0.014 A 
ATOM     40  C   UNL A   1      39.848  28.977  27.556  1.00  0.00     0.010 A 
ATOM     41  C   UNL A   1      39.787  27.666  29.590  1.00  0.00     0.010 A 
ATOM     42  C   UNL A   1      40.432  28.033  28.421  1.00  0.00    -0.014 A 
BRANCH  42  43
ATOM     43  C   UNL A   1      41.821  27.576  28.320  1.00  0.00     0.031 A 
ATOM     44  C   UNL A   1      41.880  26.285  27.578  1.00  0.00     0.074 A 
ATOM     45  C   UNL A   1      42.886  28.375  28.604  1.00  0.00     0.049 A 
ATOM     46  N   UNL A   1      41.995  25.103  28.090  1.00  0.00    -0.248 NA
ATOM     47  C   UNL A   1      41.453  26.255  26.162  1.00  0.00     0.031 C 
ATOM     48  C   UNL A   1      42.883  29.754  29.115  1.00  0.00     0.029 A 
ATOM     49  N   UNL A   1      44.229  28.151  28.440  1.00  0.00    -0.354 N 
ATOM     50  C   UNL A   1      42.041  24.240  27.000  1.00  0.00     0.074 A 
ATOM     51  C   UNL A   1      41.381  24.940  25.939  1.00  0.00     0.031 C 
ATOM     52  C   UNL A   1      44.122  30.302  29.016  1.00  0.00     0.029 A 
ATOM     53  C   UNL A   1      45.061  29.287  28.570  1.00  0.00     0.049 A 
ATOM     54  H   UNL A   1      44.591  27.256  28.246  1.00  0.00     0.167 HD
ATOM     55  C   UNL A   1      42.970  23.242  26.967  1.00  0.00     0.034 A 
ATOM     56  C   UNL A   1      46.421  29.366  28.362  1.00  0.00     0.034 A 
ATOM     57  C   UNL A   1      43.528  23.053  28.294  1.00  0.00     0.049 A 
ATOM     58  C   UNL A   1      46.921  27.974  28.482  1.00  0.00     0.074 A 
ATOM     59  C   UNL A   1      43.025  22.723  29.537  1.00  0.00     0.029 A 
ATOM     60  N   UNL A   1      44.749  23.646  28.528  1.00  0.00    -0.354 N 
ATOM     61  N   UNL A   1      46.870  27.305  29.602  1.00  0.00    -0.248 NA
ATOM     62  C   UNL A   1      46.930  27.170  27.272  1.00  0.00     0.031 C 
ATOM     63  C   UNL A   1      43.747  23.543  30.458  1.00  0.00     0.029 A 
ATOM     64  C   UNL A   1      44.744  24.234  29.765  1.00  0.00     0.049 A 
ATOM     65  H   UNL A   1      45.508  23.647  27.902  1.00  0.00     0.167 HD
ATOM     66  C   UNL A   1      46.373  26.059  29.246  1.00  0.00     0.074 A 
ATOM     67  C   UNL A   1      46.487  26.016  27.783  1.00  0.00     0.031 C 
ATOM     68  C   UNL A   1      45.622  25.332  30.129  1.00  0.00     0.034 A 
BRANCH  55  69
ATOM     69  C   UNL A   1      43.754  22.827  25.724  1.00  0.00     0.023 A 
ATOM     70  C   UNL A   1      43.879  21.439  25.513  1.00  0.00     0.031 A 
ATOM     71  C   UNL A   1      44.621  23.633  24.951  1.00  0.00     0.131 A 
ATOM     72  C   UNL A   1      44.922  20.911  24.734  1.00  0.00     0.055 A 
ATOM     73  C   UNL A   1      45.622  23.103  24.129  1.00  0.00     0.041 A 
ATOM     74  F   UNL A   1      44.607  24.968  24.981  1.00  0.00    -0.206 F 
ATOM     75  C   UNL A   1      45.806  21.735  24.049  1.00  0.00     0.022 A 
BRANCH  72  76
ATOM     76  S   UNL A   1      45.216  19.127  24.809  1.00  0.00     0.124 S 
ATOM     77  O   UNL A   1      45.535  18.834  23.416  1.00  0.00    -0.237 OA
ATOM     78  O   UNL A   1      46.322  19.048  25.757  1.00  0.00    -0.237 OA
ATOM     79  O   UNL A   1      43.942  18.597  25.287  1.00  0.00    -0.744 OA
ENDBRANCH  72  76
ENDBRANCH  55  69
BRANCH  56  80
ATOM     80  C   UNL A   1      47.238  30.438  27.671  1.00  0.00     0.023 A 
ATOM     81  C   UNL A   1      46.709  31.625  27.075  1.00  0.00     0.031 A 
ATOM     82  C   UNL A   1      48.636  30.425  27.860  1.00  0.00     0.131 A 
ATOM     83  C   UNL A   1      47.566  32.706  26.709  1.00  0.00     0.055 A 
ATOM     84  C   UNL A   1      49.468  31.499  27.522  1.00  0.00     0.041 A 
ATOM     85  F   UNL A   1      49.237  29.391  28.468  1.00  0.00    -0.206 F 
ATOM     86  C   UNL A   1      48.938  32.646  26.955  1.00  0.00     0.022 A 
BRANCH  83  87
ATOM     87  S   UNL A   1      46.938  34.257  25.940  1.00  0.00     0.124 S 
ATOM     88  O   UNL A   1      45.689  33.821  25.328  1.00  0.00    -0.237 OA
ATOM     89  O   UNL A   1      46.825  35.159  27.079  1.00  0.00    -0.237 OA
ATOM     90  O   UNL A   1      47.987  34.618  24.983  1.00  0.00    -0.744 OA
ENDBRANCH  83  87
ENDBRANCH  56  80
BRANCH  68  91
ATOM     91  C   UNL A   1      45.617  25.760  31.586  1.00  0.00     0.023 A 
ATOM     92  C   UNL A   1      46.648  25.539  32.533  1.00  0.00     0.031 A 
ATOM     93  C   UNL A   1      44.514  26.530  31.993  1.00  0.00     0.131 A 
ATOM     94  C   UNL A   1      46.532  26.075  33.835  1.00  0.00     0.055 A 
ATOM     95  C   UNL A   1      44.419  27.082  33.266  1.00  0.00     0.041 A 
ATOM     96  F   UNL A   1      43.515  26.789  31.133  1.00  0.00    -0.206 F 
ATOM     97  C   UNL A   1      45.424  26.851  34.196  1.00  0.00     0.022 A 
BRANCH  94  98
ATOM     98  S   UNL A   1      47.794  25.746  35.114  1.00  0.00     0.124 S 
ATOM     99  O   UNL A   1      48.660  26.917  35.047  1.00  0.00    -0.237 OA
ATOM    100  O   UNL A   1      46.992  25.615  36.328  1.00  0.00    -0.237 OA
ATOM    101  O   UNL A   1      48.419  24.500  34.664  1.00  0.00    -0.744 OA
ENDBRANCH  94  98
ENDBRANCH  68  91
ENDBRANCH  42  43
ENDBRANCH  34  37
ENDBRANCH  32  33
ENDBRANCH  31  32
ENDBRANCH   1  31
TORSDOF 18
ENDMDL
MODEL 2
REMARK VINA RESULT:     -13.0      3.181      8.451
REMARK SMILES COc1ccc(-n2ccnc2C[N@@H+]2CCn3nc(C(=O)NCCCCNC(=O)c4ccc(-c5c6nc(c(-c7cc(S(=O)(=O)[O-])ccc7F)c7ccc([nH]7)c(-c7cc(S(=O)(=O)[O-])ccc7F)c7nc(c(-c8cc(S(=O)(=O)[O-])ccc8F)c8ccc5[nH]8)C=C7)C=C6)cc4)cc3C2)cc1
REMARK SMILES IDX 23 1 22 2 21 3 19 4 20 5 18 7 13 8 14 9 94 10 15 12 93 13
REMARK SMILES IDX 16 14 92 15 17 16 12 17 11 18 7 19 8 20 9 21 10 22 6 23 3 24
REMARK SMILES IDX 4 25 96 26 5 27 95 28 2 29 1 30 24 31 25 32 26 33 27 34
REMARK SMILES IDX 28 36 29 37 30 38 91 39 31 40 90 41 32 42 33 43 34 44 84 45
REMARK SMILES IDX 35 46 89 47 83 48 85 49 36 50 88 51 82 52 81 53 37 55 69 56
REMARK SMILES IDX 49 57 68 58 50 59 53 60 67 61 86 62 51 63 52 64 66 66 87 67
REMARK SMILES IDX 54 68 38 69 39 70 47 71 40 72 46 73 48 74 45 75 41 76 42 77
REMARK SMILES IDX 43 78 44 79 70 80 71 81 79 82 72 83 78 84 80 85 77 86 73 87
REMARK SMILES IDX 74 88 75 89 76 90 55 91 56 92 64 93 57 94 63 95 65 96 62 97
REMARK SMILES IDX 58 98 59 99 60 100 61 101
REMARK H PARENT 21 6 13 11 26 35 85 54 53 65
REMARK Flexibility Score: inf
ROOT
ATOM      1  C   UNL A   1      37.343  20.534  24.821  1.00  0.00     0.023 C 
ENDROOT
BRANCH   1   2
ATOM      2  C   UNL A   1      37.646  21.924  25.390  1.00  0.00     0.116 C 
BRANCH   2   3
ATOM      3  N   UNL A   1      36.963  22.924  24.554  1.00  0.00    -0.351 N 
ATOM      4  C   UNL A   1      35.684  23.699  24.429  1.00  0.00     0.271 C 
ATOM      5  O   UNL A   1      35.866  23.744  23.129  1.00  0.00    -0.267 OA
ATOM      6  H   UNL A   1      37.559  23.175  23.811  1.00  0.00     0.163 HD
BRANCH   4   7
ATOM      7  C   UNL A   1      34.215  24.473  25.662  1.00  0.00     0.150 A 
ATOM      8  N   UNL A   1      30.244  24.683  25.129  1.00  0.00    -0.322 N 
ATOM      9  C   UNL A   1      30.672  26.054  24.725  1.00  0.00     0.286 C 
ATOM     10  C   UNL A   1      30.595  24.390  26.545  1.00  0.00     0.319 C 
ATOM     11  H   UNL A   1      29.234  24.740  25.001  1.00  0.00     0.348 HD
ATOM     12  C   UNL A   1      31.602  26.802  25.708  1.00  0.00     0.206 C 
ATOM     13  C   UNL A   1      32.049  24.638  26.676  1.00  0.00     0.094 A 
ATOM     14  N   UNL A   1      32.525  25.823  26.247  1.00  0.00    -0.257 N 
ATOM     15  C   UNL A   1      33.143  23.821  26.721  1.00  0.00     0.065 A 
ATOM     16  N   UNL A   1      33.800  25.829  25.882  1.00  0.00    -0.167 NA
BRANCH   8  17
ATOM     17  C   UNL A   1      30.661  23.536  24.265  1.00  0.00     0.339 C 
BRANCH  17  18
ATOM     18  C   UNL A   1      31.662  23.717  23.155  1.00  0.00     0.168 A 
ATOM     19  N   UNL A   1      32.482  22.726  22.625  1.00  0.00    -0.299 N 
ATOM     20  C   UNL A   1      33.286  23.331  21.689  1.00  0.00     0.113 A 
ATOM     21  C   UNL A   1      32.860  24.632  21.616  1.00  0.00     0.132 A 
ATOM     22  N   UNL A   1      31.876  24.870  22.532  1.00  0.00    -0.236 NA
BRANCH  19  23
ATOM     23  C   UNL A   1      32.612  21.378  22.994  1.00  0.00     0.047 A 
ATOM     24  C   UNL A   1      33.261  17.831  23.581  1.00  0.00     0.119 A 
ATOM     25  C   UNL A   1      33.936  19.071  24.732  1.00  0.00     0.048 A 
ATOM     26  C   UNL A   1      32.256  18.349  22.159  1.00  0.00     0.048 A 
ATOM     27  C   UNL A   1      33.608  20.879  24.422  1.00  0.00     0.030 A 
ATOM     28  C   UNL A   1      31.927  20.141  21.866  1.00  0.00     0.030 A 
BRANCH  24  29
ATOM     29  O   UNL A   1      33.565  16.527  23.846  1.00  0.00    -0.497 OA
ATOM     30  C   UNL A   1      32.783  15.998  24.909  1.00  0.00     0.278 C 
ENDBRANCH  24  29
ENDBRANCH  19  23
ENDBRANCH  17  18
ENDBRANCH   8  17
ENDBRANCH   4   7
ENDBRANCH   2   3
ENDBRANCH   1   2
BRANCH   1  31
ATOM     31  C   UNL A   1      38.475  19.520  25.038  1.00  0.00     0.023 C 
BRANCH  31  32
ATOM     32  C   UNL A   1      39.528  19.985  26.038  1.00  0.00     0.116 C 
BRANCH  32  33
ATOM     33  N   UNL A   1      40.777  19.227  25.928  1.00  0.00    -0.352 N 
ATOM     34  C   UNL A   1      42.058  19.729  25.773  1.00  0.00     0.251 C 
ATOM     35  H   UNL A   1      40.695  18.247  25.966  1.00  0.00     0.163 HD
ATOM     36  O   UNL A   1      42.936  19.055  25.248  1.00  0.00    -0.269 OA
BRANCH  34  37
ATOM     37  C   UNL A   1      42.345  21.066  26.326  1.00  0.00     0.039 A 
ATOM     38  C   UNL A   1      42.591  22.194  25.535  1.00  0.00     0.014 A 
ATOM     39  C   UNL A   1      42.312  21.166  27.713  1.00  0.00     0.014 A 
ATOM     40  C   UNL A   1      42.803  23.422  26.173  1.00  0.00     0.010 A 
ATOM     41  C   UNL A   1      42.275  22.398  28.302  1.00  0.00     0.010 A 
ATOM     42  C   UNL A   1      42.660  23.509  27.572  1.00  0.00    -0.014 A 
BRANCH  42  43
ATOM     43  C   UNL A   1      42.637  24.770  28.317  1.00  0.00     0.031 A 
ATOM     44  C   UNL A   1      41.305  25.422  28.177  1.00  0.00     0.074 A 
ATOM     45  C   UNL A   1      43.594  25.112  29.224  1.00  0.00     0.049 A 
ATOM     46  N   UNL A   1      41.000  26.398  27.384  1.00  0.00    -0.248 NA
ATOM     47  C   UNL A   1      40.113  24.734  28.720  1.00  0.00     0.031 C 
ATOM     48  C   UNL A   1      44.818  24.380  29.579  1.00  0.00     0.029 A 
ATOM     49  N   UNL A   1      43.655  26.175  30.087  1.00  0.00    -0.354 N 
ATOM     50  C   UNL A   1      39.662  26.670  27.646  1.00  0.00     0.074 A 
ATOM     51  C   UNL A   1      39.127  25.452  28.176  1.00  0.00     0.031 C 
ATOM     52  C   UNL A   1      45.374  24.898  30.706  1.00  0.00     0.029 A 
ATOM     53  C   UNL A   1      44.643  26.092  31.096  1.00  0.00     0.049 A 
ATOM     54  H   UNL A   1      43.050  26.948  30.011  1.00  0.00     0.167 HD
ATOM     55  C   UNL A   1      39.251  27.963  27.793  1.00  0.00     0.034 A 
ATOM     56  C   UNL A   1      44.860  26.963  32.141  1.00  0.00     0.034 A 
ATOM     57  C   UNL A   1      40.274  28.859  27.282  1.00  0.00     0.049 A 
ATOM     58  C   UNL A   1      44.223  28.239  31.731  1.00  0.00     0.074 A 
ATOM     59  C   UNL A   1      40.893  29.056  26.064  1.00  0.00     0.029 A 
ATOM     60  N   UNL A   1      41.104  29.429  28.222  1.00  0.00    -0.354 N 
ATOM     61  N   UNL A   1      44.651  28.942  30.716  1.00  0.00    -0.248 NA
ATOM     62  C   UNL A   1      42.820  28.413  32.066  1.00  0.00     0.031 C 
ATOM     63  C   UNL A   1      42.261  29.315  26.382  1.00  0.00     0.029 A 
ATOM     64  C   UNL A   1      42.396  29.401  27.770  1.00  0.00     0.049 A 
ATOM     65  H   UNL A   1      40.813  29.799  29.086  1.00  0.00     0.167 HD
ATOM     66  C   UNL A   1      43.504  29.272  30.008  1.00  0.00     0.074 A 
ATOM     67  C   UNL A   1      42.399  28.970  30.925  1.00  0.00     0.031 C 
ATOM     68  C   UNL A   1      43.550  29.441  28.651  1.00  0.00     0.034 A 
BRANCH  55  69
ATOM     69  C   UNL A   1      38.246  28.441  28.838  1.00  0.00     0.023 A 
ATOM     70  C   UNL A   1      37.306  29.392  28.395  1.00  0.00     0.031 A 
ATOM     71  C   UNL A   1      38.337  28.294  30.242  1.00  0.00     0.131 A 
ATOM     72  C   UNL A   1      36.658  30.252  29.297  1.00  0.00     0.055 A 
ATOM     73  C   UNL A   1      37.644  29.115  31.139  1.00  0.00     0.041 A 
ATOM     74  F   UNL A   1      39.135  27.405  30.839  1.00  0.00    -0.206 F 
ATOM     75  C   UNL A   1      36.831  30.130  30.670  1.00  0.00     0.022 A 
BRANCH  72  76
ATOM     76  S   UNL A   1      35.750  31.663  28.618  1.00  0.00     0.124 S 
ATOM     77  O   UNL A   1      35.121  31.060  27.449  1.00  0.00    -0.237 OA
ATOM     78  O   UNL A   1      34.863  32.005  29.726  1.00  0.00    -0.237 OA
ATOM     79  O   UNL A   1      36.802  32.635  28.335  1.00  0.00    -0.744 OA
ENDBRANCH  72  76
ENDBRANCH  55  69
BRANCH  56  80
ATOM     80  C   UNL A   1      45.185  26.678  33.592  1.00  0.00     0.023 A 
ATOM     81  C   UNL A   1      44.223  26.432  34.622  1.00  0.00     0.031 A 
ATOM     82  C   UNL A   1      46.519  26.353  33.917  1.00  0.00     0.131 A 
ATOM     83  C   UNL A   1      44.621  25.892  35.882  1.00  0.00     0.055 A 
ATOM     84  C   UNL A   1      46.898  25.800  35.146  1.00  0.00     0.041 A 
ATOM     85  F   UNL A   1      47.497  26.481  33.009  1.00  0.00    -0.206 F 
ATOM     86  C   UNL A   1      45.953  25.559  36.129  1.00  0.00     0.022 A 
BRANCH  83  87
ATOM     87  S   UNL A   1      43.426  25.555  37.241  1.00  0.00     0.124 S 
ATOM     88  O   UNL A   1      42.376  24.807  36.559  1.00  0.00    -0.237 OA
ATOM     89  O   UNL A   1      44.231  24.816  38.204  1.00  0.00    -0.237 OA
ATOM     90  O   UNL A   1      43.023  26.892  37.687  1.00  0.00    -0.744 OA
ENDBRANCH  83  87
ENDBRANCH  56  80
BRANCH  68  91
ATOM     91  C   UNL A   1      44.912  29.576  27.993  1.00  0.00     0.023 A 
ATOM     92  C   UNL A   1      45.709  28.521  27.481  1.00  0.00     0.031 A 
ATOM     93  C   UNL A   1      45.369  30.890  27.799  1.00  0.00     0.131 A 
ATOM     94  C   UNL A   1      46.922  28.817  26.818  1.00  0.00     0.055 A 
ATOM     95  C   UNL A   1      46.548  31.177  27.118  1.00  0.00     0.041 A 
ATOM     96  F   UNL A   1      44.648  31.932  28.245  1.00  0.00    -0.206 F 
ATOM     97  C   UNL A   1      47.333  30.141  26.631  1.00  0.00     0.022 A 
BRANCH  94  98
ATOM     98  S   UNL A   1      48.022  27.489  26.216  1.00  0.00     0.124 S 
ATOM     99  O   UNL A   1      48.750  27.082  27.412  1.00  0.00    -0.237 OA
ATOM    100  O   UNL A   1      47.078  26.510  25.681  1.00  0.00    -0.237 OA
ATOM    101  O   UNL A   1      48.841  28.157  25.202  1.00  0.00    -0.744 OA
ENDBRANCH  94  98
ENDBRANCH  68  91
ENDBRANCH  42  43
ENDBRANCH  34  37
ENDBRANCH  32  33
ENDBRANCH  31  32
ENDBRANCH   1  31
TORSDOF 18
ENDMDL
MODEL 3
REMARK VINA RESULT:     -12.8      1.715      2.706
REMARK SMILES COc1ccc(-n2ccnc2C[N@@H+]2CCn3nc(C(=O)NCCCCNC(=O)c4ccc(-c5c6nc(c(-c7cc(S(=O)(=O)[O-])ccc7F)c7ccc([nH]7)c(-c7cc(S(=O)(=O)[O-])ccc7F)c7nc(c(-c8cc(S(=O)(=O)[O-])ccc8F)c8ccc5[nH]8)C=C7)C=C6)cc4)cc3C2)cc1
REMARK SMILES IDX 23 1 22 2 21 3 19 4 20 5 18 7 13 8 14 9 94 10 15 12 93 13
REMARK SMILES IDX 16 14 92 15 17 16 12 17 11 18 7 19 8 20 9 21 10 22 6 23 3 24
REMARK SMILES IDX 4 25 96 26 5 27 95 28 2 29 1 30 24 31 25 32 26 33 27 34
REMARK SMILES IDX 28 36 29 37 30 38 91 39 31 40 90 41 32 42 33 43 34 44 84 45
REMARK SMILES IDX 35 46 89 47 83 48 85 49 36 50 88 51 82 52 81 53 37 55 69 56
REMARK SMILES IDX 49 57 68 58 50 59 53 60 67 61 86 62 51 63 52 64 66 66 87 67
REMARK SMILES IDX 54 68 38 69 39 70 47 71 40 72 46 73 48 74 45 75 41 76 42 77
REMARK SMILES IDX 43 78 44 79 70 80 71 81 79 82 72 83 78 84 80 85 77 86 73 87
REMARK SMILES IDX 74 88 75 89 76 90 55 91 56 92 64 93 57 94 63 95 65 96 62 97
REMARK SMILES IDX 58 98 59 99 60 100 61 101
REMARK H PARENT 21 6 13 11 26 35 85 54 53 65
REMARK Flexibility Score: inf
ROOT
ATOM      1  C   UNL A   1      33.915  28.191  25.940  1.00  0.00     0.023 C 
ENDROOT
BRANCH   1   2
ATOM      2  C   UNL A   1      33.318  28.818  24.675  1.00  0.00     0.116 C 
BRANCH   2   3
ATOM      3  N   UNL A   1      32.813  27.735  23.816  1.00  0.00    -0.351 N 
ATOM      4  C   UNL A   1      32.463  26.276  23.821  1.00  0.00     0.271 C 
ATOM      5  O   UNL A   1      32.753  26.227  22.541  1.00  0.00    -0.267 OA
ATOM      6  H   UNL A   1      32.646  28.098  22.916  1.00  0.00     0.163 HD
BRANCH   4   7
ATOM      7  C   UNL A   1      31.768  24.855  25.153  1.00  0.00     0.150 A 
ATOM      8  N   UNL A   1      33.662  21.738  26.824  1.00  0.00    -0.322 N 
ATOM      9  C   UNL A   1      32.942  21.079  25.695  1.00  0.00     0.286 C 
ATOM     10  C   UNL A   1      32.721  22.385  27.777  1.00  0.00     0.319 C 
ATOM     11  H   UNL A   1      34.137  20.942  27.252  1.00  0.00     0.348 HD
ATOM     12  C   UNL A   1      31.433  21.395  25.564  1.00  0.00     0.206 C 
ATOM     13  C   UNL A   1      31.877  23.300  26.975  1.00  0.00     0.094 A 
ATOM     14  N   UNL A   1      31.265  22.798  25.885  1.00  0.00    -0.257 N 
ATOM     15  C   UNL A   1      31.878  24.653  26.779  1.00  0.00     0.065 A 
ATOM     16  N   UNL A   1      30.980  23.676  24.933  1.00  0.00    -0.167 NA
BRANCH   8  17
ATOM     17  C   UNL A   1      34.766  22.689  26.489  1.00  0.00     0.339 C 
BRANCH  17  18
ATOM     18  C   UNL A   1      35.216  22.895  25.067  1.00  0.00     0.168 A 
ATOM     19  N   UNL A   1      36.429  22.480  24.527  1.00  0.00    -0.299 N 
ATOM     20  C   UNL A   1      36.464  22.930  23.229  1.00  0.00     0.113 A 
ATOM     21  C   UNL A   1      35.242  23.511  23.003  1.00  0.00     0.132 A 
ATOM     22  N   UNL A   1      34.487  23.505  24.140  1.00  0.00    -0.236 NA
BRANCH  19  23
ATOM     23  C   UNL A   1      37.510  21.828  25.143  1.00  0.00     0.047 A 
ATOM     24  C   UNL A   1      40.510  20.096  26.301  1.00  0.00     0.119 A 
ATOM     25  C   UNL A   1      40.297  21.868  26.666  1.00  0.00     0.048 A 
ATOM     26  C   UNL A   1      39.234  19.188  25.382  1.00  0.00     0.048 A 
ATOM     27  C   UNL A   1      38.768  22.748  26.066  1.00  0.00     0.030 A 
ATOM     28  C   UNL A   1      37.717  20.064  24.801  1.00  0.00     0.030 A 
BRANCH  24  29
ATOM     29  O   UNL A   1      41.668  19.521  26.740  1.00  0.00    -0.497 OA
ATOM     30  C   UNL A   1      41.605  19.171  28.116  1.00  0.00     0.278 C 
ENDBRANCH  24  29
ENDBRANCH  19  23
ENDBRANCH  17  18
ENDBRANCH   8  17
ENDBRANCH   4   7
ENDBRANCH   2   3
ENDBRANCH   1   2
BRANCH   1  31
ATOM     31  C   UNL A   1      34.079  29.184  27.099  1.00  0.00     0.023 C 
BRANCH  31  32
ATOM     32  C   UNL A   1      35.524  29.362  27.551  1.00  0.00     0.116 C 
BRANCH  32  33
ATOM     33  N   UNL A   1      35.625  29.790  28.948  1.00  0.00    -0.352 N 
ATOM     34  C   UNL A   1      36.567  29.399  29.884  1.00  0.00     0.251 C 
ATOM     35  H   UNL A   1      34.942  30.427  29.258  1.00  0.00     0.163 HD
ATOM     36  O   UNL A   1      36.314  29.438  31.082  1.00  0.00    -0.269 OA
BRANCH  34  37
ATOM     37  C   UNL A   1      37.903  29.009  29.396  1.00  0.00     0.039 A 
ATOM     38  C   UNL A   1      38.570  29.667  28.358  1.00  0.00     0.014 A 
ATOM     39  C   UNL A   1      38.507  27.951  30.070  1.00  0.00     0.014 A 
ATOM     40  C   UNL A   1      39.858  29.237  28.014  1.00  0.00     0.010 A 
ATOM     41  C   UNL A   1      39.839  27.708  29.891  1.00  0.00     0.010 A 
ATOM     42  C   UNL A   1      40.480  28.234  28.782  1.00  0.00    -0.014 A 
BRANCH  42  43
ATOM     43  C   UNL A   1      41.892  27.863  28.658  1.00  0.00     0.031 A 
ATOM     44  C   UNL A   1      42.024  26.616  27.852  1.00  0.00     0.074 A 
ATOM     45  C   UNL A   1      42.910  28.706  28.983  1.00  0.00     0.049 A 
ATOM     46  N   UNL A   1      42.207  25.419  28.305  1.00  0.00    -0.248 NA
ATOM     47  C   UNL A   1      41.595  26.634  26.437  1.00  0.00     0.031 C 
ATOM     48  C   UNL A   1      42.829  30.056  29.562  1.00  0.00     0.029 A 
ATOM     49  N   UNL A   1      44.263  28.569  28.808  1.00  0.00    -0.354 N 
ATOM     50  C   UNL A   1      42.300  24.616  27.172  1.00  0.00     0.074 A 
ATOM     51  C   UNL A   1      41.598  25.329  26.148  1.00  0.00     0.031 C 
ATOM     52  C   UNL A   1      44.035  30.678  29.492  1.00  0.00     0.029 A 
ATOM     53  C   UNL A   1      45.030  29.743  28.995  1.00  0.00     0.049 A 
ATOM     54  H   UNL A   1      44.675  27.707  28.569  1.00  0.00     0.167 HD
ATOM     55  C   UNL A   1      43.285  23.676  27.089  1.00  0.00     0.034 A 
ATOM     56  C   UNL A   1      46.382  29.910  28.792  1.00  0.00     0.034 A 
ATOM     57  C   UNL A   1      43.856  23.453  28.406  1.00  0.00     0.049 A 
ATOM     58  C   UNL A   1      46.962  28.545  28.843  1.00  0.00     0.074 A 
ATOM     59  C   UNL A   1      43.376  23.032  29.630  1.00  0.00     0.029 A 
ATOM     60  N   UNL A   1      45.041  24.102  28.670  1.00  0.00    -0.354 N 
ATOM     61  N   UNL A   1      46.952  27.818  29.928  1.00  0.00    -0.248 NA
ATOM     62  C   UNL A   1      47.013  27.804  27.593  1.00  0.00     0.031 C 
ATOM     63  C   UNL A   1      44.051  23.845  30.591  1.00  0.00     0.029 A 
ATOM     64  C   UNL A   1      45.005  24.626  29.934  1.00  0.00     0.049 A 
ATOM     65  H   UNL A   1      45.798  24.178  28.045  1.00  0.00     0.167 HD
ATOM     66  C   UNL A   1      46.526  26.566  29.509  1.00  0.00     0.074 A 
ATOM     67  C   UNL A   1      46.639  26.603  28.045  1.00  0.00     0.031 C 
ATOM     68  C   UNL A   1      45.820  25.753  30.353  1.00  0.00     0.034 A 
BRANCH  55  69
ATOM     69  C   UNL A   1      44.088  23.369  25.828  1.00  0.00     0.023 A 
ATOM     70  C   UNL A   1      44.094  22.021  25.417  1.00  0.00     0.031 A 
ATOM     71  C   UNL A   1      45.064  24.189  25.215  1.00  0.00     0.131 A 
ATOM     72  C   UNL A   1      45.121  21.511  24.606  1.00  0.00     0.055 A 
ATOM     73  C   UNL A   1      46.051  23.687  24.360  1.00  0.00     0.041 A 
ATOM     74  F   UNL A   1      45.173  25.500  25.443  1.00  0.00    -0.206 F 
ATOM     75  C   UNL A   1      46.111  22.333  24.083  1.00  0.00     0.022 A 
BRANCH  72  76
ATOM     76  S   UNL A   1      45.244  19.714  24.425  1.00  0.00     0.124 S 
ATOM     77  O   UNL A   1      46.691  19.529  24.417  1.00  0.00    -0.237 OA
ATOM     78  O   UNL A   1      44.538  19.247  25.612  1.00  0.00    -0.237 OA
ATOM     79  O   UNL A   1      44.570  19.459  23.154  1.00  0.00    -0.744 OA
ENDBRANCH  72  76
ENDBRANCH  55  69
BRANCH  56  80
ATOM     80  C   UNL A   1      47.134  31.060  28.157  1.00  0.00     0.023 A 
ATOM     81  C   UNL A   1      46.566  32.036  27.280  1.00  0.00     0.031 A 
ATOM     82  C   UNL A   1      48.412  31.374  28.667  1.00  0.00     0.131 A 
ATOM     83  C   UNL A   1      47.270  33.237  26.964  1.00  0.00     0.055 A 
ATOM     84  C   UNL A   1      49.087  32.565  28.373  1.00  0.00     0.041 A 
ATOM     85  F   UNL A   1      49.017  30.564  29.548  1.00  0.00    -0.206 F 
ATOM     86  C   UNL A   1      48.517  33.504  27.529  1.00  0.00     0.022 A 
BRANCH  83  87
ATOM     87  S   UNL A   1      46.585  34.526  25.843  1.00  0.00     0.124 S 
ATOM     88  O   UNL A   1      45.543  33.800  25.127  1.00  0.00    -0.237 OA
ATOM     89  O   UNL A   1      46.138  35.557  26.771  1.00  0.00    -0.237 OA
ATOM     90  O   UNL A   1      47.732  34.911  25.016  1.00  0.00    -0.744 OA
ENDBRANCH  83  87
ENDBRANCH  56  80
BRANCH  68  91
ATOM     91  C   UNL A   1      45.794  26.107  31.830  1.00  0.00     0.023 A 
ATOM     92  C   UNL A   1      44.698  26.647  32.548  1.00  0.00     0.031 A 
ATOM     93  C   UNL A   1      46.949  25.775  32.559  1.00  0.00     0.131 A 
ATOM     94  C   UNL A   1      44.802  26.844  33.944  1.00  0.00     0.055 A 
ATOM     95  C   UNL A   1      47.035  25.942  33.937  1.00  0.00     0.041 A 
ATOM     96  F   UNL A   1      48.014  25.243  31.936  1.00  0.00    -0.206 F 
ATOM     97  C   UNL A   1      45.964  26.485  34.635  1.00  0.00     0.022 A 
BRANCH  94  98
ATOM     98  S   UNL A   1      43.447  27.614  34.897  1.00  0.00     0.124 S 
ATOM     99  O   UNL A   1      42.330  26.696  34.704  1.00  0.00    -0.237 OA
ATOM    100  O   UNL A   1      43.999  27.671  36.248  1.00  0.00    -0.237 OA
ATOM    101  O   UNL A   1      43.278  28.921  34.256  1.00  0.00    -0.744 OA
ENDBRANCH  94  98
ENDBRANCH  68  91
ENDBRANCH  42  43
ENDBRANCH  34  37
ENDBRANCH  32  33
ENDBRANCH  31  32
ENDBRANCH   1  31
TORSDOF 18
ENDMDL
