MODEL 1
REMARK VINA RESULT:     -12.8      0.000      0.000
REMARK SMILES O=C(NCCCCNC(=O)c1cn(C2CN(C(=O)c3c[nH]nn3)C2)nn1)c1ccc(-c2c3nc(c(-c4cc(S(=O)(=O)[O-])ccc4F)c4ccc([nH]4)c(-c4cc(S(=O)(=O)[O-])ccc4F)c4nc(c(-c5cc(S(=O)(=O)[O-])ccc5F)c5ccc2[nH]5)C=C4)C=C3)cc1
REMARK SMILES IDX 5 1 4 2 3 3 1 4 2 5 27 7 28 8 89 9 29 10 88 11 30 12 31 13
REMARK SMILES IDX 32 14 82 15 33 16 87 17 81 18 83 19 34 20 86 21 80 22 79 23
REMARK SMILES IDX 35 25 67 26 47 27 66 28 48 29 51 30 65 31 84 32 49 33 50 34
REMARK SMILES IDX 64 36 85 37 52 38 36 39 37 40 45 41 38 42 44 43 46 44 43 45
REMARK SMILES IDX 39 46 40 47 41 48 42 49 68 50 69 51 77 52 70 53 76 54 78 55
REMARK SMILES IDX 75 56 71 57 72 58 73 59 74 60 53 61 54 62 62 63 55 64 61 65
REMARK SMILES IDX 63 66 60 67 56 68 57 69 58 70 59 71 6 72 7 73 8 74 9 75
REMARK SMILES IDX 10 77 11 78 12 79 26 80 13 81 25 82 14 83 15 84 24 85 16 86
REMARK SMILES IDX 17 87 18 88 19 89 20 90 23 91 21 92 22 93
REMARK H PARENT 3 6 83 24 51 35 8 76 21 94
REMARK Flexibility Score: inf
ROOT
ATOM      1  C   UNL A   1      35.944  22.537  24.113  1.00  0.00     0.023 C 
ENDROOT
BRANCH   1   2
ATOM      2  C   UNL A   1      36.503  22.238  25.498  1.00  0.00     0.116 C 
BRANCH   2   3
ATOM      3  N   UNL A   1      37.451  21.133  25.519  1.00  0.00    -0.352 N 
ATOM      4  O   UNL A   1      39.466  20.141  25.752  1.00  0.00    -0.269 OA
ATOM      5  C   UNL A   1      38.777  21.147  25.893  1.00  0.00     0.251 C 
ATOM      6  H   UNL A   1      37.098  20.262  25.228  1.00  0.00     0.163 HD
BRANCH   5   7
ATOM      7  C   UNL A   1      39.370  22.391  26.433  1.00  0.00     0.039 A 
ATOM      8  C   UNL A   1      38.905  23.635  26.006  1.00  0.00     0.014 A 
ATOM      9  C   UNL A   1      40.426  22.311  27.345  1.00  0.00     0.014 A 
ATOM     10  C   UNL A   1      39.602  24.785  26.356  1.00  0.00     0.010 A 
ATOM     11  C   UNL A   1      41.066  23.480  27.773  1.00  0.00     0.010 A 
ATOM     12  C   UNL A   1      40.685  24.725  27.251  1.00  0.00    -0.014 A 
BRANCH  12  13
ATOM     13  C   UNL A   1      41.355  25.993  27.644  1.00  0.00     0.031 A 
ATOM     14  C   UNL A   1      42.745  26.326  27.172  1.00  0.00     0.074 A 
ATOM     15  C   UNL A   1      40.656  26.883  28.378  1.00  0.00     0.049 A 
ATOM     16  N   UNL A   1      43.440  27.419  27.367  1.00  0.00    -0.248 NA
ATOM     17  C   UNL A   1      43.449  25.300  26.390  1.00  0.00     0.031 C 
ATOM     18  C   UNL A   1      39.306  26.658  28.904  1.00  0.00     0.029 A 
ATOM     19  N   UNL A   1      40.959  28.157  28.781  1.00  0.00    -0.354 N 
ATOM     20  C   UNL A   1      44.665  27.212  26.739  1.00  0.00     0.074 A 
ATOM     21  C   UNL A   1      44.629  25.872  26.191  1.00  0.00     0.031 C 
ATOM     22  C   UNL A   1      38.876  27.775  29.505  1.00  0.00     0.029 A 
ATOM     23  C   UNL A   1      39.939  28.773  29.469  1.00  0.00     0.049 A 
ATOM     24  H   UNL A   1      41.823  28.590  28.596  1.00  0.00     0.167 HD
ATOM     25  C   UNL A   1      45.713  28.067  26.622  1.00  0.00     0.034 A 
ATOM     26  C   UNL A   1      39.868  29.997  30.024  1.00  0.00     0.034 A 
ATOM     27  C   UNL A   1      45.733  29.401  27.179  1.00  0.00     0.049 A 
ATOM     28  C   UNL A   1      41.046  30.920  29.885  1.00  0.00     0.074 A 
ATOM     29  C   UNL A   1      46.742  30.347  27.123  1.00  0.00     0.029 A 
ATOM     30  N   UNL A   1      44.692  29.980  27.895  1.00  0.00    -0.354 N 
ATOM     31  N   UNL A   1      42.196  30.705  29.285  1.00  0.00    -0.248 NA
ATOM     32  C   UNL A   1      40.918  32.250  30.490  1.00  0.00     0.031 C 
ATOM     33  C   UNL A   1      46.335  31.472  27.850  1.00  0.00     0.029 A 
ATOM     34  C   UNL A   1      45.044  31.259  28.302  1.00  0.00     0.049 A 
ATOM     35  H   UNL A   1      43.830  29.546  28.087  1.00  0.00     0.167 HD
ATOM     36  C   UNL A   1      42.924  31.879  29.438  1.00  0.00     0.074 A 
ATOM     37  C   UNL A   1      42.069  32.808  30.150  1.00  0.00     0.031 C 
ATOM     38  C   UNL A   1      44.190  32.163  29.036  1.00  0.00     0.034 A 
BRANCH  25  39
ATOM     39  C   UNL A   1      46.939  27.569  25.893  1.00  0.00     0.023 A 
ATOM     40  C   UNL A   1      47.182  27.895  24.547  1.00  0.00     0.031 A 
ATOM     41  C   UNL A   1      47.876  26.750  26.550  1.00  0.00     0.131 A 
ATOM     42  C   UNL A   1      48.298  27.359  23.885  1.00  0.00     0.055 A 
ATOM     43  C   UNL A   1      49.022  26.278  25.906  1.00  0.00     0.041 A 
ATOM     44  F   UNL A   1      47.689  26.389  27.829  1.00  0.00    -0.206 F 
ATOM     45  C   UNL A   1      49.233  26.573  24.563  1.00  0.00     0.022 A 
BRANCH  42  46
ATOM     46  S   UNL A   1      48.449  27.607  22.095  1.00  0.00     0.124 S 
ATOM     47  O   UNL A   1      47.155  28.203  21.769  1.00  0.00    -0.237 OA
ATOM     48  O   UNL A   1      49.603  28.492  21.994  1.00  0.00    -0.237 OA
ATOM     49  O   UNL A   1      48.652  26.256  21.576  1.00  0.00    -0.744 OA
ENDBRANCH  42  46
ENDBRANCH  25  39
BRANCH  26  50
ATOM     50  C   UNL A   1      38.654  30.404  30.786  1.00  0.00     0.023 A 
ATOM     51  C   UNL A   1      37.610  31.113  30.174  1.00  0.00     0.031 A 
ATOM     52  C   UNL A   1      38.537  30.107  32.157  1.00  0.00     0.131 A 
ATOM     53  C   UNL A   1      36.513  31.539  30.940  1.00  0.00     0.055 A 
ATOM     54  C   UNL A   1      37.419  30.483  32.901  1.00  0.00     0.041 A 
ATOM     55  F   UNL A   1      39.506  29.426  32.789  1.00  0.00    -0.206 F 
ATOM     56  C   UNL A   1      36.404  31.215  32.295  1.00  0.00     0.022 A 
BRANCH  53  57
ATOM     57  S   UNL A   1      35.268  32.600  30.159  1.00  0.00     0.124 S 
ATOM     58  O   UNL A   1      34.380  32.894  31.278  1.00  0.00    -0.237 OA
ATOM     59  O   UNL A   1      36.079  33.711  29.675  1.00  0.00    -0.237 OA
ATOM     60  O   UNL A   1      34.699  31.746  29.118  1.00  0.00    -0.744 OA
ENDBRANCH  53  57
ENDBRANCH  26  50
BRANCH  38  61
ATOM     61  C   UNL A   1      44.700  33.546  29.354  1.00  0.00     0.023 A 
ATOM     62  C   UNL A   1      44.422  34.640  28.514  1.00  0.00     0.031 A 
ATOM     63  C   UNL A   1      45.514  33.762  30.477  1.00  0.00     0.131 A 
ATOM     64  C   UNL A   1      45.013  35.885  28.771  1.00  0.00     0.055 A 
ATOM     65  C   UNL A   1      46.050  35.020  30.763  1.00  0.00     0.041 A 
ATOM     66  F   UNL A   1      45.812  32.753  31.311  1.00  0.00    -0.206 F 
ATOM     67  C   UNL A   1      45.814  36.086  29.898  1.00  0.00     0.022 A 
BRANCH  64  68
ATOM     68  S   UNL A   1      44.811  37.212  27.551  1.00  0.00     0.124 S 
ATOM     69  O   UNL A   1      46.033  37.088  26.763  1.00  0.00    -0.237 OA
ATOM     70  O   UNL A   1      43.575  36.828  26.876  1.00  0.00    -0.237 OA
ATOM     71  O   UNL A   1      44.720  38.420  28.369  1.00  0.00    -0.744 OA
ENDBRANCH  64  68
ENDBRANCH  38  61
ENDBRANCH  12  13
ENDBRANCH   5   7
ENDBRANCH   2   3
ENDBRANCH   1   2
BRANCH   1  72
ATOM     72  C   UNL A   1      34.734  23.468  24.080  1.00  0.00     0.023 C 
BRANCH  72  73
ATOM     73  C   UNL A   1      33.572  22.990  23.214  1.00  0.00     0.116 C 
BRANCH  73  74
ATOM     74  N   UNL A   1      32.981  21.753  23.698  1.00  0.00    -0.351 N 
ATOM     75  C   UNL A   1      32.152  21.546  24.778  1.00  0.00     0.273 C 
ATOM     76  H   UNL A   1      33.205  20.947  23.178  1.00  0.00     0.163 HD
ATOM     77  O   UNL A   1      31.878  20.396  25.115  1.00  0.00    -0.267 OA
BRANCH  75  78
ATOM     78  C   UNL A   1      31.630  22.706  25.478  1.00  0.00     0.170 A 
ATOM     79  C   UNL A   1      30.980  23.802  24.943  1.00  0.00     0.145 A 
ATOM     80  N   UNL A   1      31.733  22.874  26.836  1.00  0.00    -0.125 NA
ATOM     81  N   UNL A   1      30.874  24.662  25.995  1.00  0.00    -0.245 N 
ATOM     82  N   UNL A   1      31.273  24.083  27.139  1.00  0.00    -0.066 NA
BRANCH  81  83
ATOM     83  C   UNL A   1      30.502  26.042  25.962  1.00  0.00     0.148 C 
ATOM     84  C   UNL A   1      31.697  27.023  25.941  1.00  0.00     0.149 C 
ATOM     85  C   UNL A   1      30.178  26.561  24.544  1.00  0.00     0.149 C 
ATOM     86  N   UNL A   1      30.960  27.723  24.907  1.00  0.00    -0.333 N 
ATOM     87  C   UNL A   1      31.201  28.954  24.352  1.00  0.00     0.276 C 
ATOM     88  O   UNL A   1      32.159  29.635  24.708  1.00  0.00    -0.267 OA
BRANCH  87  89
ATOM     89  C   UNL A   1      30.254  29.411  23.345  1.00  0.00     0.170 A 
ATOM     90  C   UNL A   1      29.160  30.242  23.501  1.00  0.00     0.141 A 
ATOM     91  N   UNL A   1      30.386  29.117  22.008  1.00  0.00    -0.125 NA
ATOM     92  N   UNL A   1      28.669  30.389  22.240  1.00  0.00    -0.265 N 
ATOM     93  N   UNL A   1      29.394  29.703  21.349  1.00  0.00    -0.069 NA
ATOM     94  H   UNL A   1      27.879  30.930  22.013  1.00  0.00     0.191 HD
ENDBRANCH  87  89
ENDBRANCH  81  83
ENDBRANCH  75  78
ENDBRANCH  73  74
ENDBRANCH  72  73
ENDBRANCH   1  72
TORSDOF 16
ENDMDL
MODEL 2
REMARK VINA RESULT:     -12.4      5.076     10.568
REMARK SMILES O=C(NCCCCNC(=O)c1cn(C2CN(C(=O)c3c[nH]nn3)C2)nn1)c1ccc(-c2c3nc(c(-c4cc(S(=O)(=O)[O-])ccc4F)c4ccc([nH]4)c(-c4cc(S(=O)(=O)[O-])ccc4F)c4nc(c(-c5cc(S(=O)(=O)[O-])ccc5F)c5ccc2[nH]5)C=C4)C=C3)cc1
REMARK SMILES IDX 5 1 4 2 3 3 1 4 2 5 27 7 28 8 89 9 29 10 88 11 30 12 31 13
REMARK SMILES IDX 32 14 82 15 33 16 87 17 81 18 83 19 34 20 86 21 80 22 79 23
REMARK SMILES IDX 35 25 67 26 47 27 66 28 48 29 51 30 65 31 84 32 49 33 50 34
REMARK SMILES IDX 64 36 85 37 52 38 36 39 37 40 45 41 38 42 44 43 46 44 43 45
REMARK SMILES IDX 39 46 40 47 41 48 42 49 68 50 69 51 77 52 70 53 76 54 78 55
REMARK SMILES IDX 75 56 71 57 72 58 73 59 74 60 53 61 54 62 62 63 55 64 61 65
REMARK SMILES IDX 63 66 60 67 56 68 57 69 58 70 59 71 6 72 7 73 8 74 9 75
REMARK SMILES IDX 10 77 11 78 12 79 26 80 13 81 25 82 14 83 15 84 24 85 16 86
REMARK SMILES IDX 17 87 18 88 19 89 20 90 23 91 21 92 22 93
REMARK H PARENT 3 6 83 24 51 35 8 76 21 94
REMARK Flexibility Score: inf
ROOT
ATOM      1  C   UNL A   1      32.340  28.486  25.751  1.00  0.00     0.023 C 
ENDROOT
BRANCH   1   2
ATOM      2  C   UNL A   1      32.446  29.258  27.060  1.00  0.00     0.116 C 
BRANCH   2   3
ATOM      3  N   UNL A   1      32.336  30.701  26.897  1.00  0.00    -0.352 N 
ATOM      4  O   UNL A   1      32.935  32.863  27.152  1.00  0.00    -0.269 OA
ATOM      5  C   UNL A   1      33.232  31.678  27.271  1.00  0.00     0.251 C 
ATOM      6  H   UNL A   1      31.513  31.020  26.462  1.00  0.00     0.163 HD
BRANCH   5   7
ATOM      7  C   UNL A   1      34.537  31.287  27.848  1.00  0.00     0.039 A 
ATOM      8  C   UNL A   1      34.758  29.975  28.269  1.00  0.00     0.014 A 
ATOM      9  C   UNL A   1      35.538  32.252  28.005  1.00  0.00     0.014 A 
ATOM     10  C   UNL A   1      35.901  29.669  28.996  1.00  0.00     0.010 A 
ATOM     11  C   UNL A   1      36.732  31.916  28.653  1.00  0.00     0.010 A 
ATOM     12  C   UNL A   1      36.908  30.632  29.190  1.00  0.00    -0.014 A 
BRANCH  12  13
ATOM     13  C   UNL A   1      38.142  30.234  29.918  1.00  0.00     0.031 A 
ATOM     14  C   UNL A   1      38.393  30.672  31.336  1.00  0.00     0.074 A 
ATOM     15  C   UNL A   1      39.007  29.403  29.302  1.00  0.00     0.049 A 
ATOM     16  N   UNL A   1      39.382  30.353  32.133  1.00  0.00    -0.248 NA
ATOM     17  C   UNL A   1      37.414  31.591  31.935  1.00  0.00     0.031 C 
ATOM     18  C   UNL A   1      38.872  28.927  27.921  1.00  0.00     0.029 A 
ATOM     19  N   UNL A   1      40.142  28.784  29.754  1.00  0.00    -0.354 N 
ATOM     20  C   UNL A   1      39.152  31.036  33.323  1.00  0.00     0.074 A 
ATOM     21  C   UNL A   1      37.948  31.817  33.128  1.00  0.00     0.031 C 
ATOM     22  C   UNL A   1      39.848  28.047  27.661  1.00  0.00     0.029 A 
ATOM     23  C   UNL A   1      40.717  27.944  28.828  1.00  0.00     0.049 A 
ATOM     24  H   UNL A   1      40.511  28.925  30.656  1.00  0.00     0.167 HD
ATOM     25  C   UNL A   1      39.872  31.002  34.474  1.00  0.00     0.034 A 
ATOM     26  C   UNL A   1      41.827  27.186  28.899  1.00  0.00     0.034 A 
ATOM     27  C   UNL A   1      41.075  30.220  34.650  1.00  0.00     0.049 A 
ATOM     28  C   UNL A   1      42.609  27.174  30.183  1.00  0.00     0.074 A 
ATOM     29  C   UNL A   1      41.883  30.116  35.770  1.00  0.00     0.029 A 
ATOM     30  N   UNL A   1      41.643  29.404  33.679  1.00  0.00    -0.354 N 
ATOM     31  N   UNL A   1      42.373  27.826  31.298  1.00  0.00    -0.248 NA
ATOM     32  C   UNL A   1      43.801  26.320  30.221  1.00  0.00     0.031 C 
ATOM     33  C   UNL A   1      42.966  29.285  35.459  1.00  0.00     0.029 A 
ATOM     34  C   UNL A   1      42.799  28.811  34.168  1.00  0.00     0.049 A 
ATOM     35  H   UNL A   1      41.279  29.266  32.775  1.00  0.00     0.167 HD
ATOM     36  C   UNL A   1      43.388  27.454  32.173  1.00  0.00     0.074 A 
ATOM     37  C   UNL A   1      44.211  26.493  31.468  1.00  0.00     0.031 C 
ATOM     38  C   UNL A   1      43.625  27.876  33.442  1.00  0.00     0.034 A 
BRANCH  25  39
ATOM     39  C   UNL A   1      39.396  31.866  35.618  1.00  0.00     0.023 A 
ATOM     40  C   UNL A   1      38.650  31.334  36.685  1.00  0.00     0.031 A 
ATOM     41  C   UNL A   1      39.686  33.242  35.642  1.00  0.00     0.131 A 
ATOM     42  C   UNL A   1      38.170  32.181  37.697  1.00  0.00     0.055 A 
ATOM     43  C   UNL A   1      39.265  34.067  36.688  1.00  0.00     0.041 A 
ATOM     44  F   UNL A   1      40.377  33.812  34.642  1.00  0.00    -0.206 F 
ATOM     45  C   UNL A   1      38.493  33.540  37.718  1.00  0.00     0.022 A 
BRANCH  42  46
ATOM     46  S   UNL A   1      37.017  31.503  38.922  1.00  0.00     0.124 S 
ATOM     47  O   UNL A   1      37.811  31.577  40.147  1.00  0.00    -0.237 OA
ATOM     48  O   UNL A   1      35.888  32.422  38.836  1.00  0.00    -0.237 OA
ATOM     49  O   UNL A   1      36.757  30.149  38.438  1.00  0.00    -0.744 OA
ENDBRANCH  42  46
ENDBRANCH  25  39
BRANCH  26  50
ATOM     50  C   UNL A   1      42.279  26.407  27.712  1.00  0.00     0.023 A 
ATOM     51  C   UNL A   1      41.874  25.079  27.511  1.00  0.00     0.031 A 
ATOM     52  C   UNL A   1      43.152  26.981  26.769  1.00  0.00     0.131 A 
ATOM     53  C   UNL A   1      42.374  24.356  26.417  1.00  0.00     0.055 A 
ATOM     54  C   UNL A   1      43.601  26.276  25.653  1.00  0.00     0.041 A 
ATOM     55  F   UNL A   1      43.566  28.251  26.912  1.00  0.00    -0.206 F 
ATOM     56  C   UNL A   1      43.223  24.950  25.480  1.00  0.00     0.022 A 
BRANCH  53  57
ATOM     57  S   UNL A   1      41.968  22.594  26.283  1.00  0.00     0.124 S 
ATOM     58  O   UNL A   1      40.511  22.625  26.225  1.00  0.00    -0.237 OA
ATOM     59  O   UNL A   1      42.651  22.220  25.050  1.00  0.00    -0.237 OA
ATOM     60  O   UNL A   1      42.533  22.022  27.504  1.00  0.00    -0.744 OA
ENDBRANCH  53  57
ENDBRANCH  26  50
BRANCH  38  61
ATOM     61  C   UNL A   1      44.821  27.274  34.135  1.00  0.00     0.023 A 
ATOM     62  C   UNL A   1      44.704  26.114  34.922  1.00  0.00     0.031 A 
ATOM     63  C   UNL A   1      46.078  27.895  34.052  1.00  0.00     0.131 A 
ATOM     64  C   UNL A   1      45.809  25.651  35.652  1.00  0.00     0.055 A 
ATOM     65  C   UNL A   1      47.190  27.395  34.732  1.00  0.00     0.041 A 
ATOM     66  F   UNL A   1      46.245  29.006  33.317  1.00  0.00    -0.206 F 
ATOM     67  C   UNL A   1      47.055  26.276  35.551  1.00  0.00     0.022 A 
BRANCH  64  68
ATOM     68  S   UNL A   1      45.568  24.288  36.823  1.00  0.00     0.124 S 
ATOM     69  O   UNL A   1      46.874  24.207  37.469  1.00  0.00    -0.237 OA
ATOM     70  O   UNL A   1      44.475  24.782  37.655  1.00  0.00    -0.237 OA
ATOM     71  O   UNL A   1      45.228  23.154  35.966  1.00  0.00    -0.744 OA
ENDBRANCH  64  68
ENDBRANCH  38  61
ENDBRANCH  12  13
ENDBRANCH   5   7
ENDBRANCH   2   3
ENDBRANCH   1   2
BRANCH   1  72
ATOM     72  C   UNL A   1      33.619  28.422  24.921  1.00  0.00     0.023 C 
BRANCH  72  73
ATOM     73  C   UNL A   1      33.439  28.692  23.430  1.00  0.00     0.116 C 
BRANCH  73  74
ATOM     74  N   UNL A   1      32.048  28.624  23.010  1.00  0.00    -0.351 N 
ATOM     75  C   UNL A   1      31.382  27.612  22.355  1.00  0.00     0.273 C 
ATOM     76  H   UNL A   1      31.504  29.416  23.226  1.00  0.00     0.163 HD
ATOM     77  O   UNL A   1      30.238  27.807  21.951  1.00  0.00    -0.267 OA
BRANCH  75  78
ATOM     78  C   UNL A   1      32.065  26.344  22.171  1.00  0.00     0.170 A 
ATOM     79  C   UNL A   1      32.272  25.346  23.104  1.00  0.00     0.145 A 
ATOM     80  N   UNL A   1      32.633  25.962  20.982  1.00  0.00    -0.125 NA
ATOM     81  N   UNL A   1      33.110  24.479  22.469  1.00  0.00    -0.245 N 
ATOM     82  N   UNL A   1      33.279  24.819  21.181  1.00  0.00    -0.066 NA
BRANCH  81  83
ATOM     83  C   UNL A   1      33.840  23.390  23.042  1.00  0.00     0.148 C 
ATOM     84  C   UNL A   1      33.869  23.387  24.588  1.00  0.00     0.149 C 
ATOM     85  C   UNL A   1      33.019  22.087  23.153  1.00  0.00     0.149 C 
ATOM     86  N   UNL A   1      33.586  21.969  24.479  1.00  0.00    -0.333 N 
ATOM     87  C   UNL A   1      33.611  21.003  25.452  1.00  0.00     0.276 C 
ATOM     88  O   UNL A   1      33.893  21.278  26.615  1.00  0.00    -0.267 OA
BRANCH  87  89
ATOM     89  C   UNL A   1      33.311  19.643  25.026  1.00  0.00     0.170 A 
ATOM     90  C   UNL A   1      34.103  18.766  24.309  1.00  0.00     0.141 A 
ATOM     91  N   UNL A   1      32.154  18.988  25.379  1.00  0.00    -0.125 NA
ATOM     92  N   UNL A   1      33.366  17.624  24.244  1.00  0.00    -0.265 N 
ATOM     93  N   UNL A   1      32.192  17.763  24.872  1.00  0.00    -0.069 NA
ATOM     94  H   UNL A   1      33.658  16.801  23.791  1.00  0.00     0.191 HD
ENDBRANCH  87  89
ENDBRANCH  81  83
ENDBRANCH  75  78
ENDBRANCH  73  74
ENDBRANCH  72  73
ENDBRANCH   1  72
TORSDOF 16
ENDMDL
MODEL 3
REMARK VINA RESULT:     -12.3      5.121     10.610
REMARK SMILES O=C(NCCCCNC(=O)c1cn(C2CN(C(=O)c3c[nH]nn3)C2)nn1)c1ccc(-c2c3nc(c(-c4cc(S(=O)(=O)[O-])ccc4F)c4ccc([nH]4)c(-c4cc(S(=O)(=O)[O-])ccc4F)c4nc(c(-c5cc(S(=O)(=O)[O-])ccc5F)c5ccc2[nH]5)C=C4)C=C3)cc1
REMARK SMILES IDX 5 1 4 2 3 3 1 4 2 5 27 7 28 8 89 9 29 10 88 11 30 12 31 13
REMARK SMILES IDX 32 14 82 15 33 16 87 17 81 18 83 19 34 20 86 21 80 22 79 23
REMARK SMILES IDX 35 25 67 26 47 27 66 28 48 29 51 30 65 31 84 32 49 33 50 34
REMARK SMILES IDX 64 36 85 37 52 38 36 39 37 40 45 41 38 42 44 43 46 44 43 45
REMARK SMILES IDX 39 46 40 47 41 48 42 49 68 50 69 51 77 52 70 53 76 54 78 55
REMARK SMILES IDX 75 56 71 57 72 58 73 59 74 60 53 61 54 62 62 63 55 64 61 65
REMARK SMILES IDX 63 66 60 67 56 68 57 69 58 70 59 71 6 72 7 73 8 74 9 75
REMARK SMILES IDX 10 77 11 78 12 79 26 80 13 81 25 82 14 83 15 84 24 85 16 86
REMARK SMILES IDX 17 87 18 88 19 89 20 90 23 91 21 92 22 93
REMARK H PARENT 3 6 83 24 51 35 8 76 21 94
REMARK Flexibility Score: inf
ROOT
ATOM      1  C   UNL A   1      32.634  29.510  25.070  1.00  0.00     0.023 C 
ENDROOT
BRANCH   1   2
ATOM      2  C   UNL A   1      32.340  29.916  26.509  1.00  0.00     0.116 C 
BRANCH   2   3
ATOM      3  N   UNL A   1      32.112  31.344  26.678  1.00  0.00    -0.352 N 
ATOM      4  O   UNL A   1      32.512  33.425  27.458  1.00  0.00    -0.269 OA
ATOM      5  C   UNL A   1      32.906  32.271  27.317  1.00  0.00     0.251 C 
ATOM      6  H   UNL A   1      31.281  31.693  26.283  1.00  0.00     0.163 HD
BRANCH   5   7
ATOM      7  C   UNL A   1      34.218  31.856  27.860  1.00  0.00     0.039 A 
ATOM      8  C   UNL A   1      34.416  30.547  28.302  1.00  0.00     0.014 A 
ATOM      9  C   UNL A   1      35.249  32.795  27.963  1.00  0.00     0.014 A 
ATOM     10  C   UNL A   1      35.574  30.225  28.998  1.00  0.00     0.010 A 
ATOM     11  C   UNL A   1      36.454  32.440  28.579  1.00  0.00     0.010 A 
ATOM     12  C   UNL A   1      36.613  31.162  29.137  1.00  0.00    -0.014 A 
BRANCH  12  13
ATOM     13  C   UNL A   1      37.859  30.746  29.834  1.00  0.00     0.031 A 
ATOM     14  C   UNL A   1      38.141  31.160  31.253  1.00  0.00     0.074 A 
ATOM     15  C   UNL A   1      38.706  29.919  29.186  1.00  0.00     0.049 A 
ATOM     16  N   UNL A   1      39.144  30.822  32.024  1.00  0.00    -0.248 NA
ATOM     17  C   UNL A   1      37.181  32.075  31.887  1.00  0.00     0.031 C 
ATOM     18  C   UNL A   1      38.540  29.467  27.802  1.00  0.00     0.029 A 
ATOM     19  N   UNL A   1      39.846  29.286  29.606  1.00  0.00    -0.354 N 
ATOM     20  C   UNL A   1      38.943  31.486  33.230  1.00  0.00     0.074 A 
ATOM     21  C   UNL A   1      37.740  32.277  33.072  1.00  0.00     0.031 C 
ATOM     22  C   UNL A   1      39.505  28.585  27.508  1.00  0.00     0.029 A 
ATOM     23  C   UNL A   1      40.397  28.458  28.654  1.00  0.00     0.049 A 
ATOM     24  H   UNL A   1      40.235  29.411  30.502  1.00  0.00     0.167 HD
ATOM     25  C   UNL A   1      39.686  31.430  34.365  1.00  0.00     0.034 A 
ATOM     26  C   UNL A   1      41.503  27.693  28.690  1.00  0.00     0.034 A 
ATOM     27  C   UNL A   1      40.887  30.638  34.504  1.00  0.00     0.049 A 
ATOM     28  C   UNL A   1      42.311  27.655  29.958  1.00  0.00     0.074 A 
ATOM     29  C   UNL A   1      41.718  30.511  35.605  1.00  0.00     0.029 A 
ATOM     30  N   UNL A   1      41.431  29.834  33.509  1.00  0.00    -0.354 N 
ATOM     31  N   UNL A   1      42.102  28.290  31.088  1.00  0.00    -0.248 NA
ATOM     32  C   UNL A   1      43.498  26.794  29.957  1.00  0.00     0.031 C 
ATOM     33  C   UNL A   1      42.789  29.678  35.259  1.00  0.00     0.029 A 
ATOM     34  C   UNL A   1      42.593  29.227  33.964  1.00  0.00     0.049 A 
ATOM     35  H   UNL A   1      41.048  29.713  32.610  1.00  0.00     0.167 HD
ATOM     36  C   UNL A   1      43.132  27.899  31.936  1.00  0.00     0.074 A 
ATOM     37  C   UNL A   1      43.935  26.944  31.198  1.00  0.00     0.031 C 
ATOM     38  C   UNL A   1      43.398  28.298  33.206  1.00  0.00     0.034 A 
BRANCH  25  39
ATOM     39  C   UNL A   1      39.239  32.277  35.533  1.00  0.00     0.023 A 
ATOM     40  C   UNL A   1      39.664  33.609  35.686  1.00  0.00     0.031 A 
ATOM     41  C   UNL A   1      38.381  31.746  36.513  1.00  0.00     0.131 A 
ATOM     42  C   UNL A   1      39.280  34.343  36.819  1.00  0.00     0.055 A 
ATOM     43  C   UNL A   1      37.946  32.504  37.602  1.00  0.00     0.041 A 
ATOM     44  F   UNL A   1      37.958  30.475  36.433  1.00  0.00    -0.206 F 
ATOM     45  C   UNL A   1      38.404  33.808  37.765  1.00  0.00     0.022 A 
BRANCH  42  46
ATOM     46  S   UNL A   1      40.036  35.968  37.099  1.00  0.00     0.124 S 
ATOM     47  O   UNL A   1      39.742  36.652  35.841  1.00  0.00    -0.237 OA
ATOM     48  O   UNL A   1      39.320  36.452  38.272  1.00  0.00    -0.237 OA
ATOM     49  O   UNL A   1      41.449  35.657  37.314  1.00  0.00    -0.744 OA
ENDBRANCH  42  46
ENDBRANCH  25  39
BRANCH  26  50
ATOM     50  C   UNL A   1      41.925  26.930  27.482  1.00  0.00     0.023 A 
ATOM     51  C   UNL A   1      41.743  25.543  27.392  1.00  0.00     0.031 A 
ATOM     52  C   UNL A   1      42.548  27.587  26.403  1.00  0.00     0.131 A 
ATOM     53  C   UNL A   1      42.216  24.849  26.266  1.00  0.00     0.055 A 
ATOM     54  C   UNL A   1      42.964  26.901  25.263  1.00  0.00     0.041 A 
ATOM     55  F   UNL A   1      42.741  28.915  26.437  1.00  0.00    -0.206 F 
ATOM     56  C   UNL A   1      42.811  25.521  25.196  1.00  0.00     0.022 A 
BRANCH  53  57
ATOM     57  S   UNL A   1      42.120  23.038  26.260  1.00  0.00     0.124 S 
ATOM     58  O   UNL A   1      42.958  22.690  27.402  1.00  0.00    -0.237 OA
ATOM     59  O   UNL A   1      40.688  22.812  26.422  1.00  0.00    -0.237 OA
ATOM     60  O   UNL A   1      42.662  22.674  24.953  1.00  0.00    -0.744 OA
ENDBRANCH  53  57
ENDBRANCH  26  50
BRANCH  38  61
ATOM     61  C   UNL A   1      44.604  27.678  33.865  1.00  0.00     0.023 A 
ATOM     62  C   UNL A   1      44.492  26.517  34.652  1.00  0.00     0.031 A 
ATOM     63  C   UNL A   1      45.867  28.282  33.749  1.00  0.00     0.131 A 
ATOM     64  C   UNL A   1      45.610  26.037  35.350  1.00  0.00     0.055 A 
ATOM     65  C   UNL A   1      46.989  27.764  34.397  1.00  0.00     0.041 A 
ATOM     66  F   UNL A   1      46.029  29.393  33.012  1.00  0.00    -0.206 F 
ATOM     67  C   UNL A   1      46.861  26.646  35.217  1.00  0.00     0.022 A 
BRANCH  64  68
ATOM     68  S   UNL A   1      45.382  24.674  36.524  1.00  0.00     0.124 S 
ATOM     69  O   UNL A   1      45.145  23.543  35.634  1.00  0.00    -0.237 OA
ATOM     70  O   UNL A   1      46.654  24.666  37.241  1.00  0.00    -0.237 OA
ATOM     71  O   UNL A   1      44.228  25.093  37.317  1.00  0.00    -0.744 OA
ENDBRANCH  64  68
ENDBRANCH  38  61
ENDBRANCH  12  13
ENDBRANCH   5   7
ENDBRANCH   2   3
ENDBRANCH   1   2
BRANCH   1  72
ATOM     72  C   UNL A   1      31.593  28.604  24.418  1.00  0.00     0.023 C 
BRANCH  72  73
ATOM     73  C   UNL A   1      32.011  27.145  24.260  1.00  0.00     0.116 C 
BRANCH  73  74
ATOM     74  N   UNL A   1      33.325  26.873  24.821  1.00  0.00    -0.351 N 
ATOM     75  C   UNL A   1      33.999  25.676  24.926  1.00  0.00     0.273 C 
ATOM     76  H   UNL A   1      33.802  27.658  25.177  1.00  0.00     0.163 HD
ATOM     77  O   UNL A   1      35.043  25.628  25.573  1.00  0.00    -0.267 OA
BRANCH  75  78
ATOM     78  C   UNL A   1      33.443  24.512  24.259  1.00  0.00     0.170 A 
ATOM     79  C   UNL A   1      32.591  23.558  24.782  1.00  0.00     0.145 A 
ATOM     80  N   UNL A   1      33.720  24.189  22.955  1.00  0.00    -0.125 NA
ATOM     81  N   UNL A   1      32.533  22.607  23.807  1.00  0.00    -0.245 N 
ATOM     82  N   UNL A   1      33.162  23.013  22.693  1.00  0.00    -0.066 NA
BRANCH  81  83
ATOM     83  C   UNL A   1      31.991  21.287  23.905  1.00  0.00     0.148 C 
ATOM     84  C   UNL A   1      32.056  20.474  22.591  1.00  0.00     0.149 C 
ATOM     85  C   UNL A   1      32.985  20.253  24.478  1.00  0.00     0.149 C 
ATOM     86  N   UNL A   1      32.519  19.380  23.422  1.00  0.00    -0.333 N 
ATOM     87  C   UNL A   1      32.683  18.056  23.101  1.00  0.00     0.276 C 
ATOM     88  O   UNL A   1      32.437  17.640  21.972  1.00  0.00    -0.267 OA
BRANCH  87  89
ATOM     89  C   UNL A   1      33.136  17.178  24.171  1.00  0.00     0.170 A 
ATOM     90  C   UNL A   1      32.772  17.180  25.504  1.00  0.00     0.141 A 
ATOM     91  N   UNL A   1      33.981  16.114  23.955  1.00  0.00    -0.125 NA
ATOM     92  N   UNL A   1      33.442  16.121  26.036  1.00  0.00    -0.265 N 
ATOM     93  N   UNL A   1      34.177  15.492  25.111  1.00  0.00    -0.069 NA
ATOM     94  H   UNL A   1      33.392  15.852  26.981  1.00  0.00     0.191 HD
ENDBRANCH  87  89
ENDBRANCH  81  83
ENDBRANCH  75  78
ENDBRANCH  73  74
ENDBRANCH  72  73
ENDBRANCH   1  72
TORSDOF 16
ENDMDL
