MODEL 1
REMARK VINA RESULT:     -11.2      0.000      0.000
REMARK SMILES NS(=O)(=O)c1ccc(-c2coc(=O)n2-c2ccc(C(=O)NCCCCNC(=O)c3ccc(-c4c5nc(c(-c6cc(S(=O)(=O)[O-])ccc6F)c6ccc([nH]6)c(-c6cc(S(=O)(=O)[O-])ccc6F)c6nc(c(-c7cc(S(=O)(=O)[O-])ccc7F)c7ccc4[nH]7)C=C6)C=C5)cc3)cc2)cc1
REMARK SMILES IDX 23 1 22 2 21 3 19 4 20 5 18 7 15 8 16 9 93 10 17 11 92 12
REMARK SMILES IDX 14 13 9 14 10 15 11 16 12 17 13 18 8 19 5 20 6 21 95 22 7 23
REMARK SMILES IDX 94 24 2 25 3 26 4 27 1 28 24 31 25 32 26 33 27 34 28 36
REMARK SMILES IDX 29 37 30 38 91 39 31 40 90 41 32 42 33 43 34 44 84 45 35 46
REMARK SMILES IDX 89 47 83 48 85 49 36 50 88 51 82 52 81 53 37 55 69 56 49 57
REMARK SMILES IDX 68 58 50 59 53 60 67 61 86 62 51 63 52 64 66 66 87 67 54 68
REMARK SMILES IDX 38 69 39 70 47 71 40 72 46 73 48 74 45 75 41 76 42 77 43 78
REMARK SMILES IDX 44 79 70 80 71 81 79 82 72 83 78 84 80 85 77 86 73 87 74 88
REMARK SMILES IDX 75 89 76 90 55 91 56 92 64 93 57 94 63 95 65 96 62 97 58 98
REMARK SMILES IDX 59 99 60 100 61 101
REMARK H PARENT 21 6 1 29 1 30 26 35 85 54 53 65
REMARK Flexibility Score: inf
ROOT
ATOM      1  C   UNL A   1      38.411  33.833  28.813  1.00  0.00     0.023 C 
ENDROOT
BRANCH   1   2
ATOM      2  C   UNL A   1      39.336  34.981  29.235  1.00  0.00     0.116 C 
BRANCH   2   3
ATOM      3  N   UNL A   1      40.731  34.581  29.199  1.00  0.00    -0.352 N 
ATOM      4  C   UNL A   1      41.523  33.836  30.035  1.00  0.00     0.251 C 
ATOM      5  O   UNL A   1      42.695  33.668  29.694  1.00  0.00    -0.269 OA
ATOM      6  H   UNL A   1      41.210  34.916  28.407  1.00  0.00     0.163 HD
BRANCH   4   7
ATOM      7  C   UNL A   1      41.046  33.193  31.296  1.00  0.00     0.039 A 
ATOM      8  C   UNL A   1      40.011  31.834  33.538  1.00  0.00     0.053 A 
ATOM      9  C   UNL A   1      40.315  31.120  32.381  1.00  0.00     0.028 A 
ATOM     10  C   UNL A   1      40.288  33.202  33.599  1.00  0.00     0.028 A 
ATOM     11  C   UNL A   1      40.798  31.805  31.258  1.00  0.00     0.016 A 
ATOM     12  C   UNL A   1      40.847  33.861  32.503  1.00  0.00     0.016 A 
BRANCH   8  13
ATOM     13  N   UNL A   1      39.398  31.214  34.637  1.00  0.00    -0.242 N 
ATOM     14  C   UNL A   1      38.214  31.549  35.231  1.00  0.00     0.095 A 
ATOM     15  C   UNL A   1      38.151  30.829  36.344  1.00  0.00     0.228 A 
ATOM     16  O   UNL A   1      39.245  29.990  36.551  1.00  0.00    -0.415 OA
ATOM     17  C   UNL A   1      40.024  30.252  35.422  1.00  0.00     0.424 A 
ATOM     18  O   UNL A   1      41.108  29.716  35.234  1.00  0.00    -0.223 OA
BRANCH  14  19
ATOM     19  C   UNL A   1      37.176  32.403  34.652  1.00  0.00     0.002 A 
ATOM     20  C   UNL A   1      35.252  34.105  33.524  1.00  0.00     0.082 A 
ATOM     21  C   UNL A   1      36.002  34.543  34.616  1.00  0.00     0.022 A 
ATOM     22  C   UNL A   1      35.448  32.825  32.997  1.00  0.00     0.022 A 
ATOM     23  C   UNL A   1      36.959  33.691  35.174  1.00  0.00     0.012 A 
ATOM     24  C   UNL A   1      36.413  31.979  33.557  1.00  0.00     0.012 A 
BRANCH  20  25
ATOM     25  S   UNL A   1      34.072  35.192  32.771  1.00  0.00     0.238 S 
ATOM     26  O   UNL A   1      34.278  36.514  33.293  1.00  0.00    -0.207 OA
ATOM     27  O   UNL A   1      32.786  34.522  32.808  1.00  0.00    -0.207 OA
BRANCH  25  28
ATOM     28  N   UNL A   1      34.557  35.238  31.165  1.00  0.00    -0.225 NA
ATOM     29  H   UNL A   1      34.166  36.066  30.715  1.00  0.00     0.137 HD
ATOM     30  H   UNL A   1      34.224  34.402  30.686  1.00  0.00     0.137 HD
ENDBRANCH  25  28
ENDBRANCH  20  25
ENDBRANCH  14  19
ENDBRANCH   8  13
ENDBRANCH   4   7
ENDBRANCH   2   3
ENDBRANCH   1   2
BRANCH   1  31
ATOM     31  C   UNL A   1      37.501  33.293  29.926  1.00  0.00     0.023 C 
BRANCH  31  32
ATOM     32  C   UNL A   1      37.640  31.798  30.204  1.00  0.00     0.116 C 
BRANCH  32  33
ATOM     33  N   UNL A   1      36.497  31.026  29.723  1.00  0.00    -0.352 N 
ATOM     34  C   UNL A   1      36.484  30.023  28.773  1.00  0.00     0.251 C 
ATOM     35  H   UNL A   1      35.627  31.248  30.128  1.00  0.00     0.163 HD
ATOM     36  O   UNL A   1      35.449  29.751  28.175  1.00  0.00    -0.269 OA
BRANCH  34  37
ATOM     37  C   UNL A   1      37.732  29.290  28.494  1.00  0.00     0.039 A 
ATOM     38  C   UNL A   1      38.486  29.560  27.351  1.00  0.00     0.014 A 
ATOM     39  C   UNL A   1      38.165  28.348  29.425  1.00  0.00     0.014 A 
ATOM     40  C   UNL A   1      39.732  28.951  27.208  1.00  0.00     0.010 A 
ATOM     41  C   UNL A   1      39.442  27.834  29.339  1.00  0.00     0.010 A 
ATOM     42  C   UNL A   1      40.227  28.113  28.223  1.00  0.00    -0.014 A 
BRANCH  42  43
ATOM     43  C   UNL A   1      41.623  27.664  28.191  1.00  0.00     0.031 A 
ATOM     44  C   UNL A   1      41.848  26.377  27.474  1.00  0.00     0.074 A 
ATOM     45  C   UNL A   1      42.682  28.412  28.571  1.00  0.00     0.049 A 
ATOM     46  N   UNL A   1      42.217  25.249  27.982  1.00  0.00    -0.248 NA
ATOM     47  C   UNL A   1      41.499  26.296  26.047  1.00  0.00     0.031 C 
ATOM     48  C   UNL A   1      42.686  29.803  29.037  1.00  0.00     0.029 A 
ATOM     49  N   UNL A   1      44.013  28.113  28.519  1.00  0.00    -0.354 N 
ATOM     50  C   UNL A   1      42.386  24.379  26.911  1.00  0.00     0.074 A 
ATOM     51  C   UNL A   1      41.746  25.010  25.786  1.00  0.00     0.031 C 
ATOM     52  C   UNL A   1      43.945  30.293  28.998  1.00  0.00     0.029 A 
ATOM     53  C   UNL A   1      44.857  29.210  28.677  1.00  0.00     0.049 A 
ATOM     54  H   UNL A   1      44.349  27.198  28.381  1.00  0.00     0.167 HD
ATOM     55  C   UNL A   1      43.250  23.327  26.985  1.00  0.00     0.034 A 
ATOM     56  C   UNL A   1      46.209  29.246  28.550  1.00  0.00     0.034 A 
ATOM     57  C   UNL A   1      43.596  23.032  28.359  1.00  0.00     0.049 A 
ATOM     58  C   UNL A   1      46.699  27.867  28.780  1.00  0.00     0.074 A 
ATOM     59  C   UNL A   1      42.868  22.740  29.497  1.00  0.00     0.029 A 
ATOM     60  N   UNL A   1      44.839  23.412  28.814  1.00  0.00    -0.354 N 
ATOM     61  N   UNL A   1      46.588  27.253  29.925  1.00  0.00    -0.248 NA
ATOM     62  C   UNL A   1      46.882  26.996  27.630  1.00  0.00     0.031 C 
ATOM     63  C   UNL A   1      43.516  23.468  30.540  1.00  0.00     0.029 A 
ATOM     64  C   UNL A   1      44.649  24.079  30.001  1.00  0.00     0.049 A 
ATOM     65  H   UNL A   1      45.702  23.237  28.373  1.00  0.00     0.167 HD
ATOM     66  C   UNL A   1      46.227  25.957  29.601  1.00  0.00     0.074 A 
ATOM     67  C   UNL A   1      46.538  25.828  28.179  1.00  0.00     0.031 C 
ATOM     68  C   UNL A   1      45.453  25.205  30.442  1.00  0.00     0.034 A 
BRANCH  55  69
ATOM     69  C   UNL A   1      44.057  22.793  25.820  1.00  0.00     0.023 A 
ATOM     70  C   UNL A   1      44.043  21.401  25.595  1.00  0.00     0.031 A 
ATOM     71  C   UNL A   1      45.044  23.517  25.112  1.00  0.00     0.131 A 
ATOM     72  C   UNL A   1      45.017  20.789  24.787  1.00  0.00     0.055 A 
ATOM     73  C   UNL A   1      45.964  22.911  24.252  1.00  0.00     0.041 A 
ATOM     74  F   UNL A   1      45.243  24.829  25.286  1.00  0.00    -0.206 F 
ATOM     75  C   UNL A   1      45.976  21.536  24.107  1.00  0.00     0.022 A 
BRANCH  72  76
ATOM     76  S   UNL A   1      45.127  18.980  24.787  1.00  0.00     0.124 S 
ATOM     77  O   UNL A   1      44.937  18.676  23.373  1.00  0.00    -0.237 OA
ATOM     78  O   UNL A   1      46.467  18.760  25.320  1.00  0.00    -0.237 OA
ATOM     79  O   UNL A   1      44.032  18.574  25.665  1.00  0.00    -0.744 OA
ENDBRANCH  72  76
ENDBRANCH  55  69
BRANCH  56  80
ATOM     80  C   UNL A   1      47.042  30.335  27.973  1.00  0.00     0.023 A 
ATOM     81  C   UNL A   1      46.496  31.428  27.267  1.00  0.00     0.031 A 
ATOM     82  C   UNL A   1      48.403  30.435  28.340  1.00  0.00     0.131 A 
ATOM     83  C   UNL A   1      47.299  32.555  26.966  1.00  0.00     0.055 A 
ATOM     84  C   UNL A   1      49.190  31.548  28.039  1.00  0.00     0.041 A 
ATOM     85  F   UNL A   1      48.994  29.484  29.083  1.00  0.00    -0.206 F 
ATOM     86  C   UNL A   1      48.637  32.621  27.359  1.00  0.00     0.022 A 
BRANCH  83  87
ATOM     87  S   UNL A   1      46.579  34.010  26.136  1.00  0.00     0.124 S 
ATOM     88  O   UNL A   1      47.712  34.528  25.379  1.00  0.00    -0.237 OA
ATOM     89  O   UNL A   1      45.492  33.425  25.360  1.00  0.00    -0.237 OA
ATOM     90  O   UNL A   1      46.146  34.857  27.249  1.00  0.00    -0.744 OA
ENDBRANCH  83  87
ENDBRANCH  56  80
BRANCH  68  91
ATOM     91  C   UNL A   1      45.247  25.695  31.866  1.00  0.00     0.023 A 
ATOM     92  C   UNL A   1      46.127  25.446  32.947  1.00  0.00     0.031 A 
ATOM     93  C   UNL A   1      44.147  26.536  32.110  1.00  0.00     0.131 A 
ATOM     94  C   UNL A   1      45.874  26.014  34.213  1.00  0.00     0.055 A 
ATOM     95  C   UNL A   1      43.913  27.116  33.357  1.00  0.00     0.041 A 
ATOM     96  F   UNL A   1      43.285  26.835  31.123  1.00  0.00    -0.206 F 
ATOM     97  C   UNL A   1      44.772  26.849  34.416  1.00  0.00     0.022 A 
BRANCH  94  98
ATOM     98  S   UNL A   1      46.960  25.651  35.632  1.00  0.00     0.124 S 
ATOM     99  O   UNL A   1      47.897  26.768  35.647  1.00  0.00    -0.237 OA
ATOM    100  O   UNL A   1      46.018  25.598  36.746  1.00  0.00    -0.237 OA
ATOM    101  O   UNL A   1      47.556  24.360  35.281  1.00  0.00    -0.744 OA
ENDBRANCH  94  98
ENDBRANCH  68  91
ENDBRANCH  42  43
ENDBRANCH  34  37
ENDBRANCH  32  33
ENDBRANCH  31  32
ENDBRANCH   1  31
TORSDOF 18
ENDMDL
MODEL 2
REMARK VINA RESULT:     -10.9      4.680     11.489
REMARK SMILES NS(=O)(=O)c1ccc(-c2coc(=O)n2-c2ccc(C(=O)NCCCCNC(=O)c3ccc(-c4c5nc(c(-c6cc(S(=O)(=O)[O-])ccc6F)c6ccc([nH]6)c(-c6cc(S(=O)(=O)[O-])ccc6F)c6nc(c(-c7cc(S(=O)(=O)[O-])ccc7F)c7ccc4[nH]7)C=C6)C=C5)cc3)cc2)cc1
REMARK SMILES IDX 23 1 22 2 21 3 19 4 20 5 18 7 15 8 16 9 93 10 17 11 92 12
REMARK SMILES IDX 14 13 9 14 10 15 11 16 12 17 13 18 8 19 5 20 6 21 95 22 7 23
REMARK SMILES IDX 94 24 2 25 3 26 4 27 1 28 24 31 25 32 26 33 27 34 28 36
REMARK SMILES IDX 29 37 30 38 91 39 31 40 90 41 32 42 33 43 34 44 84 45 35 46
REMARK SMILES IDX 89 47 83 48 85 49 36 50 88 51 82 52 81 53 37 55 69 56 49 57
REMARK SMILES IDX 68 58 50 59 53 60 67 61 86 62 51 63 52 64 66 66 87 67 54 68
REMARK SMILES IDX 38 69 39 70 47 71 40 72 46 73 48 74 45 75 41 76 42 77 43 78
REMARK SMILES IDX 44 79 70 80 71 81 79 82 72 83 78 84 80 85 77 86 73 87 74 88
REMARK SMILES IDX 75 89 76 90 55 91 56 92 64 93 57 94 63 95 65 96 62 97 58 98
REMARK SMILES IDX 59 99 60 100 61 101
REMARK H PARENT 21 6 1 29 1 30 26 35 85 54 53 65
REMARK Flexibility Score: inf
ROOT
ATOM      1  C   UNL A   1      47.352  25.356  39.152  1.00  0.00     0.023 C 
ENDROOT
BRANCH   1   2
ATOM      2  C   UNL A   1      48.398  26.434  38.843  1.00  0.00     0.116 C 
BRANCH   2   3
ATOM      3  N   UNL A   1      47.977  27.285  37.745  1.00  0.00    -0.352 N 
ATOM      4  C   UNL A   1      48.148  27.229  36.385  1.00  0.00     0.251 C 
ATOM      5  O   UNL A   1      47.634  28.129  35.719  1.00  0.00    -0.269 OA
ATOM      6  H   UNL A   1      47.459  28.069  38.039  1.00  0.00     0.163 HD
BRANCH   4   7
ATOM      7  C   UNL A   1      48.877  26.137  35.672  1.00  0.00     0.039 A 
ATOM      8  C   UNL A   1      50.037  23.991  34.262  1.00  0.00     0.053 A 
ATOM      9  C   UNL A   1      48.910  24.626  33.743  1.00  0.00     0.028 A 
ATOM     10  C   UNL A   1      50.621  24.470  35.437  1.00  0.00     0.028 A 
ATOM     11  C   UNL A   1      48.318  25.671  34.465  1.00  0.00     0.016 A 
ATOM     12  C   UNL A   1      50.072  25.565  36.105  1.00  0.00     0.016 A 
BRANCH   8  13
ATOM     13  N   UNL A   1      50.582  22.855  33.645  1.00  0.00    -0.242 N 
ATOM     14  C   UNL A   1      50.451  21.552  34.032  1.00  0.00     0.095 A 
ATOM     15  C   UNL A   1      51.302  20.863  33.281  1.00  0.00     0.228 A 
ATOM     16  O   UNL A   1      52.022  21.635  32.370  1.00  0.00    -0.415 OA
ATOM     17  C   UNL A   1      51.521  22.915  32.621  1.00  0.00     0.424 A 
ATOM     18  O   UNL A   1      51.925  23.905  32.026  1.00  0.00    -0.223 OA
BRANCH  14  19
ATOM     19  C   UNL A   1      49.452  21.031  34.966  1.00  0.00     0.002 A 
ATOM     20  C   UNL A   1      47.554  20.108  36.815  1.00  0.00     0.082 A 
ATOM     21  C   UNL A   1      48.879  20.276  37.216  1.00  0.00     0.022 A 
ATOM     22  C   UNL A   1      47.170  20.388  35.500  1.00  0.00     0.022 A 
ATOM     23  C   UNL A   1      49.821  20.735  36.292  1.00  0.00     0.012 A 
ATOM     24  C   UNL A   1      48.117  20.855  34.581  1.00  0.00     0.012 A 
BRANCH  20  25
ATOM     25  S   UNL A   1      46.337  19.576  37.989  1.00  0.00     0.238 S 
ATOM     26  O   UNL A   1      45.368  18.770  37.300  1.00  0.00    -0.207 OA
ATOM     27  O   UNL A   1      45.975  20.732  38.787  1.00  0.00    -0.207 OA
BRANCH  25  28
ATOM     28  N   UNL A   1      47.192  18.534  38.988  1.00  0.00    -0.225 NA
ATOM     29  H   UNL A   1      48.166  18.833  39.038  1.00  0.00     0.137 HD
ATOM     30  H   UNL A   1      47.145  17.587  38.611  1.00  0.00     0.137 HD
ENDBRANCH  25  28
ENDBRANCH  20  25
ENDBRANCH  14  19
ENDBRANCH   8  13
ENDBRANCH   4   7
ENDBRANCH   2   3
ENDBRANCH   1   2
BRANCH   1  31
ATOM     31  C   UNL A   1      47.593  24.005  38.466  1.00  0.00     0.023 C 
BRANCH  31  32
ATOM     32  C   UNL A   1      46.804  23.785  37.177  1.00  0.00     0.116 C 
BRANCH  32  33
ATOM     33  N   UNL A   1      45.363  23.944  37.364  1.00  0.00    -0.352 N 
ATOM     34  C   UNL A   1      44.461  24.587  36.538  1.00  0.00     0.251 C 
ATOM     35  H   UNL A   1      44.989  23.541  38.181  1.00  0.00     0.163 HD
ATOM     36  O   UNL A   1      43.398  25.000  36.986  1.00  0.00    -0.269 OA
BRANCH  34  37
ATOM     37  C   UNL A   1      44.801  24.764  35.115  1.00  0.00     0.039 A 
ATOM     38  C   UNL A   1      45.069  23.667  34.296  1.00  0.00     0.014 A 
ATOM     39  C   UNL A   1      44.807  26.057  34.595  1.00  0.00     0.014 A 
ATOM     40  C   UNL A   1      45.236  23.875  32.927  1.00  0.00     0.010 A 
ATOM     41  C   UNL A   1      44.860  26.249  33.231  1.00  0.00     0.010 A 
ATOM     42  C   UNL A   1      45.095  25.166  32.387  1.00  0.00    -0.014 A 
BRANCH  42  43
ATOM     43  C   UNL A   1      45.032  25.353  30.934  1.00  0.00     0.031 A 
ATOM     44  C   UNL A   1      46.156  26.144  30.358  1.00  0.00     0.074 A 
ATOM     45  C   UNL A   1      44.174  24.712  30.111  1.00  0.00     0.049 A 
ATOM     46  N   UNL A   1      46.098  27.316  29.820  1.00  0.00    -0.248 NA
ATOM     47  C   UNL A   1      47.528  25.632  30.511  1.00  0.00     0.031 C 
ATOM     48  C   UNL A   1      43.185  23.686  30.458  1.00  0.00     0.029 A 
ATOM     49  N   UNL A   1      44.080  24.768  28.750  1.00  0.00    -0.354 N 
ATOM     50  C   UNL A   1      47.377  27.588  29.345  1.00  0.00     0.074 A 
ATOM     51  C   UNL A   1      48.242  26.621  29.968  1.00  0.00     0.031 C 
ATOM     52  C   UNL A   1      42.766  23.059  29.336  1.00  0.00     0.029 A 
ATOM     53  C   UNL A   1      43.318  23.748  28.183  1.00  0.00     0.049 A 
ATOM     54  H   UNL A   1      44.514  25.470  28.213  1.00  0.00     0.167 HD
ATOM     55  C   UNL A   1      47.574  28.432  28.293  1.00  0.00     0.034 A 
ATOM     56  C   UNL A   1      43.147  23.471  26.864  1.00  0.00     0.034 A 
ATOM     57  C   UNL A   1      46.406  29.253  28.056  1.00  0.00     0.049 A 
ATOM     58  C   UNL A   1      43.416  24.726  26.123  1.00  0.00     0.074 A 
ATOM     59  C   UNL A   1      45.661  30.118  28.835  1.00  0.00     0.029 A 
ATOM     60  N   UNL A   1      45.597  28.945  26.985  1.00  0.00    -0.354 N 
ATOM     61  N   UNL A   1      42.674  25.792  26.235  1.00  0.00    -0.248 NA
ATOM     62  C   UNL A   1      44.761  24.961  25.625  1.00  0.00     0.031 C 
ATOM     63  C   UNL A   1      44.304  29.846  28.484  1.00  0.00     0.029 A 
ATOM     64  C   UNL A   1      44.305  28.907  27.451  1.00  0.00     0.049 A 
ATOM     65  H   UNL A   1      45.890  28.783  26.059  1.00  0.00     0.167 HD
ATOM     66  C   UNL A   1      43.570  26.847  26.272  1.00  0.00     0.074 A 
ATOM     67  C   UNL A   1      44.825  26.287  25.775  1.00  0.00     0.031 C 
ATOM     68  C   UNL A   1      43.288  27.993  26.963  1.00  0.00     0.034 A 
BRANCH  55  69
ATOM     69  C   UNL A   1      48.669  28.275  27.259  1.00  0.00     0.023 A 
ATOM     70  C   UNL A   1      48.285  28.159  25.908  1.00  0.00     0.031 A 
ATOM     71  C   UNL A   1      50.017  27.952  27.541  1.00  0.00     0.131 A 
ATOM     72  C   UNL A   1      49.178  27.662  24.942  1.00  0.00     0.055 A 
ATOM     73  C   UNL A   1      50.921  27.529  26.563  1.00  0.00     0.041 A 
ATOM     74  F   UNL A   1      50.510  27.928  28.785  1.00  0.00    -0.206 F 
ATOM     75  C   UNL A   1      50.497  27.352  25.259  1.00  0.00     0.022 A 
BRANCH  72  76
ATOM     76  S   UNL A   1      48.531  27.251  23.300  1.00  0.00     0.124 S 
ATOM     77  O   UNL A   1      47.268  27.979  23.292  1.00  0.00    -0.237 OA
ATOM     78  O   UNL A   1      49.580  27.767  22.426  1.00  0.00    -0.237 OA
ATOM     79  O   UNL A   1      48.412  25.795  23.337  1.00  0.00    -0.744 OA
ENDBRANCH  72  76
ENDBRANCH  55  69
BRANCH  56  80
ATOM     80  C   UNL A   1      43.044  22.134  26.219  1.00  0.00     0.023 A 
ATOM     81  C   UNL A   1      44.160  21.445  25.697  1.00  0.00     0.031 A 
ATOM     82  C   UNL A   1      41.844  21.398  26.340  1.00  0.00     0.131 A 
ATOM     83  C   UNL A   1      44.047  20.082  25.331  1.00  0.00     0.055 A 
ATOM     84  C   UNL A   1      41.739  20.054  25.976  1.00  0.00     0.041 A 
ATOM     85  F   UNL A   1      40.749  21.940  26.899  1.00  0.00    -0.206 F 
ATOM     86  C   UNL A   1      42.846  19.385  25.480  1.00  0.00     0.022 A 
BRANCH  83  87
ATOM     87  S   UNL A   1      45.505  19.157  24.744  1.00  0.00     0.124 S 
ATOM     88  O   UNL A   1      45.458  17.952  25.563  1.00  0.00    -0.237 OA
ATOM     89  O   UNL A   1      45.220  18.989  23.324  1.00  0.00    -0.237 OA
ATOM     90  O   UNL A   1      46.621  20.057  25.040  1.00  0.00    -0.744 OA
ENDBRANCH  83  87
ENDBRANCH  56  80
BRANCH  68  91
ATOM     91  C   UNL A   1      41.861  28.220  27.434  1.00  0.00     0.023 A 
ATOM     92  C   UNL A   1      41.400  28.024  28.758  1.00  0.00     0.031 A 
ATOM     93  C   UNL A   1      40.949  28.755  26.506  1.00  0.00     0.131 A 
ATOM     94  C   UNL A   1      40.069  28.338  29.100  1.00  0.00     0.055 A 
ATOM     95  C   UNL A   1      39.640  29.088  26.854  1.00  0.00     0.041 A 
ATOM     96  F   UNL A   1      41.326  28.991  25.238  1.00  0.00    -0.206 F 
ATOM     97  C   UNL A   1      39.192  28.872  28.151  1.00  0.00     0.022 A 
BRANCH  94  98
ATOM     98  S   UNL A   1      39.440  28.029  30.784  1.00  0.00     0.124 S 
ATOM     99  O   UNL A   1      38.802  26.722  30.681  1.00  0.00    -0.237 OA
ATOM    100  O   UNL A   1      40.657  28.080  31.590  1.00  0.00    -0.237 OA
ATOM    101  O   UNL A   1      38.516  29.142  31.010  1.00  0.00    -0.744 OA
ENDBRANCH  94  98
ENDBRANCH  68  91
ENDBRANCH  42  43
ENDBRANCH  34  37
ENDBRANCH  32  33
ENDBRANCH  31  32
ENDBRANCH   1  31
TORSDOF 18
ENDMDL
MODEL 3
REMARK VINA RESULT:     -10.8      1.856      2.257
REMARK SMILES NS(=O)(=O)c1ccc(-c2coc(=O)n2-c2ccc(C(=O)NCCCCNC(=O)c3ccc(-c4c5nc(c(-c6cc(S(=O)(=O)[O-])ccc6F)c6ccc([nH]6)c(-c6cc(S(=O)(=O)[O-])ccc6F)c6nc(c(-c7cc(S(=O)(=O)[O-])ccc7F)c7ccc4[nH]7)C=C6)C=C5)cc3)cc2)cc1
REMARK SMILES IDX 23 1 22 2 21 3 19 4 20 5 18 7 15 8 16 9 93 10 17 11 92 12
REMARK SMILES IDX 14 13 9 14 10 15 11 16 12 17 13 18 8 19 5 20 6 21 95 22 7 23
REMARK SMILES IDX 94 24 2 25 3 26 4 27 1 28 24 31 25 32 26 33 27 34 28 36
REMARK SMILES IDX 29 37 30 38 91 39 31 40 90 41 32 42 33 43 34 44 84 45 35 46
REMARK SMILES IDX 89 47 83 48 85 49 36 50 88 51 82 52 81 53 37 55 69 56 49 57
REMARK SMILES IDX 68 58 50 59 53 60 67 61 86 62 51 63 52 64 66 66 87 67 54 68
REMARK SMILES IDX 38 69 39 70 47 71 40 72 46 73 48 74 45 75 41 76 42 77 43 78
REMARK SMILES IDX 44 79 70 80 71 81 79 82 72 83 78 84 80 85 77 86 73 87 74 88
REMARK SMILES IDX 75 89 76 90 55 91 56 92 64 93 57 94 63 95 65 96 62 97 58 98
REMARK SMILES IDX 59 99 60 100 61 101
REMARK H PARENT 21 6 1 29 1 30 26 35 85 54 53 65
REMARK Flexibility Score: inf
ROOT
ATOM      1  C   UNL A   1      38.629  33.988  28.845  1.00  0.00     0.023 C 
ENDROOT
BRANCH   1   2
ATOM      2  C   UNL A   1      39.573  34.938  29.591  1.00  0.00     0.116 C 
BRANCH   2   3
ATOM      3  N   UNL A   1      40.953  34.495  29.500  1.00  0.00    -0.352 N 
ATOM      4  C   UNL A   1      41.831  33.945  30.400  1.00  0.00     0.251 C 
ATOM      5  O   UNL A   1      42.956  33.663  29.982  1.00  0.00    -0.269 OA
ATOM      6  H   UNL A   1      41.341  34.616  28.604  1.00  0.00     0.163 HD
BRANCH   4   7
ATOM      7  C   UNL A   1      41.498  33.637  31.822  1.00  0.00     0.039 A 
ATOM      8  C   UNL A   1      40.730  32.876  34.425  1.00  0.00     0.053 A 
ATOM      9  C   UNL A   1      40.970  31.896  33.464  1.00  0.00     0.028 A 
ATOM     10  C   UNL A   1      40.941  34.220  34.108  1.00  0.00     0.028 A 
ATOM     11  C   UNL A   1      41.320  32.280  32.163  1.00  0.00     0.016 A 
ATOM     12  C   UNL A   1      41.370  34.588  32.833  1.00  0.00     0.016 A 
BRANCH   8  13
ATOM     13  N   UNL A   1      40.246  32.545  35.700  1.00  0.00    -0.242 N 
ATOM     14  C   UNL A   1      38.963  32.641  36.156  1.00  0.00     0.095 A 
ATOM     15  C   UNL A   1      39.025  32.421  37.464  1.00  0.00     0.228 A 
ATOM     16  O   UNL A   1      40.309  32.163  37.944  1.00  0.00    -0.415 OA
ATOM     17  C   UNL A   1      41.071  32.235  36.776  1.00  0.00     0.424 A 
ATOM     18  O   UNL A   1      42.285  32.084  36.775  1.00  0.00    -0.223 OA
BRANCH  14  19
ATOM     19  C   UNL A   1      37.767  32.792  35.326  1.00  0.00     0.002 A 
ATOM     20  C   UNL A   1      35.501  33.170  33.715  1.00  0.00     0.082 A 
ATOM     21  C   UNL A   1      35.714  34.009  34.808  1.00  0.00     0.022 A 
ATOM     22  C   UNL A   1      36.402  32.141  33.423  1.00  0.00     0.022 A 
ATOM     23  C   UNL A   1      36.844  33.816  35.608  1.00  0.00     0.012 A 
ATOM     24  C   UNL A   1      37.535  31.958  34.225  1.00  0.00     0.012 A 
BRANCH  20  25
ATOM     25  S   UNL A   1      34.102  33.434  32.659  1.00  0.00     0.238 S 
ATOM     26  O   UNL A   1      34.241  34.721  32.037  1.00  0.00    -0.207 OA
ATOM     27  O   UNL A   1      32.921  33.044  33.407  1.00  0.00    -0.207 OA
BRANCH  25  28
ATOM     28  N   UNL A   1      34.313  32.297  31.444  1.00  0.00    -0.225 NA
ATOM     29  H   UNL A   1      33.408  32.062  31.036  1.00  0.00     0.137 HD
ATOM     30  H   UNL A   1      34.738  31.456  31.836  1.00  0.00     0.137 HD
ENDBRANCH  25  28
ENDBRANCH  20  25
ENDBRANCH  14  19
ENDBRANCH   8  13
ENDBRANCH   4   7
ENDBRANCH   2   3
ENDBRANCH   1   2
BRANCH   1  31
ATOM     31  C   UNL A   1      37.470  33.434  29.687  1.00  0.00     0.023 C 
BRANCH  31  32
ATOM     32  C   UNL A   1      37.622  31.975  30.113  1.00  0.00     0.116 C 
BRANCH  32  33
ATOM     33  N   UNL A   1      36.494  31.145  29.697  1.00  0.00    -0.352 N 
ATOM     34  C   UNL A   1      36.498  30.075  28.824  1.00  0.00     0.251 C 
ATOM     35  H   UNL A   1      35.621  31.379  30.088  1.00  0.00     0.163 HD
ATOM     36  O   UNL A   1      35.467  29.737  28.254  1.00  0.00    -0.269 OA
BRANCH  34  37
ATOM     37  C   UNL A   1      37.761  29.349  28.594  1.00  0.00     0.039 A 
ATOM     38  C   UNL A   1      38.551  29.615  27.475  1.00  0.00     0.014 A 
ATOM     39  C   UNL A   1      38.170  28.419  29.547  1.00  0.00     0.014 A 
ATOM     40  C   UNL A   1      39.806  29.014  27.380  1.00  0.00     0.010 A 
ATOM     41  C   UNL A   1      39.452  27.914  29.509  1.00  0.00     0.010 A 
ATOM     42  C   UNL A   1      40.273  28.189  28.418  1.00  0.00    -0.014 A 
BRANCH  42  43
ATOM     43  C   UNL A   1      41.673  27.751  28.437  1.00  0.00     0.031 A 
ATOM     44  C   UNL A   1      41.947  26.507  27.664  1.00  0.00     0.074 A 
ATOM     45  C   UNL A   1      42.703  28.483  28.916  1.00  0.00     0.049 A 
ATOM     46  N   UNL A   1      42.298  25.354  28.128  1.00  0.00    -0.248 NA
ATOM     47  C   UNL A   1      41.676  26.503  26.217  1.00  0.00     0.031 C 
ATOM     48  C   UNL A   1      42.668  29.845  29.457  1.00  0.00     0.029 A 
ATOM     49  N   UNL A   1      44.037  28.194  28.920  1.00  0.00    -0.354 N 
ATOM     50  C   UNL A   1      42.532  24.546  27.021  1.00  0.00     0.074 A 
ATOM     51  C   UNL A   1      41.948  25.235  25.901  1.00  0.00     0.031 C 
ATOM     52  C   UNL A   1      43.923  30.344  29.515  1.00  0.00     0.029 A 
ATOM     53  C   UNL A   1      44.861  29.286  29.184  1.00  0.00     0.049 A 
ATOM     54  H   UNL A   1      44.388  27.290  28.750  1.00  0.00     0.167 HD
ATOM     55  C   UNL A   1      43.400  23.497  27.085  1.00  0.00     0.034 A 
ATOM     56  C   UNL A   1      46.218  29.337  29.133  1.00  0.00     0.034 A 
ATOM     57  C   UNL A   1      43.674  23.128  28.457  1.00  0.00     0.049 A 
ATOM     58  C   UNL A   1      46.707  27.950  29.313  1.00  0.00     0.074 A 
ATOM     59  C   UNL A   1      42.888  22.769  29.536  1.00  0.00     0.029 A 
ATOM     60  N   UNL A   1      44.888  23.489  29.000  1.00  0.00    -0.354 N 
ATOM     61  N   UNL A   1      46.540  27.273  30.415  1.00  0.00    -0.248 NA
ATOM     62  C   UNL A   1      46.960  27.146  28.128  1.00  0.00     0.031 C 
ATOM     63  C   UNL A   1      43.473  23.441  30.651  1.00  0.00     0.029 A 
ATOM     64  C   UNL A   1      44.628  24.089  30.209  1.00  0.00     0.049 A 
ATOM     65  H   UNL A   1      45.775  23.345  28.597  1.00  0.00     0.167 HD
ATOM     66  C   UNL A   1      46.208  25.995  30.001  1.00  0.00     0.074 A 
ATOM     67  C   UNL A   1      46.597  25.947  28.592  1.00  0.00     0.031 C 
ATOM     68  C   UNL A   1      45.397  25.193  30.754  1.00  0.00     0.034 A 
BRANCH  55  69
ATOM     69  C   UNL A   1      44.273  23.033  25.938  1.00  0.00     0.023 A 
ATOM     70  C   UNL A   1      44.345  21.648  25.686  1.00  0.00     0.031 A 
ATOM     71  C   UNL A   1      45.241  23.826  25.277  1.00  0.00     0.131 A 
ATOM     72  C   UNL A   1      45.379  21.108  24.899  1.00  0.00     0.055 A 
ATOM     73  C   UNL A   1      46.222  23.291  24.437  1.00  0.00     0.041 A 
ATOM     74  F   UNL A   1      45.360  25.143  25.483  1.00  0.00    -0.206 F 
ATOM     75  C   UNL A   1      46.316  21.922  24.267  1.00  0.00     0.022 A 
BRANCH  72  76
ATOM     76  S   UNL A   1      45.590  19.309  24.868  1.00  0.00     0.124 S 
ATOM     77  O   UNL A   1      46.827  19.147  25.623  1.00  0.00    -0.237 OA
ATOM     78  O   UNL A   1      44.369  18.852  25.524  1.00  0.00    -0.237 OA
ATOM     79  O   UNL A   1      45.684  19.003  23.443  1.00  0.00    -0.744 OA
ENDBRANCH  72  76
ENDBRANCH  55  69
BRANCH  56  80
ATOM     80  C   UNL A   1      47.071  30.462  28.663  1.00  0.00     0.023 A 
ATOM     81  C   UNL A   1      48.258  30.852  29.319  1.00  0.00     0.031 A 
ATOM     82  C   UNL A   1      46.844  31.015  27.383  1.00  0.00     0.131 A 
ATOM     83  C   UNL A   1      49.157  31.748  28.693  1.00  0.00     0.055 A 
ATOM     84  C   UNL A   1      47.734  31.900  26.770  1.00  0.00     0.041 A 
ATOM     85  F   UNL A   1      45.785  30.646  26.644  1.00  0.00    -0.206 F 
ATOM     86  C   UNL A   1      48.903  32.262  27.420  1.00  0.00     0.022 A 
BRANCH  83  87
ATOM     87  S   UNL A   1      50.737  32.186  29.492  1.00  0.00     0.124 S 
ATOM     88  O   UNL A   1      50.462  31.904  30.896  1.00  0.00    -0.237 OA
ATOM     89  O   UNL A   1      51.683  31.299  28.825  1.00  0.00    -0.237 OA
ATOM     90  O   UNL A   1      50.899  33.604  29.171  1.00  0.00    -0.744 OA
ENDBRANCH  83  87
ENDBRANCH  56  80
BRANCH  68  91
ATOM     91  C   UNL A   1      45.110  25.601  32.191  1.00  0.00     0.023 A 
ATOM     92  C   UNL A   1      43.949  26.283  32.627  1.00  0.00     0.031 A 
ATOM     93  C   UNL A   1      46.024  25.188  33.176  1.00  0.00     0.131 A 
ATOM     94  C   UNL A   1      43.753  26.545  33.998  1.00  0.00     0.055 A 
ATOM     95  C   UNL A   1      45.815  25.427  34.535  1.00  0.00     0.041 A 
ATOM     96  F   UNL A   1      47.135  24.513  32.836  1.00  0.00    -0.206 F 
ATOM     97  C   UNL A   1      44.682  26.115  34.950  1.00  0.00     0.022 A 
BRANCH  94  98
ATOM     98  S   UNL A   1      42.296  27.481  34.570  1.00  0.00     0.124 S 
ATOM     99  O   UNL A   1      41.375  26.447  35.023  1.00  0.00    -0.237 OA
ATOM    100  O   UNL A   1      42.857  28.333  35.615  1.00  0.00    -0.237 OA
ATOM    101  O   UNL A   1      41.863  28.200  33.371  1.00  0.00    -0.744 OA
ENDBRANCH  94  98
ENDBRANCH  68  91
ENDBRANCH  42  43
ENDBRANCH  34  37
ENDBRANCH  32  33
ENDBRANCH  31  32
ENDBRANCH   1  31
TORSDOF 18
ENDMDL
