MODEL 1
REMARK VINA RESULT:     -11.9      0.000      0.000
REMARK SMILES C[C@@H]1[C@H](C)CC[C@@H]1NC(=O)N1CCO[C@H](CC(=O)NCCCCNC(=O)c2ccc(-c3c4nc(c(-c5cc(S(=O)(=O)[O-])ccc5F)c5ccc([nH]5)c(-c5cc(S(=O)(=O)[O-])ccc5F)c5nc(c(-c6cc(S(=O)(=O)[O-])ccc6F)c6ccc3[nH]6)C=C5)C=C4)cc2)C1
REMARK SMILES IDX 21 1 20 2 19 3 17 4 18 5 16 7 15 8 11 9 12 10 90 11 13 12
REMARK SMILES IDX 14 13 9 14 8 15 10 17 7 18 1 19 2 20 3 21 4 22 5 23 6 24
REMARK SMILES IDX 22 25 23 26 24 27 25 28 26 30 27 31 28 32 89 33 29 34 88 35
REMARK SMILES IDX 30 36 31 37 32 38 82 39 33 40 87 41 81 42 83 43 34 44 86 45
REMARK SMILES IDX 80 46 79 47 35 49 67 50 47 51 66 52 48 53 51 54 65 55 84 56
REMARK SMILES IDX 49 57 50 58 64 60 85 61 52 62 36 63 37 64 45 65 38 66 44 67
REMARK SMILES IDX 46 68 43 69 39 70 40 71 41 72 42 73 68 74 69 75 77 76 70 77
REMARK SMILES IDX 76 78 78 79 75 80 71 81 72 82 73 83 74 84 53 85 54 86 62 87
REMARK SMILES IDX 55 88 61 89 63 90 60 91 56 92 57 93 58 94 59 95
REMARK H PARENT 19 6 8 16 24 29 83 48 51 59
REMARK Flexibility Score: inf
ROOT
ATOM      1  C   UNL A   1      32.484  28.238  24.914  1.00  0.00     0.023 C 
ENDROOT
BRANCH   1   2
ATOM      2  C   UNL A   1      32.116  26.818  24.485  1.00  0.00     0.116 C 
BRANCH   2   3
ATOM      3  N   UNL A   1      32.478  26.597  23.108  1.00  0.00    -0.356 N 
ATOM      4  C   UNL A   1      33.417  25.735  22.634  1.00  0.00     0.222 C 
ATOM      5  O   UNL A   1      33.642  25.737  21.426  1.00  0.00    -0.275 OA
ATOM      6  H   UNL A   1      31.993  27.130  22.437  1.00  0.00     0.163 HD
BRANCH   4   7
ATOM      7  C   UNL A   1      34.119  24.798  23.599  1.00  0.00     0.133 C 
BRANCH   7   8
ATOM      8  C   UNL A   1      34.325  23.381  23.071  1.00  0.00     0.147 C 
ATOM      9  N   UNL A   1      34.636  21.764  25.011  1.00  0.00    -0.320 N 
ATOM     10  C   UNL A   1      36.022  21.612  24.580  1.00  0.00     0.150 C 
ATOM     11  C   UNL A   1      33.782  22.206  23.901  1.00  0.00     0.154 C 
ATOM     12  C   UNL A   1      36.531  22.867  23.865  1.00  0.00     0.182 C 
ATOM     13  O   UNL A   1      35.718  23.185  22.726  1.00  0.00    -0.374 OA
BRANCH   9  14
ATOM     14  C   UNL A   1      34.060  20.773  25.759  1.00  0.00     0.317 C 
ATOM     15  N   UNL A   1      34.064  19.480  25.402  1.00  0.00    -0.335 N 
ATOM     16  H   UNL A   1      33.578  18.969  26.087  1.00  0.00     0.165 HD
ATOM     17  O   UNL A   1      33.533  21.019  26.850  1.00  0.00    -0.249 OA
BRANCH  15  18
ATOM     18  C   UNL A   1      34.522  18.548  24.372  1.00  0.00     0.087 C 
ATOM     19  C   UNL A   1      32.159  18.267  23.288  1.00  0.00     0.010 C 
ATOM     20  C   UNL A   1      33.515  17.661  23.619  1.00  0.00     0.011 C 
ATOM     21  C   UNL A   1      33.519  16.328  24.373  1.00  0.00    -0.009 C 
ATOM     22  C   UNL A   1      32.389  16.177  25.366  1.00  0.00     0.008 C 
ATOM     23  C   UNL A   1      34.904  16.246  25.040  1.00  0.00     0.006 C 
ATOM     24  C   UNL A   1      35.609  17.574  24.786  1.00  0.00     0.025 C 
ENDBRANCH  15  18
ENDBRANCH   9  14
ENDBRANCH   7   8
ENDBRANCH   4   7
ENDBRANCH   2   3
ENDBRANCH   1   2
BRANCH   1  25
ATOM     25  C   UNL A   1      33.985  28.458  25.088  1.00  0.00     0.023 C 
BRANCH  25  26
ATOM     26  C   UNL A   1      34.378  28.941  26.474  1.00  0.00     0.116 C 
BRANCH  26  27
ATOM     27  N   UNL A   1      33.864  30.273  26.785  1.00  0.00    -0.352 N 
ATOM     28  C   UNL A   1      34.396  31.192  27.652  1.00  0.00     0.251 C 
ATOM     29  H   UNL A   1      33.040  30.542  26.318  1.00  0.00     0.163 HD
ATOM     30  O   UNL A   1      33.844  32.265  27.861  1.00  0.00    -0.269 OA
BRANCH  28  31
ATOM     31  C   UNL A   1      35.623  30.801  28.352  1.00  0.00     0.039 A 
ATOM     32  C   UNL A   1      35.527  29.897  29.409  1.00  0.00     0.014 A 
ATOM     33  C   UNL A   1      36.857  31.184  27.820  1.00  0.00     0.014 A 
ATOM     34  C   UNL A   1      36.690  29.326  29.912  1.00  0.00     0.010 A 
ATOM     35  C   UNL A   1      38.002  30.549  28.266  1.00  0.00     0.010 A 
ATOM     36  C   UNL A   1      37.929  29.623  29.321  1.00  0.00    -0.014 A 
BRANCH  36  37
ATOM     37  C   UNL A   1      39.184  29.028  29.828  1.00  0.00     0.031 A 
ATOM     38  C   UNL A   1      39.841  29.654  31.023  1.00  0.00     0.074 A 
ATOM     39  C   UNL A   1      39.755  27.997  29.180  1.00  0.00     0.049 A 
ATOM     40  N   UNL A   1      41.006  29.403  31.557  1.00  0.00    -0.248 NA
ATOM     41  C   UNL A   1      39.101  30.747  31.676  1.00  0.00     0.031 C 
ATOM     42  C   UNL A   1      39.212  27.337  27.989  1.00  0.00     0.029 A 
ATOM     43  N   UNL A   1      40.925  27.328  29.423  1.00  0.00    -0.354 N 
ATOM     44  C   UNL A   1      41.150  30.325  32.587  1.00  0.00     0.074 A 
ATOM     45  C   UNL A   1      39.989  31.187  32.551  1.00  0.00     0.031 C 
ATOM     46  C   UNL A   1      40.038  26.344  27.622  1.00  0.00     0.029 A 
ATOM     47  C   UNL A   1      41.189  26.326  28.520  1.00  0.00     0.049 A 
ATOM     48  H   UNL A   1      41.522  27.544  30.175  1.00  0.00     0.167 HD
ATOM     49  C   UNL A   1      42.148  30.422  33.499  1.00  0.00     0.034 A 
ATOM     50  C   UNL A   1      42.250  25.500  28.423  1.00  0.00     0.034 A 
ATOM     51  C   UNL A   1      43.279  29.530  33.525  1.00  0.00     0.049 A 
ATOM     52  C   UNL A   1      43.356  25.630  29.441  1.00  0.00     0.074 A 
ATOM     53  C   UNL A   1      44.331  29.496  34.422  1.00  0.00     0.029 A 
ATOM     54  N   UNL A   1      43.503  28.511  32.607  1.00  0.00    -0.354 N 
ATOM     55  N   UNL A   1      43.468  26.485  30.433  1.00  0.00    -0.248 NA
ATOM     56  C   UNL A   1      44.470  24.681  29.335  1.00  0.00     0.031 C 
ATOM     57  C   UNL A   1      45.218  28.495  34.013  1.00  0.00     0.029 A 
ATOM     58  C   UNL A   1      44.685  27.855  32.904  1.00  0.00     0.049 A 
ATOM     59  H   UNL A   1      42.908  28.288  31.855  1.00  0.00     0.167 HD
ATOM     60  C   UNL A   1      44.648  26.150  31.091  1.00  0.00     0.074 A 
ATOM     61  C   UNL A   1      45.207  25.015  30.384  1.00  0.00     0.031 C 
ATOM     62  C   UNL A   1      45.216  26.720  32.184  1.00  0.00     0.034 A 
BRANCH  49  63
ATOM     63  C   UNL A   1      42.052  31.540  34.507  1.00  0.00     0.023 A 
ATOM     64  C   UNL A   1      41.133  31.498  35.571  1.00  0.00     0.031 A 
ATOM     65  C   UNL A   1      42.840  32.696  34.367  1.00  0.00     0.131 A 
ATOM     66  C   UNL A   1      40.951  32.625  36.387  1.00  0.00     0.055 A 
ATOM     67  C   UNL A   1      42.722  33.778  35.244  1.00  0.00     0.041 A 
ATOM     68  F   UNL A   1      43.718  32.807  33.359  1.00  0.00    -0.206 F 
ATOM     69  C   UNL A   1      41.759  33.754  36.249  1.00  0.00     0.022 A 
BRANCH  66  70
ATOM     70  S   UNL A   1      39.529  32.653  37.512  1.00  0.00     0.124 S 
ATOM     71  O   UNL A   1      40.185  32.582  38.816  1.00  0.00    -0.237 OA
ATOM     72  O   UNL A   1      38.892  33.923  37.186  1.00  0.00    -0.237 OA
ATOM     73  O   UNL A   1      38.773  31.460  37.138  1.00  0.00    -0.744 OA
ENDBRANCH  66  70
ENDBRANCH  49  63
BRANCH  50  74
ATOM     74  C   UNL A   1      42.321  24.481  27.339  1.00  0.00     0.023 A 
ATOM     75  C   UNL A   1      41.569  23.297  27.411  1.00  0.00     0.031 A 
ATOM     76  C   UNL A   1      43.163  24.659  26.227  1.00  0.00     0.131 A 
ATOM     77  C   UNL A   1      41.709  22.317  26.416  1.00  0.00     0.055 A 
ATOM     78  C   UNL A   1      43.261  23.704  25.214  1.00  0.00     0.041 A 
ATOM     79  F   UNL A   1      43.896  25.778  26.103  1.00  0.00    -0.206 F 
ATOM     80  C   UNL A   1      42.540  22.517  25.312  1.00  0.00     0.022 A 
BRANCH  77  81
ATOM     81  S   UNL A   1      40.840  20.738  26.624  1.00  0.00     0.124 S 
ATOM     82  O   UNL A   1      41.718  19.820  25.908  1.00  0.00    -0.237 OA
ATOM     83  O   UNL A   1      40.811  20.599  28.077  1.00  0.00    -0.237 OA
ATOM     84  O   UNL A   1      39.542  20.979  25.997  1.00  0.00    -0.744 OA
ENDBRANCH  77  81
ENDBRANCH  50  74
BRANCH  62  85
ATOM     85  C   UNL A   1      46.469  26.079  32.720  1.00  0.00     0.023 A 
ATOM     86  C   UNL A   1      46.426  25.022  33.645  1.00  0.00     0.031 A 
ATOM     87  C   UNL A   1      47.727  26.523  32.276  1.00  0.00     0.131 A 
ATOM     88  C   UNL A   1      47.622  24.474  34.130  1.00  0.00     0.055 A 
ATOM     89  C   UNL A   1      48.911  25.937  32.720  1.00  0.00     0.041 A 
ATOM     90  F   UNL A   1      47.821  27.529  31.392  1.00  0.00    -0.206 F 
ATOM     91  C   UNL A   1      48.863  24.911  33.660  1.00  0.00     0.022 A 
BRANCH  88  92
ATOM     92  S   UNL A   1      47.539  23.218  35.436  1.00  0.00     0.124 S 
ATOM     93  O   UNL A   1      48.333  23.830  36.496  1.00  0.00    -0.237 OA
ATOM     94  O   UNL A   1      46.104  23.123  35.689  1.00  0.00    -0.237 OA
ATOM     95  O   UNL A   1      48.136  22.037  34.815  1.00  0.00    -0.744 OA
ENDBRANCH  88  92
ENDBRANCH  62  85
ENDBRANCH  36  37
ENDBRANCH  28  31
ENDBRANCH  26  27
ENDBRANCH  25  26
ENDBRANCH   1  25
TORSDOF 17
ENDMDL
MODEL 2
REMARK VINA RESULT:     -11.9      2.802      4.038
REMARK SMILES C[C@@H]1[C@H](C)CC[C@@H]1NC(=O)N1CCO[C@H](CC(=O)NCCCCNC(=O)c2ccc(-c3c4nc(c(-c5cc(S(=O)(=O)[O-])ccc5F)c5ccc([nH]5)c(-c5cc(S(=O)(=O)[O-])ccc5F)c5nc(c(-c6cc(S(=O)(=O)[O-])ccc6F)c6ccc3[nH]6)C=C5)C=C4)cc2)C1
REMARK SMILES IDX 21 1 20 2 19 3 17 4 18 5 16 7 15 8 11 9 12 10 90 11 13 12
REMARK SMILES IDX 14 13 9 14 8 15 10 17 7 18 1 19 2 20 3 21 4 22 5 23 6 24
REMARK SMILES IDX 22 25 23 26 24 27 25 28 26 30 27 31 28 32 89 33 29 34 88 35
REMARK SMILES IDX 30 36 31 37 32 38 82 39 33 40 87 41 81 42 83 43 34 44 86 45
REMARK SMILES IDX 80 46 79 47 35 49 67 50 47 51 66 52 48 53 51 54 65 55 84 56
REMARK SMILES IDX 49 57 50 58 64 60 85 61 52 62 36 63 37 64 45 65 38 66 44 67
REMARK SMILES IDX 46 68 43 69 39 70 40 71 41 72 42 73 68 74 69 75 77 76 70 77
REMARK SMILES IDX 76 78 78 79 75 80 71 81 72 82 73 83 74 84 53 85 54 86 62 87
REMARK SMILES IDX 55 88 61 89 63 90 60 91 56 92 57 93 58 94 59 95
REMARK H PARENT 19 6 8 16 24 29 83 48 51 59
REMARK Flexibility Score: inf
ROOT
ATOM      1  C   UNL A   1      31.486  30.222  26.336  1.00  0.00     0.023 C 
ENDROOT
BRANCH   1   2
ATOM      2  C   UNL A   1      32.950  29.866  26.076  1.00  0.00     0.116 C 
BRANCH   2   3
ATOM      3  N   UNL A   1      33.182  29.683  24.665  1.00  0.00    -0.356 N 
ATOM      4  C   UNL A   1      33.265  28.503  23.993  1.00  0.00     0.222 C 
ATOM      5  O   UNL A   1      33.545  28.541  22.797  1.00  0.00    -0.275 OA
ATOM      6  H   UNL A   1      33.293  30.501  24.131  1.00  0.00     0.163 HD
BRANCH   4   7
ATOM      7  C   UNL A   1      32.987  27.207  24.732  1.00  0.00     0.133 C 
BRANCH   7   8
ATOM      8  C   UNL A   1      31.505  26.896  24.929  1.00  0.00     0.147 C 
ATOM      9  N   UNL A   1      31.182  24.399  25.303  1.00  0.00    -0.320 N 
ATOM     10  C   UNL A   1      30.525  24.353  24.000  1.00  0.00     0.150 C 
ATOM     11  C   UNL A   1      31.121  25.748  25.879  1.00  0.00     0.154 C 
ATOM     12  C   UNL A   1      31.045  25.452  23.068  1.00  0.00     0.182 C 
ATOM     13  O   UNL A   1      30.859  26.755  23.641  1.00  0.00    -0.374 OA
BRANCH   9  14
ATOM     14  C   UNL A   1      30.909  23.419  26.219  1.00  0.00     0.317 C 
ATOM     15  N   UNL A   1      31.540  22.236  26.246  1.00  0.00    -0.335 N 
ATOM     16  H   UNL A   1      31.160  21.701  26.979  1.00  0.00     0.165 HD
ATOM     17  O   UNL A   1      30.079  23.598  27.117  1.00  0.00    -0.249 OA
BRANCH  15  18
ATOM     18  C   UNL A   1      32.581  21.445  25.591  1.00  0.00     0.087 C 
ATOM     19  C   UNL A   1      34.335  21.795  27.499  1.00  0.00     0.010 C 
ATOM     20  C   UNL A   1      34.053  21.584  26.019  1.00  0.00     0.011 C 
ATOM     21  C   UNL A   1      34.656  22.596  25.040  1.00  0.00    -0.009 C 
ATOM     22  C   UNL A   1      34.723  24.008  25.577  1.00  0.00     0.008 C 
ATOM     23  C   UNL A   1      33.796  22.490  23.768  1.00  0.00     0.006 C 
ATOM     24  C   UNL A   1      32.643  21.542  24.077  1.00  0.00     0.025 C 
ENDBRANCH  15  18
ENDBRANCH   9  14
ENDBRANCH   7   8
ENDBRANCH   4   7
ENDBRANCH   2   3
ENDBRANCH   1   2
BRANCH   1  25
ATOM     25  C   UNL A   1      31.237  31.722  26.483  1.00  0.00     0.023 C 
BRANCH  25  26
ATOM     26  C   UNL A   1      32.508  32.549  26.581  1.00  0.00     0.116 C 
BRANCH  26  27
ATOM     27  N   UNL A   1      32.326  33.799  27.313  1.00  0.00    -0.352 N 
ATOM     28  C   UNL A   1      33.127  34.315  28.298  1.00  0.00     0.251 C 
ATOM     29  H   UNL A   1      31.536  34.335  27.070  1.00  0.00     0.163 HD
ATOM     30  O   UNL A   1      32.842  35.360  28.870  1.00  0.00    -0.269 OA
BRANCH  28  31
ATOM     31  C   UNL A   1      34.307  33.526  28.666  1.00  0.00     0.039 A 
ATOM     32  C   UNL A   1      35.549  34.159  28.691  1.00  0.00     0.014 A 
ATOM     33  C   UNL A   1      34.128  32.235  29.167  1.00  0.00     0.014 A 
ATOM     34  C   UNL A   1      36.624  33.502  29.277  1.00  0.00     0.010 A 
ATOM     35  C   UNL A   1      35.179  31.621  29.825  1.00  0.00     0.010 A 
ATOM     36  C   UNL A   1      36.437  32.246  29.876  1.00  0.00    -0.014 A 
BRANCH  36  37
ATOM     37  C   UNL A   1      37.560  31.524  30.513  1.00  0.00     0.031 A 
ATOM     38  C   UNL A   1      37.903  31.847  31.938  1.00  0.00     0.074 A 
ATOM     39  C   UNL A   1      38.298  30.655  29.799  1.00  0.00     0.049 A 
ATOM     40  N   UNL A   1      38.920  31.456  32.657  1.00  0.00    -0.248 NA
ATOM     41  C   UNL A   1      36.997  32.779  32.631  1.00  0.00     0.031 C 
ATOM     42  C   UNL A   1      38.067  30.295  28.397  1.00  0.00     0.029 A 
ATOM     43  N   UNL A   1      39.402  29.923  30.150  1.00  0.00    -0.354 N 
ATOM     44  C   UNL A   1      38.792  32.116  33.874  1.00  0.00     0.074 A 
ATOM     45  C   UNL A   1      37.644  32.988  33.764  1.00  0.00     0.031 C 
ATOM     46  C   UNL A   1      38.987  29.394  28.018  1.00  0.00     0.029 A 
ATOM     47  C   UNL A   1      39.899  29.147  29.130  1.00  0.00     0.049 A 
ATOM     48  H   UNL A   1      39.801  29.950  31.050  1.00  0.00     0.167 HD
ATOM     49  C   UNL A   1      39.548  31.981  34.990  1.00  0.00     0.034 A 
ATOM     50  C   UNL A   1      40.979  28.341  29.099  1.00  0.00     0.034 A 
ATOM     51  C   UNL A   1      40.671  31.083  35.076  1.00  0.00     0.049 A 
ATOM     52  C   UNL A   1      41.815  28.213  30.348  1.00  0.00     0.074 A 
ATOM     53  C   UNL A   1      41.488  30.822  36.160  1.00  0.00     0.029 A 
ATOM     54  N   UNL A   1      41.134  30.294  34.029  1.00  0.00    -0.354 N 
ATOM     55  N   UNL A   1      41.668  28.817  31.506  1.00  0.00    -0.248 NA
ATOM     56  C   UNL A   1      42.954  27.289  30.292  1.00  0.00     0.031 C 
ATOM     57  C   UNL A   1      42.477  29.921  35.754  1.00  0.00     0.029 A 
ATOM     58  C   UNL A   1      42.236  29.562  34.436  1.00  0.00     0.049 A 
ATOM     59  H   UNL A   1      40.737  30.261  33.129  1.00  0.00     0.167 HD
ATOM     60  C   UNL A   1      42.674  28.316  32.327  1.00  0.00     0.074 A 
ATOM     61  C   UNL A   1      43.417  27.359  31.531  1.00  0.00     0.031 C 
ATOM     62  C   UNL A   1      42.955  28.609  33.622  1.00  0.00     0.034 A 
BRANCH  49  63
ATOM     63  C   UNL A   1      39.186  32.843  36.174  1.00  0.00     0.023 A 
ATOM     64  C   UNL A   1      39.669  34.157  36.306  1.00  0.00     0.031 A 
ATOM     65  C   UNL A   1      38.405  32.324  37.222  1.00  0.00     0.131 A 
ATOM     66  C   UNL A   1      39.455  34.869  37.496  1.00  0.00     0.055 A 
ATOM     67  C   UNL A   1      38.113  33.074  38.364  1.00  0.00     0.041 A 
ATOM     68  F   UNL A   1      37.935  31.068  37.167  1.00  0.00    -0.206 F 
ATOM     69  C   UNL A   1      38.656  34.347  38.515  1.00  0.00     0.022 A 
BRANCH  66  70
ATOM     70  S   UNL A   1      40.378  36.407  37.758  1.00  0.00     0.124 S 
ATOM     71  O   UNL A   1      40.631  36.836  36.384  1.00  0.00    -0.237 OA
ATOM     72  O   UNL A   1      39.434  37.218  38.517  1.00  0.00    -0.237 OA
ATOM     73  O   UNL A   1      41.563  35.973  38.496  1.00  0.00    -0.744 OA
ENDBRANCH  66  70
ENDBRANCH  49  63
BRANCH  50  74
ATOM     74  C   UNL A   1      41.332  27.595  27.859  1.00  0.00     0.023 A 
ATOM     75  C   UNL A   1      41.178  26.201  27.787  1.00  0.00     0.031 A 
ATOM     76  C   UNL A   1      41.858  28.257  26.735  1.00  0.00     0.131 A 
ATOM     77  C   UNL A   1      41.587  25.509  26.637  1.00  0.00     0.055 A 
ATOM     78  C   UNL A   1      42.217  27.571  25.574  1.00  0.00     0.041 A 
ATOM     79  F   UNL A   1      42.017  29.591  26.746  1.00  0.00    -0.206 F 
ATOM     80  C   UNL A   1      42.094  26.185  25.525  1.00  0.00     0.022 A 
BRANCH  77  81
ATOM     81  S   UNL A   1      41.515  23.696  26.643  1.00  0.00     0.124 S 
ATOM     82  O   UNL A   1      42.114  23.381  27.935  1.00  0.00    -0.237 OA
ATOM     83  O   UNL A   1      40.082  23.450  26.522  1.00  0.00    -0.237 OA
ATOM     84  O   UNL A   1      42.311  23.320  25.477  1.00  0.00    -0.744 OA
ENDBRANCH  77  81
ENDBRANCH  50  74
BRANCH  62  85
ATOM     85  C   UNL A   1      44.070  27.836  34.275  1.00  0.00     0.023 A 
ATOM     86  C   UNL A   1      43.866  26.559  34.824  1.00  0.00     0.031 A 
ATOM     87  C   UNL A   1      45.364  28.383  34.326  1.00  0.00     0.131 A 
ATOM     88  C   UNL A   1      44.933  25.889  35.440  1.00  0.00     0.055 A 
ATOM     89  C   UNL A   1      46.433  27.689  34.891  1.00  0.00     0.041 A 
ATOM     90  F   UNL A   1      45.610  29.600  33.814  1.00  0.00    -0.206 F 
ATOM     91  C   UNL A   1      46.218  26.437  35.461  1.00  0.00     0.022 A 
BRANCH  88  92
ATOM     92  S   UNL A   1      44.606  24.312  36.275  1.00  0.00     0.124 S 
ATOM     93  O   UNL A   1      43.179  24.129  36.030  1.00  0.00    -0.237 OA
ATOM     94  O   UNL A   1      45.496  23.395  35.571  1.00  0.00    -0.237 OA
ATOM     95  O   UNL A   1      44.969  24.579  37.666  1.00  0.00    -0.744 OA
ENDBRANCH  88  92
ENDBRANCH  62  85
ENDBRANCH  36  37
ENDBRANCH  28  31
ENDBRANCH  26  27
ENDBRANCH  25  26
ENDBRANCH   1  25
TORSDOF 17
ENDMDL
MODEL 3
REMARK VINA RESULT:     -11.9      4.929     10.446
REMARK SMILES C[C@@H]1[C@H](C)CC[C@@H]1NC(=O)N1CCO[C@H](CC(=O)NCCCCNC(=O)c2ccc(-c3c4nc(c(-c5cc(S(=O)(=O)[O-])ccc5F)c5ccc([nH]5)c(-c5cc(S(=O)(=O)[O-])ccc5F)c5nc(c(-c6cc(S(=O)(=O)[O-])ccc6F)c6ccc3[nH]6)C=C5)C=C4)cc2)C1
REMARK SMILES IDX 21 1 20 2 19 3 17 4 18 5 16 7 15 8 11 9 12 10 90 11 13 12
REMARK SMILES IDX 14 13 9 14 8 15 10 17 7 18 1 19 2 20 3 21 4 22 5 23 6 24
REMARK SMILES IDX 22 25 23 26 24 27 25 28 26 30 27 31 28 32 89 33 29 34 88 35
REMARK SMILES IDX 30 36 31 37 32 38 82 39 33 40 87 41 81 42 83 43 34 44 86 45
REMARK SMILES IDX 80 46 79 47 35 49 67 50 47 51 66 52 48 53 51 54 65 55 84 56
REMARK SMILES IDX 49 57 50 58 64 60 85 61 52 62 36 63 37 64 45 65 38 66 44 67
REMARK SMILES IDX 46 68 43 69 39 70 40 71 41 72 42 73 68 74 69 75 77 76 70 77
REMARK SMILES IDX 76 78 78 79 75 80 71 81 72 82 73 83 74 84 53 85 54 86 62 87
REMARK SMILES IDX 55 88 61 89 63 90 60 91 56 92 57 93 58 94 59 95
REMARK H PARENT 19 6 8 16 24 29 83 48 51 59
REMARK Flexibility Score: inf
ROOT
ATOM      1  C   UNL A   1      34.885  22.043  26.731  1.00  0.00     0.023 C 
ENDROOT
BRANCH   1   2
ATOM      2  C   UNL A   1      34.048  23.281  26.412  1.00  0.00     0.116 C 
BRANCH   2   3
ATOM      3  N   UNL A   1      32.718  23.143  26.950  1.00  0.00    -0.356 N 
ATOM      4  C   UNL A   1      31.626  23.891  26.638  1.00  0.00     0.222 C 
ATOM      5  O   UNL A   1      30.586  23.676  27.258  1.00  0.00    -0.275 OA
ATOM      6  H   UNL A   1      32.587  22.431  27.616  1.00  0.00     0.163 HD
BRANCH   4   7
ATOM      7  C   UNL A   1      31.725  24.928  25.535  1.00  0.00     0.133 C 
BRANCH   7   8
ATOM      8  C   UNL A   1      30.732  26.081  25.657  1.00  0.00     0.147 C 
ATOM      9  N   UNL A   1      31.642  28.142  24.473  1.00  0.00    -0.320 N 
ATOM     10  C   UNL A   1      31.783  28.758  25.788  1.00  0.00     0.150 C 
ATOM     11  C   UNL A   1      30.628  27.080  24.492  1.00  0.00     0.154 C 
ATOM     12  C   UNL A   1      32.002  27.708  26.882  1.00  0.00     0.182 C 
ATOM     13  O   UNL A   1      30.925  26.761  26.921  1.00  0.00    -0.374 OA
BRANCH   9  14
ATOM     14  C   UNL A   1      31.544  28.947  23.370  1.00  0.00     0.317 C 
ATOM     15  N   UNL A   1      30.601  29.890  23.224  1.00  0.00    -0.335 N 
ATOM     16  H   UNL A   1      30.728  30.320  22.349  1.00  0.00     0.165 HD
ATOM     17  O   UNL A   1      32.367  28.875  22.451  1.00  0.00    -0.249 OA
BRANCH  15  18
ATOM     18  C   UNL A   1      29.454  30.515  23.882  1.00  0.00     0.087 C 
ATOM     19  C   UNL A   1      27.690  28.960  22.738  1.00  0.00     0.010 C 
ATOM     20  C   UNL A   1      28.033  30.321  23.324  1.00  0.00     0.011 C 
ATOM     21  C   UNL A   1      27.784  31.546  22.438  1.00  0.00    -0.009 C 
ATOM     22  C   UNL A   1      28.027  31.302  20.966  1.00  0.00     0.008 C 
ATOM     23  C   UNL A   1      28.694  32.649  23.010  1.00  0.00     0.006 C 
ATOM     24  C   UNL A   1      29.544  32.014  24.104  1.00  0.00     0.025 C 
ENDBRANCH  15  18
ENDBRANCH   9  14
ENDBRANCH   7   8
ENDBRANCH   4   7
ENDBRANCH   2   3
ENDBRANCH   1   2
BRANCH   1  25
ATOM     25  C   UNL A   1      35.591  21.449  25.514  1.00  0.00     0.023 C 
BRANCH  25  26
ATOM     26  C   UNL A   1      37.023  21.929  25.340  1.00  0.00     0.116 C 
BRANCH  26  27
ATOM     27  N   UNL A   1      38.010  20.867  25.513  1.00  0.00    -0.352 N 
ATOM     28  C   UNL A   1      39.249  20.963  26.092  1.00  0.00     0.251 C 
ATOM     29  H   UNL A   1      37.757  19.977  25.175  1.00  0.00     0.163 HD
ATOM     30  O   UNL A   1      40.007  20.003  26.139  1.00  0.00    -0.269 OA
BRANCH  28  31
ATOM     31  C   UNL A   1      39.635  22.284  26.600  1.00  0.00     0.039 A 
ATOM     32  C   UNL A   1      40.619  22.355  27.585  1.00  0.00     0.014 A 
ATOM     33  C   UNL A   1      39.159  23.425  25.950  1.00  0.00     0.014 A 
ATOM     34  C   UNL A   1      41.173  23.592  27.891  1.00  0.00     0.010 A 
ATOM     35  C   UNL A   1      39.773  24.639  26.196  1.00  0.00     0.010 A 
ATOM     36  C   UNL A   1      40.778  24.734  27.175  1.00  0.00    -0.014 A 
BRANCH  36  37
ATOM     37  C   UNL A   1      41.353  26.064  27.472  1.00  0.00     0.031 A 
ATOM     38  C   UNL A   1      42.757  26.352  27.027  1.00  0.00     0.074 A 
ATOM     39  C   UNL A   1      40.652  26.959  28.191  1.00  0.00     0.049 A 
ATOM     40  N   UNL A   1      43.518  27.379  27.294  1.00  0.00    -0.248 NA
ATOM     41  C   UNL A   1      43.408  25.314  26.209  1.00  0.00     0.031 C 
ATOM     42  C   UNL A   1      39.291  26.763  28.698  1.00  0.00     0.029 A 
ATOM     43  N   UNL A   1      40.992  28.212  28.631  1.00  0.00    -0.354 N 
ATOM     44  C   UNL A   1      44.744  27.098  26.701  1.00  0.00     0.074 A 
ATOM     45  C   UNL A   1      44.645  25.772  26.131  1.00  0.00     0.031 C 
ATOM     46  C   UNL A   1      38.906  27.867  29.360  1.00  0.00     0.029 A 
ATOM     47  C   UNL A   1      40.005  28.827  29.365  1.00  0.00     0.049 A 
ATOM     48  H   UNL A   1      41.861  28.631  28.440  1.00  0.00     0.167 HD
ATOM     49  C   UNL A   1      45.841  27.889  26.616  1.00  0.00     0.034 A 
ATOM     50  C   UNL A   1      40.000  30.026  29.981  1.00  0.00     0.034 A 
ATOM     51  C   UNL A   1      45.898  29.216  27.172  1.00  0.00     0.049 A 
ATOM     52  C   UNL A   1      41.235  30.887  29.885  1.00  0.00     0.074 A 
ATOM     53  C   UNL A   1      46.933  30.132  27.116  1.00  0.00     0.029 A 
ATOM     54  N   UNL A   1      44.871  29.818  27.890  1.00  0.00    -0.354 N 
ATOM     55  N   UNL A   1      42.380  30.626  29.294  1.00  0.00    -0.248 NA
ATOM     56  C   UNL A   1      41.175  32.206  30.526  1.00  0.00     0.031 C 
ATOM     57  C   UNL A   1      46.553  31.263  27.846  1.00  0.00     0.029 A 
ATOM     58  C   UNL A   1      45.254  31.084  28.298  1.00  0.00     0.049 A 
ATOM     59  H   UNL A   1      43.999  29.404  28.081  1.00  0.00     0.167 HD
ATOM     60  C   UNL A   1      43.162  31.765  29.461  1.00  0.00     0.074 A 
ATOM     61  C   UNL A   1      42.357  32.713  30.205  1.00  0.00     0.031 C 
ATOM     62  C   UNL A   1      44.426  32.011  29.034  1.00  0.00     0.034 A 
BRANCH  49  63
ATOM     63  C   UNL A   1      47.050  27.315  25.920  1.00  0.00     0.023 A 
ATOM     64  C   UNL A   1      48.045  26.615  26.627  1.00  0.00     0.031 A 
ATOM     65  C   UNL A   1      47.250  27.528  24.545  1.00  0.00     0.131 A 
ATOM     66  C   UNL A   1      49.235  26.245  25.982  1.00  0.00     0.055 A 
ATOM     67  C   UNL A   1      48.395  27.070  23.888  1.00  0.00     0.041 A 
ATOM     68  F   UNL A   1      46.349  28.209  23.821  1.00  0.00    -0.206 F 
ATOM     69  C   UNL A   1      49.405  26.442  24.611  1.00  0.00     0.022 A 
BRANCH  66  70
ATOM     70  S   UNL A   1      50.620  25.662  26.998  1.00  0.00     0.124 S 
ATOM     71  O   UNL A   1      51.654  25.444  25.988  1.00  0.00    -0.237 OA
ATOM     72  O   UNL A   1      50.839  26.781  27.906  1.00  0.00    -0.237 OA
ATOM     73  O   UNL A   1      50.100  24.445  27.619  1.00  0.00    -0.744 OA
ENDBRANCH  66  70
ENDBRANCH  49  63
BRANCH  50  74
ATOM     74  C   UNL A   1      38.800  30.485  30.735  1.00  0.00     0.023 A 
ATOM     75  C   UNL A   1      37.737  31.126  30.078  1.00  0.00     0.031 A 
ATOM     76  C   UNL A   1      38.709  30.320  32.128  1.00  0.00     0.131 A 
ATOM     77  C   UNL A   1      36.651  31.618  30.817  1.00  0.00     0.055 A 
ATOM     78  C   UNL A   1      37.604  30.767  32.854  1.00  0.00     0.041 A 
ATOM     79  F   UNL A   1      39.693  29.706  32.805  1.00  0.00    -0.206 F 
ATOM     80  C   UNL A   1      36.571  31.433  32.199  1.00  0.00     0.022 A 
BRANCH  77  81
ATOM     81  S   UNL A   1      35.374  32.574  29.953  1.00  0.00     0.124 S 
ATOM     82  O   UNL A   1      35.047  31.691  28.839  1.00  0.00    -0.237 OA
ATOM     83  O   UNL A   1      34.351  32.714  30.984  1.00  0.00    -0.237 OA
ATOM     84  O   UNL A   1      36.064  33.810  29.588  1.00  0.00    -0.744 OA
ENDBRANCH  77  81
ENDBRANCH  50  74
BRANCH  62  85
ATOM     85  C   UNL A   1      44.986  33.384  29.301  1.00  0.00     0.023 A 
ATOM     86  C   UNL A   1      44.845  34.436  28.380  1.00  0.00     0.031 A 
ATOM     87  C   UNL A   1      45.653  33.644  30.512  1.00  0.00     0.131 A 
ATOM     88  C   UNL A   1      45.403  35.690  28.667  1.00  0.00     0.055 A 
ATOM     89  C   UNL A   1      46.157  34.908  30.815  1.00  0.00     0.041 A 
ATOM     90  F   UNL A   1      45.813  32.672  31.424  1.00  0.00    -0.206 F 
ATOM     91  C   UNL A   1      46.042  35.938  29.885  1.00  0.00     0.022 A 
BRANCH  88  92
ATOM     92  S   UNL A   1      45.340  36.983  27.397  1.00  0.00     0.124 S 
ATOM     93  O   UNL A   1      43.911  37.055  27.109  1.00  0.00    -0.237 OA
ATOM     94  O   UNL A   1      45.907  38.134  28.093  1.00  0.00    -0.237 OA
ATOM     95  O   UNL A   1      46.165  36.445  26.318  1.00  0.00    -0.744 OA
ENDBRANCH  88  92
ENDBRANCH  62  85
ENDBRANCH  36  37
ENDBRANCH  28  31
ENDBRANCH  26  27
ENDBRANCH  25  26
ENDBRANCH   1  25
TORSDOF 17
ENDMDL
