MODEL 1
REMARK VINA RESULT:     -13.2      0.000      0.000
REMARK SMILES Cc1ccc(NC(=O)C[C@H]2SC[C@H](C(=O)NCCCCNC(=O)c3ccc(-c4c5nc(c(-c6cc(S(=O)(=O)[O-])ccc6F)c6ccc([nH]6)c(-c6cc(S(=O)(=O)[O-])ccc6F)c6nc(c(-c7cc(S(=O)(=O)[O-])ccc7F)c7ccc4[nH]7)C=C6)C=C5)cc3)NC2=O)cc1
REMARK SMILES IDX 18 1 17 2 16 3 14 4 15 5 13 7 10 8 11 9 88 10 12 11 87 12
REMARK SMILES IDX 89 13 9 15 7 16 6 17 8 19 5 20 1 21 2 22 3 23 91 24 4 25
REMARK SMILES IDX 90 26 19 27 20 28 21 29 22 30 23 32 24 33 25 34 86 35 26 36
REMARK SMILES IDX 85 37 27 38 28 39 29 40 79 41 30 42 84 43 78 44 80 45 31 46
REMARK SMILES IDX 83 47 77 48 76 49 32 51 64 52 44 53 63 54 45 55 48 56 62 57
REMARK SMILES IDX 81 58 46 59 47 60 61 62 82 63 49 64 33 65 34 66 42 67 35 68
REMARK SMILES IDX 41 69 43 70 40 71 36 72 37 73 38 74 39 75 65 76 66 77 74 78
REMARK SMILES IDX 67 79 73 80 75 81 72 82 68 83 69 84 70 85 71 86 50 87 51 88
REMARK SMILES IDX 59 89 52 90 58 91 60 92 57 93 53 94 54 95 55 96 56 97
REMARK H PARENT 16 6 87 14 6 18 21 31 80 50 48 61
REMARK Flexibility Score: inf
ROOT
ATOM      1  C   UNL A   1      32.286  30.029  26.842  1.00  0.00     0.023 C 
ENDROOT
BRANCH   1   2
ATOM      2  C   UNL A   1      31.805  30.183  25.390  1.00  0.00     0.116 C 
BRANCH   2   3
ATOM      3  N   UNL A   1      32.841  29.835  24.426  1.00  0.00    -0.354 N 
ATOM      4  C   UNL A   1      33.096  28.678  23.761  1.00  0.00     0.243 C 
ATOM      5  O   UNL A   1      34.057  28.678  22.981  1.00  0.00    -0.273 OA
ATOM      6  H   UNL A   1      33.466  30.569  24.220  1.00  0.00     0.163 HD
BRANCH   4   7
ATOM      7  C   UNL A   1      32.219  27.419  23.897  1.00  0.00     0.181 C 
ATOM      8  C   UNL A   1      31.639  24.644  24.966  1.00  0.00     0.145 C 
ATOM      9  S   UNL A   1      31.511  24.858  23.126  1.00  0.00    -0.145 SA
ATOM     10  C   UNL A   1      31.217  25.960  25.640  1.00  0.00     0.234 C 
ATOM     11  C   UNL A   1      32.660  26.269  22.996  1.00  0.00     0.105 C 
ATOM     12  N   UNL A   1      31.950  27.080  25.294  1.00  0.00    -0.343 N 
ATOM     13  O   UNL A   1      30.321  26.073  26.470  1.00  0.00    -0.274 OA
ATOM     14  H   UNL A   1      32.300  27.663  26.006  1.00  0.00     0.164 HD
BRANCH   8  15
ATOM     15  C   UNL A   1      30.976  23.320  25.382  1.00  0.00     0.124 C 
BRANCH  15  16
ATOM     16  C   UNL A   1      31.081  22.796  26.807  1.00  0.00     0.226 C 
ATOM     17  N   UNL A   1      32.162  22.112  27.284  1.00  0.00    -0.326 N 
ATOM     18  H   UNL A   1      32.055  21.701  28.172  1.00  0.00     0.169 HD
ATOM     19  O   UNL A   1      30.128  22.962  27.583  1.00  0.00    -0.275 OA
BRANCH  17  20
ATOM     20  C   UNL A   1      33.403  21.922  26.669  1.00  0.00     0.041 A 
ATOM     21  C   UNL A   1      36.361  22.603  23.758  1.00  0.00     0.044 C 
ATOM     22  C   UNL A   1      35.509  22.213  24.917  1.00  0.00    -0.051 A 
ATOM     23  C   UNL A   1      34.685  21.088  24.826  1.00  0.00     0.005 A 
ATOM     24  C   UNL A   1      35.416  23.059  26.021  1.00  0.00     0.005 A 
ATOM     25  C   UNL A   1      33.629  20.937  25.716  1.00  0.00     0.026 A 
ATOM     26  C   UNL A   1      34.372  22.897  26.920  1.00  0.00     0.026 A 
ENDBRANCH  17  20
ENDBRANCH  15  16
ENDBRANCH   8  15
ENDBRANCH   4   7
ENDBRANCH   2   3
ENDBRANCH   1   2
BRANCH   1  27
ATOM     27  C   UNL A   1      33.244  31.110  27.339  1.00  0.00     0.023 C 
BRANCH  27  28
ATOM     28  C   UNL A   1      34.633  30.611  27.710  1.00  0.00     0.116 C 
BRANCH  28  29
ATOM     29  N   UNL A   1      35.396  31.481  28.597  1.00  0.00    -0.352 N 
ATOM     30  C   UNL A   1      36.580  31.216  29.284  1.00  0.00     0.251 C 
ATOM     31  H   UNL A   1      35.022  32.382  28.732  1.00  0.00     0.163 HD
ATOM     32  O   UNL A   1      37.064  32.020  30.045  1.00  0.00    -0.269 OA
BRANCH  30  33
ATOM     33  C   UNL A   1      37.327  29.972  28.948  1.00  0.00     0.039 A 
ATOM     34  C   UNL A   1      37.456  29.014  29.961  1.00  0.00     0.014 A 
ATOM     35  C   UNL A   1      38.102  29.889  27.799  1.00  0.00     0.014 A 
ATOM     36  C   UNL A   1      38.555  28.161  29.949  1.00  0.00     0.010 A 
ATOM     37  C   UNL A   1      39.257  29.141  27.842  1.00  0.00     0.010 A 
ATOM     38  C   UNL A   1      39.509  28.331  28.948  1.00  0.00    -0.014 A 
BRANCH  38  39
ATOM     39  C   UNL A   1      40.843  27.766  29.014  1.00  0.00     0.031 A 
ATOM     40  C   UNL A   1      41.066  26.397  28.523  1.00  0.00     0.074 A 
ATOM     41  C   UNL A   1      41.861  28.507  29.501  1.00  0.00     0.049 A 
ATOM     42  N   UNL A   1      41.969  25.602  28.980  1.00  0.00    -0.248 NA
ATOM     43  C   UNL A   1      40.238  25.796  27.485  1.00  0.00     0.031 C 
ATOM     44  C   UNL A   1      43.284  28.181  29.485  1.00  0.00     0.029 A 
ATOM     45  N   UNL A   1      41.817  29.652  30.270  1.00  0.00    -0.354 N 
ATOM     46  C   UNL A   1      42.041  24.527  28.125  1.00  0.00     0.074 A 
ATOM     47  C   UNL A   1      40.890  24.651  27.263  1.00  0.00     0.031 C 
ATOM     48  C   UNL A   1      43.898  28.900  30.440  1.00  0.00     0.029 A 
ATOM     49  C   UNL A   1      42.865  29.609  31.180  1.00  0.00     0.049 A 
ATOM     50  H   UNL A   1      41.155  30.376  30.187  1.00  0.00     0.167 HD
ATOM     51  C   UNL A   1      43.153  23.740  28.134  1.00  0.00     0.034 A 
ATOM     52  C   UNL A   1      42.699  29.583  32.535  1.00  0.00     0.034 A 
ATOM     53  C   UNL A   1      44.126  24.222  29.114  1.00  0.00     0.049 A 
ATOM     54  C   UNL A   1      43.316  28.317  33.098  1.00  0.00     0.074 A 
ATOM     55  C   UNL A   1      45.258  25.010  28.983  1.00  0.00     0.029 A 
ATOM     56  N   UNL A   1      43.818  24.198  30.473  1.00  0.00    -0.354 N 
ATOM     57  N   UNL A   1      43.469  27.216  32.407  1.00  0.00    -0.248 NA
ATOM     58  C   UNL A   1      43.879  28.223  34.439  1.00  0.00     0.031 C 
ATOM     59  C   UNL A   1      45.584  25.524  30.266  1.00  0.00     0.029 A 
ATOM     60  C   UNL A   1      44.677  25.015  31.183  1.00  0.00     0.049 A 
ATOM     61  H   UNL A   1      43.087  23.672  30.873  1.00  0.00     0.167 HD
ATOM     62  C   UNL A   1      44.200  26.316  33.140  1.00  0.00     0.074 A 
ATOM     63  C   UNL A   1      44.412  26.988  34.413  1.00  0.00     0.031 C 
ATOM     64  C   UNL A   1      44.609  25.111  32.636  1.00  0.00     0.034 A 
BRANCH  51  65
ATOM     65  C   UNL A   1      43.487  22.775  27.018  1.00  0.00     0.023 A 
ATOM     66  C   UNL A   1      42.915  21.486  27.021  1.00  0.00     0.031 A 
ATOM     67  C   UNL A   1      44.377  23.038  25.958  1.00  0.00     0.131 A 
ATOM     68  C   UNL A   1      43.311  20.505  26.094  1.00  0.00     0.055 A 
ATOM     69  C   UNL A   1      44.819  22.046  25.072  1.00  0.00     0.041 A 
ATOM     70  F   UNL A   1      44.822  24.278  25.707  1.00  0.00    -0.206 F 
ATOM     71  C   UNL A   1      44.294  20.763  25.145  1.00  0.00     0.022 A 
BRANCH  68  72
ATOM     72  S   UNL A   1      42.497  18.884  26.133  1.00  0.00     0.124 S 
ATOM     73  O   UNL A   1      41.142  19.209  25.702  1.00  0.00    -0.237 OA
ATOM     74  O   UNL A   1      43.305  18.111  25.195  1.00  0.00    -0.237 OA
ATOM     75  O   UNL A   1      42.621  18.477  27.531  1.00  0.00    -0.744 OA
ENDBRANCH  68  72
ENDBRANCH  51  65
BRANCH  52  76
ATOM     76  C   UNL A   1      41.465  30.276  33.018  1.00  0.00     0.023 A 
ATOM     77  C   UNL A   1      41.464  31.689  33.012  1.00  0.00     0.031 A 
ATOM     78  C   UNL A   1      40.222  29.634  33.040  1.00  0.00     0.131 A 
ATOM     79  C   UNL A   1      40.274  32.401  32.779  1.00  0.00     0.055 A 
ATOM     80  C   UNL A   1      39.026  30.358  32.911  1.00  0.00     0.041 A 
ATOM     81  F   UNL A   1      40.143  28.296  33.049  1.00  0.00    -0.206 F 
ATOM     82  C   UNL A   1      39.051  31.740  32.716  1.00  0.00     0.022 A 
BRANCH  79  83
ATOM     83  S   UNL A   1      40.395  34.157  32.309  1.00  0.00     0.124 S 
ATOM     84  O   UNL A   1      41.387  34.669  33.214  1.00  0.00    -0.237 OA
ATOM     85  O   UNL A   1      40.796  34.066  30.899  1.00  0.00    -0.237 OA
ATOM     86  O   UNL A   1      39.028  34.667  32.492  1.00  0.00    -0.744 OA
ENDBRANCH  79  83
ENDBRANCH  52  76
BRANCH  64  87
ATOM     87  C   UNL A   1      45.119  23.949  33.462  1.00  0.00     0.023 A 
ATOM     88  C   UNL A   1      46.396  23.932  34.037  1.00  0.00     0.031 A 
ATOM     89  C   UNL A   1      44.288  22.848  33.789  1.00  0.00     0.131 A 
ATOM     90  C   UNL A   1      46.841  22.837  34.795  1.00  0.00     0.055 A 
ATOM     91  C   UNL A   1      44.700  21.805  34.623  1.00  0.00     0.041 A 
ATOM     92  F   UNL A   1      43.033  22.741  33.333  1.00  0.00    -0.206 F 
ATOM     93  C   UNL A   1      45.993  21.783  35.118  1.00  0.00     0.022 A 
BRANCH  90  94
ATOM     94  S   UNL A   1      48.583  22.801  35.280  1.00  0.00     0.124 S 
ATOM     95  O   UNL A   1      48.524  22.062  36.539  1.00  0.00    -0.237 OA
ATOM     96  O   UNL A   1      49.206  22.096  34.164  1.00  0.00    -0.237 OA
ATOM     97  O   UNL A   1      48.936  24.213  35.401  1.00  0.00    -0.744 OA
ENDBRANCH  90  94
ENDBRANCH  64  87
ENDBRANCH  38  39
ENDBRANCH  30  33
ENDBRANCH  28  29
ENDBRANCH  27  28
ENDBRANCH   1  27
TORSDOF 17
ENDMDL
MODEL 2
REMARK VINA RESULT:     -12.8      1.924      2.467
REMARK SMILES Cc1ccc(NC(=O)C[C@H]2SC[C@H](C(=O)NCCCCNC(=O)c3ccc(-c4c5nc(c(-c6cc(S(=O)(=O)[O-])ccc6F)c6ccc([nH]6)c(-c6cc(S(=O)(=O)[O-])ccc6F)c6nc(c(-c7cc(S(=O)(=O)[O-])ccc7F)c7ccc4[nH]7)C=C6)C=C5)cc3)NC2=O)cc1
REMARK SMILES IDX 18 1 17 2 16 3 14 4 15 5 13 7 10 8 11 9 88 10 12 11 87 12
REMARK SMILES IDX 89 13 9 15 7 16 6 17 8 19 5 20 1 21 2 22 3 23 91 24 4 25
REMARK SMILES IDX 90 26 19 27 20 28 21 29 22 30 23 32 24 33 25 34 86 35 26 36
REMARK SMILES IDX 85 37 27 38 28 39 29 40 79 41 30 42 84 43 78 44 80 45 31 46
REMARK SMILES IDX 83 47 77 48 76 49 32 51 64 52 44 53 63 54 45 55 48 56 62 57
REMARK SMILES IDX 81 58 46 59 47 60 61 62 82 63 49 64 33 65 34 66 42 67 35 68
REMARK SMILES IDX 41 69 43 70 40 71 36 72 37 73 38 74 39 75 65 76 66 77 74 78
REMARK SMILES IDX 67 79 73 80 75 81 72 82 68 83 69 84 70 85 71 86 50 87 51 88
REMARK SMILES IDX 59 89 52 90 58 91 60 92 57 93 53 94 54 95 55 96 56 97
REMARK H PARENT 16 6 87 14 6 18 21 31 80 50 48 61
REMARK Flexibility Score: inf
ROOT
ATOM      1  C   UNL A   1      33.636  28.678  24.929  1.00  0.00     0.023 C 
ENDROOT
BRANCH   1   2
ATOM      2  C   UNL A   1      33.552  28.923  23.414  1.00  0.00     0.116 C 
BRANCH   2   3
ATOM      3  N   UNL A   1      32.203  28.725  22.898  1.00  0.00    -0.354 N 
ATOM      4  C   UNL A   1      31.433  27.610  22.805  1.00  0.00     0.243 C 
ATOM      5  O   UNL A   1      30.301  27.746  22.323  1.00  0.00    -0.273 OA
ATOM      6  H   UNL A   1      31.775  29.544  22.558  1.00  0.00     0.163 HD
BRANCH   4   7
ATOM      7  C   UNL A   1      31.886  26.229  23.319  1.00  0.00     0.181 C 
ATOM      8  C   UNL A   1      32.181  23.225  23.061  1.00  0.00     0.145 C 
ATOM      9  S   UNL A   1      31.387  23.841  24.623  1.00  0.00    -0.145 SA
ATOM     10  C   UNL A   1      33.220  24.261  22.601  1.00  0.00     0.234 C 
ATOM     11  C   UNL A   1      30.757  25.409  23.936  1.00  0.00     0.105 C 
ATOM     12  N   UNL A   1      32.739  25.533  22.356  1.00  0.00    -0.343 N 
ATOM     13  O   UNL A   1      34.408  24.030  22.407  1.00  0.00    -0.274 OA
ATOM     14  H   UNL A   1      32.977  25.982  21.513  1.00  0.00     0.164 HD
BRANCH   8  15
ATOM     15  C   UNL A   1      32.587  21.751  23.231  1.00  0.00     0.124 C 
BRANCH  15  16
ATOM     16  C   UNL A   1      32.696  21.115  24.610  1.00  0.00     0.226 C 
ATOM     17  N   UNL A   1      33.778  21.265  25.429  1.00  0.00    -0.326 N 
ATOM     18  H   UNL A   1      33.795  20.692  26.229  1.00  0.00     0.169 HD
ATOM     19  O   UNL A   1      31.774  20.392  25.014  1.00  0.00    -0.275 OA
BRANCH  17  20
ATOM     20  C   UNL A   1      34.865  22.130  25.273  1.00  0.00     0.041 A 
ATOM     21  C   UNL A   1      38.591  23.795  26.292  1.00  0.00     0.044 C 
ATOM     22  C   UNL A   1      37.295  23.354  25.699  1.00  0.00    -0.051 A 
ATOM     23  C   UNL A   1      36.116  24.026  26.031  1.00  0.00     0.005 A 
ATOM     24  C   UNL A   1      37.243  22.181  24.948  1.00  0.00     0.005 A 
ATOM     25  C   UNL A   1      34.890  23.412  25.807  1.00  0.00     0.026 A 
ATOM     26  C   UNL A   1      36.017  21.577  24.709  1.00  0.00     0.026 A 
ENDBRANCH  17  20
ENDBRANCH  15  16
ENDBRANCH   8  15
ENDBRANCH   4   7
ENDBRANCH   2   3
ENDBRANCH   1   2
BRANCH   1  27
ATOM     27  C   UNL A   1      33.100  29.805  25.811  1.00  0.00     0.023 C 
BRANCH  27  28
ATOM     28  C   UNL A   1      33.513  29.722  27.273  1.00  0.00     0.116 C 
BRANCH  28  29
ATOM     29  N   UNL A   1      34.044  30.954  27.846  1.00  0.00    -0.352 N 
ATOM     30  C   UNL A   1      35.275  31.178  28.462  1.00  0.00     0.251 C 
ATOM     31  H   UNL A   1      33.450  31.737  27.790  1.00  0.00     0.163 HD
ATOM     32  O   UNL A   1      35.550  32.246  28.955  1.00  0.00    -0.269 OA
BRANCH  30  33
ATOM     33  C   UNL A   1      36.313  30.115  28.371  1.00  0.00     0.039 A 
ATOM     34  C   UNL A   1      36.506  29.315  29.505  1.00  0.00     0.014 A 
ATOM     35  C   UNL A   1      37.240  30.103  27.337  1.00  0.00     0.014 A 
ATOM     36  C   UNL A   1      37.754  28.743  29.725  1.00  0.00     0.010 A 
ATOM     37  C   UNL A   1      38.512  29.650  27.604  1.00  0.00     0.010 A 
ATOM     38  C   UNL A   1      38.778  29.031  28.825  1.00  0.00    -0.014 A 
BRANCH  38  39
ATOM     39  C   UNL A   1      40.181  28.800  29.112  1.00  0.00     0.031 A 
ATOM     40  C   UNL A   1      40.861  27.658  28.482  1.00  0.00     0.074 A 
ATOM     41  C   UNL A   1      40.844  29.642  29.931  1.00  0.00     0.049 A 
ATOM     42  N   UNL A   1      41.849  27.023  29.008  1.00  0.00    -0.248 NA
ATOM     43  C   UNL A   1      40.439  27.109  27.199  1.00  0.00     0.031 C 
ATOM     44  C   UNL A   1      42.280  29.675  30.198  1.00  0.00     0.029 A 
ATOM     45  N   UNL A   1      40.344  30.556  30.836  1.00  0.00    -0.354 N 
ATOM     46  C   UNL A   1      42.373  26.200  28.039  1.00  0.00     0.074 A 
ATOM     47  C   UNL A   1      41.412  26.225  26.962  1.00  0.00     0.031 C 
ATOM     48  C   UNL A   1      42.483  30.304  31.368  1.00  0.00     0.029 A 
ATOM     49  C   UNL A   1      41.175  30.574  31.947  1.00  0.00     0.049 A 
ATOM     50  H   UNL A   1      39.533  31.102  30.714  1.00  0.00     0.167 HD
ATOM     51  C   UNL A   1      43.638  25.717  28.184  1.00  0.00     0.034 A 
ATOM     52  C   UNL A   1      40.777  30.225  33.205  1.00  0.00     0.034 A 
ATOM     53  C   UNL A   1      44.241  26.200  29.427  1.00  0.00     0.049 A 
ATOM     54  C   UNL A   1      41.606  29.053  33.695  1.00  0.00     0.074 A 
ATOM     55  C   UNL A   1      45.114  27.244  29.687  1.00  0.00     0.029 A 
ATOM     56  N   UNL A   1      43.707  25.819  30.656  1.00  0.00    -0.354 N 
ATOM     57  N   UNL A   1      42.184  28.191  32.898  1.00  0.00    -0.248 NA
ATOM     58  C   UNL A   1      41.916  28.816  35.099  1.00  0.00     0.031 C 
ATOM     59  C   UNL A   1      45.042  27.540  31.074  1.00  0.00     0.029 A 
ATOM     60  C   UNL A   1      44.160  26.649  31.665  1.00  0.00     0.049 A 
ATOM     61  H   UNL A   1      43.091  25.062  30.789  1.00  0.00     0.167 HD
ATOM     62  C   UNL A   1      42.988  27.358  33.633  1.00  0.00     0.074 A 
ATOM     63  C   UNL A   1      42.766  27.778  35.008  1.00  0.00     0.031 C 
ATOM     64  C   UNL A   1      43.801  26.418  33.059  1.00  0.00     0.034 A 
BRANCH  51  65
ATOM     65  C   UNL A   1      44.427  25.116  27.043  1.00  0.00     0.023 A 
ATOM     66  C   UNL A   1      44.228  23.764  26.698  1.00  0.00     0.031 A 
ATOM     67  C   UNL A   1      45.405  25.794  26.287  1.00  0.00     0.131 A 
ATOM     68  C   UNL A   1      45.041  23.120  25.749  1.00  0.00     0.055 A 
ATOM     69  C   UNL A   1      46.257  25.140  25.386  1.00  0.00     0.041 A 
ATOM     70  F   UNL A   1      45.545  27.125  26.356  1.00  0.00    -0.206 F 
ATOM     71  C   UNL A   1      46.087  23.789  25.122  1.00  0.00     0.022 A 
BRANCH  68  72
ATOM     72  S   UNL A   1      44.695  21.390  25.326  1.00  0.00     0.124 S 
ATOM     73  O   UNL A   1      43.502  21.112  26.119  1.00  0.00    -0.237 OA
ATOM     74  O   UNL A   1      44.508  21.457  23.881  1.00  0.00    -0.237 OA
ATOM     75  O   UNL A   1      45.902  20.687  25.758  1.00  0.00    -0.744 OA
ENDBRANCH  68  72
ENDBRANCH  51  65
BRANCH  52  76
ATOM     76  C   UNL A   1      39.332  30.486  33.489  1.00  0.00     0.023 A 
ATOM     77  C   UNL A   1      38.943  31.826  33.717  1.00  0.00     0.031 A 
ATOM     78  C   UNL A   1      38.333  29.585  33.107  1.00  0.00     0.131 A 
ATOM     79  C   UNL A   1      37.668  32.275  33.329  1.00  0.00     0.055 A 
ATOM     80  C   UNL A   1      37.030  30.021  32.818  1.00  0.00     0.041 A 
ATOM     81  F   UNL A   1      38.626  28.298  32.874  1.00  0.00    -0.206 F 
ATOM     82  C   UNL A   1      36.709  31.379  32.867  1.00  0.00     0.022 A 
BRANCH  79  83
ATOM     83  S   UNL A   1      37.386  34.070  33.199  1.00  0.00     0.124 S 
ATOM     84  O   UNL A   1      37.060  34.447  34.548  1.00  0.00    -0.237 OA
ATOM     85  O   UNL A   1      38.681  34.544  32.693  1.00  0.00    -0.237 OA
ATOM     86  O   UNL A   1      36.300  34.188  32.215  1.00  0.00    -0.744 OA
ENDBRANCH  79  83
ENDBRANCH  52  76
BRANCH  64  87
ATOM     87  C   UNL A   1      44.452  25.265  33.791  1.00  0.00     0.023 A 
ATOM     88  C   UNL A   1      45.838  25.164  33.964  1.00  0.00     0.031 A 
ATOM     89  C   UNL A   1      43.683  24.266  34.439  1.00  0.00     0.131 A 
ATOM     90  C   UNL A   1      46.412  24.078  34.646  1.00  0.00     0.055 A 
ATOM     91  C   UNL A   1      44.251  23.240  35.200  1.00  0.00     0.041 A 
ATOM     92  F   UNL A   1      42.344  24.249  34.384  1.00  0.00    -0.206 F 
ATOM     93  C   UNL A   1      45.628  23.128  35.292  1.00  0.00     0.022 A 
BRANCH  90  94
ATOM     94  S   UNL A   1      48.213  23.910  34.598  1.00  0.00     0.124 S 
ATOM     95  O   UNL A   1      48.602  24.552  35.851  1.00  0.00    -0.237 OA
ATOM     96  O   UNL A   1      48.392  22.463  34.547  1.00  0.00    -0.237 OA
ATOM     97  O   UNL A   1      48.593  24.629  33.384  1.00  0.00    -0.744 OA
ENDBRANCH  90  94
ENDBRANCH  64  87
ENDBRANCH  38  39
ENDBRANCH  30  33
ENDBRANCH  28  29
ENDBRANCH  27  28
ENDBRANCH   1  27
TORSDOF 17
ENDMDL
MODEL 3
REMARK VINA RESULT:     -12.8      4.133     10.729
REMARK SMILES Cc1ccc(NC(=O)C[C@H]2SC[C@H](C(=O)NCCCCNC(=O)c3ccc(-c4c5nc(c(-c6cc(S(=O)(=O)[O-])ccc6F)c6ccc([nH]6)c(-c6cc(S(=O)(=O)[O-])ccc6F)c6nc(c(-c7cc(S(=O)(=O)[O-])ccc7F)c7ccc4[nH]7)C=C6)C=C5)cc3)NC2=O)cc1
REMARK SMILES IDX 18 1 17 2 16 3 14 4 15 5 13 7 10 8 11 9 88 10 12 11 87 12
REMARK SMILES IDX 89 13 9 15 7 16 6 17 8 19 5 20 1 21 2 22 3 23 91 24 4 25
REMARK SMILES IDX 90 26 19 27 20 28 21 29 22 30 23 32 24 33 25 34 86 35 26 36
REMARK SMILES IDX 85 37 27 38 28 39 29 40 79 41 30 42 84 43 78 44 80 45 31 46
REMARK SMILES IDX 83 47 77 48 76 49 32 51 64 52 44 53 63 54 45 55 48 56 62 57
REMARK SMILES IDX 81 58 46 59 47 60 61 62 82 63 49 64 33 65 34 66 42 67 35 68
REMARK SMILES IDX 41 69 43 70 40 71 36 72 37 73 38 74 39 75 65 76 66 77 74 78
REMARK SMILES IDX 67 79 73 80 75 81 72 82 68 83 69 84 70 85 71 86 50 87 51 88
REMARK SMILES IDX 59 89 52 90 58 91 60 92 57 93 53 94 54 95 55 96 56 97
REMARK H PARENT 16 6 87 14 6 18 21 31 80 50 48 61
REMARK Flexibility Score: inf
ROOT
ATOM      1  C   UNL A   1      37.337  23.281  25.503  1.00  0.00     0.023 C 
ENDROOT
BRANCH   1   2
ATOM      2  C   UNL A   1      36.640  23.243  24.134  1.00  0.00     0.116 C 
BRANCH   2   3
ATOM      3  N   UNL A   1      35.455  22.394  24.142  1.00  0.00    -0.354 N 
ATOM      4  C   UNL A   1      34.138  22.693  24.291  1.00  0.00     0.243 C 
ATOM      5  O   UNL A   1      33.338  21.750  24.243  1.00  0.00    -0.273 OA
ATOM      6  H   UNL A   1      35.643  21.436  24.017  1.00  0.00     0.163 HD
BRANCH   4   7
ATOM      7  C   UNL A   1      33.616  24.134  24.453  1.00  0.00     0.181 C 
ATOM      8  C   UNL A   1      31.434  26.233  24.353  1.00  0.00     0.145 C 
ATOM      9  S   UNL A   1      32.989  26.621  23.415  1.00  0.00    -0.145 SA
ATOM     10  C   UNL A   1      31.806  25.399  25.590  1.00  0.00     0.234 C 
ATOM     11  C   UNL A   1      33.503  24.893  23.135  1.00  0.00     0.105 C 
ATOM     12  N   UNL A   1      32.456  24.205  25.342  1.00  0.00    -0.343 N 
ATOM     13  O   UNL A   1      31.537  25.697  26.748  1.00  0.00    -0.274 OA
ATOM     14  H   UNL A   1      32.131  23.382  25.773  1.00  0.00     0.164 HD
BRANCH   8  15
ATOM     15  C   UNL A   1      30.592  27.511  24.512  1.00  0.00     0.124 C 
BRANCH  15  16
ATOM     16  C   UNL A   1      31.229  28.835  24.909  1.00  0.00     0.226 C 
ATOM     17  N   UNL A   1      30.870  30.038  24.374  1.00  0.00    -0.326 N 
ATOM     18  H   UNL A   1      31.448  30.801  24.602  1.00  0.00     0.169 HD
ATOM     19  O   UNL A   1      32.149  28.836  25.739  1.00  0.00    -0.275 OA
BRANCH  17  20
ATOM     20  C   UNL A   1      29.783  30.322  23.542  1.00  0.00     0.041 A 
ATOM     21  C   UNL A   1      27.745  32.399  20.505  1.00  0.00     0.044 C 
ATOM     22  C   UNL A   1      28.250  31.490  21.573  1.00  0.00    -0.051 A 
ATOM     23  C   UNL A   1      27.994  31.786  22.915  1.00  0.00     0.005 A 
ATOM     24  C   UNL A   1      29.109  30.444  21.241  1.00  0.00     0.005 A 
ATOM     25  C   UNL A   1      28.760  31.190  23.908  1.00  0.00     0.026 A 
ATOM     26  C   UNL A   1      29.862  29.836  22.235  1.00  0.00     0.026 A 
ENDBRANCH  17  20
ENDBRANCH  15  16
ENDBRANCH   8  15
ENDBRANCH   4   7
ENDBRANCH   2   3
ENDBRANCH   1   2
BRANCH   1  27
ATOM     27  C   UNL A   1      38.522  22.331  25.669  1.00  0.00     0.023 C 
BRANCH  27  28
ATOM     28  C   UNL A   1      39.417  22.629  26.863  1.00  0.00     0.116 C 
BRANCH  28  29
ATOM     29  N   UNL A   1      40.792  22.992  26.540  1.00  0.00    -0.352 N 
ATOM     30  C   UNL A   1      41.355  24.260  26.390  1.00  0.00     0.251 C 
ATOM     31  H   UNL A   1      41.410  22.237  26.408  1.00  0.00     0.163 HD
ATOM     32  O   UNL A   1      42.505  24.404  26.050  1.00  0.00    -0.269 OA
BRANCH  30  33
ATOM     33  C   UNL A   1      40.550  25.442  26.805  1.00  0.00     0.039 A 
ATOM     34  C   UNL A   1      40.771  26.638  26.109  1.00  0.00     0.014 A 
ATOM     35  C   UNL A   1      39.839  25.444  27.997  1.00  0.00     0.014 A 
ATOM     36  C   UNL A   1      40.539  27.848  26.753  1.00  0.00     0.010 A 
ATOM     37  C   UNL A   1      39.727  26.628  28.689  1.00  0.00     0.010 A 
ATOM     38  C   UNL A   1      40.139  27.817  28.088  1.00  0.00    -0.014 A 
BRANCH  38  39
ATOM     39  C   UNL A   1      40.201  28.969  28.966  1.00  0.00     0.031 A 
ATOM     40  C   UNL A   1      39.087  29.930  28.967  1.00  0.00     0.074 A 
ATOM     41  C   UNL A   1      41.264  29.133  29.782  1.00  0.00     0.049 A 
ATOM     42  N   UNL A   1      39.211  31.183  29.230  1.00  0.00    -0.248 NA
ATOM     43  C   UNL A   1      37.724  29.544  28.620  1.00  0.00     0.031 C 
ATOM     44  C   UNL A   1      41.423  30.120  30.847  1.00  0.00     0.029 A 
ATOM     45  N   UNL A   1      42.511  28.544  29.721  1.00  0.00    -0.354 N 
ATOM     46  C   UNL A   1      37.946  31.701  29.378  1.00  0.00     0.074 A 
ATOM     47  C   UNL A   1      37.057  30.666  28.906  1.00  0.00     0.031 C 
ATOM     48  C   UNL A   1      42.735  30.270  31.098  1.00  0.00     0.029 A 
ATOM     49  C   UNL A   1      43.457  29.481  30.111  1.00  0.00     0.049 A 
ATOM     50  H   UNL A   1      42.697  27.617  29.447  1.00  0.00     0.167 HD
ATOM     51  C   UNL A   1      37.779  32.882  30.035  1.00  0.00     0.034 A 
ATOM     52  C   UNL A   1      44.453  29.944  29.300  1.00  0.00     0.034 A 
ATOM     53  C   UNL A   1      39.065  33.410  30.492  1.00  0.00     0.049 A 
ATOM     54  C   UNL A   1      44.318  31.446  29.133  1.00  0.00     0.074 A 
ATOM     55  C   UNL A   1      39.703  33.357  31.721  1.00  0.00     0.029 A 
ATOM     56  N   UNL A   1      40.029  33.798  29.564  1.00  0.00    -0.354 N 
ATOM     57  N   UNL A   1      43.184  32.089  29.259  1.00  0.00    -0.248 NA
ATOM     58  C   UNL A   1      45.447  32.336  28.900  1.00  0.00     0.031 C 
ATOM     59  C   UNL A   1      41.079  33.640  31.512  1.00  0.00     0.029 A 
ATOM     60  C   UNL A   1      41.269  33.909  30.165  1.00  0.00     0.049 A 
ATOM     61  H   UNL A   1      39.852  33.970  28.611  1.00  0.00     0.167 HD
ATOM     62  C   UNL A   1      43.419  33.439  29.214  1.00  0.00     0.074 A 
ATOM     63  C   UNL A   1      44.850  33.539  28.965  1.00  0.00     0.031 C 
ATOM     64  C   UNL A   1      42.436  34.368  29.422  1.00  0.00     0.034 A 
BRANCH  51  65
ATOM     65  C   UNL A   1      36.441  33.351  30.560  1.00  0.00     0.023 A 
ATOM     66  C   UNL A   1      35.564  34.046  29.701  1.00  0.00     0.031 A 
ATOM     67  C   UNL A   1      35.985  33.187  31.883  1.00  0.00     0.131 A 
ATOM     68  C   UNL A   1      34.379  34.632  30.179  1.00  0.00     0.055 A 
ATOM     69  C   UNL A   1      34.837  33.822  32.376  1.00  0.00     0.041 A 
ATOM     70  F   UNL A   1      36.608  32.367  32.742  1.00  0.00    -0.206 F 
ATOM     71  C   UNL A   1      34.031  34.564  31.524  1.00  0.00     0.022 A 
BRANCH  68  72
ATOM     72  S   UNL A   1      33.280  35.472  29.005  1.00  0.00     0.124 S 
ATOM     73  O   UNL A   1      32.631  34.350  28.335  1.00  0.00    -0.237 OA
ATOM     74  O   UNL A   1      32.438  36.272  29.888  1.00  0.00    -0.237 OA
ATOM     75  O   UNL A   1      34.201  36.242  28.171  1.00  0.00    -0.744 OA
ENDBRANCH  68  72
ENDBRANCH  51  65
BRANCH  52  76
ATOM     76  C   UNL A   1      44.917  28.962  28.272  1.00  0.00     0.023 A 
ATOM     77  C   UNL A   1      45.780  27.927  28.699  1.00  0.00     0.031 A 
ATOM     78  C   UNL A   1      44.215  28.760  27.078  1.00  0.00     0.131 A 
ATOM     79  C   UNL A   1      45.734  26.661  28.088  1.00  0.00     0.055 A 
ATOM     80  C   UNL A   1      44.251  27.525  26.413  1.00  0.00     0.041 A 
ATOM     81  F   UNL A   1      43.379  29.697  26.610  1.00  0.00    -0.206 F 
ATOM     82  C   UNL A   1      44.961  26.450  26.950  1.00  0.00     0.022 A 
BRANCH  79  83
ATOM     83  S   UNL A   1      46.494  25.253  28.959  1.00  0.00     0.124 S 
ATOM     84  O   UNL A   1      46.583  24.247  27.936  1.00  0.00    -0.237 OA
ATOM     85  O   UNL A   1      47.768  25.828  29.410  1.00  0.00    -0.237 OA
ATOM     86  O   UNL A   1      45.560  24.973  30.060  1.00  0.00    -0.744 OA
ENDBRANCH  79  83
ENDBRANCH  52  76
BRANCH  64  87
ATOM     87  C   UNL A   1      42.537  35.838  29.072  1.00  0.00     0.023 A 
ATOM     88  C   UNL A   1      43.291  36.746  29.824  1.00  0.00     0.031 A 
ATOM     89  C   UNL A   1      41.952  36.362  27.891  1.00  0.00     0.131 A 
ATOM     90  C   UNL A   1      43.361  38.104  29.474  1.00  0.00     0.055 A 
ATOM     91  C   UNL A   1      42.103  37.693  27.492  1.00  0.00     0.041 A 
ATOM     92  F   UNL A   1      41.224  35.605  27.059  1.00  0.00    -0.206 F 
ATOM     93  C   UNL A   1      42.796  38.582  28.297  1.00  0.00     0.022 A 
BRANCH  90  94
ATOM     94  S   UNL A   1      44.151  39.236  30.644  1.00  0.00     0.124 S 
ATOM     95  O   UNL A   1      43.418  40.474  30.397  1.00  0.00    -0.237 OA
ATOM     96  O   UNL A   1      43.889  38.593  31.928  1.00  0.00    -0.237 OA
ATOM     97  O   UNL A   1      45.550  39.244  30.224  1.00  0.00    -0.744 OA
ENDBRANCH  90  94
ENDBRANCH  64  87
ENDBRANCH  38  39
ENDBRANCH  30  33
ENDBRANCH  28  29
ENDBRANCH  27  28
ENDBRANCH   1  27
TORSDOF 17
ENDMDL
