MODEL 1
REMARK VINA RESULT:     -12.7      0.000      0.000
REMARK SMILES Cc1[nH]c2ccc(Br)cc2c(=O)c1CCC(=O)NCCCCNC(=O)c1ccc(-c2c3nc(c(-c4cc(S(=O)(=O)[O-])ccc4F)c4ccc([nH]4)c(-c4cc(S(=O)(=O)[O-])ccc4F)c4nc(c(-c5cc(S(=O)(=O)[O-])ccc5F)c5ccc2[nH]5)C=C4)C=C3)cc1
REMARK SMILES IDX 21 1 20 2 19 3 18 4 16 5 17 6 15 8 14 9 13 10 1 11 2 12 3 13
REMARK SMILES IDX 4 14 11 16 5 17 10 18 12 19 6 20 9 21 7 22 8 23 22 24 23 25
REMARK SMILES IDX 24 26 25 28 26 29 27 30 88 31 28 32 87 33 29 34 30 35 31 36
REMARK SMILES IDX 81 37 32 38 86 39 80 40 82 41 33 42 85 43 79 44 78 45 34 47
REMARK SMILES IDX 66 48 46 49 65 50 47 51 50 52 64 53 83 54 48 55 49 56 63 58
REMARK SMILES IDX 84 59 51 60 35 61 36 62 44 63 37 64 43 65 45 66 42 67 38 68
REMARK SMILES IDX 39 69 40 70 41 71 67 72 68 73 76 74 69 75 75 76 77 77 74 78
REMARK SMILES IDX 70 79 71 80 72 81 73 82 52 83 53 84 61 85 54 86 60 87 62 88
REMARK SMILES IDX 59 89 55 90 56 91 57 92 58 93
REMARK H PARENT 18 7 3 15 23 27 82 46 50 57
REMARK Flexibility Score: inf
ROOT
ATOM      1  C   UNL A   1      36.024  21.313  25.715  1.00  0.00     0.023 C 
ENDROOT
BRANCH   1   2
ATOM      2  C   UNL A   1      34.842  20.692  24.994  1.00  0.00     0.023 C 
BRANCH   2   3
ATOM      3  C   UNL A   1      33.544  21.482  25.071  1.00  0.00     0.116 C 
BRANCH   3   4
ATOM      4  N   UNL A   1      33.405  22.321  23.897  1.00  0.00    -0.356 N 
ATOM      5  C   UNL A   1      33.607  23.667  23.780  1.00  0.00     0.220 C 
ATOM      6  O   UNL A   1      33.261  24.230  22.741  1.00  0.00    -0.275 OA
ATOM      7  H   UNL A   1      33.128  21.858  23.073  1.00  0.00     0.163 HD
BRANCH   5   8
ATOM      8  C   UNL A   1      34.316  24.433  24.882  1.00  0.00     0.105 C 
BRANCH   8   9
ATOM      9  C   UNL A   1      33.445  24.761  26.107  1.00  0.00     0.051 C 
BRANCH   9  10
ATOM     10  C   UNL A   1      32.064  25.289  25.772  1.00  0.00     0.020 A 
ATOM     11  C   UNL A   1      30.818  23.266  26.577  1.00  0.00     0.064 C 
ATOM     12  C   UNL A   1      30.893  24.622  25.916  1.00  0.00     0.019 A 
ATOM     13  N   UNL A   1      29.691  25.124  25.452  1.00  0.00    -0.358 N 
ATOM     14  C   UNL A   1      29.608  26.312  24.719  1.00  0.00     0.050 A 
ATOM     15  H   UNL A   1      28.864  24.626  25.644  1.00  0.00     0.166 HD
ATOM     16  C   UNL A   1      31.979  26.712  25.288  1.00  0.00     0.192 A 
ATOM     17  C   UNL A   1      28.465  26.631  23.983  1.00  0.00     0.028 A 
ATOM     18  C   UNL A   1      30.726  27.149  24.628  1.00  0.00     0.047 A 
ATOM     19  O   UNL A   1      32.933  27.476  25.372  1.00  0.00    -0.289 OA
ATOM     20  C   UNL A   1      28.445  27.771  23.171  1.00  0.00     0.018 A 
ATOM     21  C   UNL A   1      30.705  28.306  23.843  1.00  0.00     0.030 A 
ATOM     22  C   UNL A   1      29.561  28.603  23.108  1.00  0.00     0.018 A 
ATOM     23  Br  UNL A   1      29.543  30.116  21.975  1.00  0.00    -0.051 Br
ENDBRANCH   9  10
ENDBRANCH   8   9
ENDBRANCH   5   8
ENDBRANCH   3   4
ENDBRANCH   2   3
ENDBRANCH   1   2
BRANCH   1  24
ATOM     24  C   UNL A   1      37.248  21.501  24.838  1.00  0.00     0.116 C 
BRANCH  24  25
ATOM     25  N   UNL A   1      38.311  20.520  25.064  1.00  0.00    -0.352 N 
ATOM     26  C   UNL A   1      39.451  20.585  25.840  1.00  0.00     0.251 C 
ATOM     27  H   UNL A   1      38.193  19.670  24.581  1.00  0.00     0.163 HD
ATOM     28  O   UNL A   1      40.245  19.647  25.840  1.00  0.00    -0.269 OA
BRANCH  26  29
ATOM     29  C   UNL A   1      39.743  21.815  26.607  1.00  0.00     0.039 A 
ATOM     30  C   UNL A   1      39.177  23.022  26.222  1.00  0.00     0.014 A 
ATOM     31  C   UNL A   1      40.692  21.788  27.633  1.00  0.00     0.014 A 
ATOM     32  C   UNL A   1      39.799  24.200  26.596  1.00  0.00     0.010 A 
ATOM     33  C   UNL A   1      41.197  22.991  28.142  1.00  0.00     0.010 A 
ATOM     34  C   UNL A   1      40.823  24.208  27.559  1.00  0.00    -0.014 A 
BRANCH  34  35
ATOM     35  C   UNL A   1      41.464  25.510  27.905  1.00  0.00     0.031 A 
ATOM     36  C   UNL A   1      42.817  25.895  27.358  1.00  0.00     0.074 A 
ATOM     37  C   UNL A   1      40.753  26.400  28.628  1.00  0.00     0.049 A 
ATOM     38  N   UNL A   1      43.459  27.028  27.493  1.00  0.00    -0.248 NA
ATOM     39  C   UNL A   1      43.549  24.891  26.570  1.00  0.00     0.031 C 
ATOM     40  C   UNL A   1      39.433  26.133  29.203  1.00  0.00     0.029 A 
ATOM     41  N   UNL A   1      40.994  27.711  28.953  1.00  0.00    -0.354 N 
ATOM     42  C   UNL A   1      44.677  26.864  26.836  1.00  0.00     0.074 A 
ATOM     43  C   UNL A   1      44.696  25.513  26.326  1.00  0.00     0.031 C 
ATOM     44  C   UNL A   1      38.932  27.269  29.700  1.00  0.00     0.029 A 
ATOM     45  C   UNL A   1      39.939  28.318  29.597  1.00  0.00     0.049 A 
ATOM     46  H   UNL A   1      41.838  28.174  28.744  1.00  0.00     0.167 HD
ATOM     47  C   UNL A   1      45.676  27.764  26.668  1.00  0.00     0.034 A 
ATOM     48  C   UNL A   1      39.793  29.572  30.073  1.00  0.00     0.034 A 
ATOM     49  C   UNL A   1      45.621  29.121  27.153  1.00  0.00     0.049 A 
ATOM     50  C   UNL A   1      40.922  30.545  29.884  1.00  0.00     0.074 A 
ATOM     51  C   UNL A   1      46.571  30.117  27.010  1.00  0.00     0.029 A 
ATOM     52  N   UNL A   1      44.564  29.679  27.861  1.00  0.00    -0.354 N 
ATOM     53  N   UNL A   1      42.056  30.374  29.245  1.00  0.00    -0.248 NA
ATOM     54  C   UNL A   1      40.768  31.876  30.486  1.00  0.00     0.031 C 
ATOM     55  C   UNL A   1      46.121  31.252  27.685  1.00  0.00     0.029 A 
ATOM     56  C   UNL A   1      44.855  30.995  28.186  1.00  0.00     0.049 A 
ATOM     57  H   UNL A   1      43.732  29.210  28.095  1.00  0.00     0.167 HD
ATOM     58  C   UNL A   1      42.749  31.572  29.366  1.00  0.00     0.074 A 
ATOM     59  C   UNL A   1      41.889  32.475  30.105  1.00  0.00     0.031 C 
ATOM     60  C   UNL A   1      43.990  31.889  28.920  1.00  0.00     0.034 A 
BRANCH  47  61
ATOM     61  C   UNL A   1      46.926  27.345  25.929  1.00  0.00     0.023 A 
ATOM     62  C   UNL A   1      47.121  27.753  24.594  1.00  0.00     0.031 A 
ATOM     63  C   UNL A   1      47.839  26.430  26.482  1.00  0.00     0.131 A 
ATOM     64  C   UNL A   1      48.178  27.215  23.847  1.00  0.00     0.055 A 
ATOM     65  C   UNL A   1      48.915  25.931  25.746  1.00  0.00     0.041 A 
ATOM     66  F   UNL A   1      47.697  26.007  27.749  1.00  0.00    -0.206 F 
ATOM     67  C   UNL A   1      49.079  26.312  24.417  1.00  0.00     0.022 A 
BRANCH  64  68
ATOM     68  S   UNL A   1      48.378  27.609  22.086  1.00  0.00     0.124 S 
ATOM     69  O   UNL A   1      48.632  26.290  21.511  1.00  0.00    -0.237 OA
ATOM     70  O   UNL A   1      47.084  28.195  21.754  1.00  0.00    -0.237 OA
ATOM     71  O   UNL A   1      49.513  28.526  22.059  1.00  0.00    -0.744 OA
ENDBRANCH  64  68
ENDBRANCH  47  61
BRANCH  48  72
ATOM     72  C   UNL A   1      38.513  29.946  30.744  1.00  0.00     0.023 A 
ATOM     73  C   UNL A   1      37.499  30.615  30.030  1.00  0.00     0.031 A 
ATOM     74  C   UNL A   1      38.342  29.777  32.127  1.00  0.00     0.131 A 
ATOM     75  C   UNL A   1      36.422  31.187  30.717  1.00  0.00     0.055 A 
ATOM     76  C   UNL A   1      37.217  30.269  32.794  1.00  0.00     0.041 A 
ATOM     77  F   UNL A   1      39.281  29.155  32.855  1.00  0.00    -0.206 F 
ATOM     78  C   UNL A   1      36.263  31.001  32.092  1.00  0.00     0.022 A 
BRANCH  75  79
ATOM     79  S   UNL A   1      35.302  32.344  29.877  1.00  0.00     0.124 S 
ATOM     80  O   UNL A   1      34.767  31.519  28.798  1.00  0.00    -0.237 OA
ATOM     81  O   UNL A   1      34.361  32.677  30.944  1.00  0.00    -0.237 OA
ATOM     82  O   UNL A   1      36.179  33.434  29.466  1.00  0.00    -0.744 OA
ENDBRANCH  75  79
ENDBRANCH  48  72
BRANCH  60  83
ATOM     83  C   UNL A   1      44.528  33.267  29.215  1.00  0.00     0.023 A 
ATOM     84  C   UNL A   1      44.159  34.358  28.404  1.00  0.00     0.031 A 
ATOM     85  C   UNL A   1      45.514  33.469  30.196  1.00  0.00     0.131 A 
ATOM     86  C   UNL A   1      44.806  35.589  28.559  1.00  0.00     0.055 A 
ATOM     87  C   UNL A   1      46.120  34.713  30.379  1.00  0.00     0.041 A 
ATOM     88  F   UNL A   1      45.906  32.458  30.988  1.00  0.00    -0.206 F 
ATOM     89  C   UNL A   1      45.777  35.775  29.549  1.00  0.00     0.022 A 
BRANCH  86  90
ATOM     90  S   UNL A   1      44.477  36.969  27.427  1.00  0.00     0.124 S 
ATOM     91  O   UNL A   1      43.504  36.380  26.510  1.00  0.00    -0.237 OA
ATOM     92  O   UNL A   1      43.947  37.987  28.330  1.00  0.00    -0.237 OA
ATOM     93  O   UNL A   1      45.781  37.264  26.844  1.00  0.00    -0.744 OA
ENDBRANCH  86  90
ENDBRANCH  60  83
ENDBRANCH  34  35
ENDBRANCH  26  29
ENDBRANCH  24  25
ENDBRANCH   1  24
TORSDOF 16
ENDMDL
MODEL 2
REMARK VINA RESULT:     -12.6      5.056     10.202
REMARK SMILES Cc1[nH]c2ccc(Br)cc2c(=O)c1CCC(=O)NCCCCNC(=O)c1ccc(-c2c3nc(c(-c4cc(S(=O)(=O)[O-])ccc4F)c4ccc([nH]4)c(-c4cc(S(=O)(=O)[O-])ccc4F)c4nc(c(-c5cc(S(=O)(=O)[O-])ccc5F)c5ccc2[nH]5)C=C4)C=C3)cc1
REMARK SMILES IDX 21 1 20 2 19 3 18 4 16 5 17 6 15 8 14 9 13 10 1 11 2 12 3 13
REMARK SMILES IDX 4 14 11 16 5 17 10 18 12 19 6 20 9 21 7 22 8 23 22 24 23 25
REMARK SMILES IDX 24 26 25 28 26 29 27 30 88 31 28 32 87 33 29 34 30 35 31 36
REMARK SMILES IDX 81 37 32 38 86 39 80 40 82 41 33 42 85 43 79 44 78 45 34 47
REMARK SMILES IDX 66 48 46 49 65 50 47 51 50 52 64 53 83 54 48 55 49 56 63 58
REMARK SMILES IDX 84 59 51 60 35 61 36 62 44 63 37 64 43 65 45 66 42 67 38 68
REMARK SMILES IDX 39 69 40 70 41 71 67 72 68 73 76 74 69 75 75 76 77 77 74 78
REMARK SMILES IDX 70 79 71 80 72 81 73 82 52 83 53 84 61 85 54 86 60 87 62 88
REMARK SMILES IDX 59 89 55 90 56 91 57 92 58 93
REMARK H PARENT 18 7 3 15 23 27 82 46 50 57
REMARK Flexibility Score: inf
ROOT
ATOM      1  C   UNL A   1      31.793  29.984  25.582  1.00  0.00     0.023 C 
ENDROOT
BRANCH   1   2
ATOM      2  C   UNL A   1      32.032  28.519  25.271  1.00  0.00     0.023 C 
BRANCH   2   3
ATOM      3  C   UNL A   1      32.152  27.607  26.483  1.00  0.00     0.116 C 
BRANCH   3   4
ATOM      4  N   UNL A   1      32.994  26.470  26.165  1.00  0.00    -0.356 N 
ATOM      5  C   UNL A   1      32.647  25.154  26.050  1.00  0.00     0.220 C 
ATOM      6  O   UNL A   1      33.539  24.311  25.952  1.00  0.00    -0.275 OA
ATOM      7  H   UNL A   1      33.946  26.674  26.011  1.00  0.00     0.163 HD
BRANCH   5   8
ATOM      8  C   UNL A   1      31.185  24.753  25.966  1.00  0.00     0.105 C 
BRANCH   8   9
ATOM      9  C   UNL A   1      30.683  24.428  24.550  1.00  0.00     0.051 C 
BRANCH   9  10
ATOM     10  C   UNL A   1      30.605  25.623  23.620  1.00  0.00     0.020 A 
ATOM     11  C   UNL A   1      32.660  25.051  22.301  1.00  0.00     0.064 C 
ATOM     12  C   UNL A   1      31.501  25.951  22.658  1.00  0.00     0.019 A 
ATOM     13  N   UNL A   1      31.430  27.137  21.951  1.00  0.00    -0.358 N 
ATOM     14  C   UNL A   1      30.484  28.126  22.240  1.00  0.00     0.050 A 
ATOM     15  H   UNL A   1      32.068  27.291  21.218  1.00  0.00     0.166 HD
ATOM     16  C   UNL A   1      29.385  26.497  23.739  1.00  0.00     0.192 A 
ATOM     17  C   UNL A   1      30.628  29.429  21.759  1.00  0.00     0.028 A 
ATOM     18  C   UNL A   1      29.430  27.842  23.116  1.00  0.00     0.047 A 
ATOM     19  O   UNL A   1      28.404  26.147  24.384  1.00  0.00    -0.289 OA
ATOM     20  C   UNL A   1      29.729  30.428  22.149  1.00  0.00     0.018 A 
ATOM     21  C   UNL A   1      28.508  28.826  23.488  1.00  0.00     0.030 A 
ATOM     22  C   UNL A   1      28.673  30.122  23.007  1.00  0.00     0.018 A 
ATOM     23  Br  UNL A   1      27.489  31.485  23.564  1.00  0.00    -0.051 Br
ENDBRANCH   9  10
ENDBRANCH   8   9
ENDBRANCH   5   8
ENDBRANCH   3   4
ENDBRANCH   2   3
ENDBRANCH   1   2
BRANCH   1  24
ATOM     24  C   UNL A   1      32.168  30.379  26.999  1.00  0.00     0.116 C 
BRANCH  24  25
ATOM     25  N   UNL A   1      32.115  31.820  27.259  1.00  0.00    -0.352 N 
ATOM     26  C   UNL A   1      33.103  32.708  27.634  1.00  0.00     0.251 C 
ATOM     27  H   UNL A   1      31.224  32.223  27.147  1.00  0.00     0.163 HD
ATOM     28  O   UNL A   1      32.818  33.883  27.852  1.00  0.00    -0.269 OA
BRANCH  26  29
ATOM     29  C   UNL A   1      34.483  32.220  27.842  1.00  0.00     0.039 A 
ATOM     30  C   UNL A   1      34.717  30.865  28.035  1.00  0.00     0.014 A 
ATOM     31  C   UNL A   1      35.533  33.133  27.980  1.00  0.00     0.014 A 
ATOM     32  C   UNL A   1      35.868  30.474  28.695  1.00  0.00     0.010 A 
ATOM     33  C   UNL A   1      36.766  32.701  28.484  1.00  0.00     0.010 A 
ATOM     34  C   UNL A   1      36.913  31.383  28.937  1.00  0.00    -0.014 A 
BRANCH  34  35
ATOM     35  C   UNL A   1      38.120  30.902  29.669  1.00  0.00     0.031 A 
ATOM     36  C   UNL A   1      38.357  31.249  31.118  1.00  0.00     0.074 A 
ATOM     37  C   UNL A   1      38.948  30.042  29.040  1.00  0.00     0.049 A 
ATOM     38  N   UNL A   1      39.308  30.829  31.914  1.00  0.00    -0.248 NA
ATOM     39  C   UNL A   1      37.422  32.187  31.760  1.00  0.00     0.031 C 
ATOM     40  C   UNL A   1      38.810  29.635  27.640  1.00  0.00     0.029 A 
ATOM     41  N   UNL A   1      40.016  29.309  29.491  1.00  0.00    -0.354 N 
ATOM     42  C   UNL A   1      39.106  31.470  33.133  1.00  0.00     0.074 A 
ATOM     43  C   UNL A   1      37.956  32.329  32.967  1.00  0.00     0.031 C 
ATOM     44  C   UNL A   1      39.673  28.646  27.382  1.00  0.00     0.029 A 
ATOM     45  C   UNL A   1      40.514  28.431  28.554  1.00  0.00     0.049 A 
ATOM     46  H   UNL A   1      40.391  29.402  30.398  1.00  0.00     0.167 HD
ATOM     47  C   UNL A   1      39.810  31.342  34.284  1.00  0.00     0.034 A 
ATOM     48  C   UNL A   1      41.541  27.559  28.613  1.00  0.00     0.034 A 
ATOM     49  C   UNL A   1      40.932  30.449  34.441  1.00  0.00     0.049 A 
ATOM     50  C   UNL A   1      42.312  27.446  29.898  1.00  0.00     0.074 A 
ATOM     51  C   UNL A   1      41.693  30.228  35.575  1.00  0.00     0.029 A 
ATOM     52  N   UNL A   1      41.448  29.625  33.449  1.00  0.00    -0.354 N 
ATOM     53  N   UNL A   1      42.092  28.048  31.043  1.00  0.00    -0.248 NA
ATOM     54  C   UNL A   1      43.476  26.551  29.905  1.00  0.00     0.031 C 
ATOM     55  C   UNL A   1      42.707  29.325  35.253  1.00  0.00     0.029 A 
ATOM     56  C   UNL A   1      42.536  28.920  33.939  1.00  0.00     0.049 A 
ATOM     57  H   UNL A   1      41.093  29.553  32.534  1.00  0.00     0.167 HD
ATOM     58  C   UNL A   1      43.087  27.605  31.906  1.00  0.00     0.074 A 
ATOM     59  C   UNL A   1      43.885  26.652  31.162  1.00  0.00     0.031 C 
ATOM     60  C   UNL A   1      43.324  27.968  33.191  1.00  0.00     0.034 A 
BRANCH  47  61
ATOM     61  C   UNL A   1      39.410  32.166  35.486  1.00  0.00     0.023 A 
ATOM     62  C   UNL A   1      38.670  31.574  36.529  1.00  0.00     0.031 A 
ATOM     63  C   UNL A   1      39.624  33.555  35.533  1.00  0.00     0.131 A 
ATOM     64  C   UNL A   1      38.137  32.372  37.549  1.00  0.00     0.055 A 
ATOM     65  C   UNL A   1      39.127  34.340  36.575  1.00  0.00     0.041 A 
ATOM     66  F   UNL A   1      40.321  34.170  34.563  1.00  0.00    -0.206 F 
ATOM     67  C   UNL A   1      38.366  33.751  37.581  1.00  0.00     0.022 A 
BRANCH  64  68
ATOM     68  S   UNL A   1      37.062  31.666  38.830  1.00  0.00     0.124 S 
ATOM     69  O   UNL A   1      36.893  30.294  38.358  1.00  0.00    -0.237 OA
ATOM     70  O   UNL A   1      37.880  31.815  40.031  1.00  0.00    -0.237 OA
ATOM     71  O   UNL A   1      35.862  32.493  38.777  1.00  0.00    -0.744 OA
ENDBRANCH  64  68
ENDBRANCH  47  61
BRANCH  48  72
ATOM     72  C   UNL A   1      41.853  26.728  27.412  1.00  0.00     0.023 A 
ATOM     73  C   UNL A   1      41.446  25.381  27.347  1.00  0.00     0.031 A 
ATOM     74  C   UNL A   1      42.682  27.215  26.388  1.00  0.00     0.131 A 
ATOM     75  C   UNL A   1      41.957  24.544  26.348  1.00  0.00     0.055 A 
ATOM     76  C   UNL A   1      43.113  26.398  25.341  1.00  0.00     0.041 A 
ATOM     77  F   UNL A   1      43.105  28.488  26.408  1.00  0.00    -0.206 F 
ATOM     78  C   UNL A   1      42.773  25.048  25.333  1.00  0.00     0.022 A 
BRANCH  75  79
ATOM     79  S   UNL A   1      41.731  22.745  26.449  1.00  0.00     0.124 S 
ATOM     80  O   UNL A   1      42.433  22.420  27.687  1.00  0.00    -0.237 OA
ATOM     81  O   UNL A   1      40.275  22.629  26.500  1.00  0.00    -0.237 OA
ATOM     82  O   UNL A   1      42.347  22.251  25.223  1.00  0.00    -0.744 OA
ENDBRANCH  75  79
ENDBRANCH  48  72
BRANCH  60  83
ATOM     83  C   UNL A   1      44.504  27.353  33.903  1.00  0.00     0.023 A 
ATOM     84  C   UNL A   1      44.318  26.242  34.748  1.00  0.00     0.031 A 
ATOM     85  C   UNL A   1      45.774  27.955  33.863  1.00  0.00     0.131 A 
ATOM     86  C   UNL A   1      45.373  25.797  35.553  1.00  0.00     0.055 A 
ATOM     87  C   UNL A   1      46.835  27.475  34.631  1.00  0.00     0.041 A 
ATOM     88  F   UNL A   1      45.998  29.022  33.080  1.00  0.00    -0.206 F 
ATOM     89  C   UNL A   1      46.633  26.401  35.492  1.00  0.00     0.022 A 
BRANCH  86  90
ATOM     90  S   UNL A   1      45.126  24.477  36.773  1.00  0.00     0.124 S 
ATOM     91  O   UNL A   1      43.885  24.894  37.422  1.00  0.00    -0.237 OA
ATOM     92  O   UNL A   1      45.020  23.292  35.926  1.00  0.00    -0.237 OA
ATOM     93  O   UNL A   1      46.318  24.545  37.611  1.00  0.00    -0.744 OA
ENDBRANCH  86  90
ENDBRANCH  60  83
ENDBRANCH  34  35
ENDBRANCH  26  29
ENDBRANCH  24  25
ENDBRANCH   1  24
TORSDOF 16
ENDMDL
MODEL 3
REMARK VINA RESULT:     -12.4      5.219     10.340
REMARK SMILES Cc1[nH]c2ccc(Br)cc2c(=O)c1CCC(=O)NCCCCNC(=O)c1ccc(-c2c3nc(c(-c4cc(S(=O)(=O)[O-])ccc4F)c4ccc([nH]4)c(-c4cc(S(=O)(=O)[O-])ccc4F)c4nc(c(-c5cc(S(=O)(=O)[O-])ccc5F)c5ccc2[nH]5)C=C4)C=C3)cc1
REMARK SMILES IDX 21 1 20 2 19 3 18 4 16 5 17 6 15 8 14 9 13 10 1 11 2 12 3 13
REMARK SMILES IDX 4 14 11 16 5 17 10 18 12 19 6 20 9 21 7 22 8 23 22 24 23 25
REMARK SMILES IDX 24 26 25 28 26 29 27 30 88 31 28 32 87 33 29 34 30 35 31 36
REMARK SMILES IDX 81 37 32 38 86 39 80 40 82 41 33 42 85 43 79 44 78 45 34 47
REMARK SMILES IDX 66 48 46 49 65 50 47 51 50 52 64 53 83 54 48 55 49 56 63 58
REMARK SMILES IDX 84 59 51 60 35 61 36 62 44 63 37 64 43 65 45 66 42 67 38 68
REMARK SMILES IDX 39 69 40 70 41 71 67 72 68 73 76 74 69 75 75 76 77 77 74 78
REMARK SMILES IDX 70 79 71 80 72 81 73 82 52 83 53 84 61 85 54 86 60 87 62 88
REMARK SMILES IDX 59 89 55 90 56 91 57 92 58 93
REMARK H PARENT 18 7 3 15 23 27 82 46 50 57
REMARK Flexibility Score: inf
ROOT
ATOM      1  C   UNL A   1      32.362  29.976  25.478  1.00  0.00     0.023 C 
ENDROOT
BRANCH   1   2
ATOM      2  C   UNL A   1      33.339  28.985  24.875  1.00  0.00     0.023 C 
BRANCH   2   3
ATOM      3  C   UNL A   1      33.366  28.939  23.355  1.00  0.00     0.116 C 
BRANCH   3   4
ATOM      4  N   UNL A   1      32.036  29.184  22.830  1.00  0.00    -0.356 N 
ATOM      5  C   UNL A   1      31.107  28.280  22.400  1.00  0.00     0.220 C 
ATOM      6  O   UNL A   1      30.104  28.691  21.818  1.00  0.00    -0.275 OA
ATOM      7  H   UNL A   1      31.767  30.130  22.774  1.00  0.00     0.163 HD
BRANCH   5   8
ATOM      8  C   UNL A   1      31.277  26.802  22.709  1.00  0.00     0.105 C 
BRANCH   8   9
ATOM      9  C   UNL A   1      30.213  26.211  23.648  1.00  0.00     0.051 C 
BRANCH   9  10
ATOM     10  C   UNL A   1      30.758  25.254  24.691  1.00  0.00     0.020 A 
ATOM     11  C   UNL A   1      30.769  26.911  26.574  1.00  0.00     0.064 C 
ATOM     12  C   UNL A   1      31.068  25.557  25.975  1.00  0.00     0.019 A 
ATOM     13  N   UNL A   1      31.695  24.660  26.819  1.00  0.00    -0.358 N 
ATOM     14  C   UNL A   1      32.138  23.406  26.384  1.00  0.00     0.050 A 
ATOM     15  H   UNL A   1      31.834  24.912  27.760  1.00  0.00     0.166 HD
ATOM     16  C   UNL A   1      30.915  23.815  24.277  1.00  0.00     0.192 A 
ATOM     17  C   UNL A   1      33.048  22.659  27.136  1.00  0.00     0.028 A 
ATOM     18  C   UNL A   1      31.755  22.935  25.124  1.00  0.00     0.047 A 
ATOM     19  O   UNL A   1      30.424  23.389  23.238  1.00  0.00    -0.289 OA
ATOM     20  C   UNL A   1      33.561  21.459  26.631  1.00  0.00     0.018 A 
ATOM     21  C   UNL A   1      32.239  21.721  24.623  1.00  0.00     0.030 A 
ATOM     22  C   UNL A   1      33.152  20.995  25.381  1.00  0.00     0.018 A 
ATOM     23  Br  UNL A   1      33.883  19.397  24.687  1.00  0.00    -0.051 Br
ENDBRANCH   9  10
ENDBRANCH   8   9
ENDBRANCH   5   8
ENDBRANCH   3   4
ENDBRANCH   2   3
ENDBRANCH   1   2
BRANCH   1  24
ATOM     24  C   UNL A   1      32.600  30.252  26.952  1.00  0.00     0.116 C 
BRANCH  24  25
ATOM     25  N   UNL A   1      32.567  31.671  27.314  1.00  0.00    -0.352 N 
ATOM     26  C   UNL A   1      33.568  32.515  27.754  1.00  0.00     0.251 C 
ATOM     27  H   UNL A   1      31.682  32.094  27.230  1.00  0.00     0.163 HD
ATOM     28  O   UNL A   1      33.299  33.676  28.055  1.00  0.00    -0.269 OA
BRANCH  26  29
ATOM     29  C   UNL A   1      34.940  31.993  27.928  1.00  0.00     0.039 A 
ATOM     30  C   UNL A   1      35.143  30.636  28.137  1.00  0.00     0.014 A 
ATOM     31  C   UNL A   1      36.017  32.880  28.018  1.00  0.00     0.014 A 
ATOM     32  C   UNL A   1      36.304  30.225  28.768  1.00  0.00     0.010 A 
ATOM     33  C   UNL A   1      37.253  32.423  28.492  1.00  0.00     0.010 A 
ATOM     34  C   UNL A   1      37.379  31.110  28.962  1.00  0.00    -0.014 A 
BRANCH  34  35
ATOM     35  C   UNL A   1      38.595  30.608  29.665  1.00  0.00     0.031 A 
ATOM     36  C   UNL A   1      38.893  30.983  31.096  1.00  0.00     0.074 A 
ATOM     37  C   UNL A   1      39.373  29.706  29.031  1.00  0.00     0.049 A 
ATOM     38  N   UNL A   1      39.858  30.552  31.869  1.00  0.00    -0.248 NA
ATOM     39  C   UNL A   1      38.011  31.966  31.745  1.00  0.00     0.031 C 
ATOM     40  C   UNL A   1      39.174  29.268  27.648  1.00  0.00     0.029 A 
ATOM     41  N   UNL A   1      40.433  28.950  29.465  1.00  0.00    -0.354 N 
ATOM     42  C   UNL A   1      39.718  31.230  33.078  1.00  0.00     0.074 A 
ATOM     43  C   UNL A   1      38.591  32.121  32.928  1.00  0.00     0.031 C 
ATOM     44  C   UNL A   1      39.996  28.246  27.387  1.00  0.00     0.029 A 
ATOM     45  C   UNL A   1      40.870  28.034  28.535  1.00  0.00     0.049 A 
ATOM     46  H   UNL A   1      40.842  29.053  30.356  1.00  0.00     0.167 HD
ATOM     47  C   UNL A   1      40.457  31.108  34.207  1.00  0.00     0.034 A 
ATOM     48  C   UNL A   1      41.870  27.130  28.581  1.00  0.00     0.034 A 
ATOM     49  C   UNL A   1      41.555  30.183  34.349  1.00  0.00     0.049 A 
ATOM     50  C   UNL A   1      42.681  27.025  29.842  1.00  0.00     0.074 A 
ATOM     51  C   UNL A   1      42.347  29.966  35.463  1.00  0.00     0.029 A 
ATOM     52  N   UNL A   1      42.010  29.319  33.362  1.00  0.00    -0.354 N 
ATOM     53  N   UNL A   1      42.520  27.662  30.978  1.00  0.00    -0.248 NA
ATOM     54  C   UNL A   1      43.816  26.092  29.833  1.00  0.00     0.031 C 
ATOM     55  C   UNL A   1      43.321  29.023  35.130  1.00  0.00     0.029 A 
ATOM     56  C   UNL A   1      43.092  28.591  33.833  1.00  0.00     0.049 A 
ATOM     57  H   UNL A   1      41.622  29.235  32.462  1.00  0.00     0.167 HD
ATOM     58  C   UNL A   1      43.530  27.209  31.818  1.00  0.00     0.074 A 
ATOM     59  C   UNL A   1      44.272  26.212  31.073  1.00  0.00     0.031 C 
ATOM     60  C   UNL A   1      43.823  27.595  33.085  1.00  0.00     0.034 A 
BRANCH  47  61
ATOM     61  C   UNL A   1      40.125  31.975  35.400  1.00  0.00     0.023 A 
ATOM     62  C   UNL A   1      39.181  31.532  36.349  1.00  0.00     0.031 A 
ATOM     63  C   UNL A   1      40.620  33.285  35.520  1.00  0.00     0.131 A 
ATOM     64  C   UNL A   1      38.732  32.405  37.347  1.00  0.00     0.055 A 
ATOM     65  C   UNL A   1      40.200  34.137  36.544  1.00  0.00     0.041 A 
ATOM     66  F   UNL A   1      41.519  33.758  34.642  1.00  0.00    -0.206 F 
ATOM     67  C   UNL A   1      39.241  33.703  37.454  1.00  0.00     0.022 A 
BRANCH  64  68
ATOM     68  S   UNL A   1      37.416  31.918  38.499  1.00  0.00     0.124 S 
ATOM     69  O   UNL A   1      38.078  32.072  39.793  1.00  0.00    -0.237 OA
ATOM     70  O   UNL A   1      36.377  32.902  38.211  1.00  0.00    -0.237 OA
ATOM     71  O   UNL A   1      37.108  30.544  38.120  1.00  0.00    -0.744 OA
ENDBRANCH  64  68
ENDBRANCH  47  61
BRANCH  48  72
ATOM     72  C   UNL A   1      42.114  26.260  27.393  1.00  0.00     0.023 A 
ATOM     73  C   UNL A   1      41.695  24.915  27.391  1.00  0.00     0.031 A 
ATOM     74  C   UNL A   1      42.891  26.708  26.313  1.00  0.00     0.131 A 
ATOM     75  C   UNL A   1      42.148  24.043  26.394  1.00  0.00     0.055 A 
ATOM     76  C   UNL A   1      43.262  25.855  25.271  1.00  0.00     0.041 A 
ATOM     77  F   UNL A   1      43.323  27.977  26.270  1.00  0.00    -0.206 F 
ATOM     78  C   UNL A   1      42.913  24.508  25.322  1.00  0.00     0.022 A 
BRANCH  75  79
ATOM     79  S   UNL A   1      41.917  22.250  26.564  1.00  0.00     0.124 S 
ATOM     80  O   UNL A   1      43.071  21.725  25.841  1.00  0.00    -0.237 OA
ATOM     81  O   UNL A   1      41.950  22.080  28.015  1.00  0.00    -0.237 OA
ATOM     82  O   UNL A   1      40.618  22.010  25.945  1.00  0.00    -0.744 OA
ENDBRANCH  75  79
ENDBRANCH  48  72
BRANCH  60  83
ATOM     83  C   UNL A   1      45.007  26.960  33.772  1.00  0.00     0.023 A 
ATOM     84  C   UNL A   1      44.826  25.826  34.587  1.00  0.00     0.031 A 
ATOM     85  C   UNL A   1      46.276  27.563  33.741  1.00  0.00     0.131 A 
ATOM     86  C   UNL A   1      45.885  25.358  35.372  1.00  0.00     0.055 A 
ATOM     87  C   UNL A   1      47.343  27.062  34.489  1.00  0.00     0.041 A 
ATOM     88  F   UNL A   1      46.497  28.652  32.987  1.00  0.00    -0.206 F 
ATOM     89  C   UNL A   1      47.145  25.964  35.320  1.00  0.00     0.022 A 
BRANCH  86  90
ATOM     90  S   UNL A   1      45.645  24.004  36.556  1.00  0.00     0.124 S 
ATOM     91  O   UNL A   1      44.849  23.060  35.776  1.00  0.00    -0.237 OA
ATOM     92  O   UNL A   1      47.018  23.587  36.828  1.00  0.00    -0.237 OA
ATOM     93  O   UNL A   1      44.947  24.632  37.672  1.00  0.00    -0.744 OA
ENDBRANCH  86  90
ENDBRANCH  60  83
ENDBRANCH  34  35
ENDBRANCH  26  29
ENDBRANCH  24  25
ENDBRANCH   1  24
TORSDOF 16
ENDMDL
