MODEL 1
REMARK VINA RESULT:     -12.3      0.000      0.000
REMARK SMILES O=C(C[C@@H](C(=O)NCCCCNC(=O)c1ccc(-c2c3nc(c(-c4cc(S(=O)(=O)[O-])ccc4F)c4ccc([nH]4)c(-c4cc(S(=O)(=O)[O-])ccc4F)c4nc(c(-c5cc(S(=O)(=O)[O-])ccc5F)c5ccc2[nH]5)C=C4)C=C3)cc1)c1ccccc1)Nc1cc(C(F)(F)F)ccc1-n1cncn1
REMARK SMILES IDX 9 1 8 2 7 3 5 4 6 5 4 7 3 8 2 9 1 10 84 11 85 13 86 14 94 15
REMARK SMILES IDX 87 16 93 17 92 18 95 19 96 20 99 21 97 22 98 23 88 24 89 25
REMARK SMILES IDX 90 26 91 27 78 28 79 29 83 30 80 31 82 32 81 33 10 34 11 35
REMARK SMILES IDX 12 36 13 37 14 39 15 40 16 41 77 42 17 43 76 44 18 45 19 46
REMARK SMILES IDX 20 47 70 48 21 49 75 50 69 51 71 52 22 53 74 54 68 55 67 56
REMARK SMILES IDX 23 58 55 59 35 60 54 61 36 62 39 63 53 64 72 65 37 66 38 67
REMARK SMILES IDX 52 69 73 70 40 71 24 72 25 73 33 74 26 75 32 76 34 77 31 78
REMARK SMILES IDX 27 79 28 80 29 81 30 82 56 83 57 84 65 85 58 86 64 87 66 88
REMARK SMILES IDX 63 89 59 90 60 91 61 92 62 93 41 94 42 95 50 96 43 97 49 98
REMARK SMILES IDX 51 99 48 100 44 101 45 102 46 103 47 104
REMARK H PARENT 7 6 84 12 12 38 71 57 39 68
REMARK Flexibility Score: inf
ROOT
ATOM      1  C   UNL A   1      31.562  30.151  26.383  1.00  0.00     0.023 C 
ENDROOT
BRANCH   1   2
ATOM      2  C   UNL A   1      32.673  29.327  25.734  1.00  0.00     0.116 C 
BRANCH   2   3
ATOM      3  N   UNL A   1      32.756  29.714  24.337  1.00  0.00    -0.356 N 
ATOM      4  C   UNL A   1      32.613  28.833  23.298  1.00  0.00     0.228 C 
ATOM      5  O   UNL A   1      33.425  28.889  22.372  1.00  0.00    -0.274 OA
ATOM      6  H   UNL A   1      32.925  30.660  24.127  1.00  0.00     0.163 HD
BRANCH   4   7
ATOM      7  C   UNL A   1      31.421  27.857  23.288  1.00  0.00     0.118 C 
BRANCH   7   8
ATOM      8  C   UNL A   1      31.795  26.685  22.357  1.00  0.00     0.118 C 
BRANCH   8   9
ATOM      9  C   UNL A   1      32.238  25.424  23.077  1.00  0.00     0.225 C 
ATOM     10  O   UNL A   1      32.115  24.319  22.557  1.00  0.00    -0.275 OA
ATOM     11  N   UNL A   1      32.793  25.647  24.330  1.00  0.00    -0.324 N 
ATOM     12  H   UNL A   1      32.725  26.553  24.713  1.00  0.00     0.170 HD
BRANCH  11  13
ATOM     13  C   UNL A   1      33.456  24.648  25.095  1.00  0.00     0.067 A 
ATOM     14  C   UNL A   1      34.751  24.308  24.681  1.00  0.00     0.041 A 
ATOM     15  C   UNL A   1      32.934  24.020  26.241  1.00  0.00     0.090 A 
ATOM     16  C   UNL A   1      35.569  23.457  25.444  1.00  0.00     0.058 A 
ATOM     17  C   UNL A   1      33.762  23.206  27.039  1.00  0.00     0.031 A 
ATOM     18  C   UNL A   1      35.073  22.931  26.641  1.00  0.00     0.015 A 
BRANCH  15  19
ATOM     19  N   UNL A   1      31.544  24.008  26.517  1.00  0.00    -0.219 N 
ATOM     20  C   UNL A   1      30.806  22.970  27.041  1.00  0.00     0.226 A 
ATOM     21  N   UNL A   1      30.770  25.124  26.498  1.00  0.00    -0.155 NA
ATOM     22  N   UNL A   1      29.555  23.327  27.217  1.00  0.00    -0.223 NA
ATOM     23  C   UNL A   1      29.578  24.638  26.848  1.00  0.00     0.246 A 
ENDBRANCH  15  19
BRANCH  16  24
ATOM     24  C   UNL A   1      36.962  23.139  24.954  1.00  0.00     0.416 C 
ATOM     25  F   UNL A   1      37.861  24.084  25.349  1.00  0.00    -0.166 F 
ATOM     26  F   UNL A   1      37.428  21.965  25.455  1.00  0.00    -0.166 F 
ATOM     27  F   UNL A   1      37.070  23.059  23.602  1.00  0.00    -0.166 F 
ENDBRANCH  16  24
ENDBRANCH  11  13
ENDBRANCH   8   9
ENDBRANCH   7   8
BRANCH   7  28
ATOM     28  C   UNL A   1      30.170  28.643  22.838  1.00  0.00    -0.035 A 
ATOM     29  C   UNL A   1      30.232  29.820  22.075  1.00  0.00     0.004 A 
ATOM     30  C   UNL A   1      28.889  28.189  23.220  1.00  0.00     0.004 A 
ATOM     31  C   UNL A   1      29.078  30.557  21.787  1.00  0.00     0.000 A 
ATOM     32  C   UNL A   1      27.739  28.934  22.944  1.00  0.00     0.000 A 
ATOM     33  C   UNL A   1      27.835  30.127  22.239  1.00  0.00     0.000 A 
ENDBRANCH   7  28
ENDBRANCH   4   7
ENDBRANCH   2   3
ENDBRANCH   1   2
BRANCH   1  34
ATOM     34  C   UNL A   1      32.055  31.303  27.240  1.00  0.00     0.023 C 
BRANCH  34  35
ATOM     35  C   UNL A   1      32.289  32.567  26.433  1.00  0.00     0.116 C 
BRANCH  35  36
ATOM     36  N   UNL A   1      32.383  33.774  27.251  1.00  0.00    -0.352 N 
ATOM     37  C   UNL A   1      33.241  34.186  28.251  1.00  0.00     0.251 C 
ATOM     38  H   UNL A   1      31.683  34.435  27.047  1.00  0.00     0.163 HD
ATOM     39  O   UNL A   1      32.995  35.234  28.834  1.00  0.00    -0.269 OA
BRANCH  37  40
ATOM     40  C   UNL A   1      34.394  33.359  28.687  1.00  0.00     0.039 A 
ATOM     41  C   UNL A   1      35.689  33.891  28.609  1.00  0.00     0.014 A 
ATOM     42  C   UNL A   1      34.226  32.084  29.202  1.00  0.00     0.014 A 
ATOM     43  C   UNL A   1      36.774  33.199  29.166  1.00  0.00     0.010 A 
ATOM     44  C   UNL A   1      35.258  31.473  29.893  1.00  0.00     0.010 A 
ATOM     45  C   UNL A   1      36.556  32.004  29.859  1.00  0.00    -0.014 A 
BRANCH  45  46
ATOM     46  C   UNL A   1      37.643  31.173  30.445  1.00  0.00     0.031 A 
ATOM     47  C   UNL A   1      38.055  31.467  31.867  1.00  0.00     0.074 A 
ATOM     48  C   UNL A   1      38.333  30.284  29.707  1.00  0.00     0.049 A 
ATOM     49  N   UNL A   1      39.161  31.167  32.494  1.00  0.00    -0.248 NA
ATOM     50  C   UNL A   1      37.122  32.293  32.653  1.00  0.00     0.031 C 
ATOM     51  C   UNL A   1      38.050  29.918  28.319  1.00  0.00     0.029 A 
ATOM     52  N   UNL A   1      39.446  29.542  30.024  1.00  0.00    -0.354 N 
ATOM     53  C   UNL A   1      39.079  31.820  33.721  1.00  0.00     0.074 A 
ATOM     54  C   UNL A   1      37.863  32.601  33.704  1.00  0.00     0.031 C 
ATOM     55  C   UNL A   1      38.961  29.017  27.908  1.00  0.00     0.029 A 
ATOM     56  C   UNL A   1      39.923  28.783  28.981  1.00  0.00     0.049 A 
ATOM     57  H   UNL A   1      39.862  29.554  30.916  1.00  0.00     0.167 HD
ATOM     58  C   UNL A   1      39.921  31.745  34.781  1.00  0.00     0.034 A 
ATOM     59  C   UNL A   1      41.027  28.010  28.901  1.00  0.00     0.034 A 
ATOM     60  C   UNL A   1      41.084  30.899  34.806  1.00  0.00     0.049 A 
ATOM     61  C   UNL A   1      41.936  27.916  30.108  1.00  0.00     0.074 A 
ATOM     62  C   UNL A   1      41.990  30.705  35.832  1.00  0.00     0.029 A 
ATOM     63  N   UNL A   1      41.483  30.077  33.760  1.00  0.00    -0.354 N 
ATOM     64  N   UNL A   1      41.853  28.540  31.261  1.00  0.00    -0.248 NA
ATOM     65  C   UNL A   1      43.082  27.001  30.007  1.00  0.00     0.031 C 
ATOM     66  C   UNL A   1      42.955  29.792  35.396  1.00  0.00     0.029 A 
ATOM     67  C   UNL A   1      42.615  29.368  34.120  1.00  0.00     0.049 A 
ATOM     68  H   UNL A   1      41.027  30.009  32.890  1.00  0.00     0.167 HD
ATOM     69  C   UNL A   1      42.903  28.052  32.035  1.00  0.00     0.074 A 
ATOM     70  C   UNL A   1      43.599  27.077  31.223  1.00  0.00     0.031 C 
ATOM     71  C   UNL A   1      43.266  28.375  33.302  1.00  0.00     0.034 A 
BRANCH  58  72
ATOM     72  C   UNL A   1      39.593  32.590  35.987  1.00  0.00     0.023 A 
ATOM     73  C   UNL A   1      38.790  32.096  37.030  1.00  0.00     0.031 A 
ATOM     74  C   UNL A   1      40.045  33.918  36.078  1.00  0.00     0.131 A 
ATOM     75  C   UNL A   1      38.384  32.949  38.066  1.00  0.00     0.055 A 
ATOM     76  C   UNL A   1      39.718  34.733  37.164  1.00  0.00     0.041 A 
ATOM     77  F   UNL A   1      40.798  34.454  35.104  1.00  0.00    -0.206 F 
ATOM     78  C   UNL A   1      38.868  34.255  38.158  1.00  0.00     0.022 A 
BRANCH  75  79
ATOM     79  S   UNL A   1      37.096  32.370  39.202  1.00  0.00     0.124 S 
ATOM     80  O   UNL A   1      35.883  32.706  38.460  1.00  0.00    -0.237 OA
ATOM     81  O   UNL A   1      37.395  30.947  39.324  1.00  0.00    -0.237 OA
ATOM     82  O   UNL A   1      37.321  33.163  40.408  1.00  0.00    -0.744 OA
ENDBRANCH  75  79
ENDBRANCH  58  72
BRANCH  59  83
ATOM     83  C   UNL A   1      41.361  27.266  27.649  1.00  0.00     0.023 A 
ATOM     84  C   UNL A   1      41.256  25.866  27.599  1.00  0.00     0.031 A 
ATOM     85  C   UNL A   1      41.879  27.925  26.521  1.00  0.00     0.131 A 
ATOM     86  C   UNL A   1      41.739  25.165  26.484  1.00  0.00     0.055 A 
ATOM     87  C   UNL A   1      42.296  27.226  25.385  1.00  0.00     0.041 A 
ATOM     88  F   UNL A   1      41.998  29.262  26.509  1.00  0.00    -0.206 F 
ATOM     89  C   UNL A   1      42.247  25.835  25.371  1.00  0.00     0.022 A 
BRANCH  86  90
ATOM     90  S   UNL A   1      41.820  23.353  26.571  1.00  0.00     0.124 S 
ATOM     91  O   UNL A   1      42.610  23.036  25.387  1.00  0.00    -0.237 OA
ATOM     92  O   UNL A   1      42.476  23.141  27.856  1.00  0.00    -0.237 OA
ATOM     93  O   UNL A   1      40.418  22.948  26.513  1.00  0.00    -0.744 OA
ENDBRANCH  86  90
ENDBRANCH  59  83
BRANCH  71  94
ATOM     94  C   UNL A   1      44.404  27.600  33.917  1.00  0.00     0.023 A 
ATOM     95  C   UNL A   1      44.190  26.442  34.682  1.00  0.00     0.031 A 
ATOM     96  C   UNL A   1      45.729  28.031  33.720  1.00  0.00     0.131 A 
ATOM     97  C   UNL A   1      45.282  25.783  35.268  1.00  0.00     0.055 A 
ATOM     98  C   UNL A   1      46.814  27.337  34.255  1.00  0.00     0.041 A 
ATOM     99  F   UNL A   1      45.989  29.131  32.994  1.00  0.00    -0.206 F 
ATOM    100  C   UNL A   1      46.593  26.214  35.045  1.00  0.00     0.022 A 
BRANCH  97 101
ATOM    101  S   UNL A   1      44.961  24.400  36.396  1.00  0.00     0.124 S 
ATOM    102  O   UNL A   1      43.855  24.913  37.199  1.00  0.00    -0.237 OA
ATOM    103  O   UNL A   1      44.630  23.317  35.475  1.00  0.00    -0.237 OA
ATOM    104  O   UNL A   1      46.225  24.240  37.111  1.00  0.00    -0.744 OA
ENDBRANCH  97 101
ENDBRANCH  71  94
ENDBRANCH  45  46
ENDBRANCH  37  40
ENDBRANCH  35  36
ENDBRANCH  34  35
ENDBRANCH   1  34
TORSDOF 20
ENDMDL
MODEL 2
REMARK VINA RESULT:     -12.2      3.514      4.155
REMARK SMILES O=C(C[C@@H](C(=O)NCCCCNC(=O)c1ccc(-c2c3nc(c(-c4cc(S(=O)(=O)[O-])ccc4F)c4ccc([nH]4)c(-c4cc(S(=O)(=O)[O-])ccc4F)c4nc(c(-c5cc(S(=O)(=O)[O-])ccc5F)c5ccc2[nH]5)C=C4)C=C3)cc1)c1ccccc1)Nc1cc(C(F)(F)F)ccc1-n1cncn1
REMARK SMILES IDX 9 1 8 2 7 3 5 4 6 5 4 7 3 8 2 9 1 10 84 11 85 13 86 14 94 15
REMARK SMILES IDX 87 16 93 17 92 18 95 19 96 20 99 21 97 22 98 23 88 24 89 25
REMARK SMILES IDX 90 26 91 27 78 28 79 29 83 30 80 31 82 32 81 33 10 34 11 35
REMARK SMILES IDX 12 36 13 37 14 39 15 40 16 41 77 42 17 43 76 44 18 45 19 46
REMARK SMILES IDX 20 47 70 48 21 49 75 50 69 51 71 52 22 53 74 54 68 55 67 56
REMARK SMILES IDX 23 58 55 59 35 60 54 61 36 62 39 63 53 64 72 65 37 66 38 67
REMARK SMILES IDX 52 69 73 70 40 71 24 72 25 73 33 74 26 75 32 76 34 77 31 78
REMARK SMILES IDX 27 79 28 80 29 81 30 82 56 83 57 84 65 85 58 86 64 87 66 88
REMARK SMILES IDX 63 89 59 90 60 91 61 92 62 93 41 94 42 95 50 96 43 97 49 98
REMARK SMILES IDX 51 99 48 100 44 101 45 102 46 103 47 104
REMARK H PARENT 7 6 84 12 12 38 71 57 39 68
REMARK Flexibility Score: inf
ROOT
ATOM      1  C   UNL A   1      34.357  28.186  26.682  1.00  0.00     0.023 C 
ENDROOT
BRANCH   1   2
ATOM      2  C   UNL A   1      33.688  27.231  25.694  1.00  0.00     0.116 C 
BRANCH   2   3
ATOM      3  N   UNL A   1      33.550  27.926  24.427  1.00  0.00    -0.356 N 
ATOM      4  C   UNL A   1      33.215  27.303  23.254  1.00  0.00     0.228 C 
ATOM      5  O   UNL A   1      33.865  27.577  22.243  1.00  0.00    -0.274 OA
ATOM      6  H   UNL A   1      33.707  28.897  24.411  1.00  0.00     0.163 HD
BRANCH   4   7
ATOM      7  C   UNL A   1      32.013  26.340  23.222  1.00  0.00     0.118 C 
BRANCH   7   8
ATOM      8  C   UNL A   1      32.259  25.336  22.076  1.00  0.00     0.118 C 
BRANCH   8   9
ATOM      9  C   UNL A   1      32.757  23.975  22.525  1.00  0.00     0.225 C 
ATOM     10  O   UNL A   1      33.954  23.758  22.685  1.00  0.00    -0.275 OA
ATOM     11  N   UNL A   1      31.751  23.043  22.745  1.00  0.00    -0.324 N 
ATOM     12  H   UNL A   1      30.836  23.273  22.461  1.00  0.00     0.170 HD
BRANCH  11  13
ATOM     13  C   UNL A   1      31.962  21.777  23.358  1.00  0.00     0.067 A 
ATOM     14  C   UNL A   1      32.038  20.676  22.495  1.00  0.00     0.041 A 
ATOM     15  C   UNL A   1      32.142  21.559  24.736  1.00  0.00     0.090 A 
ATOM     16  C   UNL A   1      32.403  19.399  22.957  1.00  0.00     0.058 A 
ATOM     17  C   UNL A   1      32.557  20.297  25.203  1.00  0.00     0.031 A 
ATOM     18  C   UNL A   1      32.689  19.226  24.316  1.00  0.00     0.015 A 
BRANCH  15  19
ATOM     19  N   UNL A   1      31.723  22.508  25.702  1.00  0.00    -0.219 N 
ATOM     20  C   UNL A   1      32.365  22.848  26.872  1.00  0.00     0.226 A 
ATOM     21  N   UNL A   1      30.709  23.387  25.493  1.00  0.00    -0.155 NA
ATOM     22  N   UNL A   1      31.722  23.804  27.499  1.00  0.00    -0.223 NA
ATOM     23  C   UNL A   1      30.708  24.081  26.632  1.00  0.00     0.246 A 
ENDBRANCH  15  19
BRANCH  16  24
ATOM     24  C   UNL A   1      32.483  18.254  21.976  1.00  0.00     0.416 C 
ATOM     25  F   UNL A   1      31.414  17.418  22.093  1.00  0.00    -0.166 F 
ATOM     26  F   UNL A   1      32.467  18.682  20.685  1.00  0.00    -0.166 F 
ATOM     27  F   UNL A   1      33.587  17.476  22.117  1.00  0.00    -0.166 F 
ENDBRANCH  16  24
ENDBRANCH  11  13
ENDBRANCH   8   9
ENDBRANCH   7   8
BRANCH   7  28
ATOM     28  C   UNL A   1      30.733  27.187  23.053  1.00  0.00    -0.035 A 
ATOM     29  C   UNL A   1      30.715  28.438  22.415  1.00  0.00     0.004 A 
ATOM     30  C   UNL A   1      29.512  26.714  23.580  1.00  0.00     0.004 A 
ATOM     31  C   UNL A   1      29.554  29.218  22.385  1.00  0.00     0.000 A 
ATOM     32  C   UNL A   1      28.356  27.501  23.562  1.00  0.00     0.000 A 
ATOM     33  C   UNL A   1      28.381  28.760  22.977  1.00  0.00     0.000 A 
ENDBRANCH   7  28
ENDBRANCH   4   7
ENDBRANCH   2   3
ENDBRANCH   1   2
BRANCH   1  34
ATOM     34  C   UNL A   1      33.452  29.289  27.198  1.00  0.00     0.023 C 
BRANCH  34  35
ATOM     35  C   UNL A   1      33.932  30.671  26.789  1.00  0.00     0.116 C 
BRANCH  35  36
ATOM     36  N   UNL A   1      33.899  31.646  27.877  1.00  0.00    -0.352 N 
ATOM     37  C   UNL A   1      34.716  31.896  28.962  1.00  0.00     0.251 C 
ATOM     38  H   UNL A   1      33.128  32.255  27.826  1.00  0.00     0.163 HD
ATOM     39  O   UNL A   1      34.361  32.737  29.776  1.00  0.00    -0.269 OA
BRANCH  37  40
ATOM     40  C   UNL A   1      35.958  31.121  29.204  1.00  0.00     0.039 A 
ATOM     41  C   UNL A   1      37.189  31.647  28.785  1.00  0.00     0.014 A 
ATOM     42  C   UNL A   1      35.943  29.903  29.864  1.00  0.00     0.014 A 
ATOM     43  C   UNL A   1      38.389  31.018  29.148  1.00  0.00     0.010 A 
ATOM     44  C   UNL A   1      37.119  29.368  30.361  1.00  0.00     0.010 A 
ATOM     45  C   UNL A   1      38.363  29.898  29.984  1.00  0.00    -0.014 A 
BRANCH  45  46
ATOM     46  C   UNL A   1      39.574  29.134  30.388  1.00  0.00     0.031 A 
ATOM     47  C   UNL A   1      40.306  29.590  31.626  1.00  0.00     0.074 A 
ATOM     48  C   UNL A   1      40.088  28.158  29.616  1.00  0.00     0.049 A 
ATOM     49  N   UNL A   1      41.535  29.358  32.003  1.00  0.00    -0.248 NA
ATOM     50  C   UNL A   1      39.569  30.511  32.510  1.00  0.00     0.031 C 
ATOM     51  C   UNL A   1      39.491  27.632  28.387  1.00  0.00     0.029 A 
ATOM     52  N   UNL A   1      41.259  27.450  29.744  1.00  0.00    -0.354 N 
ATOM     53  C   UNL A   1      41.733  30.152  33.129  1.00  0.00     0.074 A 
ATOM     54  C   UNL A   1      40.531  30.935  33.312  1.00  0.00     0.031 C 
ATOM     55  C   UNL A   1      40.297  26.681  27.880  1.00  0.00     0.029 A 
ATOM     56  C   UNL A   1      41.491  26.569  28.713  1.00  0.00     0.049 A 
ATOM     57  H   UNL A   1      41.874  27.564  30.503  1.00  0.00     0.167 HD
ATOM     58  C   UNL A   1      42.803  30.196  33.960  1.00  0.00     0.034 A 
ATOM     59  C   UNL A   1      42.560  25.784  28.463  1.00  0.00     0.034 A 
ATOM     60  C   UNL A   1      43.956  29.351  33.806  1.00  0.00     0.049 A 
ATOM     61  C   UNL A   1      43.731  25.825  29.422  1.00  0.00     0.074 A 
ATOM     62  C   UNL A   1      45.084  29.272  34.603  1.00  0.00     0.029 A 
ATOM     63  N   UNL A   1      44.112  28.408  32.798  1.00  0.00    -0.354 N 
ATOM     64  N   UNL A   1      43.911  26.582  30.481  1.00  0.00    -0.248 NA
ATOM     65  C   UNL A   1      44.839  24.896  29.158  1.00  0.00     0.031 C 
ATOM     66  C   UNL A   1      45.936  28.306  34.059  1.00  0.00     0.029 A 
ATOM     67  C   UNL A   1      45.312  27.737  32.959  1.00  0.00     0.049 A 
ATOM     68  H   UNL A   1      43.465  28.241  32.076  1.00  0.00     0.167 HD
ATOM     69  C   UNL A   1      45.125  26.181  31.033  1.00  0.00     0.074 A 
ATOM     70  C   UNL A   1      45.628  25.112  30.200  1.00  0.00     0.031 C 
ATOM     71  C   UNL A   1      45.771  26.649  32.131  1.00  0.00     0.034 A 
BRANCH  58  72
ATOM     72  C   UNL A   1      42.753  31.181  35.101  1.00  0.00     0.023 A 
ATOM     73  C   UNL A   1      43.144  32.521  34.929  1.00  0.00     0.031 A 
ATOM     74  C   UNL A   1      42.358  30.773  36.387  1.00  0.00     0.131 A 
ATOM     75  C   UNL A   1      43.225  33.376  36.037  1.00  0.00     0.055 A 
ATOM     76  C   UNL A   1      42.346  31.657  37.468  1.00  0.00     0.041 A 
ATOM     77  F   UNL A   1      41.994  29.502  36.619  1.00  0.00    -0.206 F 
ATOM     78  C   UNL A   1      42.798  32.963  37.300  1.00  0.00     0.022 A 
BRANCH  75  79
ATOM     79  S   UNL A   1      44.039  34.982  35.827  1.00  0.00     0.124 S 
ATOM     80  O   UNL A   1      43.478  35.739  36.944  1.00  0.00    -0.237 OA
ATOM     81  O   UNL A   1      45.452  34.638  35.937  1.00  0.00    -0.237 OA
ATOM     82  O   UNL A   1      43.601  35.418  34.503  1.00  0.00    -0.744 OA
ENDBRANCH  75  79
ENDBRANCH  58  72
BRANCH  59  83
ATOM     83  C   UNL A   1      42.603  24.894  27.264  1.00  0.00     0.023 A 
ATOM     84  C   UNL A   1      42.052  23.602  27.310  1.00  0.00     0.031 A 
ATOM     85  C   UNL A   1      43.275  25.277  26.091  1.00  0.00     0.131 A 
ATOM     86  C   UNL A   1      42.253  22.714  26.243  1.00  0.00     0.055 A 
ATOM     87  C   UNL A   1      43.413  24.412  25.002  1.00  0.00     0.041 A 
ATOM     88  F   UNL A   1      43.817  26.501  25.986  1.00  0.00    -0.206 F 
ATOM     89  C   UNL A   1      42.920  23.112  25.084  1.00  0.00     0.022 A 
BRANCH  86  90
ATOM     90  S   UNL A   1      41.750  20.982  26.454  1.00  0.00     0.124 S 
ATOM     91  O   UNL A   1      40.322  21.053  26.167  1.00  0.00    -0.237 OA
ATOM     92  O   UNL A   1      42.573  20.305  25.458  1.00  0.00    -0.237 OA
ATOM     93  O   UNL A   1      42.094  20.696  27.845  1.00  0.00    -0.744 OA
ENDBRANCH  86  90
ENDBRANCH  59  83
BRANCH  71  94
ATOM     94  C   UNL A   1      47.038  25.943  32.544  1.00  0.00     0.023 A 
ATOM     95  C   UNL A   1      48.270  26.196  31.919  1.00  0.00     0.031 A 
ATOM     96  C   UNL A   1      47.005  25.006  33.592  1.00  0.00     0.131 A 
ATOM     97  C   UNL A   1      49.410  25.479  32.312  1.00  0.00     0.055 A 
ATOM     98  C   UNL A   1      48.154  24.340  34.019  1.00  0.00     0.041 A 
ATOM     99  F   UNL A   1      45.853  24.729  34.226  1.00  0.00    -0.206 F 
ATOM    100  C   UNL A   1      49.362  24.565  33.369  1.00  0.00     0.022 A 
BRANCH  97 101
ATOM    101  S   UNL A   1      50.943  25.694  31.367  1.00  0.00     0.124 S 
ATOM    102  O   UNL A   1      50.507  25.392  30.007  1.00  0.00    -0.237 OA
ATOM    103  O   UNL A   1      51.279  27.090  31.632  1.00  0.00    -0.237 OA
ATOM    104  O   UNL A   1      51.853  24.716  31.960  1.00  0.00    -0.744 OA
ENDBRANCH  97 101
ENDBRANCH  71  94
ENDBRANCH  45  46
ENDBRANCH  37  40
ENDBRANCH  35  36
ENDBRANCH  34  35
ENDBRANCH   1  34
TORSDOF 20
ENDMDL
MODEL 3
REMARK VINA RESULT:     -12.1      5.342      8.605
REMARK SMILES O=C(C[C@@H](C(=O)NCCCCNC(=O)c1ccc(-c2c3nc(c(-c4cc(S(=O)(=O)[O-])ccc4F)c4ccc([nH]4)c(-c4cc(S(=O)(=O)[O-])ccc4F)c4nc(c(-c5cc(S(=O)(=O)[O-])ccc5F)c5ccc2[nH]5)C=C4)C=C3)cc1)c1ccccc1)Nc1cc(C(F)(F)F)ccc1-n1cncn1
REMARK SMILES IDX 9 1 8 2 7 3 5 4 6 5 4 7 3 8 2 9 1 10 84 11 85 13 86 14 94 15
REMARK SMILES IDX 87 16 93 17 92 18 95 19 96 20 99 21 97 22 98 23 88 24 89 25
REMARK SMILES IDX 90 26 91 27 78 28 79 29 83 30 80 31 82 32 81 33 10 34 11 35
REMARK SMILES IDX 12 36 13 37 14 39 15 40 16 41 77 42 17 43 76 44 18 45 19 46
REMARK SMILES IDX 20 47 70 48 21 49 75 50 69 51 71 52 22 53 74 54 68 55 67 56
REMARK SMILES IDX 23 58 55 59 35 60 54 61 36 62 39 63 53 64 72 65 37 66 38 67
REMARK SMILES IDX 52 69 73 70 40 71 24 72 25 73 33 74 26 75 32 76 34 77 31 78
REMARK SMILES IDX 27 79 28 80 29 81 30 82 56 83 57 84 65 85 58 86 64 87 66 88
REMARK SMILES IDX 63 89 59 90 60 91 61 92 62 93 41 94 42 95 50 96 43 97 49 98
REMARK SMILES IDX 51 99 48 100 44 101 45 102 46 103 47 104
REMARK H PARENT 7 6 84 12 12 38 71 57 39 68
REMARK Flexibility Score: inf
ROOT
ATOM      1  C   UNL A   1      35.855  24.112  25.441  1.00  0.00     0.023 C 
ENDROOT
BRANCH   1   2
ATOM      2  C   UNL A   1      34.604  24.613  26.161  1.00  0.00     0.116 C 
BRANCH   2   3
ATOM      3  N   UNL A   1      33.949  23.467  26.766  1.00  0.00    -0.356 N 
ATOM      4  C   UNL A   1      32.603  23.231  26.678  1.00  0.00     0.228 C 
ATOM      5  O   UNL A   1      32.000  22.911  27.705  1.00  0.00    -0.274 OA
ATOM      6  H   UNL A   1      34.503  22.827  27.267  1.00  0.00     0.163 HD
BRANCH   4   7
ATOM      7  C   UNL A   1      31.906  23.308  25.306  1.00  0.00     0.118 C 
BRANCH   7   8
ATOM      8  C   UNL A   1      30.464  23.799  25.551  1.00  0.00     0.118 C 
BRANCH   8   9
ATOM      9  C   UNL A   1      30.238  25.269  25.248  1.00  0.00     0.225 C 
ATOM     10  O   UNL A   1      30.308  26.117  26.132  1.00  0.00    -0.275 OA
ATOM     11  N   UNL A   1      29.972  25.542  23.912  1.00  0.00    -0.324 N 
ATOM     12  H   UNL A   1      29.805  24.782  23.308  1.00  0.00     0.170 HD
BRANCH  11  13
ATOM     13  C   UNL A   1      29.928  26.853  23.364  1.00  0.00     0.067 A 
ATOM     14  C   UNL A   1      28.693  27.512  23.430  1.00  0.00     0.041 A 
ATOM     15  C   UNL A   1      31.023  27.543  22.812  1.00  0.00     0.090 A 
ATOM     16  C   UNL A   1      28.557  28.865  23.072  1.00  0.00     0.058 A 
ATOM     17  C   UNL A   1      30.911  28.911  22.497  1.00  0.00     0.031 A 
ATOM     18  C   UNL A   1      29.684  29.566  22.631  1.00  0.00     0.015 A 
BRANCH  15  19
ATOM     19  N   UNL A   1      32.183  26.862  22.364  1.00  0.00    -0.219 N 
ATOM     20  C   UNL A   1      33.490  27.286  22.462  1.00  0.00     0.226 A 
ATOM     21  N   UNL A   1      32.177  25.568  21.955  1.00  0.00    -0.155 NA
ATOM     22  N   UNL A   1      34.314  26.378  21.993  1.00  0.00    -0.223 NA
ATOM     23  C   UNL A   1      33.465  25.362  21.674  1.00  0.00     0.246 A 
ENDBRANCH  15  19
BRANCH  16  24
ATOM     24  C   UNL A   1      27.203  29.523  23.179  1.00  0.00     0.416 C 
ATOM     25  F   UNL A   1      27.148  30.392  24.227  1.00  0.00    -0.166 F 
ATOM     26  F   UNL A   1      26.903  30.264  22.079  1.00  0.00    -0.166 F 
ATOM     27  F   UNL A   1      26.174  28.653  23.357  1.00  0.00    -0.166 F 
ENDBRANCH  16  24
ENDBRANCH  11  13
ENDBRANCH   8   9
ENDBRANCH   7   8
BRANCH   7  28
ATOM     28  C   UNL A   1      31.993  21.911  24.652  1.00  0.00    -0.035 A 
ATOM     29  C   UNL A   1      32.220  20.733  25.380  1.00  0.00     0.004 A 
ATOM     30  C   UNL A   1      31.866  21.790  23.252  1.00  0.00     0.004 A 
ATOM     31  C   UNL A   1      32.402  19.506  24.732  1.00  0.00     0.000 A 
ATOM     32  C   UNL A   1      32.063  20.568  22.604  1.00  0.00     0.000 A 
ATOM     33  C   UNL A   1      32.346  19.427  23.344  1.00  0.00     0.000 A 
ENDBRANCH   7  28
ENDBRANCH   4   7
ENDBRANCH   2   3
ENDBRANCH   1   2
BRANCH   1  34
ATOM     34  C   UNL A   1      35.593  23.031  24.408  1.00  0.00     0.023 C 
BRANCH  34  35
ATOM     35  C   UNL A   1      36.874  22.485  23.803  1.00  0.00     0.116 C 
BRANCH  35  36
ATOM     36  N   UNL A   1      37.359  21.272  24.458  1.00  0.00    -0.352 N 
ATOM     37  C   UNL A   1      38.310  21.024  25.428  1.00  0.00     0.251 C 
ATOM     38  H   UNL A   1      36.912  20.455  24.138  1.00  0.00     0.163 HD
ATOM     39  O   UNL A   1      38.571  19.860  25.703  1.00  0.00    -0.269 OA
BRANCH  37  40
ATOM     40  C   UNL A   1      39.073  22.119  26.077  1.00  0.00     0.039 A 
ATOM     41  C   UNL A   1      40.152  21.801  26.914  1.00  0.00     0.014 A 
ATOM     42  C   UNL A   1      38.771  23.452  25.854  1.00  0.00     0.014 A 
ATOM     43  C   UNL A   1      40.990  22.813  27.405  1.00  0.00     0.010 A 
ATOM     44  C   UNL A   1      39.681  24.437  26.198  1.00  0.00     0.010 A 
ATOM     45  C   UNL A   1      40.789  24.138  27.007  1.00  0.00    -0.014 A 
BRANCH  45  46
ATOM     46  C   UNL A   1      41.592  25.287  27.506  1.00  0.00     0.031 A 
ATOM     47  C   UNL A   1      40.875  26.338  28.319  1.00  0.00     0.074 A 
ATOM     48  C   UNL A   1      42.875  25.468  27.142  1.00  0.00     0.049 A 
ATOM     49  N   UNL A   1      41.214  27.574  28.570  1.00  0.00    -0.248 NA
ATOM     50  C   UNL A   1      39.549  25.959  28.839  1.00  0.00     0.031 C 
ATOM     51  C   UNL A   1      43.680  24.540  26.347  1.00  0.00     0.029 A 
ATOM     52  N   UNL A   1      43.722  26.524  27.376  1.00  0.00    -0.354 N 
ATOM     53  C   UNL A   1      40.118  28.133  29.221  1.00  0.00     0.074 A 
ATOM     54  C   UNL A   1      39.079  27.129  29.239  1.00  0.00     0.031 C 
ATOM     55  C   UNL A   1      44.906  25.066  26.166  1.00  0.00     0.029 A 
ATOM     56  C   UNL A   1      44.956  26.388  26.782  1.00  0.00     0.049 A 
ATOM     57  H   UNL A   1      43.469  27.305  27.918  1.00  0.00     0.167 HD
ATOM     58  C   UNL A   1      40.001  29.358  29.788  1.00  0.00     0.034 A 
ATOM     59  C   UNL A   1      45.994  27.249  26.725  1.00  0.00     0.034 A 
ATOM     60  C   UNL A   1      41.076  30.314  29.830  1.00  0.00     0.049 A 
ATOM     61  C   UNL A   1      45.854  28.601  27.393  1.00  0.00     0.074 A 
ATOM     62  C   UNL A   1      41.095  31.569  30.409  1.00  0.00     0.029 A 
ATOM     63  N   UNL A   1      42.340  30.101  29.294  1.00  0.00    -0.354 N 
ATOM     64  N   UNL A   1      44.812  29.122  28.002  1.00  0.00    -0.248 NA
ATOM     65  C   UNL A   1      47.035  29.476  27.378  1.00  0.00     0.031 C 
ATOM     66  C   UNL A   1      42.358  32.129  30.195  1.00  0.00     0.029 A 
ATOM     67  C   UNL A   1      43.148  31.198  29.538  1.00  0.00     0.049 A 
ATOM     68  H   UNL A   1      42.619  29.290  28.811  1.00  0.00     0.167 HD
ATOM     69  C   UNL A   1      45.233  30.359  28.484  1.00  0.00     0.074 A 
ATOM     70  C   UNL A   1      46.622  30.502  28.105  1.00  0.00     0.031 C 
ATOM     71  C   UNL A   1      44.540  31.297  29.178  1.00  0.00     0.034 A 
BRANCH  58  72
ATOM     72  C   UNL A   1      38.673  29.710  30.411  1.00  0.00     0.023 A 
ATOM     73  C   UNL A   1      37.722  30.481  29.719  1.00  0.00     0.031 A 
ATOM     74  C   UNL A   1      38.367  29.313  31.724  1.00  0.00     0.131 A 
ATOM     75  C   UNL A   1      36.560  30.912  30.373  1.00  0.00     0.055 A 
ATOM     76  C   UNL A   1      37.162  29.664  32.337  1.00  0.00     0.041 A 
ATOM     77  F   UNL A   1      39.243  28.594  32.444  1.00  0.00    -0.206 F 
ATOM     78  C   UNL A   1      36.257  30.484  31.667  1.00  0.00     0.022 A 
BRANCH  75  79
ATOM     79  S   UNL A   1      35.530  32.164  29.562  1.00  0.00     0.124 S 
ATOM     80  O   UNL A   1      36.460  33.287  29.465  1.00  0.00    -0.237 OA
ATOM     81  O   UNL A   1      35.178  31.518  28.302  1.00  0.00    -0.237 OA
ATOM     82  O   UNL A   1      34.424  32.357  30.496  1.00  0.00    -0.744 OA
ENDBRANCH  75  79
ENDBRANCH  58  72
BRANCH  59  83
ATOM     83  C   UNL A   1      47.257  26.892  26.012  1.00  0.00     0.023 A 
ATOM     84  C   UNL A   1      48.277  26.186  26.672  1.00  0.00     0.031 A 
ATOM     85  C   UNL A   1      47.508  27.330  24.700  1.00  0.00     0.131 A 
ATOM     86  C   UNL A   1      49.524  26.011  26.053  1.00  0.00     0.055 A 
ATOM     87  C   UNL A   1      48.728  27.094  24.063  1.00  0.00     0.041 A 
ATOM     88  F   UNL A   1      46.569  28.006  24.018  1.00  0.00    -0.206 F 
ATOM     89  C   UNL A   1      49.754  26.449  24.749  1.00  0.00     0.022 A 
BRANCH  86  90
ATOM     90  S   UNL A   1      50.887  25.324  27.036  1.00  0.00     0.124 S 
ATOM     91  O   UNL A   1      51.329  26.494  27.786  1.00  0.00    -0.237 OA
ATOM     92  O   UNL A   1      50.211  24.285  27.806  1.00  0.00    -0.237 OA
ATOM     93  O   UNL A   1      51.824  24.840  26.025  1.00  0.00    -0.744 OA
ENDBRANCH  86  90
ENDBRANCH  59  83
BRANCH  71  94
ATOM     94  C   UNL A   1      45.300  32.511  29.653  1.00  0.00     0.023 A 
ATOM     95  C   UNL A   1      45.387  33.683  28.885  1.00  0.00     0.031 A 
ATOM     96  C   UNL A   1      45.940  32.487  30.905  1.00  0.00     0.131 A 
ATOM     97  C   UNL A   1      46.143  34.768  29.355  1.00  0.00     0.055 A 
ATOM     98  C   UNL A   1      46.641  33.590  31.393  1.00  0.00     0.041 A 
ATOM     99  F   UNL A   1      45.886  31.391  31.680  1.00  0.00    -0.206 F 
ATOM    100  C   UNL A   1      46.757  34.734  30.610  1.00  0.00     0.022 A 
BRANCH  97 101
ATOM    101  S   UNL A   1      46.387  36.196  28.264  1.00  0.00     0.124 S 
ATOM    102  O   UNL A   1      45.021  36.676  28.081  1.00  0.00    -0.237 OA
ATOM    103  O   UNL A   1      47.261  37.051  29.061  1.00  0.00    -0.237 OA
ATOM    104  O   UNL A   1      47.006  35.617  27.073  1.00  0.00    -0.744 OA
ENDBRANCH  97 101
ENDBRANCH  71  94
ENDBRANCH  45  46
ENDBRANCH  37  40
ENDBRANCH  35  36
ENDBRANCH  34  35
ENDBRANCH   1  34
TORSDOF 20
ENDMDL
