MODEL 1
REMARK VINA RESULT:     -12.4      0.000      0.000
REMARK SMILES O=C(NCCCCNC(=O)[C@@H]1C=C[C@H](NC(=O)c2ccc(Cl)cc2[N+](=O)[O-])C1)c1ccc(-c2c3nc(c(-c4cc(S(=O)(=O)[O-])ccc4F)c4ccc([nH]4)c(-c4cc(S(=O)(=O)[O-])ccc4F)c4nc(c(-c5cc(S(=O)(=O)[O-])ccc5F)c5ccc2[nH]5)C=C4)C=C3)cc1
REMARK SMILES IDX 5 1 4 2 3 3 1 4 2 5 29 7 30 8 91 9 31 10 90 11 32 12 33 13
REMARK SMILES IDX 34 14 84 15 35 16 89 17 83 18 85 19 36 20 88 21 82 22 81 23
REMARK SMILES IDX 37 25 69 26 49 27 68 28 50 29 53 30 67 31 86 32 51 33 52 34
REMARK SMILES IDX 66 36 87 37 54 38 38 39 39 40 47 41 40 42 46 43 48 44 45 45
REMARK SMILES IDX 41 46 42 47 43 48 44 49 70 50 71 51 79 52 72 53 78 54 80 55
REMARK SMILES IDX 77 56 73 57 74 58 75 59 76 60 55 61 56 62 64 63 57 64 63 65
REMARK SMILES IDX 65 66 62 67 58 68 59 69 60 70 61 71 6 72 7 73 8 74 9 75
REMARK SMILES IDX 10 77 11 78 12 79 28 80 13 81 14 82 15 83 16 84 17 86 18 87
REMARK SMILES IDX 19 88 24 89 20 90 23 91 21 92 22 93 25 94 26 95 27 96
REMARK H PARENT 3 6 85 24 53 35 8 76 15 85
REMARK Flexibility Score: inf
ROOT
ATOM      1  C   UNL A   1      31.455  32.132  26.831  1.00  0.00     0.023 C 
ENDROOT
BRANCH   1   2
ATOM      2  C   UNL A   1      32.736  32.815  27.294  1.00  0.00     0.116 C 
BRANCH   2   3
ATOM      3  N   UNL A   1      32.515  34.177  27.757  1.00  0.00    -0.352 N 
ATOM      4  O   UNL A   1      32.750  35.961  29.117  1.00  0.00    -0.269 OA
ATOM      5  C   UNL A   1      33.158  34.864  28.763  1.00  0.00     0.251 C 
ATOM      6  H   UNL A   1      31.809  34.677  27.286  1.00  0.00     0.163 HD
BRANCH   5   7
ATOM      7  C   UNL A   1      34.330  34.247  29.418  1.00  0.00     0.039 A 
ATOM      8  C   UNL A   1      35.621  34.544  28.976  1.00  0.00     0.014 A 
ATOM      9  C   UNL A   1      34.130  33.353  30.473  1.00  0.00     0.014 A 
ATOM     10  C   UNL A   1      36.705  33.848  29.496  1.00  0.00     0.010 A 
ATOM     11  C   UNL A   1      35.230  32.717  31.053  1.00  0.00     0.010 A 
ATOM     12  C   UNL A   1      36.524  32.945  30.556  1.00  0.00    -0.014 A 
BRANCH  12  13
ATOM     13  C   UNL A   1      37.710  32.329  31.198  1.00  0.00     0.031 A 
ATOM     14  C   UNL A   1      38.460  31.207  30.537  1.00  0.00     0.074 A 
ATOM     15  C   UNL A   1      38.095  32.800  32.401  1.00  0.00     0.049 A 
ATOM     16  N   UNL A   1      39.485  30.530  30.985  1.00  0.00    -0.248 NA
ATOM     17  C   UNL A   1      37.998  30.787  29.206  1.00  0.00     0.031 C 
ATOM     18  C   UNL A   1      37.428  33.885  33.130  1.00  0.00     0.029 A 
ATOM     19  N   UNL A   1      39.126  32.435  33.227  1.00  0.00    -0.354 N 
ATOM     20  C   UNL A   1      39.777  29.585  30.008  1.00  0.00     0.074 A 
ATOM     21  C   UNL A   1      38.811  29.770  28.946  1.00  0.00     0.031 C 
ATOM     22  C   UNL A   1      38.078  34.109  34.280  1.00  0.00     0.029 A 
ATOM     23  C   UNL A   1      39.155  33.136  34.410  1.00  0.00     0.049 A 
ATOM     24  H   UNL A   1      39.782  31.738  32.996  1.00  0.00     0.167 HD
ATOM     25  C   UNL A   1      40.762  28.653  30.008  1.00  0.00     0.034 A 
ATOM     26  C   UNL A   1      39.931  32.985  35.501  1.00  0.00     0.034 A 
ATOM     27  C   UNL A   1      41.725  28.504  31.074  1.00  0.00     0.049 A 
ATOM     28  C   UNL A   1      40.980  31.908  35.488  1.00  0.00     0.074 A 
ATOM     29  C   UNL A   1      42.818  27.658  31.134  1.00  0.00     0.029 A 
ATOM     30  N   UNL A   1      41.697  29.201  32.276  1.00  0.00    -0.354 N 
ATOM     31  N   UNL A   1      41.279  31.061  34.531  1.00  0.00    -0.248 NA
ATOM     32  C   UNL A   1      41.794  31.763  36.701  1.00  0.00     0.031 C 
ATOM     33  C   UNL A   1      43.404  27.786  32.399  1.00  0.00     0.029 A 
ATOM     34  C   UNL A   1      42.720  28.763  33.103  1.00  0.00     0.049 A 
ATOM     35  H   UNL A   1      41.045  29.902  32.506  1.00  0.00     0.167 HD
ATOM     36  C   UNL A   1      42.322  30.287  35.025  1.00  0.00     0.074 A 
ATOM     37  C   UNL A   1      42.617  30.785  36.353  1.00  0.00     0.031 C 
ATOM     38  C   UNL A   1      42.977  29.255  34.435  1.00  0.00     0.034 A 
BRANCH  25  39
ATOM     39  C   UNL A   1      40.825  27.685  28.851  1.00  0.00     0.023 A 
ATOM     40  C   UNL A   1      41.774  27.806  27.823  1.00  0.00     0.031 A 
ATOM     41  C   UNL A   1      39.929  26.602  28.799  1.00  0.00     0.131 A 
ATOM     42  C   UNL A   1      41.780  26.882  26.765  1.00  0.00     0.055 A 
ATOM     43  C   UNL A   1      39.978  25.652  27.777  1.00  0.00     0.041 A 
ATOM     44  F   UNL A   1      38.988  26.448  29.746  1.00  0.00    -0.206 F 
ATOM     45  C   UNL A   1      40.902  25.794  26.748  1.00  0.00     0.022 A 
BRANCH  42  46
ATOM     46  S   UNL A   1      42.888  27.170  25.359  1.00  0.00     0.124 S 
ATOM     47  O   UNL A   1      44.148  27.476  26.032  1.00  0.00    -0.237 OA
ATOM     48  O   UNL A   1      42.837  25.898  24.649  1.00  0.00    -0.237 OA
ATOM     49  O   UNL A   1      42.273  28.298  24.662  1.00  0.00    -0.744 OA
ENDBRANCH  42  46
ENDBRANCH  25  39
BRANCH  26  50
ATOM     50  C   UNL A   1      39.693  33.819  36.712  1.00  0.00     0.023 A 
ATOM     51  C   UNL A   1      39.108  33.277  37.865  1.00  0.00     0.031 A 
ATOM     52  C   UNL A   1      40.019  35.188  36.718  1.00  0.00     0.131 A 
ATOM     53  C   UNL A   1      38.828  34.108  38.961  1.00  0.00     0.055 A 
ATOM     54  C   UNL A   1      39.794  35.997  37.831  1.00  0.00     0.041 A 
ATOM     55  F   UNL A   1      40.582  35.758  35.639  1.00  0.00    -0.206 F 
ATOM     56  C   UNL A   1      39.180  35.460  38.958  1.00  0.00     0.022 A 
BRANCH  53  57
ATOM     57  S   UNL A   1      37.902  33.417  40.359  1.00  0.00     0.124 S 
ATOM     58  O   UNL A   1      36.661  32.997  39.717  1.00  0.00    -0.237 OA
ATOM     59  O   UNL A   1      38.787  32.346  40.806  1.00  0.00    -0.237 OA
ATOM     60  O   UNL A   1      37.778  34.547  41.276  1.00  0.00    -0.744 OA
ENDBRANCH  53  57
ENDBRANCH  26  50
BRANCH  38  61
ATOM     61  C   UNL A   1      44.085  28.618  35.233  1.00  0.00     0.023 A 
ATOM     62  C   UNL A   1      43.831  27.558  36.119  1.00  0.00     0.031 A 
ATOM     63  C   UNL A   1      45.405  29.089  35.118  1.00  0.00     0.131 A 
ATOM     64  C   UNL A   1      44.875  27.032  36.893  1.00  0.00     0.055 A 
ATOM     65  C   UNL A   1      46.449  28.525  35.851  1.00  0.00     0.041 A 
ATOM     66  F   UNL A   1      45.699  30.103  34.288  1.00  0.00    -0.206 F 
ATOM     67  C   UNL A   1      46.185  27.497  36.752  1.00  0.00     0.022 A 
BRANCH  64  68
ATOM     68  S   UNL A   1      44.486  25.773  38.141  1.00  0.00     0.124 S 
ATOM     69  O   UNL A   1      43.917  26.580  39.216  1.00  0.00    -0.237 OA
ATOM     70  O   UNL A   1      43.551  24.905  37.431  1.00  0.00    -0.237 OA
ATOM     71  O   UNL A   1      45.785  25.173  38.437  1.00  0.00    -0.744 OA
ENDBRANCH  64  68
ENDBRANCH  38  61
ENDBRANCH  12  13
ENDBRANCH   5   7
ENDBRANCH   2   3
ENDBRANCH   1   2
BRANCH   1  72
ATOM     72  C   UNL A   1      31.628  30.697  26.339  1.00  0.00     0.023 C 
BRANCH  72  73
ATOM     73  C   UNL A   1      33.049  30.157  26.423  1.00  0.00     0.116 C 
BRANCH  73  74
ATOM     74  N   UNL A   1      33.568  29.720  25.137  1.00  0.00    -0.356 N 
ATOM     75  C   UNL A   1      33.567  28.449  24.620  1.00  0.00     0.227 C 
ATOM     76  H   UNL A   1      33.968  30.420  24.570  1.00  0.00     0.163 HD
ATOM     77  O   UNL A   1      34.080  28.231  23.523  1.00  0.00    -0.274 OA
BRANCH  75  78
ATOM     78  C   UNL A   1      32.958  27.344  25.485  1.00  0.00     0.103 C 
ATOM     79  C   UNL A   1      33.948  26.412  26.110  1.00  0.00    -0.016 C 
ATOM     80  C   UNL A   1      32.052  26.403  24.672  1.00  0.00     0.047 C 
ATOM     81  C   UNL A   1      33.765  25.145  25.721  1.00  0.00    -0.006 C 
ATOM     82  C   UNL A   1      32.695  25.013  24.704  1.00  0.00     0.106 C 
BRANCH  82  83
ATOM     83  N   UNL A   1      33.127  24.548  23.388  1.00  0.00    -0.346 N 
ATOM     84  C   UNL A   1      33.639  23.381  22.884  1.00  0.00     0.258 C 
ATOM     85  H   UNL A   1      33.026  25.241  22.696  1.00  0.00     0.164 HD
ATOM     86  O   UNL A   1      34.120  23.350  21.754  1.00  0.00    -0.269 OA
BRANCH  84  87
ATOM     87  C   UNL A   1      33.504  22.111  23.604  1.00  0.00     0.117 A 
ATOM     88  C   UNL A   1      32.373  21.332  23.318  1.00  0.00     0.022 A 
ATOM     89  C   UNL A   1      34.494  21.595  24.442  1.00  0.00     0.283 A 
ATOM     90  C   UNL A   1      32.164  20.123  23.982  1.00  0.00     0.022 A 
ATOM     91  C   UNL A   1      34.297  20.370  25.104  1.00  0.00     0.107 A 
ATOM     92  C   UNL A   1      33.117  19.659  24.887  1.00  0.00     0.047 A 
ATOM     93  Cl  UNL A   1      32.834  18.183  25.724  1.00  0.00    -0.084 Cl
BRANCH  89  94
ATOM     94  N   UNL A   1      35.774  22.273  24.614  1.00  0.00     0.063 N 
ATOM     95  O   UNL A   1      36.545  22.249  23.643  1.00  0.00    -0.258 OA
ATOM     96  O   UNL A   1      36.015  22.815  25.701  1.00  0.00    -0.258 OA
ENDBRANCH  89  94
ENDBRANCH  84  87
ENDBRANCH  82  83
ENDBRANCH  75  78
ENDBRANCH  73  74
ENDBRANCH  72  73
ENDBRANCH   1  72
TORSDOF 17
ENDMDL
MODEL 2
REMARK VINA RESULT:     -12.3      5.770     11.770
REMARK SMILES O=C(NCCCCNC(=O)[C@@H]1C=C[C@H](NC(=O)c2ccc(Cl)cc2[N+](=O)[O-])C1)c1ccc(-c2c3nc(c(-c4cc(S(=O)(=O)[O-])ccc4F)c4ccc([nH]4)c(-c4cc(S(=O)(=O)[O-])ccc4F)c4nc(c(-c5cc(S(=O)(=O)[O-])ccc5F)c5ccc2[nH]5)C=C4)C=C3)cc1
REMARK SMILES IDX 5 1 4 2 3 3 1 4 2 5 29 7 30 8 91 9 31 10 90 11 32 12 33 13
REMARK SMILES IDX 34 14 84 15 35 16 89 17 83 18 85 19 36 20 88 21 82 22 81 23
REMARK SMILES IDX 37 25 69 26 49 27 68 28 50 29 53 30 67 31 86 32 51 33 52 34
REMARK SMILES IDX 66 36 87 37 54 38 38 39 39 40 47 41 40 42 46 43 48 44 45 45
REMARK SMILES IDX 41 46 42 47 43 48 44 49 70 50 71 51 79 52 72 53 78 54 80 55
REMARK SMILES IDX 77 56 73 57 74 58 75 59 76 60 55 61 56 62 64 63 57 64 63 65
REMARK SMILES IDX 65 66 62 67 58 68 59 69 60 70 61 71 6 72 7 73 8 74 9 75
REMARK SMILES IDX 10 77 11 78 12 79 28 80 13 81 14 82 15 83 16 84 17 86 18 87
REMARK SMILES IDX 19 88 24 89 20 90 23 91 21 92 22 93 25 94 26 95 27 96
REMARK H PARENT 3 6 85 24 53 35 8 76 15 85
REMARK Flexibility Score: inf
ROOT
ATOM      1  C   UNL A   1      38.408  19.853  24.928  1.00  0.00     0.023 C 
ENDROOT
BRANCH   1   2
ATOM      2  C   UNL A   1      39.413  20.037  26.058  1.00  0.00     0.116 C 
BRANCH   2   3
ATOM      3  N   UNL A   1      40.533  19.111  25.975  1.00  0.00    -0.352 N 
ATOM      4  O   UNL A   1      42.696  18.493  25.814  1.00  0.00    -0.269 OA
ATOM      5  C   UNL A   1      41.882  19.377  26.043  1.00  0.00     0.251 C 
ATOM      6  H   UNL A   1      40.293  18.163  25.855  1.00  0.00     0.163 HD
BRANCH   5   7
ATOM      7  C   UNL A   1      42.328  20.747  26.375  1.00  0.00     0.039 A 
ATOM      8  C   UNL A   1      42.546  21.681  25.359  1.00  0.00     0.014 A 
ATOM      9  C   UNL A   1      42.543  21.090  27.712  1.00  0.00     0.014 A 
ATOM     10  C   UNL A   1      43.106  22.914  25.667  1.00  0.00     0.010 A 
ATOM     11  C   UNL A   1      43.027  22.362  28.026  1.00  0.00     0.010 A 
ATOM     12  C   UNL A   1      43.331  23.276  27.005  1.00  0.00    -0.014 A 
BRANCH  12  13
ATOM     13  C   UNL A   1      43.784  24.653  27.320  1.00  0.00     0.031 A 
ATOM     14  C   UNL A   1      42.831  25.685  27.851  1.00  0.00     0.074 A 
ATOM     15  C   UNL A   1      45.080  24.957  27.107  1.00  0.00     0.049 A 
ATOM     16  N   UNL A   1      43.056  26.943  28.130  1.00  0.00    -0.248 NA
ATOM     17  C   UNL A   1      41.446  25.255  28.094  1.00  0.00     0.031 C 
ATOM     18  C   UNL A   1      46.086  24.024  26.587  1.00  0.00     0.029 A 
ATOM     19  N   UNL A   1      45.777  26.122  27.291  1.00  0.00    -0.354 N 
ATOM     20  C   UNL A   1      41.840  27.464  28.556  1.00  0.00     0.074 A 
ATOM     21  C   UNL A   1      40.876  26.387  28.488  1.00  0.00     0.031 C 
ATOM     22  C   UNL A   1      47.270  24.646  26.514  1.00  0.00     0.029 A 
ATOM     23  C   UNL A   1      47.095  26.039  26.904  1.00  0.00     0.049 A 
ATOM     24  H   UNL A   1      45.374  26.938  27.664  1.00  0.00     0.167 HD
ATOM     25  C   UNL A   1      41.565  28.728  28.964  1.00  0.00     0.034 A 
ATOM     26  C   UNL A   1      48.047  26.988  26.826  1.00  0.00     0.034 A 
ATOM     27  C   UNL A   1      42.553  29.779  29.041  1.00  0.00     0.049 A 
ATOM     28  C   UNL A   1      47.695  28.391  27.238  1.00  0.00     0.074 A 
ATOM     29  C   UNL A   1      42.403  31.066  29.527  1.00  0.00     0.029 A 
ATOM     30  N   UNL A   1      43.865  29.672  28.599  1.00  0.00    -0.354 N 
ATOM     31  N   UNL A   1      46.553  28.853  27.693  1.00  0.00    -0.248 NA
ATOM     32  C   UNL A   1      48.754  29.400  27.122  1.00  0.00     0.031 C 
ATOM     33  C   UNL A   1      43.600  31.760  29.309  1.00  0.00     0.029 A 
ATOM     34  C   UNL A   1      44.519  30.886  28.751  1.00  0.00     0.049 A 
ATOM     35  H   UNL A   1      44.272  28.855  28.231  1.00  0.00     0.167 HD
ATOM     36  C   UNL A   1      46.761  30.207  27.926  1.00  0.00     0.074 A 
ATOM     37  C   UNL A   1      48.143  30.480  27.586  1.00  0.00     0.031 C 
ATOM     38  C   UNL A   1      45.889  31.143  28.379  1.00  0.00     0.034 A 
BRANCH  25  39
ATOM     39  C   UNL A   1      40.135  29.068  29.311  1.00  0.00     0.023 A 
ATOM     40  C   UNL A   1      39.678  29.123  30.638  1.00  0.00     0.031 A 
ATOM     41  C   UNL A   1      39.223  29.371  28.284  1.00  0.00     0.131 A 
ATOM     42  C   UNL A   1      38.333  29.434  30.901  1.00  0.00     0.055 A 
ATOM     43  C   UNL A   1      37.903  29.739  28.554  1.00  0.00     0.041 A 
ATOM     44  F   UNL A   1      39.601  29.316  26.997  1.00  0.00    -0.206 F 
ATOM     45  C   UNL A   1      37.449  29.764  29.869  1.00  0.00     0.022 A 
BRANCH  42  46
ATOM     46  S   UNL A   1      37.726  29.313  32.605  1.00  0.00     0.124 S 
ATOM     47  O   UNL A   1      38.749  30.054  33.338  1.00  0.00    -0.237 OA
ATOM     48  O   UNL A   1      36.416  29.946  32.521  1.00  0.00    -0.237 OA
ATOM     49  O   UNL A   1      37.707  27.873  32.862  1.00  0.00    -0.744 OA
ENDBRANCH  42  46
ENDBRANCH  25  39
BRANCH  26  50
ATOM     50  C   UNL A   1      49.390  26.659  26.270  1.00  0.00     0.023 A 
ATOM     51  C   UNL A   1      49.797  27.141  25.018  1.00  0.00     0.031 A 
ATOM     52  C   UNL A   1      50.276  25.824  26.977  1.00  0.00     0.131 A 
ATOM     53  C   UNL A   1      51.038  26.750  24.491  1.00  0.00     0.055 A 
ATOM     54  C   UNL A   1      51.532  25.487  26.475  1.00  0.00     0.041 A 
ATOM     55  F   UNL A   1      49.935  25.335  28.181  1.00  0.00    -0.206 F 
ATOM     56  C   UNL A   1      51.914  25.940  25.216  1.00  0.00     0.022 A 
BRANCH  53  57
ATOM     57  S   UNL A   1      51.450  27.237  22.794  1.00  0.00     0.124 S 
ATOM     58  O   UNL A   1      52.650  26.448  22.539  1.00  0.00    -0.237 OA
ATOM     59  O   UNL A   1      50.251  26.835  22.066  1.00  0.00    -0.237 OA
ATOM     60  O   UNL A   1      51.662  28.679  22.896  1.00  0.00    -0.744 OA
ENDBRANCH  53  57
ENDBRANCH  26  50
BRANCH  38  61
ATOM     61  C   UNL A   1      46.425  32.541  28.539  1.00  0.00     0.023 A 
ATOM     62  C   UNL A   1      46.541  33.411  27.442  1.00  0.00     0.031 A 
ATOM     63  C   UNL A   1      46.842  33.001  29.801  1.00  0.00     0.131 A 
ATOM     64  C   UNL A   1      47.105  34.682  27.617  1.00  0.00     0.055 A 
ATOM     65  C   UNL A   1      47.351  34.288  29.979  1.00  0.00     0.041 A 
ATOM     66  F   UNL A   1      46.755  32.207  30.881  1.00  0.00    -0.206 F 
ATOM     67  C   UNL A   1      47.495  35.132  28.881  1.00  0.00     0.022 A 
BRANCH  64  68
ATOM     68  S   UNL A   1      47.386  35.719  26.156  1.00  0.00     0.124 S 
ATOM     69  O   UNL A   1      47.343  34.738  25.076  1.00  0.00    -0.237 OA
ATOM     70  O   UNL A   1      46.267  36.654  26.213  1.00  0.00    -0.237 OA
ATOM     71  O   UNL A   1      48.699  36.311  26.403  1.00  0.00    -0.744 OA
ENDBRANCH  64  68
ENDBRANCH  38  61
ENDBRANCH  12  13
ENDBRANCH   5   7
ENDBRANCH   2   3
ENDBRANCH   1   2
BRANCH   1  72
ATOM     72  C   UNL A   1      37.381  20.973  24.786  1.00  0.00     0.023 C 
BRANCH  72  73
ATOM     73  C   UNL A   1      35.954  20.586  25.152  1.00  0.00     0.116 C 
BRANCH  73  74
ATOM     74  N   UNL A   1      35.440  21.324  26.294  1.00  0.00    -0.356 N 
ATOM     75  C   UNL A   1      34.760  22.517  26.285  1.00  0.00     0.227 C 
ATOM     76  H   UNL A   1      35.598  20.921  27.179  1.00  0.00     0.163 HD
ATOM     77  O   UNL A   1      34.418  23.038  27.346  1.00  0.00    -0.274 OA
BRANCH  75  78
ATOM     78  C   UNL A   1      34.510  23.167  24.923  1.00  0.00     0.103 C 
ATOM     79  C   UNL A   1      34.734  24.646  24.876  1.00  0.00    -0.016 C 
ATOM     80  C   UNL A   1      33.048  23.017  24.468  1.00  0.00     0.047 C 
ATOM     81  C   UNL A   1      33.627  25.315  24.537  1.00  0.00    -0.006 C 
ATOM     82  C   UNL A   1      32.450  24.425  24.390  1.00  0.00     0.106 C 
BRANCH  82  83
ATOM     83  N   UNL A   1      31.367  24.646  25.346  1.00  0.00    -0.346 N 
ATOM     84  C   UNL A   1      30.585  25.712  25.708  1.00  0.00     0.258 C 
ATOM     85  H   UNL A   1      31.145  23.831  25.852  1.00  0.00     0.164 HD
ATOM     86  O   UNL A   1      29.885  25.655  26.715  1.00  0.00    -0.269 OA
BRANCH  84  87
ATOM     87  C   UNL A   1      30.446  26.888  24.845  1.00  0.00     0.117 A 
ATOM     88  C   UNL A   1      29.501  26.812  23.811  1.00  0.00     0.022 A 
ATOM     89  C   UNL A   1      31.102  28.098  25.082  1.00  0.00     0.283 A 
ATOM     90  C   UNL A   1      29.329  27.883  22.934  1.00  0.00     0.022 A 
ATOM     91  C   UNL A   1      30.923  29.186  24.210  1.00  0.00     0.107 A 
ATOM     92  C   UNL A   1      30.056  29.056  23.126  1.00  0.00     0.047 A 
ATOM     93  Cl  UNL A   1      29.860  30.358  22.018  1.00  0.00    -0.084 Cl
BRANCH  89  94
ATOM     94  N   UNL A   1      31.940  28.289  26.260  1.00  0.00     0.063 N 
ATOM     95  O   UNL A   1      33.154  28.086  26.111  1.00  0.00    -0.258 OA
ATOM     96  O   UNL A   1      31.400  28.627  27.322  1.00  0.00    -0.258 OA
ENDBRANCH  89  94
ENDBRANCH  84  87
ENDBRANCH  82  83
ENDBRANCH  75  78
ENDBRANCH  73  74
ENDBRANCH  72  73
ENDBRANCH   1  72
TORSDOF 17
ENDMDL
MODEL 3
REMARK VINA RESULT:     -12.1      1.964      2.407
REMARK SMILES O=C(NCCCCNC(=O)[C@@H]1C=C[C@H](NC(=O)c2ccc(Cl)cc2[N+](=O)[O-])C1)c1ccc(-c2c3nc(c(-c4cc(S(=O)(=O)[O-])ccc4F)c4ccc([nH]4)c(-c4cc(S(=O)(=O)[O-])ccc4F)c4nc(c(-c5cc(S(=O)(=O)[O-])ccc5F)c5ccc2[nH]5)C=C4)C=C3)cc1
REMARK SMILES IDX 5 1 4 2 3 3 1 4 2 5 29 7 30 8 91 9 31 10 90 11 32 12 33 13
REMARK SMILES IDX 34 14 84 15 35 16 89 17 83 18 85 19 36 20 88 21 82 22 81 23
REMARK SMILES IDX 37 25 69 26 49 27 68 28 50 29 53 30 67 31 86 32 51 33 52 34
REMARK SMILES IDX 66 36 87 37 54 38 38 39 39 40 47 41 40 42 46 43 48 44 45 45
REMARK SMILES IDX 41 46 42 47 43 48 44 49 70 50 71 51 79 52 72 53 78 54 80 55
REMARK SMILES IDX 77 56 73 57 74 58 75 59 76 60 55 61 56 62 64 63 57 64 63 65
REMARK SMILES IDX 65 66 62 67 58 68 59 69 60 70 61 71 6 72 7 73 8 74 9 75
REMARK SMILES IDX 10 77 11 78 12 79 28 80 13 81 14 82 15 83 16 84 17 86 18 87
REMARK SMILES IDX 19 88 24 89 20 90 23 91 21 92 22 93 25 94 26 95 27 96
REMARK H PARENT 3 6 85 24 53 35 8 76 15 85
REMARK Flexibility Score: inf
ROOT
ATOM      1  C   UNL A   1      31.382  31.977  26.866  1.00  0.00     0.023 C 
ENDROOT
BRANCH   1   2
ATOM      2  C   UNL A   1      32.689  32.657  27.252  1.00  0.00     0.116 C 
BRANCH   2   3
ATOM      3  N   UNL A   1      32.501  34.025  27.715  1.00  0.00    -0.352 N 
ATOM      4  O   UNL A   1      32.800  35.811  29.058  1.00  0.00    -0.269 OA
ATOM      5  C   UNL A   1      33.183  34.707  28.697  1.00  0.00     0.251 C 
ATOM      6  H   UNL A   1      31.788  34.532  27.263  1.00  0.00     0.163 HD
BRANCH   5   7
ATOM      7  C   UNL A   1      34.366  34.077  29.320  1.00  0.00     0.039 A 
ATOM      8  C   UNL A   1      34.206  33.076  30.281  1.00  0.00     0.014 A 
ATOM      9  C   UNL A   1      35.643  34.504  28.946  1.00  0.00     0.014 A 
ATOM     10  C   UNL A   1      35.315  32.597  30.967  1.00  0.00     0.010 A 
ATOM     11  C   UNL A   1      36.762  33.958  29.579  1.00  0.00     0.010 A 
ATOM     12  C   UNL A   1      36.606  33.015  30.607  1.00  0.00    -0.014 A 
BRANCH  12  13
ATOM     13  C   UNL A   1      37.782  32.377  31.246  1.00  0.00     0.031 A 
ATOM     14  C   UNL A   1      38.514  31.246  30.580  1.00  0.00     0.074 A 
ATOM     15  C   UNL A   1      38.174  32.836  32.452  1.00  0.00     0.049 A 
ATOM     16  N   UNL A   1      39.527  30.549  31.025  1.00  0.00    -0.248 NA
ATOM     17  C   UNL A   1      38.045  30.840  29.247  1.00  0.00     0.031 C 
ATOM     18  C   UNL A   1      37.525  33.928  33.185  1.00  0.00     0.029 A 
ATOM     19  N   UNL A   1      39.198  32.449  33.276  1.00  0.00    -0.354 N 
ATOM     20  C   UNL A   1      39.803  29.605  30.044  1.00  0.00     0.074 A 
ATOM     21  C   UNL A   1      38.841  29.811  28.982  1.00  0.00     0.031 C 
ATOM     22  C   UNL A   1      38.178  34.135  34.337  1.00  0.00     0.029 A 
ATOM     23  C   UNL A   1      39.238  33.144  34.463  1.00  0.00     0.049 A 
ATOM     24  H   UNL A   1      39.843  31.743  33.042  1.00  0.00     0.167 HD
ATOM     25  C   UNL A   1      40.773  28.657  30.040  1.00  0.00     0.034 A 
ATOM     26  C   UNL A   1      40.011  32.975  35.553  1.00  0.00     0.034 A 
ATOM     27  C   UNL A   1      41.733  28.487  31.105  1.00  0.00     0.049 A 
ATOM     28  C   UNL A   1      41.043  31.881  35.536  1.00  0.00     0.074 A 
ATOM     29  C   UNL A   1      42.812  27.622  31.161  1.00  0.00     0.029 A 
ATOM     30  N   UNL A   1      41.716  29.178  32.310  1.00  0.00    -0.354 N 
ATOM     31  N   UNL A   1      41.328  31.034  34.574  1.00  0.00    -0.248 NA
ATOM     32  C   UNL A   1      41.853  31.716  36.748  1.00  0.00     0.031 C 
ATOM     33  C   UNL A   1      43.399  27.734  32.427  1.00  0.00     0.029 A 
ATOM     34  C   UNL A   1      42.731  28.720  33.136  1.00  0.00     0.049 A 
ATOM     35  H   UNL A   1      41.076  29.888  32.544  1.00  0.00     0.167 HD
ATOM     36  C   UNL A   1      42.357  30.240  35.065  1.00  0.00     0.074 A 
ATOM     37  C   UNL A   1      42.660  30.727  36.395  1.00  0.00     0.031 C 
ATOM     38  C   UNL A   1      42.996  29.201  34.470  1.00  0.00     0.034 A 
BRANCH  25  39
ATOM     39  C   UNL A   1      40.820  27.694  28.878  1.00  0.00     0.023 A 
ATOM     40  C   UNL A   1      41.762  27.814  27.842  1.00  0.00     0.031 A 
ATOM     41  C   UNL A   1      39.918  26.616  28.829  1.00  0.00     0.131 A 
ATOM     42  C   UNL A   1      41.752  26.894  26.780  1.00  0.00     0.055 A 
ATOM     43  C   UNL A   1      39.952  25.670  27.802  1.00  0.00     0.041 A 
ATOM     44  F   UNL A   1      38.984  26.464  29.783  1.00  0.00    -0.206 F 
ATOM     45  C   UNL A   1      40.869  25.811  26.765  1.00  0.00     0.022 A 
BRANCH  42  46
ATOM     46  S   UNL A   1      42.851  27.182  25.366  1.00  0.00     0.124 S 
ATOM     47  O   UNL A   1      44.110  27.508  26.030  1.00  0.00    -0.237 OA
ATOM     48  O   UNL A   1      42.809  25.904  24.667  1.00  0.00    -0.237 OA
ATOM     49  O   UNL A   1      42.220  28.298  24.662  1.00  0.00    -0.744 OA
ENDBRANCH  42  46
ENDBRANCH  25  39
BRANCH  26  50
ATOM     50  C   UNL A   1      39.786  33.807  36.768  1.00  0.00     0.023 A 
ATOM     51  C   UNL A   1      40.636  34.877  37.085  1.00  0.00     0.031 A 
ATOM     52  C   UNL A   1      38.730  33.519  37.652  1.00  0.00     0.131 A 
ATOM     53  C   UNL A   1      40.441  35.592  38.276  1.00  0.00     0.055 A 
ATOM     54  C   UNL A   1      38.504  34.270  38.804  1.00  0.00     0.041 A 
ATOM     55  F   UNL A   1      37.886  32.505  37.396  1.00  0.00    -0.206 F 
ATOM     56  C   UNL A   1      39.373  35.307  39.130  1.00  0.00     0.022 A 
BRANCH  53  57
ATOM     57  S   UNL A   1      41.668  36.842  38.747  1.00  0.00     0.124 S 
ATOM     58  O   UNL A   1      42.456  36.126  39.745  1.00  0.00    -0.237 OA
ATOM     59  O   UNL A   1      42.331  37.106  37.475  1.00  0.00    -0.237 OA
ATOM     60  O   UNL A   1      40.854  37.939  39.265  1.00  0.00    -0.744 OA
ENDBRANCH  53  57
ENDBRANCH  26  50
BRANCH  38  61
ATOM     61  C   UNL A   1      44.092  28.541  35.265  1.00  0.00     0.023 A 
ATOM     62  C   UNL A   1      43.820  27.485  36.151  1.00  0.00     0.031 A 
ATOM     63  C   UNL A   1      45.421  28.987  35.148  1.00  0.00     0.131 A 
ATOM     64  C   UNL A   1      44.855  26.938  36.922  1.00  0.00     0.055 A 
ATOM     65  C   UNL A   1      46.456  28.402  35.879  1.00  0.00     0.041 A 
ATOM     66  F   UNL A   1      45.733  29.996  34.319  1.00  0.00    -0.206 F 
ATOM     67  C   UNL A   1      46.174  27.378  36.780  1.00  0.00     0.022 A 
BRANCH  64  68
ATOM     68  S   UNL A   1      44.444  25.686  38.169  1.00  0.00     0.124 S 
ATOM     69  O   UNL A   1      43.391  24.928  37.501  1.00  0.00    -0.237 OA
ATOM     70  O   UNL A   1      45.715  24.991  38.348  1.00  0.00    -0.237 OA
ATOM     71  O   UNL A   1      44.005  26.477  39.317  1.00  0.00    -0.744 OA
ENDBRANCH  64  68
ENDBRANCH  38  61
ENDBRANCH  12  13
ENDBRANCH   5   7
ENDBRANCH   2   3
ENDBRANCH   1   2
BRANCH   1  72
ATOM     72  C   UNL A   1      31.476  31.016  25.685  1.00  0.00     0.023 C 
BRANCH  72  73
ATOM     73  C   UNL A   1      32.472  29.878  25.861  1.00  0.00     0.116 C 
BRANCH  73  74
ATOM     74  N   UNL A   1      32.007  28.852  26.780  1.00  0.00    -0.356 N 
ATOM     75  C   UNL A   1      31.596  27.578  26.477  1.00  0.00     0.227 C 
ATOM     76  H   UNL A   1      31.984  29.101  27.733  1.00  0.00     0.163 HD
ATOM     77  O   UNL A   1      31.193  26.833  27.370  1.00  0.00    -0.274 OA
BRANCH  75  78
ATOM     78  C   UNL A   1      31.615  27.171  25.002  1.00  0.00     0.103 C 
ATOM     79  C   UNL A   1      30.277  27.151  24.334  1.00  0.00    -0.016 C 
ATOM     80  C   UNL A   1      32.130  25.735  24.804  1.00  0.00     0.047 C 
ATOM     81  C   UNL A   1      29.962  25.938  23.868  1.00  0.00    -0.006 C 
ATOM     82  C   UNL A   1      30.976  24.915  24.220  1.00  0.00     0.106 C 
BRANCH  82  83
ATOM     83  N   UNL A   1      30.518  23.850  25.111  1.00  0.00    -0.346 N 
ATOM     84  C   UNL A   1      31.058  22.692  25.607  1.00  0.00     0.258 C 
ATOM     85  H   UNL A   1      29.600  24.001  25.431  1.00  0.00     0.164 HD
ATOM     86  O   UNL A   1      30.347  21.869  26.175  1.00  0.00    -0.269 OA
BRANCH  84  87
ATOM     87  C   UNL A   1      32.505  22.459  25.606  1.00  0.00     0.117 A 
ATOM     88  C   UNL A   1      33.264  23.155  26.559  1.00  0.00     0.022 A 
ATOM     89  C   UNL A   1      33.129  21.500  24.805  1.00  0.00     0.283 A 
ATOM     90  C   UNL A   1      34.649  23.003  26.603  1.00  0.00     0.022 A 
ATOM     91  C   UNL A   1      34.524  21.332  24.855  1.00  0.00     0.107 A 
ATOM     92  C   UNL A   1      35.274  22.108  25.737  1.00  0.00     0.047 A 
ATOM     93  Cl  UNL A   1      36.987  21.954  25.778  1.00  0.00    -0.084 Cl
BRANCH  89  94
ATOM     94  N   UNL A   1      32.358  20.612  23.943  1.00  0.00     0.063 N 
ATOM     95  O   UNL A   1      32.033  19.517  24.427  1.00  0.00    -0.258 OA
ATOM     96  O   UNL A   1      32.083  20.992  22.797  1.00  0.00    -0.258 OA
ENDBRANCH  89  94
ENDBRANCH  84  87
ENDBRANCH  82  83
ENDBRANCH  75  78
ENDBRANCH  73  74
ENDBRANCH  72  73
ENDBRANCH   1  72
TORSDOF 17
ENDMDL
