MODEL 1
REMARK VINA RESULT:     -10.2      0.000      0.000
REMARK SMILES CS(=O)(=O)c1ccc(-n2nc(C(F)(F)F)cc2-c2ccc(CC(=O)NCCCCNC(=O)c3ccc(-c4c5nc(c(-c6cc(S(=O)(=O)[O-])ccc6F)c6ccc([nH]6)c(-c6cc(S(=O)(=O)[O-])ccc6F)c6nc(c(-c7cc(S(=O)(=O)[O-])ccc7F)c7ccc4[nH]7)C=C6)C=C5)cc3)cc2)cc1
REMARK SMILES IDX 27 1 26 2 25 3 23 4 24 5 22 7 21 8 18 9 19 10 97 11 20 12
REMARK SMILES IDX 96 13 17 14 9 15 10 16 11 17 16 18 8 19 5 20 6 21 99 22 7 23
REMARK SMILES IDX 98 24 2 25 1 26 3 27 4 28 12 29 13 30 14 31 15 32 28 33
REMARK SMILES IDX 29 34 30 35 31 36 32 38 33 39 34 40 95 41 35 42 94 43 36 44
REMARK SMILES IDX 37 45 38 46 88 47 39 48 93 49 87 50 89 51 40 52 92 53 86 54
REMARK SMILES IDX 85 55 41 57 73 58 53 59 72 60 54 61 57 62 71 63 90 64 55 65
REMARK SMILES IDX 56 66 70 68 91 69 58 70 42 71 43 72 51 73 44 74 50 75 52 76
REMARK SMILES IDX 49 77 45 78 46 79 47 80 48 81 74 82 75 83 83 84 76 85 82 86
REMARK SMILES IDX 84 87 81 88 77 89 78 90 79 91 80 92 59 93 60 94 68 95 61 96
REMARK SMILES IDX 67 97 69 98 66 99 62 100 63 101 64 102 65 103
REMARK H PARENT 25 6 30 37 89 56 57 67
REMARK Flexibility Score: inf
ROOT
ATOM      1  C   UNL A   1      34.160  35.086  32.239  1.00  0.00     0.023 C 
ENDROOT
BRANCH   1   2
ATOM      2  C   UNL A   1      33.866  33.976  33.251  1.00  0.00     0.116 C 
BRANCH   2   3
ATOM      3  N   UNL A   1      34.779  34.017  34.379  1.00  0.00    -0.356 N 
ATOM      4  C   UNL A   1      35.929  33.310  34.586  1.00  0.00     0.224 C 
ATOM      5  O   UNL A   1      36.496  33.417  35.675  1.00  0.00    -0.275 OA
ATOM      6  H   UNL A   1      34.534  34.644  35.098  1.00  0.00     0.163 HD
BRANCH   4   7
ATOM      7  C   UNL A   1      36.493  32.423  33.487  1.00  0.00     0.135 C 
BRANCH   7   8
ATOM      8  C   UNL A   1      37.832  32.888  32.969  1.00  0.00    -0.039 A 
ATOM      9  C   UNL A   1      40.287  33.671  31.834  1.00  0.00     0.000 A 
ATOM     10  C   UNL A   1      40.180  32.470  32.549  1.00  0.00     0.010 A 
ATOM     11  C   UNL A   1      39.170  34.508  31.746  1.00  0.00     0.010 A 
ATOM     12  C   UNL A   1      38.964  32.079  33.109  1.00  0.00     0.005 A 
ATOM     13  C   UNL A   1      37.956  34.124  32.318  1.00  0.00     0.005 A 
BRANCH   9  14
ATOM     14  C   UNL A   1      41.560  34.065  31.233  1.00  0.00     0.075 A 
ATOM     15  N   UNL A   1      42.573  34.769  31.876  1.00  0.00    -0.233 N 
ATOM     16  N   UNL A   1      43.471  35.281  30.997  1.00  0.00    -0.163 NA
ATOM     17  C   UNL A   1      43.169  34.700  29.818  1.00  0.00     0.167 A 
ATOM     18  C   UNL A   1      41.973  33.949  29.921  1.00  0.00     0.064 A 
BRANCH  15  19
ATOM     19  C   UNL A   1      42.749  34.968  33.267  1.00  0.00     0.065 A 
ATOM     20  C   UNL A   1      43.194  35.397  35.984  1.00  0.00     0.067 A 
ATOM     21  C   UNL A   1      42.467  36.328  35.245  1.00  0.00     0.022 A 
ATOM     22  C   UNL A   1      43.651  34.220  35.382  1.00  0.00     0.022 A 
ATOM     23  C   UNL A   1      42.283  36.142  33.873  1.00  0.00     0.030 A 
ATOM     24  C   UNL A   1      43.387  33.983  34.030  1.00  0.00     0.030 A 
BRANCH  20  25
ATOM     25  S   UNL A   1      43.570  35.692  37.700  1.00  0.00     0.175 S 
ATOM     26  C   UNL A   1      42.739  37.192  38.157  1.00  0.00     0.163 C 
ATOM     27  O   UNL A   1      44.997  35.968  37.770  1.00  0.00    -0.224 OA
ATOM     28  O   UNL A   1      42.981  34.601  38.443  1.00  0.00    -0.224 OA
ENDBRANCH  20  25
ENDBRANCH  15  19
BRANCH  17  29
ATOM     29  C   UNL A   1      43.996  34.881  28.575  1.00  0.00     0.435 C 
ATOM     30  F   UNL A   1      45.211  34.277  28.650  1.00  0.00    -0.164 F 
ATOM     31  F   UNL A   1      43.373  34.390  27.469  1.00  0.00    -0.164 F 
ATOM     32  F   UNL A   1      44.238  36.197  28.320  1.00  0.00    -0.164 F 
ENDBRANCH  17  29
ENDBRANCH   9  14
ENDBRANCH   7   8
ENDBRANCH   4   7
ENDBRANCH   2   3
ENDBRANCH   1   2
BRANCH   1  33
ATOM     33  C   UNL A   1      34.505  34.602  30.826  1.00  0.00     0.023 C 
BRANCH  33  34
ATOM     34  C   UNL A   1      34.707  33.105  30.670  1.00  0.00     0.116 C 
BRANCH  34  35
ATOM     35  N   UNL A   1      34.374  32.636  29.327  1.00  0.00    -0.352 N 
ATOM     36  C   UNL A   1      35.187  31.935  28.456  1.00  0.00     0.251 C 
ATOM     37  H   UNL A   1      33.466  32.844  29.006  1.00  0.00     0.163 HD
ATOM     38  O   UNL A   1      34.973  31.962  27.253  1.00  0.00    -0.269 OA
BRANCH  36  39
ATOM     39  C   UNL A   1      36.315  31.167  29.016  1.00  0.00     0.039 A 
ATOM     40  C   UNL A   1      36.209  29.795  29.245  1.00  0.00     0.014 A 
ATOM     41  C   UNL A   1      37.513  31.840  29.253  1.00  0.00     0.014 A 
ATOM     42  C   UNL A   1      37.354  29.090  29.615  1.00  0.00     0.010 A 
ATOM     43  C   UNL A   1      38.664  31.126  29.486  1.00  0.00     0.010 A 
ATOM     44  C   UNL A   1      38.593  29.753  29.696  1.00  0.00    -0.014 A 
BRANCH  44  45
ATOM     45  C   UNL A   1      39.835  28.987  29.823  1.00  0.00     0.031 A 
ATOM     46  C   UNL A   1      40.229  28.707  31.230  1.00  0.00     0.074 A 
ATOM     47  C   UNL A   1      40.480  28.387  28.798  1.00  0.00     0.049 A 
ATOM     48  N   UNL A   1      41.203  29.238  31.889  1.00  0.00    -0.248 NA
ATOM     49  C   UNL A   1      39.340  27.877  32.060  1.00  0.00     0.031 C 
ATOM     50  C   UNL A   1      40.068  28.322  27.392  1.00  0.00     0.029 A 
ATOM     51  N   UNL A   1      41.601  27.607  28.815  1.00  0.00    -0.354 N 
ATOM     52  C   UNL A   1      41.222  28.597  33.123  1.00  0.00     0.074 A 
ATOM     53  C   UNL A   1      39.935  27.969  33.252  1.00  0.00     0.031 C 
ATOM     54  C   UNL A   1      40.784  27.371  26.751  1.00  0.00     0.029 A 
ATOM     55  C   UNL A   1      41.817  26.879  27.645  1.00  0.00     0.049 A 
ATOM     56  H   UNL A   1      42.207  27.564  29.589  1.00  0.00     0.167 HD
ATOM     57  C   UNL A   1      42.397  28.409  33.789  1.00  0.00     0.034 A 
ATOM     58  C   UNL A   1      42.767  25.931  27.415  1.00  0.00     0.034 A 
ATOM     59  C   UNL A   1      43.435  29.264  33.249  1.00  0.00     0.049 A 
ATOM     60  C   UNL A   1      43.863  26.182  28.379  1.00  0.00     0.074 A 
ATOM     61  C   UNL A   1      43.552  30.626  33.032  1.00  0.00     0.029 A 
ATOM     62  N   UNL A   1      44.410  28.689  32.462  1.00  0.00    -0.354 N 
ATOM     63  N   UNL A   1      44.608  27.252  28.347  1.00  0.00    -0.248 NA
ATOM     64  C   UNL A   1      43.827  25.491  29.657  1.00  0.00     0.031 C 
ATOM     65  C   UNL A   1      44.205  30.742  31.769  1.00  0.00     0.029 A 
ATOM     66  C   UNL A   1      44.545  29.460  31.334  1.00  0.00     0.049 A 
ATOM     67  H   UNL A   1      44.917  27.872  32.672  1.00  0.00     0.167 HD
ATOM     68  C   UNL A   1      44.750  27.623  29.675  1.00  0.00     0.074 A 
ATOM     69  C   UNL A   1      44.347  26.443  30.438  1.00  0.00     0.031 C 
ATOM     70  C   UNL A   1      44.903  28.934  30.029  1.00  0.00     0.034 A 
BRANCH  57  71
ATOM     71  C   UNL A   1      42.726  27.188  34.631  1.00  0.00     0.023 A 
ATOM     72  C   UNL A   1      43.600  26.242  34.058  1.00  0.00     0.031 A 
ATOM     73  C   UNL A   1      42.028  26.752  35.780  1.00  0.00     0.131 A 
ATOM     74  C   UNL A   1      43.639  24.917  34.524  1.00  0.00     0.055 A 
ATOM     75  C   UNL A   1      42.128  25.452  36.285  1.00  0.00     0.041 A 
ATOM     76  F   UNL A   1      41.147  27.516  36.432  1.00  0.00    -0.206 F 
ATOM     77  C   UNL A   1      42.905  24.512  35.633  1.00  0.00     0.022 A 
BRANCH  74  78
ATOM     78  S   UNL A   1      44.509  23.688  33.519  1.00  0.00     0.124 S 
ATOM     79  O   UNL A   1      43.402  23.087  32.783  1.00  0.00    -0.237 OA
ATOM     80  O   UNL A   1      45.420  24.526  32.747  1.00  0.00    -0.237 OA
ATOM     81  O   UNL A   1      45.143  22.826  34.513  1.00  0.00    -0.744 OA
ENDBRANCH  74  78
ENDBRANCH  57  71
BRANCH  58  82
ATOM     82  C   UNL A   1      42.655  24.685  26.604  1.00  0.00     0.023 A 
ATOM     83  C   UNL A   1      43.623  24.299  25.648  1.00  0.00     0.031 A 
ATOM     84  C   UNL A   1      41.696  23.709  26.958  1.00  0.00     0.131 A 
ATOM     85  C   UNL A   1      43.610  22.991  25.104  1.00  0.00     0.055 A 
ATOM     86  C   UNL A   1      41.687  22.421  26.417  1.00  0.00     0.041 A 
ATOM     87  F   UNL A   1      40.783  23.947  27.913  1.00  0.00    -0.206 F 
ATOM     88  C   UNL A   1      42.653  22.052  25.495  1.00  0.00     0.022 A 
BRANCH  85  89
ATOM     89  S   UNL A   1      44.908  22.450  23.941  1.00  0.00     0.124 S 
ATOM     90  O   UNL A   1      45.461  21.281  24.615  1.00  0.00    -0.237 OA
ATOM     91  O   UNL A   1      44.153  22.201  22.719  1.00  0.00    -0.237 OA
ATOM     92  O   UNL A   1      45.809  23.602  23.876  1.00  0.00    -0.744 OA
ENDBRANCH  85  89
ENDBRANCH  58  82
BRANCH  70  93
ATOM     93  C   UNL A   1      45.280  29.940  28.955  1.00  0.00     0.023 A 
ATOM     94  C   UNL A   1      46.599  30.300  28.594  1.00  0.00     0.031 A 
ATOM     95  C   UNL A   1      44.229  30.491  28.201  1.00  0.00     0.131 A 
ATOM     96  C   UNL A   1      46.819  31.194  27.525  1.00  0.00     0.055 A 
ATOM     97  C   UNL A   1      44.450  31.355  27.130  1.00  0.00     0.041 A 
ATOM     98  F   UNL A   1      42.953  30.173  28.476  1.00  0.00    -0.206 F 
ATOM     99  C   UNL A   1      45.748  31.717  26.794  1.00  0.00     0.022 A 
BRANCH  96 100
ATOM    100  S   UNL A   1      48.505  31.730  27.083  1.00  0.00     0.124 S 
ATOM    101  O   UNL A   1      49.078  32.157  28.355  1.00  0.00    -0.237 OA
ATOM    102  O   UNL A   1      49.078  30.519  26.501  1.00  0.00    -0.237 OA
ATOM    103  O   UNL A   1      48.277  32.813  26.125  1.00  0.00    -0.744 OA
ENDBRANCH  96 100
ENDBRANCH  70  93
ENDBRANCH  44  45
ENDBRANCH  36  39
ENDBRANCH  34  35
ENDBRANCH  33  34
ENDBRANCH   1  33
TORSDOF 19
ENDMDL
MODEL 2
REMARK VINA RESULT:      -9.8      5.471     13.273
REMARK SMILES CS(=O)(=O)c1ccc(-n2nc(C(F)(F)F)cc2-c2ccc(CC(=O)NCCCCNC(=O)c3ccc(-c4c5nc(c(-c6cc(S(=O)(=O)[O-])ccc6F)c6ccc([nH]6)c(-c6cc(S(=O)(=O)[O-])ccc6F)c6nc(c(-c7cc(S(=O)(=O)[O-])ccc7F)c7ccc4[nH]7)C=C6)C=C5)cc3)cc2)cc1
REMARK SMILES IDX 27 1 26 2 25 3 23 4 24 5 22 7 21 8 18 9 19 10 97 11 20 12
REMARK SMILES IDX 96 13 17 14 9 15 10 16 11 17 16 18 8 19 5 20 6 21 99 22 7 23
REMARK SMILES IDX 98 24 2 25 1 26 3 27 4 28 12 29 13 30 14 31 15 32 28 33
REMARK SMILES IDX 29 34 30 35 31 36 32 38 33 39 34 40 95 41 35 42 94 43 36 44
REMARK SMILES IDX 37 45 38 46 88 47 39 48 93 49 87 50 89 51 40 52 92 53 86 54
REMARK SMILES IDX 85 55 41 57 73 58 53 59 72 60 54 61 57 62 71 63 90 64 55 65
REMARK SMILES IDX 56 66 70 68 91 69 58 70 42 71 43 72 51 73 44 74 50 75 52 76
REMARK SMILES IDX 49 77 45 78 46 79 47 80 48 81 74 82 75 83 83 84 76 85 82 86
REMARK SMILES IDX 84 87 81 88 77 89 78 90 79 91 80 92 59 93 60 94 68 95 61 96
REMARK SMILES IDX 67 97 69 98 66 99 62 100 63 101 64 102 65 103
REMARK H PARENT 25 6 30 37 89 56 57 67
REMARK Flexibility Score: inf
ROOT
ATOM      1  C   UNL A   1      41.607  21.705  26.429  1.00  0.00     0.023 C 
ENDROOT
BRANCH   1   2
ATOM      2  C   UNL A   1      40.097  21.936  26.531  1.00  0.00     0.116 C 
BRANCH   2   3
ATOM      3  N   UNL A   1      39.773  22.987  27.477  1.00  0.00    -0.356 N 
ATOM      4  C   UNL A   1      39.064  24.139  27.280  1.00  0.00     0.224 C 
ATOM      5  O   UNL A   1      39.003  24.956  28.200  1.00  0.00    -0.275 OA
ATOM      6  H   UNL A   1      40.112  22.852  28.392  1.00  0.00     0.163 HD
BRANCH   4   7
ATOM      7  C   UNL A   1      38.362  24.390  25.955  1.00  0.00     0.135 C 
BRANCH   7   8
ATOM      8  C   UNL A   1      37.271  23.391  25.655  1.00  0.00    -0.039 A 
ATOM      9  C   UNL A   1      35.350  21.390  25.171  1.00  0.00     0.000 A 
ATOM     10  C   UNL A   1      36.286  21.736  24.187  1.00  0.00     0.010 A 
ATOM     11  C   UNL A   1      35.342  22.099  26.377  1.00  0.00     0.010 A 
ATOM     12  C   UNL A   1      37.241  22.724  24.426  1.00  0.00     0.005 A 
ATOM     13  C   UNL A   1      36.288  23.098  26.612  1.00  0.00     0.005 A 
BRANCH   9  14
ATOM     14  C   UNL A   1      34.364  20.340  24.921  1.00  0.00     0.075 A 
ATOM     15  N   UNL A   1      32.984  20.490  25.007  1.00  0.00    -0.233 N 
ATOM     16  N   UNL A   1      32.346  19.293  25.055  1.00  0.00    -0.163 NA
ATOM     17  C   UNL A   1      33.295  18.385  24.753  1.00  0.00     0.167 A 
ATOM     18  C   UNL A   1      34.570  18.996  24.679  1.00  0.00     0.064 A 
BRANCH  15  19
ATOM     19  C   UNL A   1      32.237  21.693  25.027  1.00  0.00     0.065 A 
ATOM     20  C   UNL A   1      30.856  24.113  25.093  1.00  0.00     0.067 A 
ATOM     21  C   UNL A   1      31.264  23.579  23.873  1.00  0.00     0.022 A 
ATOM     22  C   UNL A   1      31.084  23.410  26.281  1.00  0.00     0.022 A 
ATOM     23  C   UNL A   1      31.999  22.392  23.838  1.00  0.00     0.030 A 
ATOM     24  C   UNL A   1      31.736  22.174  26.243  1.00  0.00     0.030 A 
BRANCH  20  25
ATOM     25  S   UNL A   1      30.052  25.700  25.169  1.00  0.00     0.175 S 
ATOM     26  C   UNL A   1      31.330  26.914  25.370  1.00  0.00     0.163 C 
ATOM     27  O   UNL A   1      29.270  25.710  26.397  1.00  0.00    -0.224 OA
ATOM     28  O   UNL A   1      29.427  25.906  23.882  1.00  0.00    -0.224 OA
ENDBRANCH  20  25
ENDBRANCH  15  19
BRANCH  17  29
ATOM     29  C   UNL A   1      33.005  16.921  24.566  1.00  0.00     0.435 C 
ATOM     30  F   UNL A   1      32.952  16.551  23.259  1.00  0.00    -0.164 F 
ATOM     31  F   UNL A   1      33.936  16.132  25.167  1.00  0.00    -0.164 F 
ATOM     32  F   UNL A   1      31.805  16.573  25.110  1.00  0.00    -0.164 F 
ENDBRANCH  17  29
ENDBRANCH   9  14
ENDBRANCH   7   8
ENDBRANCH   4   7
ENDBRANCH   2   3
ENDBRANCH   1   2
BRANCH   1  33
ATOM     33  C   UNL A   1      42.343  21.621  27.772  1.00  0.00     0.023 C 
BRANCH  33  34
ATOM     34  C   UNL A   1      43.316  22.748  28.064  1.00  0.00     0.116 C 
BRANCH  34  35
ATOM     35  N   UNL A   1      43.969  23.247  26.856  1.00  0.00    -0.352 N 
ATOM     36  C   UNL A   1      43.836  24.500  26.285  1.00  0.00     0.251 C 
ATOM     37  H   UNL A   1      44.571  22.619  26.396  1.00  0.00     0.163 HD
ATOM     38  O   UNL A   1      44.076  24.667  25.099  1.00  0.00    -0.269 OA
BRANCH  36  39
ATOM     39  C   UNL A   1      43.392  25.615  27.142  1.00  0.00     0.039 A 
ATOM     40  C   UNL A   1      44.238  26.166  28.106  1.00  0.00     0.014 A 
ATOM     41  C   UNL A   1      42.123  26.148  26.921  1.00  0.00     0.014 A 
ATOM     42  C   UNL A   1      43.832  27.323  28.768  1.00  0.00     0.010 A 
ATOM     43  C   UNL A   1      41.781  27.358  27.476  1.00  0.00     0.010 A 
ATOM     44  C   UNL A   1      42.616  27.942  28.423  1.00  0.00    -0.014 A 
BRANCH  44  45
ATOM     45  C   UNL A   1      42.303  29.285  28.916  1.00  0.00     0.031 A 
ATOM     46  C   UNL A   1      43.215  30.343  28.403  1.00  0.00     0.074 A 
ATOM     47  C   UNL A   1      41.182  29.616  29.595  1.00  0.00     0.049 A 
ATOM     48  N   UNL A   1      44.128  30.974  29.062  1.00  0.00    -0.248 NA
ATOM     49  C   UNL A   1      43.243  30.609  26.955  1.00  0.00     0.031 C 
ATOM     50  C   UNL A   1      40.046  28.752  29.930  1.00  0.00     0.029 A 
ATOM     51  N   UNL A   1      40.768  30.838  30.045  1.00  0.00    -0.354 N 
ATOM     52  C   UNL A   1      44.648  31.917  28.183  1.00  0.00     0.074 A 
ATOM     53  C   UNL A   1      44.248  31.485  26.871  1.00  0.00     0.031 C 
ATOM     54  C   UNL A   1      38.994  29.510  30.312  1.00  0.00     0.029 A 
ATOM     55  C   UNL A   1      39.425  30.893  30.415  1.00  0.00     0.049 A 
ATOM     56  H   UNL A   1      41.370  31.615  30.103  1.00  0.00     0.167 HD
ATOM     57  C   UNL A   1      45.114  33.112  28.644  1.00  0.00     0.034 A 
ATOM     58  C   UNL A   1      38.703  31.989  30.775  1.00  0.00     0.034 A 
ATOM     59  C   UNL A   1      45.333  33.059  30.076  1.00  0.00     0.049 A 
ATOM     60  C   UNL A   1      39.673  33.005  31.246  1.00  0.00     0.074 A 
ATOM     61  C   UNL A   1      46.061  32.232  30.914  1.00  0.00     0.029 A 
ATOM     62  N   UNL A   1      44.432  33.703  30.898  1.00  0.00    -0.354 N 
ATOM     63  N   UNL A   1      40.396  32.854  32.321  1.00  0.00    -0.248 NA
ATOM     64  C   UNL A   1      40.191  33.961  30.281  1.00  0.00     0.031 C 
ATOM     65  C   UNL A   1      45.225  32.037  32.054  1.00  0.00     0.029 A 
ATOM     66  C   UNL A   1      44.088  32.832  31.902  1.00  0.00     0.049 A 
ATOM     67  H   UNL A   1      44.097  34.622  30.784  1.00  0.00     0.167 HD
ATOM     68  C   UNL A   1      41.653  33.321  31.970  1.00  0.00     0.074 A 
ATOM     69  C   UNL A   1      41.437  34.092  30.746  1.00  0.00     0.031 C 
ATOM     70  C   UNL A   1      42.783  32.803  32.539  1.00  0.00     0.034 A 
BRANCH  57  71
ATOM     71  C   UNL A   1      44.983  34.433  27.906  1.00  0.00     0.023 A 
ATOM     72  C   UNL A   1      46.162  35.188  27.745  1.00  0.00     0.031 A 
ATOM     73  C   UNL A   1      43.780  35.123  27.633  1.00  0.00     0.131 A 
ATOM     74  C   UNL A   1      46.110  36.567  27.483  1.00  0.00     0.055 A 
ATOM     75  C   UNL A   1      43.737  36.480  27.298  1.00  0.00     0.041 A 
ATOM     76  F   UNL A   1      42.573  34.562  27.756  1.00  0.00    -0.206 F 
ATOM     77  C   UNL A   1      44.903  37.222  27.262  1.00  0.00     0.022 A 
BRANCH  74  78
ATOM     78  S   UNL A   1      47.640  37.522  27.646  1.00  0.00     0.124 S 
ATOM     79  O   UNL A   1      48.563  36.716  26.854  1.00  0.00    -0.237 OA
ATOM     80  O   UNL A   1      47.251  38.807  27.075  1.00  0.00    -0.237 OA
ATOM     81  O   UNL A   1      47.884  37.524  29.086  1.00  0.00    -0.744 OA
ENDBRANCH  74  78
ENDBRANCH  57  71
BRANCH  58  82
ATOM     82  C   UNL A   1      37.272  32.293  30.486  1.00  0.00     0.023 A 
ATOM     83  C   UNL A   1      36.421  32.945  31.408  1.00  0.00     0.031 A 
ATOM     84  C   UNL A   1      36.789  32.166  29.164  1.00  0.00     0.131 A 
ATOM     85  C   UNL A   1      35.163  33.445  30.991  1.00  0.00     0.055 A 
ATOM     86  C   UNL A   1      35.546  32.661  28.759  1.00  0.00     0.041 A 
ATOM     87  F   UNL A   1      37.549  31.634  28.194  1.00  0.00    -0.206 F 
ATOM     88  C   UNL A   1      34.732  33.314  29.669  1.00  0.00     0.022 A 
BRANCH  85  89
ATOM     89  S   UNL A   1      34.098  34.373  32.146  1.00  0.00     0.124 S 
ATOM     90  O   UNL A   1      33.582  33.317  33.010  1.00  0.00    -0.237 OA
ATOM     91  O   UNL A   1      35.034  35.311  32.754  1.00  0.00    -0.237 OA
ATOM     92  O   UNL A   1      33.100  34.989  31.269  1.00  0.00    -0.744 OA
ENDBRANCH  85  89
ENDBRANCH  58  82
BRANCH  70  93
ATOM     93  C   UNL A   1      42.648  31.980  33.808  1.00  0.00     0.023 A 
ATOM     94  C   UNL A   1      42.299  30.611  33.867  1.00  0.00     0.031 A 
ATOM     95  C   UNL A   1      42.986  32.615  35.017  1.00  0.00     0.131 A 
ATOM     96  C   UNL A   1      42.280  29.940  35.107  1.00  0.00     0.055 A 
ATOM     97  C   UNL A   1      42.990  31.943  36.238  1.00  0.00     0.041 A 
ATOM     98  F   UNL A   1      43.349  33.908  35.030  1.00  0.00    -0.206 F 
ATOM     99  C   UNL A   1      42.628  30.603  36.288  1.00  0.00     0.022 A 
BRANCH  96 100
ATOM    100  S   UNL A   1      41.766  28.194  35.221  1.00  0.00     0.124 S 
ATOM    101  O   UNL A   1      41.215  28.082  36.567  1.00  0.00    -0.237 OA
ATOM    102  O   UNL A   1      40.806  28.076  34.127  1.00  0.00    -0.237 OA
ATOM    103  O   UNL A   1      43.015  27.459  35.012  1.00  0.00    -0.744 OA
ENDBRANCH  96 100
ENDBRANCH  70  93
ENDBRANCH  44  45
ENDBRANCH  36  39
ENDBRANCH  34  35
ENDBRANCH  33  34
ENDBRANCH   1  33
TORSDOF 19
ENDMDL
MODEL 3
REMARK VINA RESULT:      -9.7      4.923      9.147
REMARK SMILES CS(=O)(=O)c1ccc(-n2nc(C(F)(F)F)cc2-c2ccc(CC(=O)NCCCCNC(=O)c3ccc(-c4c5nc(c(-c6cc(S(=O)(=O)[O-])ccc6F)c6ccc([nH]6)c(-c6cc(S(=O)(=O)[O-])ccc6F)c6nc(c(-c7cc(S(=O)(=O)[O-])ccc7F)c7ccc4[nH]7)C=C6)C=C5)cc3)cc2)cc1
REMARK SMILES IDX 27 1 26 2 25 3 23 4 24 5 22 7 21 8 18 9 19 10 97 11 20 12
REMARK SMILES IDX 96 13 17 14 9 15 10 16 11 17 16 18 8 19 5 20 6 21 99 22 7 23
REMARK SMILES IDX 98 24 2 25 1 26 3 27 4 28 12 29 13 30 14 31 15 32 28 33
REMARK SMILES IDX 29 34 30 35 31 36 32 38 33 39 34 40 95 41 35 42 94 43 36 44
REMARK SMILES IDX 37 45 38 46 88 47 39 48 93 49 87 50 89 51 40 52 92 53 86 54
REMARK SMILES IDX 85 55 41 57 73 58 53 59 72 60 54 61 57 62 71 63 90 64 55 65
REMARK SMILES IDX 56 66 70 68 91 69 58 70 42 71 43 72 51 73 44 74 50 75 52 76
REMARK SMILES IDX 49 77 45 78 46 79 47 80 48 81 74 82 75 83 83 84 76 85 82 86
REMARK SMILES IDX 84 87 81 88 77 89 78 90 79 91 80 92 59 93 60 94 68 95 61 96
REMARK SMILES IDX 67 97 69 98 66 99 62 100 63 101 64 102 65 103
REMARK H PARENT 25 6 30 37 89 56 57 67
REMARK Flexibility Score: inf
ROOT
ATOM      1  C   UNL A   1      34.343  33.768  29.560  1.00  0.00     0.023 C 
ENDROOT
BRANCH   1   2
ATOM      2  C   UNL A   1      33.981  32.974  28.302  1.00  0.00     0.116 C 
BRANCH   2   3
ATOM      3  N   UNL A   1      35.121  32.249  27.772  1.00  0.00    -0.356 N 
ATOM      4  C   UNL A   1      35.368  30.906  27.775  1.00  0.00     0.224 C 
ATOM      5  O   UNL A   1      36.461  30.509  27.369  1.00  0.00    -0.275 OA
ATOM      6  H   UNL A   1      35.815  32.805  27.350  1.00  0.00     0.163 HD
BRANCH   4   7
ATOM      7  C   UNL A   1      34.306  29.932  28.260  1.00  0.00     0.135 C 
BRANCH   7   8
ATOM      8  C   UNL A   1      33.852  28.960  27.197  1.00  0.00    -0.039 A 
ATOM      9  C   UNL A   1      33.123  27.017  25.295  1.00  0.00     0.000 A 
ATOM     10  C   UNL A   1      34.171  27.911  25.039  1.00  0.00     0.010 A 
ATOM     11  C   UNL A   1      32.400  27.145  26.485  1.00  0.00     0.010 A 
ATOM     12  C   UNL A   1      34.537  28.872  25.981  1.00  0.00     0.005 A 
ATOM     13  C   UNL A   1      32.755  28.116  27.423  1.00  0.00     0.005 A 
BRANCH   9  14
ATOM     14  C   UNL A   1      32.758  26.000  24.310  1.00  0.00     0.075 A 
ATOM     15  N   UNL A   1      31.629  26.028  23.500  1.00  0.00    -0.233 N 
ATOM     16  N   UNL A   1      31.374  24.817  22.942  1.00  0.00    -0.163 NA
ATOM     17  C   UNL A   1      32.474  24.082  23.198  1.00  0.00     0.167 A 
ATOM     18  C   UNL A   1      33.352  24.778  24.064  1.00  0.00     0.064 A 
BRANCH  15  19
ATOM     19  C   UNL A   1      30.791  27.133  23.209  1.00  0.00     0.065 A 
ATOM     20  C   UNL A   1      29.130  29.268  22.539  1.00  0.00     0.067 A 
ATOM     21  C   UNL A   1      28.620  28.193  23.264  1.00  0.00     0.022 A 
ATOM     22  C   UNL A   1      30.486  29.308  22.197  1.00  0.00     0.022 A 
ATOM     23  C   UNL A   1      29.436  27.098  23.560  1.00  0.00     0.030 A 
ATOM     24  C   UNL A   1      31.329  28.259  22.574  1.00  0.00     0.030 A 
BRANCH  20  25
ATOM     25  S   UNL A   1      28.068  30.601  22.021  1.00  0.00     0.175 S 
ATOM     26  C   UNL A   1      29.006  32.098  22.184  1.00  0.00     0.163 C 
ATOM     27  O   UNL A   1      26.991  30.674  22.997  1.00  0.00    -0.224 OA
ATOM     28  O   UNL A   1      27.793  30.385  20.619  1.00  0.00    -0.224 OA
ENDBRANCH  20  25
ENDBRANCH  15  19
BRANCH  17  29
ATOM     29  C   UNL A   1      32.685  22.697  22.651  1.00  0.00     0.435 C 
ATOM     30  F   UNL A   1      33.656  22.007  23.306  1.00  0.00    -0.164 F 
ATOM     31  F   UNL A   1      31.553  21.945  22.708  1.00  0.00    -0.164 F 
ATOM     32  F   UNL A   1      33.055  22.726  21.340  1.00  0.00    -0.164 F 
ENDBRANCH  17  29
ENDBRANCH   9  14
ENDBRANCH   7   8
ENDBRANCH   4   7
ENDBRANCH   2   3
ENDBRANCH   1   2
BRANCH   1  33
ATOM     33  C   UNL A   1      34.842  32.925  30.739  1.00  0.00     0.023 C 
BRANCH  33  34
ATOM     34  C   UNL A   1      36.321  33.045  31.060  1.00  0.00     0.116 C 
BRANCH  34  35
ATOM     35  N   UNL A   1      37.060  33.755  30.018  1.00  0.00    -0.352 N 
ATOM     36  C   UNL A   1      38.407  33.649  29.723  1.00  0.00     0.251 C 
ATOM     37  H   UNL A   1      36.539  34.379  29.463  1.00  0.00     0.163 HD
ATOM     38  O   UNL A   1      38.986  34.556  29.146  1.00  0.00    -0.269 OA
BRANCH  36  39
ATOM     39  C   UNL A   1      39.118  32.422  30.130  1.00  0.00     0.039 A 
ATOM     40  C   UNL A   1      38.725  31.170  29.654  1.00  0.00     0.014 A 
ATOM     41  C   UNL A   1      40.233  32.553  30.955  1.00  0.00     0.014 A 
ATOM     42  C   UNL A   1      39.531  30.067  29.933  1.00  0.00     0.010 A 
ATOM     43  C   UNL A   1      41.094  31.494  31.117  1.00  0.00     0.010 A 
ATOM     44  C   UNL A   1      40.740  30.239  30.634  1.00  0.00    -0.014 A 
BRANCH  44  45
ATOM     45  C   UNL A   1      41.716  29.148  30.705  1.00  0.00     0.031 A 
ATOM     46  C   UNL A   1      42.050  28.728  32.093  1.00  0.00     0.074 A 
ATOM     47  C   UNL A   1      42.136  28.418  29.648  1.00  0.00     0.049 A 
ATOM     48  N   UNL A   1      43.152  28.942  32.729  1.00  0.00    -0.248 NA
ATOM     49  C   UNL A   1      40.982  28.163  32.935  1.00  0.00     0.031 C 
ATOM     50  C   UNL A   1      41.686  28.512  28.255  1.00  0.00     0.029 A 
ATOM     51  N   UNL A   1      42.988  27.352  29.613  1.00  0.00    -0.354 N 
ATOM     52  C   UNL A   1      43.019  28.288  33.949  1.00  0.00     0.074 A 
ATOM     53  C   UNL A   1      41.610  28.049  34.108  1.00  0.00     0.031 C 
ATOM     54  C   UNL A   1      42.084  27.415  27.573  1.00  0.00     0.029 A 
ATOM     55  C   UNL A   1      42.957  26.625  28.423  1.00  0.00     0.049 A 
ATOM     56  H   UNL A   1      43.577  27.116  30.366  1.00  0.00     0.167 HD
ATOM     57  C   UNL A   1      44.108  27.755  34.573  1.00  0.00     0.034 A 
ATOM     58  C   UNL A   1      43.591  25.453  28.143  1.00  0.00     0.034 A 
ATOM     59  C   UNL A   1      45.333  28.295  34.015  1.00  0.00     0.049 A 
ATOM     60  C   UNL A   1      44.738  25.354  29.075  1.00  0.00     0.074 A 
ATOM     61  C   UNL A   1      45.827  29.573  33.821  1.00  0.00     0.029 A 
ATOM     62  N   UNL A   1      46.083  27.488  33.186  1.00  0.00    -0.354 N 
ATOM     63  N   UNL A   1      45.756  26.169  29.040  1.00  0.00    -0.248 NA
ATOM     64  C   UNL A   1      44.540  24.667  30.341  1.00  0.00     0.031 C 
ATOM     65  C   UNL A   1      46.453  29.534  32.540  1.00  0.00     0.029 A 
ATOM     66  C   UNL A   1      46.402  28.221  32.070  1.00  0.00     0.049 A 
ATOM     67  H   UNL A   1      46.341  26.555  33.363  1.00  0.00     0.167 HD
ATOM     68  C   UNL A   1      46.032  26.448  30.370  1.00  0.00     0.074 A 
ATOM     69  C   UNL A   1      45.329  25.410  31.123  1.00  0.00     0.031 C 
ATOM     70  C   UNL A   1      46.562  27.651  30.743  1.00  0.00     0.034 A 
BRANCH  57  71
ATOM     71  C   UNL A   1      44.098  26.469  35.379  1.00  0.00     0.023 A 
ATOM     72  C   UNL A   1      44.628  26.535  36.683  1.00  0.00     0.031 A 
ATOM     73  C   UNL A   1      43.900  25.165  34.871  1.00  0.00     0.131 A 
ATOM     74  C   UNL A   1      45.065  25.377  37.349  1.00  0.00     0.055 A 
ATOM     75  C   UNL A   1      44.268  24.010  35.569  1.00  0.00     0.041 A 
ATOM     76  F   UNL A   1      43.425  24.923  33.645  1.00  0.00    -0.206 F 
ATOM     77  C   UNL A   1      44.892  24.112  36.798  1.00  0.00     0.022 A 
BRANCH  74  78
ATOM     78  S   UNL A   1      46.051  25.582  38.853  1.00  0.00     0.124 S 
ATOM     79  O   UNL A   1      47.348  25.079  38.413  1.00  0.00    -0.237 OA
ATOM     80  O   UNL A   1      45.958  27.020  39.076  1.00  0.00    -0.237 OA
ATOM     81  O   UNL A   1      45.354  24.749  39.829  1.00  0.00    -0.744 OA
ENDBRANCH  74  78
ENDBRANCH  57  71
BRANCH  58  82
ATOM     82  C   UNL A   1      43.107  24.313  27.312  1.00  0.00     0.023 A 
ATOM     83  C   UNL A   1      43.940  23.607  26.414  1.00  0.00     0.031 A 
ATOM     84  C   UNL A   1      41.851  23.731  27.595  1.00  0.00     0.131 A 
ATOM     85  C   UNL A   1      43.512  22.379  25.855  1.00  0.00     0.055 A 
ATOM     86  C   UNL A   1      41.433  22.519  27.041  1.00  0.00     0.041 A 
ATOM     87  F   UNL A   1      41.018  24.279  28.495  1.00  0.00    -0.206 F 
ATOM     88  C   UNL A   1      42.267  21.830  26.176  1.00  0.00     0.022 A 
BRANCH  85  89
ATOM     89  S   UNL A   1      44.614  21.411  24.769  1.00  0.00     0.124 S 
ATOM     90  O   UNL A   1      45.907  21.562  25.424  1.00  0.00    -0.237 OA
ATOM     91  O   UNL A   1      44.013  20.083  24.813  1.00  0.00    -0.237 OA
ATOM     92  O   UNL A   1      44.499  22.089  23.476  1.00  0.00    -0.744 OA
ENDBRANCH  85  89
ENDBRANCH  58  82
BRANCH  70  93
ATOM     93  C   UNL A   1      47.182  28.537  29.677  1.00  0.00     0.023 A 
ATOM     94  C   UNL A   1      46.468  29.289  28.716  1.00  0.00     0.031 A 
ATOM     95  C   UNL A   1      48.580  28.687  29.708  1.00  0.00     0.131 A 
ATOM     96  C   UNL A   1      47.161  30.135  27.824  1.00  0.00     0.055 A 
ATOM     97  C   UNL A   1      49.260  29.541  28.842  1.00  0.00     0.041 A 
ATOM     98  F   UNL A   1      49.318  28.018  30.611  1.00  0.00    -0.206 F 
ATOM     99  C   UNL A   1      48.552  30.262  27.889  1.00  0.00     0.022 A 
BRANCH  96 100
ATOM    100  S   UNL A   1      46.272  31.063  26.531  1.00  0.00     0.124 S 
ATOM    101  O   UNL A   1      44.935  31.237  27.086  1.00  0.00    -0.237 OA
ATOM    102  O   UNL A   1      47.074  32.277  26.406  1.00  0.00    -0.237 OA
ATOM    103  O   UNL A   1      46.336  30.172  25.370  1.00  0.00    -0.744 OA
ENDBRANCH  96 100
ENDBRANCH  70  93
ENDBRANCH  44  45
ENDBRANCH  36  39
ENDBRANCH  34  35
ENDBRANCH  33  34
ENDBRANCH   1  33
TORSDOF 19
ENDMDL
