MODEL 1
REMARK VINA RESULT:     -12.9      0.000      0.000
REMARK SMILES Cc1cc(Cl)c2c(c1)C=C(C(=O)NCCCCNC(=O)c1ccc(-c3c4nc(c(-c5cc(S(=O)(=O)[O-])ccc5F)c5ccc([nH]5)c(-c5cc(S(=O)(=O)[O-])ccc5F)c5nc(c(-c6cc(S(=O)(=O)[O-])ccc6F)c6ccc3[nH]6)C=C5)C=C4)cc1)[C@@H](C(F)(F)F)O2
REMARK SMILES IDX 16 1 15 2 14 3 13 4 11 5 12 6 10 8 1 9 2 10 3 11 8 12 4 13
REMARK SMILES IDX 7 14 5 15 6 16 9 17 89 18 84 19 85 20 86 21 87 22 88 23
REMARK SMILES IDX 17 24 18 25 19 26 20 28 21 29 22 30 83 31 23 32 82 33 24 34
REMARK SMILES IDX 25 35 26 36 76 37 27 38 81 39 75 40 77 41 28 42 80 43 74 44
REMARK SMILES IDX 73 45 29 47 61 48 41 49 60 50 42 51 45 52 59 53 78 54 43 55
REMARK SMILES IDX 44 56 58 58 79 59 46 60 30 61 31 62 39 63 32 64 38 65 40 66
REMARK SMILES IDX 37 67 33 68 34 69 35 70 36 71 62 72 63 73 71 74 64 75 70 76
REMARK SMILES IDX 72 77 69 78 65 79 66 80 67 81 68 82 47 83 48 84 56 85 49 86
REMARK SMILES IDX 55 87 57 88 54 89 50 90 51 91 52 92 53 93
REMARK H PARENT 13 7 18 27 77 46 45 57
REMARK Flexibility Score: inf
ROOT
ATOM      1  C   UNL A   1      34.843  21.682  25.001  1.00  0.00     0.023 C 
ENDROOT
BRANCH   1   2
ATOM      2  C   UNL A   1      33.670  21.322  25.918  1.00  0.00     0.023 C 
BRANCH   2   3
ATOM      3  C   UNL A   1      32.300  21.449  25.257  1.00  0.00     0.116 C 
BRANCH   3   4
ATOM      4  N   UNL A   1      31.334  22.090  26.132  1.00  0.00    -0.352 N 
ATOM      5  C   UNL A   1      30.938  23.353  26.407  1.00  0.00     0.251 C 
ATOM      6  O   UNL A   1      30.054  23.453  27.264  1.00  0.00    -0.270 OA
ATOM      7  H   UNL A   1      30.836  21.430  26.665  1.00  0.00     0.163 HD
BRANCH   5   8
ATOM      8  C   UNL A   1      31.476  24.589  25.764  1.00  0.00     0.067 C 
ATOM      9  C   UNL A   1      31.994  30.653  26.885  1.00  0.00     0.044 C 
ATOM     10  C   UNL A   1      32.193  29.373  26.129  1.00  0.00    -0.049 A 
ATOM     11  C   UNL A   1      32.904  29.358  24.923  1.00  0.00     0.028 A 
ATOM     12  C   UNL A   1      31.715  28.163  26.653  1.00  0.00     0.015 A 
ATOM     13  C   UNL A   1      33.113  28.156  24.242  1.00  0.00     0.084 A 
ATOM     14  C   UNL A   1      31.919  26.958  25.970  1.00  0.00     0.019 A 
ATOM     15  Cl  UNL A   1      33.992  28.195  22.756  1.00  0.00    -0.080 Cl
ATOM     16  C   UNL A   1      32.613  26.957  24.759  1.00  0.00     0.146 A 
ATOM     17  C   UNL A   1      31.451  25.696  26.530  1.00  0.00     0.025 C 
ATOM     18  O   UNL A   1      32.867  25.794  24.083  1.00  0.00    -0.474 OA
ATOM     19  C   UNL A   1      31.979  24.673  24.351  1.00  0.00     0.314 C 
BRANCH  19  20
ATOM     20  C   UNL A   1      30.839  24.669  23.314  1.00  0.00     0.429 C 
ATOM     21  F   UNL A   1      31.296  25.064  22.100  1.00  0.00    -0.167 F 
ATOM     22  F   UNL A   1      30.298  23.441  23.141  1.00  0.00    -0.167 F 
ATOM     23  F   UNL A   1      29.827  25.500  23.656  1.00  0.00    -0.167 F 
ENDBRANCH  19  20
ENDBRANCH   5   8
ENDBRANCH   3   4
ENDBRANCH   2   3
ENDBRANCH   1   2
BRANCH   1  24
ATOM     24  C   UNL A   1      36.171  21.954  25.706  1.00  0.00     0.116 C 
BRANCH  24  25
ATOM     25  N   UNL A   1      37.158  20.900  25.524  1.00  0.00    -0.352 N 
ATOM     26  C   UNL A   1      38.513  20.960  25.751  1.00  0.00     0.251 C 
ATOM     27  H   UNL A   1      36.814  20.038  25.198  1.00  0.00     0.163 HD
ATOM     28  O   UNL A   1      39.232  20.007  25.474  1.00  0.00    -0.269 OA
BRANCH  26  29
ATOM     29  C   UNL A   1      39.085  22.209  26.289  1.00  0.00     0.039 A 
ATOM     30  C   UNL A   1      40.149  22.127  27.188  1.00  0.00     0.014 A 
ATOM     31  C   UNL A   1      38.619  23.448  25.842  1.00  0.00     0.014 A 
ATOM     32  C   UNL A   1      40.800  23.295  27.584  1.00  0.00     0.010 A 
ATOM     33  C   UNL A   1      39.306  24.604  26.193  1.00  0.00     0.010 A 
ATOM     34  C   UNL A   1      40.407  24.537  27.059  1.00  0.00    -0.014 A 
BRANCH  34  35
ATOM     35  C   UNL A   1      41.142  25.777  27.403  1.00  0.00     0.031 A 
ATOM     36  C   UNL A   1      40.482  26.827  28.247  1.00  0.00     0.074 A 
ATOM     37  C   UNL A   1      42.379  25.977  26.908  1.00  0.00     0.049 A 
ATOM     38  N   UNL A   1      40.925  28.007  28.595  1.00  0.00    -0.248 NA
ATOM     39  C   UNL A   1      39.132  26.518  28.742  1.00  0.00     0.031 C 
ATOM     40  C   UNL A   1      43.109  25.042  26.048  1.00  0.00     0.029 A 
ATOM     41  N   UNL A   1      43.241  27.033  27.057  1.00  0.00    -0.354 N 
ATOM     42  C   UNL A   1      39.905  28.588  29.340  1.00  0.00     0.074 A 
ATOM     43  C   UNL A   1      38.802  27.650  29.345  1.00  0.00     0.031 C 
ATOM     44  C   UNL A   1      44.321  25.552  25.775  1.00  0.00     0.029 A 
ATOM     45  C   UNL A   1      44.440  26.862  26.408  1.00  0.00     0.049 A 
ATOM     46  H   UNL A   1      43.023  27.837  27.581  1.00  0.00     0.167 HD
ATOM     47  C   UNL A   1      39.900  29.781  29.980  1.00  0.00     0.034 A 
ATOM     48  C   UNL A   1      45.515  27.670  26.330  1.00  0.00     0.034 A 
ATOM     49  C   UNL A   1      41.013  30.696  29.984  1.00  0.00     0.049 A 
ATOM     50  C   UNL A   1      45.482  28.999  27.033  1.00  0.00     0.074 A 
ATOM     51  C   UNL A   1      41.131  31.910  30.638  1.00  0.00     0.029 A 
ATOM     52  N   UNL A   1      42.203  30.497  29.295  1.00  0.00    -0.354 N 
ATOM     53  N   UNL A   1      44.514  29.531  27.741  1.00  0.00    -0.248 NA
ATOM     54  C   UNL A   1      46.684  29.835  26.925  1.00  0.00     0.031 C 
ATOM     55  C   UNL A   1      42.374  32.465  30.309  1.00  0.00     0.029 A 
ATOM     56  C   UNL A   1      43.052  31.575  29.491  1.00  0.00     0.049 A 
ATOM     57  H   UNL A   1      42.413  29.706  28.748  1.00  0.00     0.167 HD
ATOM     58  C   UNL A   1      44.994  30.762  28.173  1.00  0.00     0.074 A 
ATOM     59  C   UNL A   1      46.340  30.892  27.650  1.00  0.00     0.031 C 
ATOM     60  C   UNL A   1      44.379  31.698  28.939  1.00  0.00     0.034 A 
BRANCH  47  61
ATOM     61  C   UNL A   1      38.638  30.160  30.711  1.00  0.00     0.023 A 
ATOM     62  C   UNL A   1      37.613  30.881  30.074  1.00  0.00     0.031 A 
ATOM     63  C   UNL A   1      38.474  29.835  32.068  1.00  0.00     0.131 A 
ATOM     64  C   UNL A   1      36.504  31.319  30.812  1.00  0.00     0.055 A 
ATOM     65  C   UNL A   1      37.333  30.210  32.780  1.00  0.00     0.041 A 
ATOM     66  F   UNL A   1      39.431  29.165  32.730  1.00  0.00    -0.206 F 
ATOM     67  C   UNL A   1      36.346  30.968  32.155  1.00  0.00     0.022 A 
BRANCH  64  68
ATOM     68  S   UNL A   1      35.333  32.455  30.024  1.00  0.00     0.124 S 
ATOM     69  O   UNL A   1      34.830  31.638  28.922  1.00  0.00    -0.237 OA
ATOM     70  O   UNL A   1      34.386  32.732  31.098  1.00  0.00    -0.237 OA
ATOM     71  O   UNL A   1      36.168  33.584  29.623  1.00  0.00    -0.744 OA
ENDBRANCH  64  68
ENDBRANCH  47  61
BRANCH  48  72
ATOM     72  C   UNL A   1      46.709  27.240  25.557  1.00  0.00     0.023 A 
ATOM     73  C   UNL A   1      46.894  27.661  24.232  1.00  0.00     0.031 A 
ATOM     74  C   UNL A   1      47.691  26.424  26.142  1.00  0.00     0.131 A 
ATOM     75  C   UNL A   1      48.034  27.248  23.524  1.00  0.00     0.055 A 
ATOM     76  C   UNL A   1      48.836  26.039  25.443  1.00  0.00     0.041 A 
ATOM     77  F   UNL A   1      47.562  26.013  27.414  1.00  0.00    -0.206 F 
ATOM     78  C   UNL A   1      49.011  26.449  24.124  1.00  0.00     0.022 A 
BRANCH  75  79
ATOM     79  S   UNL A   1      48.230  27.779  21.801  1.00  0.00     0.124 S 
ATOM     80  O   UNL A   1      49.369  28.685  21.898  1.00  0.00    -0.237 OA
ATOM     81  O   UNL A   1      48.472  26.515  21.115  1.00  0.00    -0.237 OA
ATOM     82  O   UNL A   1      46.950  28.413  21.493  1.00  0.00    -0.744 OA
ENDBRANCH  75  79
ENDBRANCH  48  72
BRANCH  60  83
ATOM     83  C   UNL A   1      45.164  32.937  29.269  1.00  0.00     0.023 A 
ATOM     84  C   UNL A   1      45.057  34.100  28.488  1.00  0.00     0.031 A 
ATOM     85  C   UNL A   1      46.002  32.962  30.397  1.00  0.00     0.131 A 
ATOM     86  C   UNL A   1      45.801  35.238  28.832  1.00  0.00     0.055 A 
ATOM     87  C   UNL A   1      46.708  34.109  30.757  1.00  0.00     0.041 A 
ATOM     88  F   UNL A   1      46.134  31.875  31.173  1.00  0.00    -0.206 F 
ATOM     89  C   UNL A   1      46.613  35.255  29.971  1.00  0.00     0.022 A 
BRANCH  86  90
ATOM     90  S   UNL A   1      45.714  36.696  27.758  1.00  0.00     0.124 S 
ATOM     91  O   UNL A   1      46.840  37.490  28.238  1.00  0.00    -0.237 OA
ATOM     92  O   UNL A   1      45.862  36.120  26.426  1.00  0.00    -0.237 OA
ATOM     93  O   UNL A   1      44.394  37.255  28.046  1.00  0.00    -0.744 OA
ENDBRANCH  86  90
ENDBRANCH  60  83
ENDBRANCH  34  35
ENDBRANCH  26  29
ENDBRANCH  24  25
ENDBRANCH   1  24
TORSDOF 15
ENDMDL
MODEL 2
REMARK VINA RESULT:     -12.9      5.279     10.018
REMARK SMILES Cc1cc(Cl)c2c(c1)C=C(C(=O)NCCCCNC(=O)c1ccc(-c3c4nc(c(-c5cc(S(=O)(=O)[O-])ccc5F)c5ccc([nH]5)c(-c5cc(S(=O)(=O)[O-])ccc5F)c5nc(c(-c6cc(S(=O)(=O)[O-])ccc6F)c6ccc3[nH]6)C=C5)C=C4)cc1)[C@@H](C(F)(F)F)O2
REMARK SMILES IDX 16 1 15 2 14 3 13 4 11 5 12 6 10 8 1 9 2 10 3 11 8 12 4 13
REMARK SMILES IDX 7 14 5 15 6 16 9 17 89 18 84 19 85 20 86 21 87 22 88 23
REMARK SMILES IDX 17 24 18 25 19 26 20 28 21 29 22 30 83 31 23 32 82 33 24 34
REMARK SMILES IDX 25 35 26 36 76 37 27 38 81 39 75 40 77 41 28 42 80 43 74 44
REMARK SMILES IDX 73 45 29 47 61 48 41 49 60 50 42 51 45 52 59 53 78 54 43 55
REMARK SMILES IDX 44 56 58 58 79 59 46 60 30 61 31 62 39 63 32 64 38 65 40 66
REMARK SMILES IDX 37 67 33 68 34 69 35 70 36 71 62 72 63 73 71 74 64 75 70 76
REMARK SMILES IDX 72 77 69 78 65 79 66 80 67 81 68 82 47 83 48 84 56 85 49 86
REMARK SMILES IDX 55 87 57 88 54 89 50 90 51 91 52 92 53 93
REMARK H PARENT 13 7 18 27 77 46 45 57
REMARK Flexibility Score: inf
ROOT
ATOM      1  C   UNL A   1      33.018  29.302  24.481  1.00  0.00     0.023 C 
ENDROOT
BRANCH   1   2
ATOM      2  C   UNL A   1      34.160  28.328  24.177  1.00  0.00     0.023 C 
BRANCH   2   3
ATOM      3  C   UNL A   1      33.898  26.896  24.636  1.00  0.00     0.116 C 
BRANCH   3   4
ATOM      4  N   UNL A   1      33.504  26.038  23.533  1.00  0.00    -0.352 N 
ATOM      5  C   UNL A   1      32.378  25.793  22.826  1.00  0.00     0.251 C 
ATOM      6  O   UNL A   1      32.486  24.938  21.941  1.00  0.00    -0.270 OA
ATOM      7  H   UNL A   1      34.257  25.488  23.216  1.00  0.00     0.163 HD
BRANCH   5   8
ATOM      8  C   UNL A   1      31.060  26.465  23.036  1.00  0.00     0.067 C 
ATOM      9  C   UNL A   1      28.319  31.913  21.987  1.00  0.00     0.044 C 
ATOM     10  C   UNL A   1      28.410  30.482  22.431  1.00  0.00    -0.049 A 
ATOM     11  C   UNL A   1      27.290  29.822  22.949  1.00  0.00     0.028 A 
ATOM     12  C   UNL A   1      29.610  29.773  22.278  1.00  0.00     0.015 A 
ATOM     13  C   UNL A   1      27.376  28.480  23.329  1.00  0.00     0.084 A 
ATOM     14  C   UNL A   1      29.700  28.430  22.663  1.00  0.00     0.019 A 
ATOM     15  Cl  UNL A   1      25.966  27.714  23.966  1.00  0.00    -0.080 Cl
ATOM     16  C   UNL A   1      28.583  27.785  23.195  1.00  0.00     0.146 A 
ATOM     17  C   UNL A   1      30.937  27.682  22.474  1.00  0.00     0.025 C 
ATOM     18  O   UNL A   1      28.620  26.462  23.545  1.00  0.00    -0.474 OA
ATOM     19  C   UNL A   1      29.928  25.902  23.848  1.00  0.00     0.314 C 
BRANCH  19  20
ATOM     20  C   UNL A   1      30.183  25.996  25.365  1.00  0.00     0.429 C 
ATOM     21  F   UNL A   1      29.051  25.713  26.056  1.00  0.00    -0.167 F 
ATOM     22  F   UNL A   1      31.122  25.121  25.790  1.00  0.00    -0.167 F 
ATOM     23  F   UNL A   1      30.591  27.228  25.745  1.00  0.00    -0.167 F 
ENDBRANCH  19  20
ENDBRANCH   5   8
ENDBRANCH   3   4
ENDBRANCH   2   3
ENDBRANCH   1   2
BRANCH   1  24
ATOM     24  C   UNL A   1      32.699  29.502  25.962  1.00  0.00     0.116 C 
BRANCH  24  25
ATOM     25  N   UNL A   1      32.329  30.867  26.303  1.00  0.00    -0.352 N 
ATOM     26  C   UNL A   1      33.019  31.760  27.090  1.00  0.00     0.251 C 
ATOM     27  H   UNL A   1      31.481  31.193  25.925  1.00  0.00     0.163 HD
ATOM     28  O   UNL A   1      32.538  32.857  27.352  1.00  0.00    -0.269 OA
BRANCH  26  29
ATOM     29  C   UNL A   1      34.323  31.352  27.646  1.00  0.00     0.039 A 
ATOM     30  C   UNL A   1      35.278  32.335  27.911  1.00  0.00     0.014 A 
ATOM     31  C   UNL A   1      34.562  30.014  27.975  1.00  0.00     0.014 A 
ATOM     32  C   UNL A   1      36.451  31.986  28.578  1.00  0.00     0.010 A 
ATOM     33  C   UNL A   1      35.705  29.680  28.691  1.00  0.00     0.010 A 
ATOM     34  C   UNL A   1      36.654  30.664  29.007  1.00  0.00    -0.014 A 
BRANCH  34  35
ATOM     35  C   UNL A   1      37.855  30.293  29.792  1.00  0.00     0.031 A 
ATOM     36  C   UNL A   1      38.898  29.399  29.187  1.00  0.00     0.074 A 
ATOM     37  C   UNL A   1      37.976  30.717  31.065  1.00  0.00     0.049 A 
ATOM     38  N   UNL A   1      39.977  28.902  29.731  1.00  0.00    -0.248 NA
ATOM     39  C   UNL A   1      38.679  28.988  27.792  1.00  0.00     0.031 C 
ATOM     40  C   UNL A   1      37.010  31.563  31.771  1.00  0.00     0.029 A 
ATOM     41  N   UNL A   1      38.962  30.495  31.991  1.00  0.00    -0.354 N 
ATOM     42  C   UNL A   1      40.563  28.109  28.751  1.00  0.00     0.074 A 
ATOM     43  C   UNL A   1      39.687  28.151  27.599  1.00  0.00     0.031 C 
ATOM     44  C   UNL A   1      37.469  31.815  33.008  1.00  0.00     0.029 A 
ATOM     45  C   UNL A   1      38.740  31.122  33.194  1.00  0.00     0.049 A 
ATOM     46  H   UNL A   1      39.755  29.941  31.812  1.00  0.00     0.167 HD
ATOM     47  C   UNL A   1      41.734  27.431  28.799  1.00  0.00     0.034 A 
ATOM     48  C   UNL A   1      39.477  31.136  34.321  1.00  0.00     0.034 A 
ATOM     49  C   UNL A   1      42.606  27.415  29.946  1.00  0.00     0.049 A 
ATOM     50  C   UNL A   1      40.766  30.361  34.361  1.00  0.00     0.074 A 
ATOM     51  C   UNL A   1      43.837  26.799  30.086  1.00  0.00     0.029 A 
ATOM     52  N   UNL A   1      42.335  28.044  31.155  1.00  0.00    -0.354 N 
ATOM     53  N   UNL A   1      41.311  29.623  33.424  1.00  0.00    -0.248 NA
ATOM     54  C   UNL A   1      41.535  30.419  35.611  1.00  0.00     0.031 C 
ATOM     55  C   UNL A   1      44.290  27.017  31.393  1.00  0.00     0.029 A 
ATOM     56  C   UNL A   1      43.366  27.813  32.052  1.00  0.00     0.049 A 
ATOM     57  H   UNL A   1      41.529  28.575  31.346  1.00  0.00     0.167 HD
ATOM     58  C   UNL A   1      42.495  29.137  33.965  1.00  0.00     0.074 A 
ATOM     59  C   UNL A   1      42.588  29.669  35.311  1.00  0.00     0.031 C 
ATOM     60  C   UNL A   1      43.426  28.329  33.398  1.00  0.00     0.034 A 
BRANCH  47  61
ATOM     61  C   UNL A   1      42.118  26.640  27.577  1.00  0.00     0.023 A 
ATOM     62  C   UNL A   1      41.782  25.281  27.449  1.00  0.00     0.031 A 
ATOM     63  C   UNL A   1      42.862  27.237  26.545  1.00  0.00     0.131 A 
ATOM     64  C   UNL A   1      42.254  24.544  26.353  1.00  0.00     0.055 A 
ATOM     65  C   UNL A   1      43.267  26.517  25.420  1.00  0.00     0.041 A 
ATOM     66  F   UNL A   1      43.227  28.527  26.624  1.00  0.00    -0.206 F 
ATOM     67  C   UNL A   1      42.974  25.158  25.326  1.00  0.00     0.022 A 
BRANCH  64  68
ATOM     68  S   UNL A   1      42.017  22.747  26.351  1.00  0.00     0.124 S 
ATOM     69  O   UNL A   1      42.707  22.360  27.580  1.00  0.00    -0.237 OA
ATOM     70  O   UNL A   1      40.564  22.618  26.367  1.00  0.00    -0.237 OA
ATOM     71  O   UNL A   1      42.667  22.318  25.116  1.00  0.00    -0.744 OA
ENDBRANCH  64  68
ENDBRANCH  47  61
BRANCH  48  72
ATOM     72  C   UNL A   1      39.011  31.911  35.501  1.00  0.00     0.023 A 
ATOM     73  C   UNL A   1      38.295  31.285  36.532  1.00  0.00     0.031 A 
ATOM     74  C   UNL A   1      39.297  33.280  35.622  1.00  0.00     0.131 A 
ATOM     75  C   UNL A   1      37.872  32.035  37.639  1.00  0.00     0.055 A 
ATOM     76  C   UNL A   1      38.897  34.017  36.738  1.00  0.00     0.041 A 
ATOM     77  F   UNL A   1      39.994  33.915  34.666  1.00  0.00    -0.206 F 
ATOM     78  C   UNL A   1      38.177  33.394  37.754  1.00  0.00     0.022 A 
BRANCH  75  79
ATOM     79  S   UNL A   1      36.919  31.207  38.942  1.00  0.00     0.124 S 
ATOM     80  O   UNL A   1      36.731  29.878  38.372  1.00  0.00    -0.237 OA
ATOM     81  O   UNL A   1      37.820  31.294  40.086  1.00  0.00    -0.237 OA
ATOM     82  O   UNL A   1      35.709  32.021  39.045  1.00  0.00    -0.744 OA
ENDBRANCH  75  79
ENDBRANCH  48  72
BRANCH  60  83
ATOM     83  C   UNL A   1      44.631  27.984  34.229  1.00  0.00     0.023 A 
ATOM     84  C   UNL A   1      44.636  26.869  35.083  1.00  0.00     0.031 A 
ATOM     85  C   UNL A   1      45.798  28.763  34.137  1.00  0.00     0.131 A 
ATOM     86  C   UNL A   1      45.782  26.577  35.836  1.00  0.00     0.055 A 
ATOM     87  C   UNL A   1      46.948  28.444  34.858  1.00  0.00     0.041 A 
ATOM     88  F   UNL A   1      45.839  29.837  33.332  1.00  0.00    -0.206 F 
ATOM     89  C   UNL A   1      46.943  27.347  35.717  1.00  0.00     0.022 A 
BRANCH  86  90
ATOM     90  S   UNL A   1      45.733  25.185  36.997  1.00  0.00     0.124 S 
ATOM     91  O   UNL A   1      46.714  25.594  37.997  1.00  0.00    -0.237 OA
ATOM     92  O   UNL A   1      44.340  25.184  37.434  1.00  0.00    -0.237 OA
ATOM     93  O   UNL A   1      46.123  24.040  36.177  1.00  0.00    -0.744 OA
ENDBRANCH  86  90
ENDBRANCH  60  83
ENDBRANCH  34  35
ENDBRANCH  26  29
ENDBRANCH  24  25
ENDBRANCH   1  24
TORSDOF 15
ENDMDL
MODEL 3
REMARK VINA RESULT:     -12.8      5.175     10.184
REMARK SMILES Cc1cc(Cl)c2c(c1)C=C(C(=O)NCCCCNC(=O)c1ccc(-c3c4nc(c(-c5cc(S(=O)(=O)[O-])ccc5F)c5ccc([nH]5)c(-c5cc(S(=O)(=O)[O-])ccc5F)c5nc(c(-c6cc(S(=O)(=O)[O-])ccc6F)c6ccc3[nH]6)C=C5)C=C4)cc1)[C@@H](C(F)(F)F)O2
REMARK SMILES IDX 16 1 15 2 14 3 13 4 11 5 12 6 10 8 1 9 2 10 3 11 8 12 4 13
REMARK SMILES IDX 7 14 5 15 6 16 9 17 89 18 84 19 85 20 86 21 87 22 88 23
REMARK SMILES IDX 17 24 18 25 19 26 20 28 21 29 22 30 83 31 23 32 82 33 24 34
REMARK SMILES IDX 25 35 26 36 76 37 27 38 81 39 75 40 77 41 28 42 80 43 74 44
REMARK SMILES IDX 73 45 29 47 61 48 41 49 60 50 42 51 45 52 59 53 78 54 43 55
REMARK SMILES IDX 44 56 58 58 79 59 46 60 30 61 31 62 39 63 32 64 38 65 40 66
REMARK SMILES IDX 37 67 33 68 34 69 35 70 36 71 62 72 63 73 71 74 64 75 70 76
REMARK SMILES IDX 72 77 69 78 65 79 66 80 67 81 68 82 47 83 48 84 56 85 49 86
REMARK SMILES IDX 55 87 57 88 54 89 50 90 51 91 52 92 53 93
REMARK H PARENT 13 7 18 27 77 46 45 57
REMARK Flexibility Score: inf
ROOT
ATOM      1  C   UNL A   1      31.729  28.348  24.875  1.00  0.00     0.023 C 
ENDROOT
BRANCH   1   2
ATOM      2  C   UNL A   1      31.273  27.206  25.790  1.00  0.00     0.023 C 
BRANCH   2   3
ATOM      3  C   UNL A   1      30.822  25.953  25.045  1.00  0.00     0.116 C 
BRANCH   3   4
ATOM      4  N   UNL A   1      31.302  25.933  23.676  1.00  0.00    -0.352 N 
ATOM      5  C   UNL A   1      32.189  25.215  22.950  1.00  0.00     0.251 C 
ATOM      6  O   UNL A   1      32.302  25.555  21.768  1.00  0.00    -0.270 OA
ATOM      7  H   UNL A   1      30.867  26.628  23.130  1.00  0.00     0.163 HD
BRANCH   5   8
ATOM      8  C   UNL A   1      33.008  24.077  23.465  1.00  0.00     0.067 C 
ATOM      9  C   UNL A   1      32.397  18.090  24.906  1.00  0.00     0.044 C 
ATOM     10  C   UNL A   1      33.121  19.387  24.699  1.00  0.00    -0.049 A 
ATOM     11  C   UNL A   1      34.500  19.479  24.923  1.00  0.00     0.028 A 
ATOM     12  C   UNL A   1      32.431  20.511  24.224  1.00  0.00     0.015 A 
ATOM     13  C   UNL A   1      35.172  20.683  24.695  1.00  0.00     0.084 A 
ATOM     14  C   UNL A   1      33.102  21.720  24.000  1.00  0.00     0.019 A 
ATOM     15  Cl  UNL A   1      36.873  20.742  24.991  1.00  0.00    -0.080 Cl
ATOM     16  C   UNL A   1      34.474  21.806  24.244  1.00  0.00     0.146 A 
ATOM     17  C   UNL A   1      32.392  22.880  23.476  1.00  0.00     0.025 C 
ATOM     18  O   UNL A   1      35.171  22.958  23.999  1.00  0.00    -0.474 OA
ATOM     19  C   UNL A   1      34.409  24.198  23.996  1.00  0.00     0.314 C 
BRANCH  19  20
ATOM     20  C   UNL A   1      34.458  24.828  25.401  1.00  0.00     0.429 C 
ATOM     21  F   UNL A   1      35.626  24.524  26.020  1.00  0.00    -0.167 F 
ATOM     22  F   UNL A   1      34.379  26.177  25.369  1.00  0.00    -0.167 F 
ATOM     23  F   UNL A   1      33.454  24.394  26.197  1.00  0.00    -0.167 F 
ENDBRANCH  19  20
ENDBRANCH   5   8
ENDBRANCH   3   4
ENDBRANCH   2   3
ENDBRANCH   1   2
BRANCH   1  24
ATOM     24  C   UNL A   1      32.801  29.269  25.456  1.00  0.00     0.116 C 
BRANCH  24  25
ATOM     25  N   UNL A   1      32.277  30.525  25.973  1.00  0.00    -0.352 N 
ATOM     26  C   UNL A   1      32.832  31.345  26.927  1.00  0.00     0.251 C 
ATOM     27  H   UNL A   1      31.421  30.824  25.593  1.00  0.00     0.163 HD
ATOM     28  O   UNL A   1      32.230  32.338  27.318  1.00  0.00    -0.269 OA
BRANCH  26  29
ATOM     29  C   UNL A   1      34.142  30.978  27.499  1.00  0.00     0.039 A 
ATOM     30  C   UNL A   1      35.096  31.979  27.689  1.00  0.00     0.014 A 
ATOM     31  C   UNL A   1      34.388  29.667  27.915  1.00  0.00     0.014 A 
ATOM     32  C   UNL A   1      36.275  31.680  28.369  1.00  0.00     0.010 A 
ATOM     33  C   UNL A   1      35.537  29.385  28.643  1.00  0.00     0.010 A 
ATOM     34  C   UNL A   1      36.486  30.390  28.884  1.00  0.00    -0.014 A 
BRANCH  34  35
ATOM     35  C   UNL A   1      37.694  30.077  29.683  1.00  0.00     0.031 A 
ATOM     36  C   UNL A   1      38.767  29.202  29.104  1.00  0.00     0.074 A 
ATOM     37  C   UNL A   1      37.795  30.534  30.946  1.00  0.00     0.049 A 
ATOM     38  N   UNL A   1      39.859  28.752  29.664  1.00  0.00    -0.248 NA
ATOM     39  C   UNL A   1      38.569  28.752  27.718  1.00  0.00     0.031 C 
ATOM     40  C   UNL A   1      36.799  31.364  31.628  1.00  0.00     0.029 A 
ATOM     41  N   UNL A   1      38.783  30.365  31.882  1.00  0.00    -0.354 N 
ATOM     42  C   UNL A   1      40.474  27.956  28.705  1.00  0.00     0.074 A 
ATOM     43  C   UNL A   1      39.604  27.943  27.549  1.00  0.00     0.031 C 
ATOM     44  C   UNL A   1      37.244  31.660  32.860  1.00  0.00     0.029 A 
ATOM     45  C   UNL A   1      38.535  31.013  33.068  1.00  0.00     0.049 A 
ATOM     46  H   UNL A   1      39.594  29.832  31.719  1.00  0.00     0.167 HD
ATOM     47  C   UNL A   1      41.666  27.316  28.775  1.00  0.00     0.034 A 
ATOM     48  C   UNL A   1      39.266  31.076  34.198  1.00  0.00     0.034 A 
ATOM     49  C   UNL A   1      42.533  27.355  29.926  1.00  0.00     0.049 A 
ATOM     50  C   UNL A   1      40.578  30.345  34.261  1.00  0.00     0.074 A 
ATOM     51  C   UNL A   1      43.782  26.782  30.085  1.00  0.00     0.029 A 
ATOM     52  N   UNL A   1      42.236  28.003  31.118  1.00  0.00    -0.354 N 
ATOM     53  N   UNL A   1      41.151  29.602  33.344  1.00  0.00    -0.248 NA
ATOM     54  C   UNL A   1      41.339  30.456  35.513  1.00  0.00     0.031 C 
ATOM     55  C   UNL A   1      44.221  27.045  31.389  1.00  0.00     0.029 A 
ATOM     56  C   UNL A   1      43.269  27.826  32.025  1.00  0.00     0.049 A 
ATOM     57  H   UNL A   1      41.412  28.513  31.293  1.00  0.00     0.167 HD
ATOM     58  C   UNL A   1      42.347  29.167  33.902  1.00  0.00     0.074 A 
ATOM     59  C   UNL A   1      42.416  29.733  35.235  1.00  0.00     0.031 C 
ATOM     60  C   UNL A   1      43.306  28.376  33.358  1.00  0.00     0.034 A 
BRANCH  47  61
ATOM     61  C   UNL A   1      42.081  26.509  27.573  1.00  0.00     0.023 A 
ATOM     62  C   UNL A   1      41.716  25.159  27.437  1.00  0.00     0.031 A 
ATOM     63  C   UNL A   1      42.884  27.081  26.572  1.00  0.00     0.131 A 
ATOM     64  C   UNL A   1      42.214  24.405  26.365  1.00  0.00     0.055 A 
ATOM     65  C   UNL A   1      43.318  26.345  25.468  1.00  0.00     0.041 A 
ATOM     66  F   UNL A   1      43.279  28.361  26.662  1.00  0.00    -0.206 F 
ATOM     67  C   UNL A   1      42.994  24.994  25.367  1.00  0.00     0.022 A 
BRANCH  64  68
ATOM     68  S   UNL A   1      41.930  22.614  26.360  1.00  0.00     0.124 S 
ATOM     69  O   UNL A   1      40.470  22.551  26.363  1.00  0.00    -0.237 OA
ATOM     70  O   UNL A   1      42.585  22.192  25.127  1.00  0.00    -0.237 OA
ATOM     71  O   UNL A   1      42.570  22.163  27.592  1.00  0.00    -0.744 OA
ENDBRANCH  64  68
ENDBRANCH  47  61
BRANCH  48  72
ATOM     72  C   UNL A   1      38.769  31.864  35.357  1.00  0.00     0.023 A 
ATOM     73  C   UNL A   1      38.171  31.226  36.453  1.00  0.00     0.031 A 
ATOM     74  C   UNL A   1      38.910  33.260  35.392  1.00  0.00     0.131 A 
ATOM     75  C   UNL A   1      37.717  31.989  37.539  1.00  0.00     0.055 A 
ATOM     76  C   UNL A   1      38.481  34.013  36.487  1.00  0.00     0.041 A 
ATOM     77  F   UNL A   1      39.493  33.910  34.372  1.00  0.00    -0.206 F 
ATOM     78  C   UNL A   1      37.877  33.377  37.568  1.00  0.00     0.022 A 
BRANCH  75  79
ATOM     79  S   UNL A   1      36.915  31.141  38.927  1.00  0.00     0.124 S 
ATOM     80  O   UNL A   1      35.656  31.869  39.033  1.00  0.00    -0.237 OA
ATOM     81  O   UNL A   1      36.824  29.768  38.440  1.00  0.00    -0.237 OA
ATOM     82  O   UNL A   1      37.850  31.342  40.032  1.00  0.00    -0.744 OA
ENDBRANCH  75  79
ENDBRANCH  48  72
BRANCH  60  83
ATOM     83  C   UNL A   1      44.518  28.089  34.202  1.00  0.00     0.023 A 
ATOM     84  C   UNL A   1      44.563  26.981  35.064  1.00  0.00     0.031 A 
ATOM     85  C   UNL A   1      45.650  28.917  34.114  1.00  0.00     0.131 A 
ATOM     86  C   UNL A   1      45.714  26.744  35.829  1.00  0.00     0.055 A 
ATOM     87  C   UNL A   1      46.807  28.653  34.848  1.00  0.00     0.041 A 
ATOM     88  F   UNL A   1      45.653  29.986  33.302  1.00  0.00    -0.206 F 
ATOM     89  C   UNL A   1      46.841  27.563  35.715  1.00  0.00     0.022 A 
BRANCH  86  90
ATOM     90  S   UNL A   1      45.714  25.359  37.000  1.00  0.00     0.124 S 
ATOM     91  O   UNL A   1      46.457  25.918  38.125  1.00  0.00    -0.237 OA
ATOM     92  O   UNL A   1      44.290  25.134  37.227  1.00  0.00    -0.237 OA
ATOM     93  O   UNL A   1      46.399  24.294  36.271  1.00  0.00    -0.744 OA
ENDBRANCH  86  90
ENDBRANCH  60  83
ENDBRANCH  34  35
ENDBRANCH  26  29
ENDBRANCH  24  25
ENDBRANCH   1  24
TORSDOF 15
ENDMDL
