MODEL 1
REMARK VINA RESULT:     -12.6      0.000      0.000
REMARK SMILES COc1ccc2c(c1)c(CC(=O)NCCCCNC(=O)c1ccc(-c3c4nc(c(-c5cc(S(=O)(=O)[O-])ccc5F)c5ccc([nH]5)c(-c5cc(S(=O)(=O)[O-])ccc5F)c5nc(c(-c6cc(S(=O)(=O)[O-])ccc6F)c6ccc3[nH]6)C=C5)C=C4)cc1)c(C)n2Cc1ccc(Br)cc1
REMARK SMILES IDX 15 1 14 2 13 3 11 4 12 5 10 7 9 8 3 9 4 10 8 11 5 12 7 13
REMARK SMILES IDX 6 14 86 15 84 16 85 17 2 18 1 19 87 20 88 21 89 22 94 23
REMARK SMILES IDX 90 24 93 25 91 26 92 27 16 28 17 29 18 30 19 31 20 33 21 34
REMARK SMILES IDX 22 35 83 36 23 37 82 38 24 39 25 40 26 41 76 42 27 43 81 44
REMARK SMILES IDX 75 45 77 46 28 47 80 48 74 49 73 50 29 52 61 53 41 54 60 55
REMARK SMILES IDX 42 56 45 57 59 58 78 59 43 60 44 61 58 63 79 64 46 65 30 66
REMARK SMILES IDX 31 67 39 68 32 69 38 70 40 71 37 72 33 73 34 74 35 75 36 76
REMARK SMILES IDX 62 77 63 78 71 79 64 80 70 81 72 82 69 83 65 84 66 85 67 86
REMARK SMILES IDX 68 87 47 88 48 89 56 90 49 91 55 92 57 93 54 94 50 95 51 96
REMARK SMILES IDX 52 97 53 98
REMARK H PARENT 13 6 18 32 77 51 45 62
REMARK Flexibility Score: inf
ROOT
ATOM      1  C   UNL A   1      36.997  23.652  25.241  1.00  0.00     0.023 C 
ENDROOT
BRANCH   1   2
ATOM      2  C   UNL A   1      35.594  23.583  25.844  1.00  0.00     0.116 C 
BRANCH   2   3
ATOM      3  N   UNL A   1      34.722  22.669  25.127  1.00  0.00    -0.356 N 
ATOM      4  C   UNL A   1      33.894  22.912  24.066  1.00  0.00     0.224 C 
ATOM      5  O   UNL A   1      33.277  21.960  23.580  1.00  0.00    -0.275 OA
ATOM      6  H   UNL A   1      34.730  21.740  25.450  1.00  0.00     0.163 HD
BRANCH   4   7
ATOM      7  C   UNL A   1      33.808  24.299  23.441  1.00  0.00     0.138 C 
BRANCH   7   8
ATOM      8  C   UNL A   1      32.685  25.127  23.981  1.00  0.00    -0.010 A 
ATOM      9  C   UNL A   1      33.702  27.938  26.349  1.00  0.00     0.119 A 
ATOM     10  C   UNL A   1      32.431  28.486  26.485  1.00  0.00     0.048 A 
ATOM     11  C   UNL A   1      33.901  26.847  25.503  1.00  0.00     0.057 A 
ATOM     12  C   UNL A   1      31.329  27.942  25.801  1.00  0.00     0.031 A 
ATOM     13  C   UNL A   1      32.805  26.253  24.842  1.00  0.00     0.007 A 
ATOM     14  C   UNL A   1      31.532  26.808  24.991  1.00  0.00     0.049 A 
ATOM     15  N   UNL A   1      30.667  26.053  24.204  1.00  0.00    -0.340 N 
ATOM     16  C   UNL A   1      31.327  24.904  23.793  1.00  0.00     0.020 A 
ATOM     17  C   UNL A   1      30.682  23.701  23.197  1.00  0.00     0.065 C 
BRANCH   9  18
ATOM     18  O   UNL A   1      34.836  28.421  26.944  1.00  0.00    -0.497 OA
ATOM     19  C   UNL A   1      34.698  29.684  27.584  1.00  0.00     0.278 C 
ENDBRANCH   9  18
BRANCH  15  20
ATOM     20  C   UNL A   1      29.255  26.373  23.959  1.00  0.00     0.157 C 
BRANCH  20  21
ATOM     21  C   UNL A   1      29.026  27.717  23.290  1.00  0.00    -0.028 A 
ATOM     22  C   UNL A   1      30.022  28.345  22.522  1.00  0.00     0.007 A 
ATOM     23  C   UNL A   1      27.770  28.343  23.363  1.00  0.00     0.007 A 
ATOM     24  C   UNL A   1      29.791  29.565  21.878  1.00  0.00     0.016 A 
ATOM     25  C   UNL A   1      27.527  29.553  22.698  1.00  0.00     0.016 A 
ATOM     26  C   UNL A   1      28.541  30.161  21.965  1.00  0.00     0.017 A 
ATOM     27  Br  UNL A   1      28.212  31.782  21.054  1.00  0.00    -0.051 Br
ENDBRANCH  20  21
ENDBRANCH  15  20
ENDBRANCH   7   8
ENDBRANCH   4   7
ENDBRANCH   2   3
ENDBRANCH   1   2
BRANCH   1  28
ATOM     28  C   UNL A   1      37.668  22.293  24.999  1.00  0.00     0.023 C 
BRANCH  28  29
ATOM     29  C   UNL A   1      38.570  21.802  26.132  1.00  0.00     0.116 C 
BRANCH  29  30
ATOM     30  N   UNL A   1      39.989  21.951  25.879  1.00  0.00    -0.352 N 
ATOM     31  C   UNL A   1      40.968  22.736  26.430  1.00  0.00     0.251 C 
ATOM     32  H   UNL A   1      40.318  21.365  25.160  1.00  0.00     0.163 HD
ATOM     33  O   UNL A   1      42.125  22.335  26.279  1.00  0.00    -0.269 OA
BRANCH  31  34
ATOM     34  C   UNL A   1      40.735  24.051  27.091  1.00  0.00     0.039 A 
ATOM     35  C   UNL A   1      39.732  24.955  26.751  1.00  0.00     0.014 A 
ATOM     36  C   UNL A   1      41.678  24.432  28.070  1.00  0.00     0.014 A 
ATOM     37  C   UNL A   1      39.729  26.233  27.297  1.00  0.00     0.010 A 
ATOM     38  C   UNL A   1      41.671  25.709  28.628  1.00  0.00     0.010 A 
ATOM     39  C   UNL A   1      40.720  26.628  28.205  1.00  0.00    -0.014 A 
BRANCH  39  40
ATOM     40  C   UNL A   1      40.617  27.980  28.756  1.00  0.00     0.031 A 
ATOM     41  C   UNL A   1      41.642  28.919  28.222  1.00  0.00     0.074 A 
ATOM     42  C   UNL A   1      39.687  28.403  29.636  1.00  0.00     0.049 A 
ATOM     43  N   UNL A   1      42.671  29.400  28.841  1.00  0.00    -0.248 NA
ATOM     44  C   UNL A   1      41.612  29.213  26.783  1.00  0.00     0.031 C 
ATOM     45  C   UNL A   1      38.459  27.726  30.057  1.00  0.00     0.029 A 
ATOM     46  N   UNL A   1      39.621  29.595  30.299  1.00  0.00    -0.354 N 
ATOM     47  C   UNL A   1      43.321  30.218  27.920  1.00  0.00     0.074 A 
ATOM     48  C   UNL A   1      42.724  29.934  26.639  1.00  0.00     0.031 C 
ATOM     49  C   UNL A   1      37.668  28.603  30.720  1.00  0.00     0.029 A 
ATOM     50  C   UNL A   1      38.402  29.843  30.914  1.00  0.00     0.049 A 
ATOM     51  H   UNL A   1      40.375  30.226  30.336  1.00  0.00     0.167 HD
ATOM     52  C   UNL A   1      44.162  31.217  28.312  1.00  0.00     0.034 A 
ATOM     53  C   UNL A   1      38.006  30.998  31.507  1.00  0.00     0.034 A 
ATOM     54  C   UNL A   1      44.543  31.069  29.690  1.00  0.00     0.049 A 
ATOM     55  C   UNL A   1      39.213  31.783  31.840  1.00  0.00     0.074 A 
ATOM     56  C   UNL A   1      45.289  30.161  30.409  1.00  0.00     0.029 A 
ATOM     57  N   UNL A   1      43.813  31.785  30.604  1.00  0.00    -0.354 N 
ATOM     58  N   UNL A   1      40.066  31.456  32.767  1.00  0.00    -0.248 NA
ATOM     59  C   UNL A   1      39.685  32.756  30.868  1.00  0.00     0.031 C 
ATOM     60  C   UNL A   1      44.660  30.091  31.685  1.00  0.00     0.029 A 
ATOM     61  C   UNL A   1      43.598  31.000  31.704  1.00  0.00     0.049 A 
ATOM     62  H   UNL A   1      43.496  32.711  30.488  1.00  0.00     0.167 HD
ATOM     63  C   UNL A   1      41.297  31.798  32.232  1.00  0.00     0.074 A 
ATOM     64  C   UNL A   1      40.991  32.718  31.140  1.00  0.00     0.031 C 
ATOM     65  C   UNL A   1      42.418  31.085  32.543  1.00  0.00     0.034 A 
BRANCH  52  66
ATOM     66  C   UNL A   1      44.334  32.514  27.558  1.00  0.00     0.023 A 
ATOM     67  C   UNL A   1      43.647  33.690  27.913  1.00  0.00     0.031 A 
ATOM     68  C   UNL A   1      45.368  32.671  26.613  1.00  0.00     0.131 A 
ATOM     69  C   UNL A   1      43.955  34.928  27.339  1.00  0.00     0.055 A 
ATOM     70  C   UNL A   1      45.727  33.922  26.091  1.00  0.00     0.041 A 
ATOM     71  F   UNL A   1      46.104  31.622  26.213  1.00  0.00    -0.206 F 
ATOM     72  C   UNL A   1      45.017  35.061  26.452  1.00  0.00     0.022 A 
BRANCH  69  73
ATOM     73  S   UNL A   1      42.975  36.396  27.758  1.00  0.00     0.124 S 
ATOM     74  O   UNL A   1      43.055  37.174  26.530  1.00  0.00    -0.237 OA
ATOM     75  O   UNL A   1      41.673  35.804  28.054  1.00  0.00    -0.237 OA
ATOM     76  O   UNL A   1      43.676  36.953  28.915  1.00  0.00    -0.744 OA
ENDBRANCH  69  73
ENDBRANCH  52  66
BRANCH  53  77
ATOM     77  C   UNL A   1      36.689  31.665  31.372  1.00  0.00     0.023 A 
ATOM     78  C   UNL A   1      36.243  32.050  30.095  1.00  0.00     0.031 A 
ATOM     79  C   UNL A   1      36.049  32.241  32.484  1.00  0.00     0.131 A 
ATOM     80  C   UNL A   1      35.250  33.030  29.958  1.00  0.00     0.055 A 
ATOM     81  C   UNL A   1      35.041  33.203  32.344  1.00  0.00     0.041 A 
ATOM     82  F   UNL A   1      36.450  31.945  33.730  1.00  0.00    -0.206 F 
ATOM     83  C   UNL A   1      34.650  33.615  31.074  1.00  0.00     0.022 A 
BRANCH  80  84
ATOM     84  S   UNL A   1      34.795  33.647  28.314  1.00  0.00     0.124 S 
ATOM     85  O   UNL A   1      34.729  35.089  28.535  1.00  0.00    -0.237 OA
ATOM     86  O   UNL A   1      35.918  33.186  27.504  1.00  0.00    -0.237 OA
ATOM     87  O   UNL A   1      33.512  33.003  28.050  1.00  0.00    -0.744 OA
ENDBRANCH  80  84
ENDBRANCH  53  77
BRANCH  65  88
ATOM     88  C   UNL A   1      42.368  30.140  33.724  1.00  0.00     0.023 A 
ATOM     89  C   UNL A   1      42.823  30.645  34.955  1.00  0.00     0.031 A 
ATOM     90  C   UNL A   1      42.099  28.759  33.648  1.00  0.00     0.131 A 
ATOM     91  C   UNL A   1      43.046  29.787  36.036  1.00  0.00     0.055 A 
ATOM     92  C   UNL A   1      42.249  27.917  34.756  1.00  0.00     0.041 A 
ATOM     93  F   UNL A   1      41.762  28.170  32.493  1.00  0.00    -0.206 F 
ATOM     94  C   UNL A   1      42.745  28.426  35.953  1.00  0.00     0.022 A 
BRANCH  91  95
ATOM     95  S   UNL A   1      43.893  30.395  37.517  1.00  0.00     0.124 S 
ATOM     96  O   UNL A   1      42.807  31.039  38.251  1.00  0.00    -0.237 OA
ATOM     97  O   UNL A   1      44.404  29.161  38.109  1.00  0.00    -0.237 OA
ATOM     98  O   UNL A   1      44.916  31.297  36.995  1.00  0.00    -0.744 OA
ENDBRANCH  91  95
ENDBRANCH  65  88
ENDBRANCH  39  40
ENDBRANCH  31  34
ENDBRANCH  29  30
ENDBRANCH  28  29
ENDBRANCH   1  28
TORSDOF 18
ENDMDL
MODEL 2
REMARK VINA RESULT:     -12.2      3.678      9.164
REMARK SMILES COc1ccc2c(c1)c(CC(=O)NCCCCNC(=O)c1ccc(-c3c4nc(c(-c5cc(S(=O)(=O)[O-])ccc5F)c5ccc([nH]5)c(-c5cc(S(=O)(=O)[O-])ccc5F)c5nc(c(-c6cc(S(=O)(=O)[O-])ccc6F)c6ccc3[nH]6)C=C5)C=C4)cc1)c(C)n2Cc1ccc(Br)cc1
REMARK SMILES IDX 15 1 14 2 13 3 11 4 12 5 10 7 9 8 3 9 4 10 8 11 5 12 7 13
REMARK SMILES IDX 6 14 86 15 84 16 85 17 2 18 1 19 87 20 88 21 89 22 94 23
REMARK SMILES IDX 90 24 93 25 91 26 92 27 16 28 17 29 18 30 19 31 20 33 21 34
REMARK SMILES IDX 22 35 83 36 23 37 82 38 24 39 25 40 26 41 76 42 27 43 81 44
REMARK SMILES IDX 75 45 77 46 28 47 80 48 74 49 73 50 29 52 61 53 41 54 60 55
REMARK SMILES IDX 42 56 45 57 59 58 78 59 43 60 44 61 58 63 79 64 46 65 30 66
REMARK SMILES IDX 31 67 39 68 32 69 38 70 40 71 37 72 33 73 34 74 35 75 36 76
REMARK SMILES IDX 62 77 63 78 71 79 64 80 70 81 72 82 69 83 65 84 66 85 67 86
REMARK SMILES IDX 68 87 47 88 48 89 56 90 49 91 55 92 57 93 54 94 50 95 51 96
REMARK SMILES IDX 52 97 53 98
REMARK H PARENT 13 6 18 32 77 51 45 62
REMARK Flexibility Score: inf
ROOT
ATOM      1  C   UNL A   1      34.391  29.001  26.996  1.00  0.00     0.023 C 
ENDROOT
BRANCH   1   2
ATOM      2  C   UNL A   1      33.526  27.753  26.824  1.00  0.00     0.116 C 
BRANCH   2   3
ATOM      3  N   UNL A   1      32.757  27.772  25.592  1.00  0.00    -0.356 N 
ATOM      4  C   UNL A   1      32.004  26.782  25.024  1.00  0.00     0.224 C 
ATOM      5  O   UNL A   1      31.389  27.043  23.985  1.00  0.00    -0.275 OA
ATOM      6  H   UNL A   1      32.782  28.620  25.094  1.00  0.00     0.163 HD
BRANCH   4   7
ATOM      7  C   UNL A   1      31.848  25.428  25.704  1.00  0.00     0.138 C 
BRANCH   7   8
ATOM      8  C   UNL A   1      32.446  24.299  24.924  1.00  0.00    -0.010 A 
ATOM      9  C   UNL A   1      36.091  23.500  25.714  1.00  0.00     0.119 A 
ATOM     10  C   UNL A   1      36.176  22.374  24.904  1.00  0.00     0.048 A 
ATOM     11  C   UNL A   1      34.880  24.185  25.827  1.00  0.00     0.057 A 
ATOM     12  C   UNL A   1      35.064  21.922  24.169  1.00  0.00     0.031 A 
ATOM     13  C   UNL A   1      33.764  23.782  25.064  1.00  0.00     0.007 A 
ATOM     14  C   UNL A   1      33.863  22.652  24.248  1.00  0.00     0.049 A 
ATOM     15  N   UNL A   1      32.616  22.470  23.657  1.00  0.00    -0.340 N 
ATOM     16  C   UNL A   1      31.846  23.601  23.884  1.00  0.00     0.020 A 
ATOM     17  C   UNL A   1      30.577  23.940  23.182  1.00  0.00     0.065 C 
BRANCH   9  18
ATOM     18  O   UNL A   1      37.105  23.989  26.493  1.00  0.00    -0.497 OA
ATOM     19  C   UNL A   1      38.374  24.075  25.857  1.00  0.00     0.278 C 
ENDBRANCH   9  18
BRANCH  15  20
ATOM     20  C   UNL A   1      32.237  21.318  22.830  1.00  0.00     0.157 C 
BRANCH  20  21
ATOM     21  C   UNL A   1      32.448  19.970  23.500  1.00  0.00    -0.028 A 
ATOM     22  C   UNL A   1      32.465  19.831  24.898  1.00  0.00     0.007 A 
ATOM     23  C   UNL A   1      32.562  18.803  22.728  1.00  0.00     0.007 A 
ATOM     24  C   UNL A   1      32.623  18.582  25.508  1.00  0.00     0.016 A 
ATOM     25  C   UNL A   1      32.695  17.546  23.336  1.00  0.00     0.016 A 
ATOM     26  C   UNL A   1      32.731  17.443  24.722  1.00  0.00     0.017 A 
ATOM     27  Br  UNL A   1      32.893  15.750  25.544  1.00  0.00    -0.051 Br
ENDBRANCH  20  21
ENDBRANCH  15  20
ENDBRANCH   7   8
ENDBRANCH   4   7
ENDBRANCH   2   3
ENDBRANCH   1   2
BRANCH   1  28
ATOM     28  C   UNL A   1      33.615  30.300  27.254  1.00  0.00     0.023 C 
BRANCH  28  29
ATOM     29  C   UNL A   1      34.471  31.496  27.675  1.00  0.00     0.116 C 
BRANCH  29  30
ATOM     30  N   UNL A   1      34.392  31.827  29.083  1.00  0.00    -0.352 N 
ATOM     31  C   UNL A   1      35.325  31.934  30.080  1.00  0.00     0.251 C 
ATOM     32  H   UNL A   1      33.474  32.014  29.386  1.00  0.00     0.163 HD
ATOM     33  O   UNL A   1      34.996  32.622  31.051  1.00  0.00    -0.269 OA
BRANCH  31  34
ATOM     34  C   UNL A   1      36.630  31.214  30.109  1.00  0.00     0.039 A 
ATOM     35  C   UNL A   1      37.880  31.810  29.962  1.00  0.00     0.014 A 
ATOM     36  C   UNL A   1      36.564  29.807  30.196  1.00  0.00     0.014 A 
ATOM     37  C   UNL A   1      39.015  31.023  29.806  1.00  0.00     0.010 A 
ATOM     38  C   UNL A   1      37.701  29.015  30.053  1.00  0.00     0.010 A 
ATOM     39  C   UNL A   1      38.925  29.625  29.810  1.00  0.00    -0.014 A 
BRANCH  39  40
ATOM     40  C   UNL A   1      40.175  28.877  29.676  1.00  0.00     0.031 A 
ATOM     41  C   UNL A   1      40.886  28.670  30.968  1.00  0.00     0.074 A 
ATOM     42  C   UNL A   1      40.670  28.370  28.528  1.00  0.00     0.049 A 
ATOM     43  N   UNL A   1      41.977  29.238  31.370  1.00  0.00    -0.248 NA
ATOM     44  C   UNL A   1      40.206  27.873  31.998  1.00  0.00     0.031 C 
ATOM     45  C   UNL A   1      40.001  28.229  27.234  1.00  0.00     0.029 A 
ATOM     46  N   UNL A   1      41.890  27.797  28.307  1.00  0.00    -0.354 N 
ATOM     47  C   UNL A   1      42.229  28.721  32.639  1.00  0.00     0.074 A 
ATOM     48  C   UNL A   1      41.032  28.023  33.035  1.00  0.00     0.031 C 
ATOM     49  C   UNL A   1      40.735  27.416  26.436  1.00  0.00     0.029 A 
ATOM     50  C   UNL A   1      41.995  27.120  27.099  1.00  0.00     0.049 A 
ATOM     51  H   UNL A   1      42.632  27.858  28.950  1.00  0.00     0.167 HD
ATOM     52  C   UNL A   1      43.478  28.734  33.185  1.00  0.00     0.034 A 
ATOM     53  C   UNL A   1      43.025  26.339  26.687  1.00  0.00     0.034 A 
ATOM     54  C   UNL A   1      44.351  29.626  32.473  1.00  0.00     0.049 A 
ATOM     55  C   UNL A   1      44.221  26.698  27.478  1.00  0.00     0.074 A 
ATOM     56  C   UNL A   1      44.421  30.990  32.288  1.00  0.00     0.029 A 
ATOM     57  N   UNL A   1      45.147  29.061  31.509  1.00  0.00    -0.354 N 
ATOM     58  N   UNL A   1      44.866  27.823  27.359  1.00  0.00    -0.248 NA
ATOM     59  C   UNL A   1      44.487  25.948  28.694  1.00  0.00     0.031 C 
ATOM     60  C   UNL A   1      44.920  31.161  30.965  1.00  0.00     0.029 A 
ATOM     61  C   UNL A   1      45.185  29.898  30.427  1.00  0.00     0.049 A 
ATOM     62  H   UNL A   1      45.613  28.196  31.583  1.00  0.00     0.167 HD
ATOM     63  C   UNL A   1      45.230  28.143  28.657  1.00  0.00     0.074 A 
ATOM     64  C   UNL A   1      45.102  26.896  29.404  1.00  0.00     0.031 C 
ATOM     65  C   UNL A   1      45.325  29.445  29.056  1.00  0.00     0.034 A 
BRANCH  52  66
ATOM     66  C   UNL A   1      43.997  27.667  34.119  1.00  0.00     0.023 A 
ATOM     67  C   UNL A   1      44.154  27.885  35.500  1.00  0.00     0.031 A 
ATOM     68  C   UNL A   1      44.124  26.329  33.692  1.00  0.00     0.131 A 
ATOM     69  C   UNL A   1      44.447  26.842  36.385  1.00  0.00     0.055 A 
ATOM     70  C   UNL A   1      44.345  25.272  34.586  1.00  0.00     0.041 A 
ATOM     71  F   UNL A   1      43.976  25.999  32.399  1.00  0.00    -0.206 F 
ATOM     72  C   UNL A   1      44.511  25.525  35.943  1.00  0.00     0.022 A 
BRANCH  69  73
ATOM     73  S   UNL A   1      44.736  27.189  38.142  1.00  0.00     0.124 S 
ATOM     74  O   UNL A   1      43.600  26.531  38.772  1.00  0.00    -0.237 OA
ATOM     75  O   UNL A   1      46.037  26.560  38.354  1.00  0.00    -0.237 OA
ATOM     76  O   UNL A   1      44.743  28.651  38.202  1.00  0.00    -0.744 OA
ENDBRANCH  69  73
ENDBRANCH  52  66
BRANCH  53  77
ATOM     77  C   UNL A   1      42.933  25.018  26.022  1.00  0.00     0.023 A 
ATOM     78  C   UNL A   1      42.071  24.041  26.552  1.00  0.00     0.031 A 
ATOM     79  C   UNL A   1      43.923  24.588  25.120  1.00  0.00     0.131 A 
ATOM     80  C   UNL A   1      42.256  22.688  26.239  1.00  0.00     0.055 A 
ATOM     81  C   UNL A   1      44.092  23.237  24.791  1.00  0.00     0.041 A 
ATOM     82  F   UNL A   1      44.802  25.462  24.606  1.00  0.00    -0.206 F 
ATOM     83  C   UNL A   1      43.266  22.277  25.368  1.00  0.00     0.022 A 
BRANCH  80  84
ATOM     84  S   UNL A   1      41.252  21.416  27.052  1.00  0.00     0.124 S 
ATOM     85  O   UNL A   1      42.207  20.321  27.204  1.00  0.00    -0.237 OA
ATOM     86  O   UNL A   1      40.866  22.089  28.288  1.00  0.00    -0.237 OA
ATOM     87  O   UNL A   1      40.175  21.168  26.098  1.00  0.00    -0.744 OA
ENDBRANCH  80  84
ENDBRANCH  53  77
BRANCH  65  88
ATOM     88  C   UNL A   1      45.359  30.524  27.996  1.00  0.00     0.023 A 
ATOM     89  C   UNL A   1      46.621  31.064  27.686  1.00  0.00     0.031 A 
ATOM     90  C   UNL A   1      44.228  31.163  27.451  1.00  0.00     0.131 A 
ATOM     91  C   UNL A   1      46.727  32.222  26.911  1.00  0.00     0.055 A 
ATOM     92  C   UNL A   1      44.344  32.276  26.611  1.00  0.00     0.041 A 
ATOM     93  F   UNL A   1      42.984  30.787  27.773  1.00  0.00    -0.206 F 
ATOM     94  C   UNL A   1      45.598  32.824  26.353  1.00  0.00     0.022 A 
BRANCH  91  95
ATOM     95  S   UNL A   1      48.322  33.064  26.752  1.00  0.00     0.124 S 
ATOM     96  O   UNL A   1      49.225  31.960  26.440  1.00  0.00    -0.237 OA
ATOM     97  O   UNL A   1      48.071  33.998  25.656  1.00  0.00    -0.237 OA
ATOM     98  O   UNL A   1      48.525  33.687  28.057  1.00  0.00    -0.744 OA
ENDBRANCH  91  95
ENDBRANCH  65  88
ENDBRANCH  39  40
ENDBRANCH  31  34
ENDBRANCH  29  30
ENDBRANCH  28  29
ENDBRANCH   1  28
TORSDOF 18
ENDMDL
MODEL 3
REMARK VINA RESULT:     -12.1      3.971      9.322
REMARK SMILES COc1ccc2c(c1)c(CC(=O)NCCCCNC(=O)c1ccc(-c3c4nc(c(-c5cc(S(=O)(=O)[O-])ccc5F)c5ccc([nH]5)c(-c5cc(S(=O)(=O)[O-])ccc5F)c5nc(c(-c6cc(S(=O)(=O)[O-])ccc6F)c6ccc3[nH]6)C=C5)C=C4)cc1)c(C)n2Cc1ccc(Br)cc1
REMARK SMILES IDX 15 1 14 2 13 3 11 4 12 5 10 7 9 8 3 9 4 10 8 11 5 12 7 13
REMARK SMILES IDX 6 14 86 15 84 16 85 17 2 18 1 19 87 20 88 21 89 22 94 23
REMARK SMILES IDX 90 24 93 25 91 26 92 27 16 28 17 29 18 30 19 31 20 33 21 34
REMARK SMILES IDX 22 35 83 36 23 37 82 38 24 39 25 40 26 41 76 42 27 43 81 44
REMARK SMILES IDX 75 45 77 46 28 47 80 48 74 49 73 50 29 52 61 53 41 54 60 55
REMARK SMILES IDX 42 56 45 57 59 58 78 59 43 60 44 61 58 63 79 64 46 65 30 66
REMARK SMILES IDX 31 67 39 68 32 69 38 70 40 71 37 72 33 73 34 74 35 75 36 76
REMARK SMILES IDX 62 77 63 78 71 79 64 80 70 81 72 82 69 83 65 84 66 85 67 86
REMARK SMILES IDX 68 87 47 88 48 89 56 90 49 91 55 92 57 93 54 94 50 95 51 96
REMARK SMILES IDX 52 97 53 98
REMARK H PARENT 13 6 18 32 77 51 45 62
REMARK Flexibility Score: inf
ROOT
ATOM      1  C   UNL A   1      31.898  28.976  27.596  1.00  0.00     0.023 C 
ENDROOT
BRANCH   1   2
ATOM      2  C   UNL A   1      31.659  27.677  26.827  1.00  0.00     0.116 C 
BRANCH   2   3
ATOM      3  N   UNL A   1      32.592  27.500  25.728  1.00  0.00    -0.356 N 
ATOM      4  C   UNL A   1      33.297  26.388  25.359  1.00  0.00     0.224 C 
ATOM      5  O   UNL A   1      34.001  26.455  24.347  1.00  0.00    -0.275 OA
ATOM      6  H   UNL A   1      32.737  28.295  25.167  1.00  0.00     0.163 HD
BRANCH   4   7
ATOM      7  C   UNL A   1      33.143  25.075  26.117  1.00  0.00     0.138 C 
BRANCH   7   8
ATOM      8  C   UNL A   1      33.429  23.868  25.280  1.00  0.00    -0.010 A 
ATOM      9  C   UNL A   1      36.952  22.444  25.594  1.00  0.00     0.119 A 
ATOM     10  C   UNL A   1      36.734  21.328  24.793  1.00  0.00     0.048 A 
ATOM     11  C   UNL A   1      35.904  23.326  25.856  1.00  0.00     0.057 A 
ATOM     12  C   UNL A   1      35.474  21.083  24.217  1.00  0.00     0.031 A 
ATOM     13  C   UNL A   1      34.644  23.130  25.252  1.00  0.00     0.007 A 
ATOM     14  C   UNL A   1      34.438  22.008  24.444  1.00  0.00     0.049 A 
ATOM     15  N   UNL A   1      33.112  22.051  24.025  1.00  0.00    -0.340 N 
ATOM     16  C   UNL A   1      32.585  23.296  24.337  1.00  0.00     0.020 A 
ATOM     17  C   UNL A   1      31.313  23.856  23.803  1.00  0.00     0.065 C 
BRANCH   9  18
ATOM     18  O   UNL A   1      38.130  22.742  26.225  1.00  0.00    -0.497 OA
ATOM     19  C   UNL A   1      38.355  24.124  26.475  1.00  0.00     0.278 C 
ENDBRANCH   9  18
BRANCH  15  20
ATOM     20  C   UNL A   1      32.433  20.990  23.270  1.00  0.00     0.157 C 
BRANCH  20  21
ATOM     21  C   UNL A   1      32.608  19.598  23.852  1.00  0.00    -0.028 A 
ATOM     22  C   UNL A   1      32.503  19.352  25.232  1.00  0.00     0.007 A 
ATOM     23  C   UNL A   1      32.811  18.494  23.008  1.00  0.00     0.007 A 
ATOM     24  C   UNL A   1      32.628  18.061  25.758  1.00  0.00     0.016 A 
ATOM     25  C   UNL A   1      32.911  17.196  23.529  1.00  0.00     0.016 A 
ATOM     26  C   UNL A   1      32.826  16.987  24.901  1.00  0.00     0.017 A 
ATOM     27  Br  UNL A   1      32.944  15.238  25.605  1.00  0.00    -0.051 Br
ENDBRANCH  20  21
ENDBRANCH  15  20
ENDBRANCH   7   8
ENDBRANCH   4   7
ENDBRANCH   2   3
ENDBRANCH   1   2
BRANCH   1  28
ATOM     28  C   UNL A   1      32.348  30.167  26.737  1.00  0.00     0.023 C 
BRANCH  28  29
ATOM     29  C   UNL A   1      33.774  30.654  26.998  1.00  0.00     0.116 C 
BRANCH  29  30
ATOM     30  N   UNL A   1      33.948  31.362  28.250  1.00  0.00    -0.352 N 
ATOM     31  C   UNL A   1      35.036  31.633  29.037  1.00  0.00     0.251 C 
ATOM     32  H   UNL A   1      33.107  31.725  28.611  1.00  0.00     0.163 HD
ATOM     33  O   UNL A   1      34.917  32.590  29.806  1.00  0.00    -0.269 OA
BRANCH  31  34
ATOM     34  C   UNL A   1      36.277  30.808  29.091  1.00  0.00     0.039 A 
ATOM     35  C   UNL A   1      36.324  29.446  29.378  1.00  0.00     0.014 A 
ATOM     36  C   UNL A   1      37.494  31.502  28.929  1.00  0.00     0.014 A 
ATOM     37  C   UNL A   1      37.547  28.821  29.597  1.00  0.00     0.010 A 
ATOM     38  C   UNL A   1      38.722  30.876  29.135  1.00  0.00     0.010 A 
ATOM     39  C   UNL A   1      38.746  29.541  29.516  1.00  0.00    -0.014 A 
BRANCH  39  40
ATOM     40  C   UNL A   1      39.986  28.793  29.725  1.00  0.00     0.031 A 
ATOM     41  C   UNL A   1      40.497  28.868  31.121  1.00  0.00     0.074 A 
ATOM     42  C   UNL A   1      40.631  28.062  28.794  1.00  0.00     0.049 A 
ATOM     43  N   UNL A   1      41.530  29.518  31.551  1.00  0.00    -0.248 NA
ATOM     44  C   UNL A   1      39.658  28.299  32.184  1.00  0.00     0.031 C 
ATOM     45  C   UNL A   1      40.154  27.646  27.473  1.00  0.00     0.029 A 
ATOM     46  N   UNL A   1      41.857  27.466  28.877  1.00  0.00    -0.354 N 
ATOM     47  C   UNL A   1      41.585  29.282  32.923  1.00  0.00     0.074 A 
ATOM     48  C   UNL A   1      40.328  28.671  33.276  1.00  0.00     0.031 C 
ATOM     49  C   UNL A   1      40.978  26.691  26.979  1.00  0.00     0.029 A 
ATOM     50  C   UNL A   1      42.121  26.552  27.867  1.00  0.00     0.049 A 
ATOM     51  H   UNL A   1      42.500  27.668  29.595  1.00  0.00     0.167 HD
ATOM     52  C   UNL A   1      42.741  29.420  33.631  1.00  0.00     0.034 A 
ATOM     53  C   UNL A   1      43.183  25.712  27.782  1.00  0.00     0.034 A 
ATOM     54  C   UNL A   1      43.728  30.151  32.884  1.00  0.00     0.049 A 
ATOM     55  C   UNL A   1      44.260  26.240  28.646  1.00  0.00     0.074 A 
ATOM     56  C   UNL A   1      43.853  31.447  32.431  1.00  0.00     0.029 A 
ATOM     57  N   UNL A   1      44.642  29.404  32.187  1.00  0.00    -0.354 N 
ATOM     58  N   UNL A   1      44.939  27.321  28.391  1.00  0.00    -0.248 NA
ATOM     59  C   UNL A   1      44.330  25.764  30.018  1.00  0.00     0.031 C 
ATOM     60  C   UNL A   1      44.542  31.341  31.188  1.00  0.00     0.029 A 
ATOM     61  C   UNL A   1      44.855  29.996  30.971  1.00  0.00     0.049 A 
ATOM     62  H   UNL A   1      45.074  28.579  32.507  1.00  0.00     0.167 HD
ATOM     63  C   UNL A   1      45.118  27.910  29.632  1.00  0.00     0.074 A 
ATOM     64  C   UNL A   1      44.856  26.845  30.597  1.00  0.00     0.031 C 
ATOM     65  C   UNL A   1      45.182  29.266  29.760  1.00  0.00     0.034 A 
BRANCH  52  66
ATOM     66  C   UNL A   1      43.096  28.578  34.833  1.00  0.00     0.023 A 
ATOM     67  C   UNL A   1      43.200  27.176  34.768  1.00  0.00     0.031 A 
ATOM     68  C   UNL A   1      43.571  29.172  36.020  1.00  0.00     0.131 A 
ATOM     69  C   UNL A   1      43.716  26.423  35.829  1.00  0.00     0.055 A 
ATOM     70  C   UNL A   1      44.155  28.427  37.054  1.00  0.00     0.041 A 
ATOM     71  F   UNL A   1      43.539  30.505  36.186  1.00  0.00    -0.206 F 
ATOM     72  C   UNL A   1      44.229  27.042  36.963  1.00  0.00     0.022 A 
BRANCH  69  73
ATOM     73  S   UNL A   1      43.739  24.612  35.734  1.00  0.00     0.124 S 
ATOM     74  O   UNL A   1      44.398  24.383  34.456  1.00  0.00    -0.237 OA
ATOM     75  O   UNL A   1      44.516  24.267  36.922  1.00  0.00    -0.237 OA
ATOM     76  O   UNL A   1      42.323  24.250  35.798  1.00  0.00    -0.744 OA
ENDBRANCH  69  73
ENDBRANCH  52  66
BRANCH  53  77
ATOM     77  C   UNL A   1      43.160  24.279  27.401  1.00  0.00     0.023 A 
ATOM     78  C   UNL A   1      44.129  23.793  26.505  1.00  0.00     0.031 A 
ATOM     79  C   UNL A   1      42.014  23.490  27.609  1.00  0.00     0.131 A 
ATOM     80  C   UNL A   1      43.907  22.602  25.800  1.00  0.00     0.055 A 
ATOM     81  C   UNL A   1      41.806  22.289  26.921  1.00  0.00     0.041 A 
ATOM     82  F   UNL A   1      41.035  23.913  28.423  1.00  0.00    -0.206 F 
ATOM     83  C   UNL A   1      42.748  21.849  25.996  1.00  0.00     0.022 A 
BRANCH  80  84
ATOM     84  S   UNL A   1      45.077  22.063  24.524  1.00  0.00     0.124 S 
ATOM     85  O   UNL A   1      46.284  21.802  25.304  1.00  0.00    -0.237 OA
ATOM     86  O   UNL A   1      44.407  20.883  23.988  1.00  0.00    -0.237 OA
ATOM     87  O   UNL A   1      45.159  23.212  23.627  1.00  0.00    -0.744 OA
ENDBRANCH  80  84
ENDBRANCH  53  77
BRANCH  65  88
ATOM     88  C   UNL A   1      45.393  30.100  28.515  1.00  0.00     0.023 A 
ATOM     89  C   UNL A   1      46.708  30.528  28.258  1.00  0.00     0.031 A 
ATOM     90  C   UNL A   1      44.367  30.642  27.717  1.00  0.00     0.131 A 
ATOM     91  C   UNL A   1      46.962  31.496  27.282  1.00  0.00     0.055 A 
ATOM     92  C   UNL A   1      44.635  31.552  26.688  1.00  0.00     0.041 A 
ATOM     93  F   UNL A   1      43.076  30.375  27.954  1.00  0.00    -0.206 F 
ATOM     94  C   UNL A   1      45.937  32.000  26.480  1.00  0.00     0.022 A 
BRANCH  91  95
ATOM     95  S   UNL A   1      48.607  32.242  27.152  1.00  0.00     0.124 S 
ATOM     96  O   UNL A   1      49.391  31.162  26.561  1.00  0.00    -0.237 OA
ATOM     97  O   UNL A   1      48.359  33.387  26.277  1.00  0.00    -0.237 OA
ATOM     98  O   UNL A   1      48.951  32.584  28.529  1.00  0.00    -0.744 OA
ENDBRANCH  91  95
ENDBRANCH  65  88
ENDBRANCH  39  40
ENDBRANCH  31  34
ENDBRANCH  29  30
ENDBRANCH  28  29
ENDBRANCH   1  28
TORSDOF 18
ENDMDL
