MODEL 1
REMARK VINA RESULT:     -11.1      0.000      0.000
REMARK SMILES C[C@@H]1CCCC[C@H]1NC(=O)C[N@@H+]1CCO[C@H](CC(=O)NCCCCNC(=O)c2ccc(-c3c4nc(c(-c5cc(S(=O)(=O)[O-])ccc5F)c5ccc([nH]5)c(-c5cc(S(=O)(=O)[O-])ccc5F)c5nc(c(-c6cc(S(=O)(=O)[O-])ccc6F)c6ccc3[nH]6)C=C5)C=C4)cc2)C1
REMARK SMILES IDX 22 1 21 2 20 3 18 4 19 5 17 7 16 8 12 9 13 10 91 11 14 13
REMARK SMILES IDX 15 14 11 15 9 16 8 17 10 19 7 20 1 21 2 22 3 23 4 24 6 25
REMARK SMILES IDX 5 26 23 27 24 28 25 29 26 30 27 32 28 33 29 34 90 35 30 36
REMARK SMILES IDX 89 37 31 38 32 39 33 40 83 41 34 42 88 43 82 44 84 45 35 46
REMARK SMILES IDX 87 47 81 48 80 49 36 51 68 52 48 53 67 54 49 55 52 56 66 57
REMARK SMILES IDX 85 58 50 59 51 60 65 62 86 63 53 64 37 65 38 66 46 67 39 68
REMARK SMILES IDX 45 69 47 70 44 71 40 72 41 73 42 74 43 75 69 76 70 77 78 78
REMARK SMILES IDX 71 79 77 80 79 81 76 82 72 83 73 84 74 85 75 86 54 87 55 88
REMARK SMILES IDX 63 89 56 90 62 91 64 92 61 93 57 94 58 95 59 96 60 97
REMARK H PARENT 20 6 12 12 8 18 25 31 84 50 52 61
REMARK Flexibility Score: inf
ROOT
ATOM      1  C   UNL A   1      35.479  22.644  27.187  1.00  0.00     0.023 C 
ENDROOT
BRANCH   1   2
ATOM      2  C   UNL A   1      34.142  21.882  27.124  1.00  0.00     0.116 C 
BRANCH   2   3
ATOM      3  N   UNL A   1      34.068  20.653  26.349  1.00  0.00    -0.356 N 
ATOM      4  C   UNL A   1      34.283  20.390  25.025  1.00  0.00     0.222 C 
ATOM      5  O   UNL A   1      34.682  19.254  24.747  1.00  0.00    -0.275 OA
ATOM      6  H   UNL A   1      33.816  19.861  26.877  1.00  0.00     0.163 HD
BRANCH   4   7
ATOM      7  C   UNL A   1      34.009  21.394  23.920  1.00  0.00     0.138 C 
BRANCH   7   8
ATOM      8  C   UNL A   1      32.537  21.721  23.547  1.00  0.00     0.182 C 
ATOM      9  N   UNL A   1      32.003  24.047  22.568  1.00  0.00    -0.323 N 
ATOM     10  C   UNL A   1      30.810  24.022  23.430  1.00  0.00     0.291 C 
ATOM     11  C   UNL A   1      32.307  22.621  22.320  1.00  0.00     0.295 C 
ATOM     12  H   UNL A   1      31.838  24.572  21.710  1.00  0.00     0.348 HD
ATOM     13  C   UNL A   1      31.065  23.301  24.764  1.00  0.00     0.222 C 
ATOM     14  O   UNL A   1      31.691  22.009  24.679  1.00  0.00    -0.366 OA
BRANCH   9  15
ATOM     15  C   UNL A   1      33.144  24.712  23.239  1.00  0.00     0.363 C 
BRANCH  15  16
ATOM     16  C   UNL A   1      33.513  26.099  22.742  1.00  0.00     0.275 C 
ATOM     17  N   UNL A   1      33.413  27.153  23.606  1.00  0.00    -0.348 N 
ATOM     18  H   UNL A   1      33.127  28.013  23.220  1.00  0.00     0.163 HD
ATOM     19  O   UNL A   1      33.787  26.319  21.560  1.00  0.00    -0.268 OA
BRANCH  17  20
ATOM     20  C   UNL A   1      33.684  27.139  25.042  1.00  0.00     0.085 C 
ATOM     21  C   UNL A   1      34.635  28.666  26.866  1.00  0.00     0.010 C 
ATOM     22  C   UNL A   1      33.953  28.587  25.497  1.00  0.00     0.008 C 
ATOM     23  C   UNL A   1      32.650  29.402  25.467  1.00  0.00     0.005 C 
ATOM     24  C   UNL A   1      31.510  28.740  26.241  1.00  0.00     0.000 C 
ATOM     25  C   UNL A   1      32.538  26.473  25.807  1.00  0.00     0.025 C 
ATOM     26  C   UNL A   1      31.259  27.301  25.803  1.00  0.00     0.002 C 
ENDBRANCH  17  20
ENDBRANCH  15  16
ENDBRANCH   9  15
ENDBRANCH   7   8
ENDBRANCH   4   7
ENDBRANCH   2   3
ENDBRANCH   1   2
BRANCH   1  27
ATOM     27  C   UNL A   1      35.813  23.668  26.092  1.00  0.00     0.023 C 
BRANCH  27  28
ATOM     28  C   UNL A   1      36.935  23.298  25.120  1.00  0.00     0.116 C 
BRANCH  28  29
ATOM     29  N   UNL A   1      37.775  22.242  25.652  1.00  0.00    -0.352 N 
ATOM     30  C   UNL A   1      39.036  22.296  26.201  1.00  0.00     0.251 C 
ATOM     31  H   UNL A   1      37.380  21.342  25.614  1.00  0.00     0.163 HD
ATOM     32  O   UNL A   1      39.652  21.237  26.320  1.00  0.00    -0.269 OA
BRANCH  30  33
ATOM     33  C   UNL A   1      39.674  23.567  26.655  1.00  0.00     0.039 A 
ATOM     34  C   UNL A   1      39.999  23.699  28.012  1.00  0.00     0.014 A 
ATOM     35  C   UNL A   1      39.841  24.672  25.818  1.00  0.00     0.014 A 
ATOM     36  C   UNL A   1      40.468  24.919  28.523  1.00  0.00     0.010 A 
ATOM     37  C   UNL A   1      40.379  25.871  26.318  1.00  0.00     0.010 A 
ATOM     38  C   UNL A   1      40.663  26.027  27.684  1.00  0.00    -0.014 A 
BRANCH  38  39
ATOM     39  C   UNL A   1      41.058  27.357  28.253  1.00  0.00     0.031 A 
ATOM     40  C   UNL A   1      42.516  27.765  28.301  1.00  0.00     0.074 A 
ATOM     41  C   UNL A   1      40.125  28.221  28.707  1.00  0.00     0.049 A 
ATOM     42  N   UNL A   1      43.056  28.882  28.727  1.00  0.00    -0.248 NA
ATOM     43  C   UNL A   1      43.496  26.775  27.832  1.00  0.00     0.031 C 
ATOM     44  C   UNL A   1      38.685  27.963  28.752  1.00  0.00     0.029 A 
ATOM     45  N   UNL A   1      40.245  29.497  29.210  1.00  0.00    -0.354 N 
ATOM     46  C   UNL A   1      44.433  28.723  28.585  1.00  0.00     0.074 A 
ATOM     47  C   UNL A   1      44.643  27.372  28.107  1.00  0.00     0.031 C 
ATOM     48  C   UNL A   1      38.055  29.056  29.216  1.00  0.00     0.029 A 
ATOM     49  C   UNL A   1      39.042  30.084  29.536  1.00  0.00     0.049 A 
ATOM     50  H   UNL A   1      41.111  29.949  29.324  1.00  0.00     0.167 HD
ATOM     51  C   UNL A   1      45.430  29.620  28.795  1.00  0.00     0.034 A 
ATOM     52  C   UNL A   1      38.760  31.307  30.032  1.00  0.00     0.034 A 
ATOM     53  C   UNL A   1      45.219  30.972  29.252  1.00  0.00     0.049 A 
ATOM     54  C   UNL A   1      39.887  32.284  30.278  1.00  0.00     0.074 A 
ATOM     55  C   UNL A   1      46.159  31.970  29.457  1.00  0.00     0.029 A 
ATOM     56  N   UNL A   1      43.987  31.521  29.584  1.00  0.00    -0.354 N 
ATOM     57  N   UNL A   1      41.176  32.127  30.088  1.00  0.00    -0.248 NA
ATOM     58  C   UNL A   1      39.512  33.611  30.786  1.00  0.00     0.031 C 
ATOM     59  C   UNL A   1      45.505  33.093  29.979  1.00  0.00     0.029 A 
ATOM     60  C   UNL A   1      44.146  32.830  30.015  1.00  0.00     0.049 A 
ATOM     61  H   UNL A   1      43.125  31.049  29.520  1.00  0.00     0.167 HD
ATOM     62  C   UNL A   1      41.758  33.351  30.416  1.00  0.00     0.074 A 
ATOM     63  C   UNL A   1      40.678  34.237  30.795  1.00  0.00     0.031 C 
ATOM     64  C   UNL A   1      43.068  33.712  30.400  1.00  0.00     0.034 A 
BRANCH  51  65
ATOM     65  C   UNL A   1      46.849  29.152  28.548  1.00  0.00     0.023 A 
ATOM     66  C   UNL A   1      47.350  28.957  27.249  1.00  0.00     0.031 A 
ATOM     67  C   UNL A   1      47.706  28.867  29.628  1.00  0.00     0.131 A 
ATOM     68  C   UNL A   1      48.629  28.410  27.062  1.00  0.00     0.055 A 
ATOM     69  C   UNL A   1      49.012  28.411  29.434  1.00  0.00     0.041 A 
ATOM     70  F   UNL A   1      47.282  29.013  30.894  1.00  0.00    -0.206 F 
ATOM     71  C   UNL A   1      49.474  28.162  28.145  1.00  0.00     0.022 A 
BRANCH  68  72
ATOM     72  S   UNL A   1      49.104  27.873  25.396  1.00  0.00     0.124 S 
ATOM     73  O   UNL A   1      49.380  26.455  25.612  1.00  0.00    -0.237 OA
ATOM     74  O   UNL A   1      47.915  28.181  24.613  1.00  0.00    -0.237 OA
ATOM     75  O   UNL A   1      50.280  28.689  25.096  1.00  0.00    -0.744 OA
ENDBRANCH  68  72
ENDBRANCH  51  65
BRANCH  52  76
ATOM     76  C   UNL A   1      37.350  31.698  30.336  1.00  0.00     0.023 A 
ATOM     77  C   UNL A   1      36.472  32.111  29.318  1.00  0.00     0.031 A 
ATOM     78  C   UNL A   1      36.880  31.730  31.660  1.00  0.00     0.131 A 
ATOM     79  C   UNL A   1      35.193  32.591  29.648  1.00  0.00     0.055 A 
ATOM     80  C   UNL A   1      35.587  32.150  31.976  1.00  0.00     0.041 A 
ATOM     81  F   UNL A   1      37.675  31.346  32.672  1.00  0.00    -0.206 F 
ATOM     82  C   UNL A   1      34.740  32.599  30.967  1.00  0.00     0.022 A 
BRANCH  79  83
ATOM     83  S   UNL A   1      34.164  33.298  28.330  1.00  0.00     0.124 S 
ATOM     84  O   UNL A   1      35.142  34.062  27.568  1.00  0.00    -0.237 OA
ATOM     85  O   UNL A   1      33.635  32.102  27.683  1.00  0.00    -0.237 OA
ATOM     86  O   UNL A   1      33.179  34.096  29.061  1.00  0.00    -0.744 OA
ENDBRANCH  79  83
ENDBRANCH  52  76
BRANCH  64  87
ATOM     87  C   UNL A   1      43.397  35.147  30.750  1.00  0.00     0.023 A 
ATOM     88  C   UNL A   1      43.504  35.584  32.082  1.00  0.00     0.031 A 
ATOM     89  C   UNL A   1      43.570  36.101  29.730  1.00  0.00     0.131 A 
ATOM     90  C   UNL A   1      43.698  36.947  32.359  1.00  0.00     0.055 A 
ATOM     91  C   UNL A   1      43.837  37.441  30.011  1.00  0.00     0.041 A 
ATOM     92  F   UNL A   1      43.477  35.746  28.438  1.00  0.00    -0.206 F 
ATOM     93  C   UNL A   1      43.883  37.876  31.332  1.00  0.00     0.022 A 
BRANCH  90  94
ATOM     94  S   UNL A   1      43.573  37.513  34.079  1.00  0.00     0.124 S 
ATOM     95  O   UNL A   1      42.855  38.775  33.933  1.00  0.00    -0.237 OA
ATOM     96  O   UNL A   1      42.829  36.426  34.710  1.00  0.00    -0.237 OA
ATOM     97  O   UNL A   1      44.967  37.637  34.501  1.00  0.00    -0.744 OA
ENDBRANCH  90  94
ENDBRANCH  64  87
ENDBRANCH  38  39
ENDBRANCH  30  33
ENDBRANCH  28  29
ENDBRANCH  27  28
ENDBRANCH   1  27
TORSDOF 18
ENDMDL
MODEL 2
REMARK VINA RESULT:     -10.9      2.680      3.512
REMARK SMILES C[C@@H]1CCCC[C@H]1NC(=O)C[N@@H+]1CCO[C@H](CC(=O)NCCCCNC(=O)c2ccc(-c3c4nc(c(-c5cc(S(=O)(=O)[O-])ccc5F)c5ccc([nH]5)c(-c5cc(S(=O)(=O)[O-])ccc5F)c5nc(c(-c6cc(S(=O)(=O)[O-])ccc6F)c6ccc3[nH]6)C=C5)C=C4)cc2)C1
REMARK SMILES IDX 22 1 21 2 20 3 18 4 19 5 17 7 16 8 12 9 13 10 91 11 14 13
REMARK SMILES IDX 15 14 11 15 9 16 8 17 10 19 7 20 1 21 2 22 3 23 4 24 6 25
REMARK SMILES IDX 5 26 23 27 24 28 25 29 26 30 27 32 28 33 29 34 90 35 30 36
REMARK SMILES IDX 89 37 31 38 32 39 33 40 83 41 34 42 88 43 82 44 84 45 35 46
REMARK SMILES IDX 87 47 81 48 80 49 36 51 68 52 48 53 67 54 49 55 52 56 66 57
REMARK SMILES IDX 85 58 50 59 51 60 65 62 86 63 53 64 37 65 38 66 46 67 39 68
REMARK SMILES IDX 45 69 47 70 44 71 40 72 41 73 42 74 43 75 69 76 70 77 78 78
REMARK SMILES IDX 71 79 77 80 79 81 76 82 72 83 73 84 74 85 75 86 54 87 55 88
REMARK SMILES IDX 63 89 56 90 62 91 64 92 61 93 57 94 58 95 59 96 60 97
REMARK H PARENT 20 6 12 12 8 18 25 31 84 50 52 61
REMARK Flexibility Score: inf
ROOT
ATOM      1  C   UNL A   1      36.336  23.155  23.600  1.00  0.00     0.023 C 
ENDROOT
BRANCH   1   2
ATOM      2  C   UNL A   1      34.918  23.455  24.121  1.00  0.00     0.116 C 
BRANCH   2   3
ATOM      3  N   UNL A   1      33.821  22.590  23.712  1.00  0.00    -0.356 N 
ATOM      4  C   UNL A   1      32.525  22.855  23.367  1.00  0.00     0.222 C 
ATOM      5  O   UNL A   1      31.997  22.071  22.571  1.00  0.00    -0.275 OA
ATOM      6  H   UNL A   1      34.057  21.634  23.677  1.00  0.00     0.163 HD
BRANCH   4   7
ATOM      7  C   UNL A   1      31.726  24.007  23.947  1.00  0.00     0.138 C 
BRANCH   7   8
ATOM      8  C   UNL A   1      30.901  24.910  22.990  1.00  0.00     0.182 C 
ATOM      9  N   UNL A   1      31.950  27.120  22.172  1.00  0.00    -0.323 N 
ATOM     10  C   UNL A   1      30.619  27.712  22.389  1.00  0.00     0.291 C 
ATOM     11  C   UNL A   1      31.678  25.690  21.915  1.00  0.00     0.295 C 
ATOM     12  H   UNL A   1      32.446  27.573  21.406  1.00  0.00     0.348 HD
ATOM     13  C   UNL A   1      29.891  27.092  23.592  1.00  0.00     0.222 C 
ATOM     14  O   UNL A   1      29.851  25.656  23.642  1.00  0.00    -0.366 OA
BRANCH   9  15
ATOM     15  C   UNL A   1      32.815  27.278  23.365  1.00  0.00     0.363 C 
BRANCH  15  16
ATOM     16  C   UNL A   1      33.527  28.611  23.519  1.00  0.00     0.275 C 
ATOM     17  N   UNL A   1      32.943  29.582  24.283  1.00  0.00    -0.348 N 
ATOM     18  H   UNL A   1      33.064  30.511  23.982  1.00  0.00     0.163 HD
ATOM     19  O   UNL A   1      34.550  28.883  22.887  1.00  0.00    -0.268 OA
BRANCH  17  20
ATOM     20  C   UNL A   1      32.157  29.385  25.500  1.00  0.00     0.085 C 
ATOM     21  C   UNL A   1      31.774  27.617  27.314  1.00  0.00     0.010 C 
ATOM     22  C   UNL A   1      32.732  28.171  26.255  1.00  0.00     0.008 C 
ATOM     23  C   UNL A   1      34.101  28.522  26.860  1.00  0.00     0.005 C 
ATOM     24  C   UNL A   1      34.072  29.790  27.713  1.00  0.00     0.000 C 
ATOM     25  C   UNL A   1      32.133  30.661  26.345  1.00  0.00     0.025 C 
ATOM     26  C   UNL A   1      33.484  30.986  26.971  1.00  0.00     0.002 C 
ENDBRANCH  17  20
ENDBRANCH  15  16
ENDBRANCH   9  15
ENDBRANCH   7   8
ENDBRANCH   4   7
ENDBRANCH   2   3
ENDBRANCH   1   2
BRANCH   1  27
ATOM     27  C   UNL A   1      36.948  21.766  23.838  1.00  0.00     0.023 C 
BRANCH  27  28
ATOM     28  C   UNL A   1      36.918  21.235  25.272  1.00  0.00     0.116 C 
BRANCH  28  29
ATOM     29  N   UNL A   1      37.980  20.277  25.509  1.00  0.00    -0.352 N 
ATOM     30  C   UNL A   1      39.278  20.468  25.926  1.00  0.00     0.251 C 
ATOM     31  H   UNL A   1      37.733  19.338  25.345  1.00  0.00     0.163 HD
ATOM     32  O   UNL A   1      40.066  19.534  25.782  1.00  0.00    -0.269 OA
BRANCH  30  33
ATOM     33  C   UNL A   1      39.758  21.741  26.540  1.00  0.00     0.039 A 
ATOM     34  C   UNL A   1      39.279  22.952  26.019  1.00  0.00     0.014 A 
ATOM     35  C   UNL A   1      40.755  21.784  27.517  1.00  0.00     0.014 A 
ATOM     36  C   UNL A   1      39.799  24.179  26.458  1.00  0.00     0.010 A 
ATOM     37  C   UNL A   1      41.223  23.016  28.006  1.00  0.00     0.010 A 
ATOM     38  C   UNL A   1      40.784  24.231  27.457  1.00  0.00    -0.014 A 
BRANCH  38  39
ATOM     39  C   UNL A   1      41.414  25.535  27.842  1.00  0.00     0.031 A 
ATOM     40  C   UNL A   1      42.823  25.865  27.396  1.00  0.00     0.074 A 
ATOM     41  C   UNL A   1      40.732  26.446  28.570  1.00  0.00     0.049 A 
ATOM     42  N   UNL A   1      43.531  26.950  27.603  1.00  0.00    -0.248 NA
ATOM     43  C   UNL A   1      43.538  24.826  26.641  1.00  0.00     0.031 C 
ATOM     44  C   UNL A   1      39.378  26.264  29.095  1.00  0.00     0.029 A 
ATOM     45  N   UNL A   1      41.078  27.712  28.986  1.00  0.00    -0.354 N 
ATOM     46  C   UNL A   1      44.772  26.719  27.011  1.00  0.00     0.074 A 
ATOM     47  C   UNL A   1      44.741  25.361  26.510  1.00  0.00     0.031 C 
ATOM     48  C   UNL A   1      38.996  27.387  29.727  1.00  0.00     0.029 A 
ATOM     49  C   UNL A   1      40.085  28.360  29.686  1.00  0.00     0.049 A 
ATOM     50  H   UNL A   1      41.955  28.116  28.798  1.00  0.00     0.167 HD
ATOM     51  C   UNL A   1      45.827  27.561  26.864  1.00  0.00     0.034 A 
ATOM     52  C   UNL A   1      40.048  29.595  30.230  1.00  0.00     0.034 A 
ATOM     53  C   UNL A   1      45.851  28.921  27.347  1.00  0.00     0.049 A 
ATOM     54  C   UNL A   1      41.240  30.509  30.073  1.00  0.00     0.074 A 
ATOM     55  C   UNL A   1      46.855  29.866  27.213  1.00  0.00     0.029 A 
ATOM     56  N   UNL A   1      44.829  29.532  28.063  1.00  0.00    -0.354 N 
ATOM     57  N   UNL A   1      42.383  30.285  29.467  1.00  0.00    -0.248 NA
ATOM     58  C   UNL A   1      41.125  31.852  30.659  1.00  0.00     0.031 C 
ATOM     59  C   UNL A   1      46.471  31.020  27.907  1.00  0.00     0.029 A 
ATOM     60  C   UNL A   1      45.191  30.829  28.398  1.00  0.00     0.049 A 
ATOM     61  H   UNL A   1      43.973  29.107  28.297  1.00  0.00     0.167 HD
ATOM     62  C   UNL A   1      43.103  31.475  29.565  1.00  0.00     0.074 A 
ATOM     63  C   UNL A   1      42.258  32.416  30.270  1.00  0.00     0.031 C 
ATOM     64  C   UNL A   1      44.350  31.766  29.108  1.00  0.00     0.034 A 
BRANCH  51  65
ATOM     65  C   UNL A   1      47.056  27.019  26.166  1.00  0.00     0.023 A 
ATOM     66  C   UNL A   1      48.057  26.321  26.864  1.00  0.00     0.031 A 
ATOM     67  C   UNL A   1      47.245  27.226  24.787  1.00  0.00     0.131 A 
ATOM     68  C   UNL A   1      49.237  25.937  26.206  1.00  0.00     0.055 A 
ATOM     69  C   UNL A   1      48.379  26.759  24.118  1.00  0.00     0.041 A 
ATOM     70  F   UNL A   1      46.335  27.902  24.067  1.00  0.00    -0.206 F 
ATOM     71  C   UNL A   1      49.392  26.126  24.832  1.00  0.00     0.022 A 
BRANCH  68  72
ATOM     72  S   UNL A   1      50.628  25.339  27.205  1.00  0.00     0.124 S 
ATOM     73  O   UNL A   1      49.980  24.328  28.036  1.00  0.00    -0.237 OA
ATOM     74  O   UNL A   1      51.552  24.841  26.194  1.00  0.00    -0.237 OA
ATOM     75  O   UNL A   1      51.072  26.533  27.923  1.00  0.00    -0.744 OA
ENDBRANCH  68  72
ENDBRANCH  51  65
BRANCH  52  76
ATOM     76  C   UNL A   1      38.842  30.059  30.982  1.00  0.00     0.023 A 
ATOM     77  C   UNL A   1      37.911  30.935  30.397  1.00  0.00     0.031 A 
ATOM     78  C   UNL A   1      38.639  29.685  32.322  1.00  0.00     0.131 A 
ATOM     79  C   UNL A   1      36.855  31.452  31.167  1.00  0.00     0.055 A 
ATOM     80  C   UNL A   1      37.554  30.155  33.065  1.00  0.00     0.041 A 
ATOM     81  F   UNL A   1      39.497  28.851  32.931  1.00  0.00    -0.206 F 
ATOM     82  C   UNL A   1      36.663  31.057  32.491  1.00  0.00     0.022 A 
BRANCH  79  83
ATOM     83  S   UNL A   1      35.792  32.730  30.438  1.00  0.00     0.124 S 
ATOM     84  O   UNL A   1      36.406  33.950  30.942  1.00  0.00    -0.237 OA
ATOM     85  O   UNL A   1      35.946  32.474  29.009  1.00  0.00    -0.237 OA
ATOM     86  O   UNL A   1      34.470  32.422  30.984  1.00  0.00    -0.744 OA
ENDBRANCH  79  83
ENDBRANCH  52  76
BRANCH  64  87
ATOM     87  C   UNL A   1      44.849  33.180  29.309  1.00  0.00     0.023 A 
ATOM     88  C   UNL A   1      44.795  34.143  28.286  1.00  0.00     0.031 A 
ATOM     89  C   UNL A   1      45.423  33.558  30.537  1.00  0.00     0.131 A 
ATOM     90  C   UNL A   1      45.374  35.407  28.482  1.00  0.00     0.055 A 
ATOM     91  C   UNL A   1      45.930  34.841  30.751  1.00  0.00     0.041 A 
ATOM     92  F   UNL A   1      45.507  32.684  31.552  1.00  0.00    -0.206 F 
ATOM     93  C   UNL A   1      45.925  35.769  29.713  1.00  0.00     0.022 A 
BRANCH  90  94
ATOM     94  S   UNL A   1      45.516  36.529  27.063  1.00  0.00     0.124 S 
ATOM     95  O   UNL A   1      44.231  37.220  27.091  1.00  0.00    -0.237 OA
ATOM     96  O   UNL A   1      46.680  37.334  27.418  1.00  0.00    -0.237 OA
ATOM     97  O   UNL A   1      45.710  35.625  25.930  1.00  0.00    -0.744 OA
ENDBRANCH  90  94
ENDBRANCH  64  87
ENDBRANCH  38  39
ENDBRANCH  30  33
ENDBRANCH  28  29
ENDBRANCH  27  28
ENDBRANCH   1  27
TORSDOF 18
ENDMDL
MODEL 3
REMARK VINA RESULT:     -10.8      2.284      2.858
REMARK SMILES C[C@@H]1CCCC[C@H]1NC(=O)C[N@@H+]1CCO[C@H](CC(=O)NCCCCNC(=O)c2ccc(-c3c4nc(c(-c5cc(S(=O)(=O)[O-])ccc5F)c5ccc([nH]5)c(-c5cc(S(=O)(=O)[O-])ccc5F)c5nc(c(-c6cc(S(=O)(=O)[O-])ccc6F)c6ccc3[nH]6)C=C5)C=C4)cc2)C1
REMARK SMILES IDX 22 1 21 2 20 3 18 4 19 5 17 7 16 8 12 9 13 10 91 11 14 13
REMARK SMILES IDX 15 14 11 15 9 16 8 17 10 19 7 20 1 21 2 22 3 23 4 24 6 25
REMARK SMILES IDX 5 26 23 27 24 28 25 29 26 30 27 32 28 33 29 34 90 35 30 36
REMARK SMILES IDX 89 37 31 38 32 39 33 40 83 41 34 42 88 43 82 44 84 45 35 46
REMARK SMILES IDX 87 47 81 48 80 49 36 51 68 52 48 53 67 54 49 55 52 56 66 57
REMARK SMILES IDX 85 58 50 59 51 60 65 62 86 63 53 64 37 65 38 66 46 67 39 68
REMARK SMILES IDX 45 69 47 70 44 71 40 72 41 73 42 74 43 75 69 76 70 77 78 78
REMARK SMILES IDX 71 79 77 80 79 81 76 82 72 83 73 84 74 85 75 86 54 87 55 88
REMARK SMILES IDX 63 89 56 90 62 91 64 92 61 93 57 94 58 95 59 96 60 97
REMARK H PARENT 20 6 12 12 8 18 25 31 84 50 52 61
REMARK Flexibility Score: inf
ROOT
ATOM      1  C   UNL A   1      34.325  24.693  25.739  1.00  0.00     0.023 C 
ENDROOT
BRANCH   1   2
ATOM      2  C   UNL A   1      32.844  24.498  26.115  1.00  0.00     0.116 C 
BRANCH   2   3
ATOM      3  N   UNL A   1      32.080  23.454  25.448  1.00  0.00    -0.356 N 
ATOM      4  C   UNL A   1      32.015  23.059  24.141  1.00  0.00     0.222 C 
ATOM      5  O   UNL A   1      31.744  21.870  23.939  1.00  0.00    -0.275 OA
ATOM      6  H   UNL A   1      31.501  22.935  26.052  1.00  0.00     0.163 HD
BRANCH   4   7
ATOM      7  C   UNL A   1      32.207  24.007  22.972  1.00  0.00     0.138 C 
BRANCH   7   8
ATOM      8  C   UNL A   1      31.054  24.976  22.590  1.00  0.00     0.182 C 
ATOM      9  N   UNL A   1      31.561  27.501  22.457  1.00  0.00    -0.323 N 
ATOM     10  C   UNL A   1      30.263  27.692  23.125  1.00  0.00     0.291 C 
ATOM     11  C   UNL A   1      31.424  26.211  21.749  1.00  0.00     0.295 C 
ATOM     12  H   UNL A   1      31.781  28.275  21.831  1.00  0.00     0.348 HD
ATOM     13  C   UNL A   1      29.951  26.572  24.131  1.00  0.00     0.222 C 
ATOM     14  O   UNL A   1      30.115  25.225  23.656  1.00  0.00    -0.366 OA
BRANCH   9  15
ATOM     15  C   UNL A   1      32.671  27.441  23.437  1.00  0.00     0.363 C 
BRANCH  15  16
ATOM     16  C   UNL A   1      33.531  28.686  23.570  1.00  0.00     0.275 C 
ATOM     17  N   UNL A   1      33.099  29.697  24.383  1.00  0.00    -0.348 N 
ATOM     18  H   UNL A   1      33.302  30.614  24.090  1.00  0.00     0.163 HD
ATOM     19  O   UNL A   1      34.540  28.861  22.883  1.00  0.00    -0.268 OA
BRANCH  17  20
ATOM     20  C   UNL A   1      32.367  29.558  25.640  1.00  0.00     0.085 C 
ATOM     21  C   UNL A   1      31.827  27.776  27.399  1.00  0.00     0.010 C 
ATOM     22  C   UNL A   1      32.793  28.233  26.303  1.00  0.00     0.008 C 
ATOM     23  C   UNL A   1      34.233  28.342  26.828  1.00  0.00     0.005 C 
ATOM     24  C   UNL A   1      34.451  29.554  27.734  1.00  0.00     0.000 C 
ATOM     25  C   UNL A   1      32.590  30.777  26.538  1.00  0.00     0.025 C 
ATOM     26  C   UNL A   1      34.010  30.862  27.084  1.00  0.00     0.002 C 
ENDBRANCH  17  20
ENDBRANCH  15  16
ENDBRANCH   9  15
ENDBRANCH   7   8
ENDBRANCH   4   7
ENDBRANCH   2   3
ENDBRANCH   1   2
BRANCH   1  27
ATOM     27  C   UNL A   1      35.320  23.548  25.980  1.00  0.00     0.023 C 
BRANCH  27  28
ATOM     28  C   UNL A   1      36.750  23.760  25.482  1.00  0.00     0.116 C 
BRANCH  28  29
ATOM     29  N   UNL A   1      37.634  22.701  25.928  1.00  0.00    -0.352 N 
ATOM     30  C   UNL A   1      38.920  22.758  26.416  1.00  0.00     0.251 C 
ATOM     31  H   UNL A   1      37.253  21.795  25.874  1.00  0.00     0.163 HD
ATOM     32  O   UNL A   1      39.559  21.707  26.462  1.00  0.00    -0.269 OA
BRANCH  30  33
ATOM     33  C   UNL A   1      39.558  24.022  26.888  1.00  0.00     0.039 A 
ATOM     34  C   UNL A   1      39.363  24.407  28.221  1.00  0.00     0.014 A 
ATOM     35  C   UNL A   1      40.227  24.899  26.032  1.00  0.00     0.014 A 
ATOM     36  C   UNL A   1      39.816  25.652  28.684  1.00  0.00     0.010 A 
ATOM     37  C   UNL A   1      40.744  26.114  26.516  1.00  0.00     0.010 A 
ATOM     38  C   UNL A   1      40.512  26.528  27.836  1.00  0.00    -0.014 A 
BRANCH  38  39
ATOM     39  C   UNL A   1      40.896  27.900  28.303  1.00  0.00     0.031 A 
ATOM     40  C   UNL A   1      42.349  28.329  28.299  1.00  0.00     0.074 A 
ATOM     41  C   UNL A   1      39.959  28.782  28.711  1.00  0.00     0.049 A 
ATOM     42  N   UNL A   1      42.880  29.481  28.637  1.00  0.00    -0.248 NA
ATOM     43  C   UNL A   1      43.336  27.322  27.885  1.00  0.00     0.031 C 
ATOM     44  C   UNL A   1      38.523  28.508  28.797  1.00  0.00     0.029 A 
ATOM     45  N   UNL A   1      40.068  30.091  29.120  1.00  0.00    -0.354 N 
ATOM     46  C   UNL A   1      44.256  29.330  28.483  1.00  0.00     0.074 A 
ATOM     47  C   UNL A   1      44.479  27.952  28.099  1.00  0.00     0.031 C 
ATOM     48  C   UNL A   1      37.885  29.623  29.193  1.00  0.00     0.029 A 
ATOM     49  C   UNL A   1      38.862  30.684  29.424  1.00  0.00     0.049 A 
ATOM     50  H   UNL A   1      40.929  30.562  29.189  1.00  0.00     0.167 HD
ATOM     51  C   UNL A   1      45.244  30.254  28.614  1.00  0.00     0.034 A 
ATOM     52  C   UNL A   1      38.570  31.935  29.837  1.00  0.00     0.034 A 
ATOM     53  C   UNL A   1      45.021  31.632  28.978  1.00  0.00     0.049 A 
ATOM     54  C   UNL A   1      39.686  32.942  29.996  1.00  0.00     0.074 A 
ATOM     55  C   UNL A   1      45.949  32.654  29.097  1.00  0.00     0.029 A 
ATOM     56  N   UNL A   1      43.786  32.186  29.290  1.00  0.00    -0.354 N 
ATOM     57  N   UNL A   1      40.975  32.789  29.797  1.00  0.00    -0.248 NA
ATOM     58  C   UNL A   1      39.300  34.296  30.416  1.00  0.00     0.031 C 
ATOM     59  C   UNL A   1      45.287  33.802  29.549  1.00  0.00     0.029 A 
ATOM     60  C   UNL A   1      43.933  33.524  29.626  1.00  0.00     0.049 A 
ATOM     61  H   UNL A   1      42.930  31.699  29.274  1.00  0.00     0.167 HD
ATOM     62  C   UNL A   1      41.544  34.041  30.028  1.00  0.00     0.074 A 
ATOM     63  C   UNL A   1      40.457  34.937  30.361  1.00  0.00     0.031 C 
ATOM     64  C   UNL A   1      42.849  34.417  29.965  1.00  0.00     0.034 A 
BRANCH  51  65
ATOM     65  C   UNL A   1      46.665  29.787  28.378  1.00  0.00     0.023 A 
ATOM     66  C   UNL A   1      47.476  29.321  29.428  1.00  0.00     0.031 A 
ATOM     67  C   UNL A   1      47.229  29.836  27.090  1.00  0.00     0.131 A 
ATOM     68  C   UNL A   1      48.824  29.010  29.192  1.00  0.00     0.055 A 
ATOM     69  C   UNL A   1      48.545  29.436  26.844  1.00  0.00     0.041 A 
ATOM     70  F   UNL A   1      46.515  30.290  26.047  1.00  0.00    -0.206 F 
ATOM     71  C   UNL A   1      49.356  29.036  27.902  1.00  0.00     0.022 A 
BRANCH  68  72
ATOM     72  S   UNL A   1      49.910  28.731  30.618  1.00  0.00     0.124 S 
ATOM     73  O   UNL A   1      50.868  27.771  30.075  1.00  0.00    -0.237 OA
ATOM     74  O   UNL A   1      50.426  30.067  30.888  1.00  0.00    -0.237 OA
ATOM     75  O   UNL A   1      49.008  28.192  31.635  1.00  0.00    -0.744 OA
ENDBRANCH  68  72
ENDBRANCH  51  65
BRANCH  52  76
ATOM     76  C   UNL A   1      37.159  32.328  30.136  1.00  0.00     0.023 A 
ATOM     77  C   UNL A   1      36.379  33.017  29.192  1.00  0.00     0.031 A 
ATOM     78  C   UNL A   1      36.593  32.078  31.398  1.00  0.00     0.131 A 
ATOM     79  C   UNL A   1      35.101  33.483  29.544  1.00  0.00     0.055 A 
ATOM     80  C   UNL A   1      35.299  32.490  31.723  1.00  0.00     0.041 A 
ATOM     81  F   UNL A   1      37.293  31.423  32.338  1.00  0.00    -0.206 F 
ATOM     82  C   UNL A   1      34.551  33.211  30.798  1.00  0.00     0.022 A 
BRANCH  79  83
ATOM     83  S   UNL A   1      34.205  34.538  28.370  1.00  0.00     0.124 S 
ATOM     84  O   UNL A   1      32.911  33.874  28.302  1.00  0.00    -0.237 OA
ATOM     85  O   UNL A   1      34.231  35.832  29.044  1.00  0.00    -0.237 OA
ATOM     86  O   UNL A   1      35.016  34.456  27.154  1.00  0.00    -0.744 OA
ENDBRANCH  79  83
ENDBRANCH  52  76
BRANCH  64  87
ATOM     87  C   UNL A   1      43.162  35.877  30.208  1.00  0.00     0.023 A 
ATOM     88  C   UNL A   1      43.088  36.837  29.183  1.00  0.00     0.031 A 
ATOM     89  C   UNL A   1      43.576  36.308  31.483  1.00  0.00     0.131 A 
ATOM     90  C   UNL A   1      43.497  38.158  29.429  1.00  0.00     0.055 A 
ATOM     91  C   UNL A   1      43.910  37.638  31.739  1.00  0.00     0.041 A 
ATOM     92  F   UNL A   1      43.669  35.439  32.502  1.00  0.00    -0.206 F 
ATOM     93  C   UNL A   1      43.891  38.569  30.704  1.00  0.00     0.022 A 
BRANCH  90  94
ATOM     94  S   UNL A   1      43.634  39.301  28.027  1.00  0.00     0.124 S 
ATOM     95  O   UNL A   1      44.018  38.405  26.940  1.00  0.00    -0.237 OA
ATOM     96  O   UNL A   1      42.287  39.859  27.947  1.00  0.00    -0.237 OA
ATOM     97  O   UNL A   1      44.670  40.241  28.451  1.00  0.00    -0.744 OA
ENDBRANCH  90  94
ENDBRANCH  64  87
ENDBRANCH  38  39
ENDBRANCH  30  33
ENDBRANCH  28  29
ENDBRANCH  27  28
ENDBRANCH   1  27
TORSDOF 18
ENDMDL
