MODEL 1
REMARK VINA RESULT:     -12.7      0.000      0.000
REMARK SMILES Cc1cc(S(=O)(=O)Nc2ccc(Cl)cc2F)ccc1OCC(=O)NCCCCNC(=O)c1ccc(-c2c3nc(c(-c4cc(S(=O)(=O)[O-])ccc4F)c4ccc([nH]4)c(-c4cc(S(=O)(=O)[O-])ccc4F)c4nc(c(-c5cc(S(=O)(=O)[O-])ccc5F)c5ccc2[nH]5)C=C4)C=C3)cc1
REMARK SMILES IDX 25 1 24 2 22 3 23 4 21 6 20 7 19 8 1 9 2 10 3 11 4 12 18 13
REMARK SMILES IDX 17 14 5 15 6 16 7 17 8 18 9 20 10 21 15 22 11 23 14 24 16 25
REMARK SMILES IDX 12 26 13 27 26 28 27 29 28 30 29 31 30 32 31 34 32 35 33 36
REMARK SMILES IDX 94 37 34 38 93 39 35 40 36 41 37 42 87 43 38 44 92 45 86 46
REMARK SMILES IDX 88 47 39 48 91 49 85 50 84 51 40 53 72 54 52 55 71 56 53 57
REMARK SMILES IDX 56 58 70 59 89 60 54 61 55 62 69 64 90 65 57 66 41 67 42 68
REMARK SMILES IDX 50 69 43 70 49 71 51 72 48 73 44 74 45 75 46 76 47 77 73 78
REMARK SMILES IDX 74 79 82 80 75 81 81 82 83 83 80 84 76 85 77 86 78 87 79 88
REMARK SMILES IDX 58 89 59 90 67 91 60 92 66 93 68 94 65 95 61 96 62 97 63 98
REMARK SMILES IDX 64 99
REMARK H PARENT 24 5 8 19 29 33 88 52 56 63
REMARK Flexibility Score: inf
ROOT
ATOM      1  C   UNL A   1      35.515  20.744  24.989  1.00  0.00     0.116 C 
ENDROOT
BRANCH   1   2
ATOM      2  N   UNL A   1      34.930  21.643  25.973  1.00  0.00    -0.353 N 
ATOM      3  C   UNL A   1      33.648  21.715  26.430  1.00  0.00     0.257 C 
ATOM      4  O   UNL A   1      33.388  22.512  27.335  1.00  0.00    -0.271 OA
ATOM      5  H   UNL A   1      35.553  22.298  26.366  1.00  0.00     0.163 HD
BRANCH   3   6
ATOM      6  C   UNL A   1      32.576  20.784  25.859  1.00  0.00     0.329 C 
BRANCH   6   7
ATOM      7  O   UNL A   1      31.837  21.185  24.724  1.00  0.00    -0.484 OA
BRANCH   7   8
ATOM      8  C   UNL A   1      32.039  22.408  24.156  1.00  0.00     0.123 A 
ATOM      9  C   UNL A   1      30.659  23.912  25.733  1.00  0.00     0.048 C 
ATOM     10  C   UNL A   1      31.487  23.645  24.510  1.00  0.00    -0.008 A 
ATOM     11  C   UNL A   1      31.711  24.745  23.650  1.00  0.00     0.029 A 
ATOM     12  C   UNL A   1      32.494  24.635  22.491  1.00  0.00     0.088 A 
ATOM     13  C   UNL A   1      32.833  22.324  23.004  1.00  0.00     0.048 A 
ATOM     14  C   UNL A   1      33.137  23.439  22.227  1.00  0.00     0.026 A 
BRANCH  12  15
ATOM     15  S   UNL A   1      32.457  26.014  21.369  1.00  0.00     0.262 S 
ATOM     16  O   UNL A   1      33.173  25.626  20.175  1.00  0.00    -0.201 OA
ATOM     17  O   UNL A   1      31.066  26.424  21.284  1.00  0.00    -0.201 OA
BRANCH  15  18
ATOM     18  N   UNL A   1      33.222  27.363  22.014  1.00  0.00    -0.277 N 
ATOM     19  H   UNL A   1      33.930  27.780  21.472  1.00  0.00     0.180 HD
BRANCH  18  20
ATOM     20  C   UNL A   1      32.936  27.955  23.276  1.00  0.00     0.085 A 
ATOM     21  C   UNL A   1      33.870  27.695  24.288  1.00  0.00     0.031 A 
ATOM     22  C   UNL A   1      31.867  28.817  23.549  1.00  0.00     0.148 A 
ATOM     23  C   UNL A   1      33.805  28.375  25.504  1.00  0.00     0.023 A 
ATOM     24  C   UNL A   1      31.801  29.506  24.760  1.00  0.00     0.062 A 
ATOM     25  F   UNL A   1      30.936  29.073  22.620  1.00  0.00    -0.205 F 
ATOM     26  C   UNL A   1      32.783  29.295  25.726  1.00  0.00     0.044 A 
ATOM     27  Cl  UNL A   1      32.754  30.185  27.196  1.00  0.00    -0.084 Cl
ENDBRANCH  18  20
ENDBRANCH  15  18
ENDBRANCH  12  15
ENDBRANCH   7   8
ENDBRANCH   6   7
ENDBRANCH   3   6
ENDBRANCH   1   2
BRANCH   1  28
ATOM     28  C   UNL A   1      37.045  20.668  25.069  1.00  0.00     0.023 C 
BRANCH  28  29
ATOM     29  C   UNL A   1      37.811  21.950  24.750  1.00  0.00     0.023 C 
BRANCH  29  30
ATOM     30  C   UNL A   1      38.212  22.746  25.976  1.00  0.00     0.116 C 
BRANCH  30  31
ATOM     31  N   UNL A   1      39.606  22.625  26.366  1.00  0.00    -0.352 N 
ATOM     32  C   UNL A   1      40.515  23.621  26.701  1.00  0.00     0.251 C 
ATOM     33  H   UNL A   1      39.958  21.706  26.398  1.00  0.00     0.163 HD
ATOM     34  O   UNL A   1      41.699  23.353  26.813  1.00  0.00    -0.269 OA
BRANCH  32  35
ATOM     35  C   UNL A   1      40.026  24.990  27.028  1.00  0.00     0.039 A 
ATOM     36  C   UNL A   1      40.482  26.059  26.242  1.00  0.00     0.014 A 
ATOM     37  C   UNL A   1      39.304  25.247  28.185  1.00  0.00     0.014 A 
ATOM     38  C   UNL A   1      40.413  27.362  26.740  1.00  0.00     0.010 A 
ATOM     39  C   UNL A   1      39.358  26.504  28.740  1.00  0.00     0.010 A 
ATOM     40  C   UNL A   1      39.948  27.556  28.037  1.00  0.00    -0.014 A 
BRANCH  40  41
ATOM     41  C   UNL A   1      40.114  28.779  28.807  1.00  0.00     0.031 A 
ATOM     42  C   UNL A   1      39.038  29.792  28.849  1.00  0.00     0.074 A 
ATOM     43  C   UNL A   1      41.174  28.884  29.639  1.00  0.00     0.049 A 
ATOM     44  N   UNL A   1      39.210  31.006  29.238  1.00  0.00    -0.248 NA
ATOM     45  C   UNL A   1      37.668  29.519  28.426  1.00  0.00     0.031 C 
ATOM     46  C   UNL A   1      41.335  29.804  30.761  1.00  0.00     0.029 A 
ATOM     47  N   UNL A   1      42.430  28.301  29.486  1.00  0.00    -0.354 N 
ATOM     48  C   UNL A   1      37.969  31.577  29.400  1.00  0.00     0.074 A 
ATOM     49  C   UNL A   1      37.044  30.632  28.824  1.00  0.00     0.031 C 
ATOM     50  C   UNL A   1      42.641  29.925  31.041  1.00  0.00     0.029 A 
ATOM     51  C   UNL A   1      43.368  29.211  30.008  1.00  0.00     0.049 A 
ATOM     52  H   UNL A   1      42.625  27.422  29.089  1.00  0.00     0.167 HD
ATOM     53  C   UNL A   1      37.855  32.725  30.124  1.00  0.00     0.034 A 
ATOM     54  C   UNL A   1      44.328  29.760  29.208  1.00  0.00     0.034 A 
ATOM     55  C   UNL A   1      39.158  33.189  30.592  1.00  0.00     0.049 A 
ATOM     56  C   UNL A   1      44.241  31.267  29.108  1.00  0.00     0.074 A 
ATOM     57  C   UNL A   1      39.816  33.086  31.806  1.00  0.00     0.029 A 
ATOM     58  N   UNL A   1      40.100  33.619  29.667  1.00  0.00    -0.354 N 
ATOM     59  N   UNL A   1      43.189  31.964  29.440  1.00  0.00    -0.248 NA
ATOM     60  C   UNL A   1      45.334  32.108  28.633  1.00  0.00     0.031 C 
ATOM     61  C   UNL A   1      41.178  33.425  31.595  1.00  0.00     0.029 A 
ATOM     62  C   UNL A   1      41.337  33.760  30.262  1.00  0.00     0.049 A 
ATOM     63  H   UNL A   1      39.911  33.798  28.718  1.00  0.00     0.167 HD
ATOM     64  C   UNL A   1      43.429  33.302  29.234  1.00  0.00     0.074 A 
ATOM     65  C   UNL A   1      44.796  33.337  28.740  1.00  0.00     0.031 C 
ATOM     66  C   UNL A   1      42.472  34.247  29.490  1.00  0.00     0.034 A 
BRANCH  53  67
ATOM     67  C   UNL A   1      36.554  33.286  30.644  1.00  0.00     0.023 A 
ATOM     68  C   UNL A   1      35.710  33.986  29.754  1.00  0.00     0.031 A 
ATOM     69  C   UNL A   1      36.091  33.194  31.968  1.00  0.00     0.131 A 
ATOM     70  C   UNL A   1      34.540  34.626  30.196  1.00  0.00     0.055 A 
ATOM     71  C   UNL A   1      34.952  33.873  32.424  1.00  0.00     0.041 A 
ATOM     72  F   UNL A   1      36.691  32.403  32.869  1.00  0.00    -0.206 F 
ATOM     73  C   UNL A   1      34.174  34.605  31.537  1.00  0.00     0.022 A 
BRANCH  70  74
ATOM     74  S   UNL A   1      33.501  35.484  28.983  1.00  0.00     0.124 S 
ATOM     75  O   UNL A   1      32.777  34.381  28.360  1.00  0.00    -0.237 OA
ATOM     76  O   UNL A   1      32.715  36.379  29.825  1.00  0.00    -0.237 OA
ATOM     77  O   UNL A   1      34.473  36.151  28.117  1.00  0.00    -0.744 OA
ENDBRANCH  70  74
ENDBRANCH  53  67
BRANCH  54  78
ATOM     78  C   UNL A   1      44.781  28.826  28.138  1.00  0.00     0.023 A 
ATOM     79  C   UNL A   1      45.643  27.781  28.536  1.00  0.00     0.031 A 
ATOM     80  C   UNL A   1      44.066  28.667  26.945  1.00  0.00     0.131 A 
ATOM     81  C   UNL A   1      45.631  26.556  27.854  1.00  0.00     0.055 A 
ATOM     82  C   UNL A   1      44.113  27.464  26.225  1.00  0.00     0.041 A 
ATOM     83  F   UNL A   1      43.204  29.608  26.533  1.00  0.00    -0.206 F 
ATOM     84  C   UNL A   1      44.859  26.386  26.705  1.00  0.00     0.022 A 
BRANCH  81  85
ATOM     85  S   UNL A   1      46.415  25.125  28.658  1.00  0.00     0.124 S 
ATOM     86  O   UNL A   1      47.758  25.153  28.086  1.00  0.00    -0.237 OA
ATOM     87  O   UNL A   1      46.318  25.468  30.076  1.00  0.00    -0.237 OA
ATOM     88  O   UNL A   1      45.583  23.997  28.250  1.00  0.00    -0.744 OA
ENDBRANCH  81  85
ENDBRANCH  54  78
BRANCH  66  89
ATOM     89  C   UNL A   1      42.507  35.725  29.124  1.00  0.00     0.023 A 
ATOM     90  C   UNL A   1      43.245  36.687  29.822  1.00  0.00     0.031 A 
ATOM     91  C   UNL A   1      41.823  36.210  27.975  1.00  0.00     0.131 A 
ATOM     92  C   UNL A   1      43.244  38.042  29.432  1.00  0.00     0.055 A 
ATOM     93  C   UNL A   1      41.881  37.540  27.546  1.00  0.00     0.041 A 
ATOM     94  F   UNL A   1      41.073  35.414  27.201  1.00  0.00    -0.206 F 
ATOM     95  C   UNL A   1      42.586  38.472  28.284  1.00  0.00     0.022 A 
BRANCH  92  96
ATOM     96  S   UNL A   1      44.087  39.239  30.498  1.00  0.00     0.124 S 
ATOM     97  O   UNL A   1      45.420  39.284  29.904  1.00  0.00    -0.237 OA
ATOM     98  O   UNL A   1      43.275  40.439  30.323  1.00  0.00    -0.237 OA
ATOM     99  O   UNL A   1      44.018  38.630  31.824  1.00  0.00    -0.744 OA
ENDBRANCH  92  96
ENDBRANCH  66  89
ENDBRANCH  40  41
ENDBRANCH  32  35
ENDBRANCH  30  31
ENDBRANCH  29  30
ENDBRANCH  28  29
ENDBRANCH   1  28
TORSDOF 19
ENDMDL
MODEL 2
REMARK VINA RESULT:     -12.6      2.374      3.371
REMARK SMILES Cc1cc(S(=O)(=O)Nc2ccc(Cl)cc2F)ccc1OCC(=O)NCCCCNC(=O)c1ccc(-c2c3nc(c(-c4cc(S(=O)(=O)[O-])ccc4F)c4ccc([nH]4)c(-c4cc(S(=O)(=O)[O-])ccc4F)c4nc(c(-c5cc(S(=O)(=O)[O-])ccc5F)c5ccc2[nH]5)C=C4)C=C3)cc1
REMARK SMILES IDX 25 1 24 2 22 3 23 4 21 6 20 7 19 8 1 9 2 10 3 11 4 12 18 13
REMARK SMILES IDX 17 14 5 15 6 16 7 17 8 18 9 20 10 21 15 22 11 23 14 24 16 25
REMARK SMILES IDX 12 26 13 27 26 28 27 29 28 30 29 31 30 32 31 34 32 35 33 36
REMARK SMILES IDX 94 37 34 38 93 39 35 40 36 41 37 42 87 43 38 44 92 45 86 46
REMARK SMILES IDX 88 47 39 48 91 49 85 50 84 51 40 53 72 54 52 55 71 56 53 57
REMARK SMILES IDX 56 58 70 59 89 60 54 61 55 62 69 64 90 65 57 66 41 67 42 68
REMARK SMILES IDX 50 69 43 70 49 71 51 72 48 73 44 74 45 75 46 76 47 77 73 78
REMARK SMILES IDX 74 79 82 80 75 81 81 82 83 83 80 84 76 85 77 86 78 87 79 88
REMARK SMILES IDX 58 89 59 90 67 91 60 92 66 93 68 94 65 95 61 96 62 97 63 98
REMARK SMILES IDX 64 99
REMARK H PARENT 24 5 8 19 29 33 88 52 56 63
REMARK Flexibility Score: inf
ROOT
ATOM      1  C   UNL A   1      36.140  20.605  25.017  1.00  0.00     0.116 C 
ENDROOT
BRANCH   1   2
ATOM      2  N   UNL A   1      35.481  21.270  26.131  1.00  0.00    -0.353 N 
ATOM      3  C   UNL A   1      34.190  21.174  26.560  1.00  0.00     0.257 C 
ATOM      4  O   UNL A   1      33.864  21.774  27.587  1.00  0.00    -0.271 OA
ATOM      5  H   UNL A   1      36.051  21.881  26.652  1.00  0.00     0.163 HD
BRANCH   3   6
ATOM      6  C   UNL A   1      33.193  20.295  25.801  1.00  0.00     0.329 C 
BRANCH   6   7
ATOM      7  O   UNL A   1      32.125  20.897  25.100  1.00  0.00    -0.484 OA
BRANCH   7   8
ATOM      8  C   UNL A   1      32.270  22.129  24.533  1.00  0.00     0.123 A 
ATOM      9  C   UNL A   1      30.680  23.531  26.001  1.00  0.00     0.048 C 
ATOM     10  C   UNL A   1      31.603  23.322  24.836  1.00  0.00    -0.008 A 
ATOM     11  C   UNL A   1      31.797  24.431  23.981  1.00  0.00     0.029 A 
ATOM     12  C   UNL A   1      32.660  24.374  22.876  1.00  0.00     0.088 A 
ATOM     13  C   UNL A   1      33.141  22.099  23.435  1.00  0.00     0.048 A 
ATOM     14  C   UNL A   1      33.408  23.230  22.667  1.00  0.00     0.026 A 
BRANCH  12  15
ATOM     15  S   UNL A   1      32.590  25.740  21.739  1.00  0.00     0.262 S 
ATOM     16  O   UNL A   1      33.204  25.311  20.502  1.00  0.00    -0.201 OA
ATOM     17  O   UNL A   1      31.212  26.198  21.748  1.00  0.00    -0.201 OA
BRANCH  15  18
ATOM     18  N   UNL A   1      33.447  27.068  22.307  1.00  0.00    -0.277 N 
ATOM     19  H   UNL A   1      34.203  27.381  21.761  1.00  0.00     0.180 HD
BRANCH  18  20
ATOM     20  C   UNL A   1      33.174  27.780  23.510  1.00  0.00     0.085 A 
ATOM     21  C   UNL A   1      33.918  27.378  24.627  1.00  0.00     0.031 A 
ATOM     22  C   UNL A   1      32.303  28.869  23.632  1.00  0.00     0.148 A 
ATOM     23  C   UNL A   1      33.884  28.123  25.805  1.00  0.00     0.023 A 
ATOM     24  C   UNL A   1      32.270  29.623  24.806  1.00  0.00     0.062 A 
ATOM     25  F   UNL A   1      31.553  29.270  22.597  1.00  0.00    -0.205 F 
ATOM     26  C   UNL A   1      33.077  29.257  25.881  1.00  0.00     0.044 A 
ATOM     27  Cl  UNL A   1      33.098  30.213  27.309  1.00  0.00    -0.084 Cl
ENDBRANCH  18  20
ENDBRANCH  15  18
ENDBRANCH  12  15
ENDBRANCH   7   8
ENDBRANCH   6   7
ENDBRANCH   3   6
ENDBRANCH   1   2
BRANCH   1  28
ATOM     28  C   UNL A   1      37.628  20.956  24.894  1.00  0.00     0.023 C 
BRANCH  28  29
ATOM     29  C   UNL A   1      38.076  22.268  25.534  1.00  0.00     0.023 C 
BRANCH  29  30
ATOM     30  C   UNL A   1      39.246  22.117  26.487  1.00  0.00     0.116 C 
BRANCH  30  31
ATOM     31  N   UNL A   1      40.180  21.053  26.161  1.00  0.00    -0.352 N 
ATOM     32  C   UNL A   1      41.569  21.076  26.150  1.00  0.00     0.251 C 
ATOM     33  H   UNL A   1      39.770  20.193  25.911  1.00  0.00     0.163 HD
ATOM     34  O   UNL A   1      42.190  20.147  25.661  1.00  0.00    -0.269 OA
BRANCH  32  35
ATOM     35  C   UNL A   1      42.297  22.181  26.833  1.00  0.00     0.039 A 
ATOM     36  C   UNL A   1      42.351  22.170  28.235  1.00  0.00     0.014 A 
ATOM     37  C   UNL A   1      42.741  23.297  26.137  1.00  0.00     0.014 A 
ATOM     38  C   UNL A   1      42.628  23.351  28.925  1.00  0.00     0.010 A 
ATOM     39  C   UNL A   1      42.877  24.491  26.808  1.00  0.00     0.010 A 
ATOM     40  C   UNL A   1      42.782  24.527  28.200  1.00  0.00    -0.014 A 
BRANCH  40  41
ATOM     41  C   UNL A   1      42.749  25.867  28.767  1.00  0.00     0.031 A 
ATOM     42  C   UNL A   1      41.527  26.693  28.669  1.00  0.00     0.074 A 
ATOM     43  C   UNL A   1      43.772  26.265  29.554  1.00  0.00     0.049 A 
ATOM     44  N   UNL A   1      41.503  27.966  28.860  1.00  0.00    -0.248 NA
ATOM     45  C   UNL A   1      40.220  26.147  28.316  1.00  0.00     0.031 C 
ATOM     46  C   UNL A   1      43.778  27.364  30.516  1.00  0.00     0.029 A 
ATOM     47  N   UNL A   1      45.106  25.869  29.472  1.00  0.00    -0.354 N 
ATOM     48  C   UNL A   1      40.187  28.354  28.952  1.00  0.00     0.074 A 
ATOM     49  C   UNL A   1      39.425  27.198  28.547  1.00  0.00     0.031 C 
ATOM     50  C   UNL A   1      45.047  27.730  30.751  1.00  0.00     0.029 A 
ATOM     51  C   UNL A   1      45.885  26.985  29.830  1.00  0.00     0.049 A 
ATOM     52  H   UNL A   1      45.439  24.980  29.214  1.00  0.00     0.167 HD
ATOM     53  C   UNL A   1      39.889  29.570  29.489  1.00  0.00     0.034 A 
ATOM     54  C   UNL A   1      46.754  27.545  28.938  1.00  0.00     0.034 A 
ATOM     55  C   UNL A   1      41.099  30.299  29.856  1.00  0.00     0.049 A 
ATOM     56  C   UNL A   1      46.432  28.985  28.605  1.00  0.00     0.074 A 
ATOM     57  C   UNL A   1      41.755  30.492  31.061  1.00  0.00     0.029 A 
ATOM     58  N   UNL A   1      41.969  30.720  28.860  1.00  0.00    -0.354 N 
ATOM     59  N   UNL A   1      45.281  29.552  28.842  1.00  0.00    -0.248 NA
ATOM     60  C   UNL A   1      47.383  29.901  27.986  1.00  0.00     0.031 C 
ATOM     61  C   UNL A   1      43.049  31.002  30.777  1.00  0.00     0.029 A 
ATOM     62  C   UNL A   1      43.164  31.144  29.405  1.00  0.00     0.049 A 
ATOM     63  H   UNL A   1      41.762  30.716  27.898  1.00  0.00     0.167 HD
ATOM     64  C   UNL A   1      45.310  30.862  28.426  1.00  0.00     0.074 A 
ATOM     65  C   UNL A   1      46.658  31.032  27.909  1.00  0.00     0.031 C 
ATOM     66  C   UNL A   1      44.215  31.675  28.547  1.00  0.00     0.034 A 
BRANCH  53  67
ATOM     67  C   UNL A   1      38.512  29.995  29.937  1.00  0.00     0.023 A 
ATOM     68  C   UNL A   1      37.941  31.158  29.375  1.00  0.00     0.031 A 
ATOM     69  C   UNL A   1      37.722  29.340  30.899  1.00  0.00     0.131 A 
ATOM     70  C   UNL A   1      36.713  31.670  29.826  1.00  0.00     0.055 A 
ATOM     71  C   UNL A   1      36.521  29.874  31.387  1.00  0.00     0.041 A 
ATOM     72  F   UNL A   1      38.051  28.130  31.372  1.00  0.00    -0.206 F 
ATOM     73  C   UNL A   1      36.014  31.053  30.857  1.00  0.00     0.022 A 
BRANCH  70  74
ATOM     74  S   UNL A   1      36.041  33.156  29.033  1.00  0.00     0.124 S 
ATOM     75  O   UNL A   1      35.808  32.699  27.667  1.00  0.00    -0.237 OA
ATOM     76  O   UNL A   1      34.853  33.425  29.836  1.00  0.00    -0.237 OA
ATOM     77  O   UNL A   1      37.118  34.134  29.182  1.00  0.00    -0.744 OA
ENDBRANCH  70  74
ENDBRANCH  53  67
BRANCH  54  78
ATOM     78  C   UNL A   1      47.356  26.536  28.019  1.00  0.00     0.023 A 
ATOM     79  C   UNL A   1      47.138  26.732  26.638  1.00  0.00     0.031 A 
ATOM     80  C   UNL A   1      48.442  25.740  28.406  1.00  0.00     0.131 A 
ATOM     81  C   UNL A   1      48.090  26.297  25.704  1.00  0.00     0.055 A 
ATOM     82  C   UNL A   1      49.352  25.246  27.460  1.00  0.00     0.041 A 
ATOM     83  F   UNL A   1      48.721  25.548  29.703  1.00  0.00    -0.206 F 
ATOM     84  C   UNL A   1      49.206  25.564  26.109  1.00  0.00     0.022 A 
BRANCH  81  85
ATOM     85  S   UNL A   1      47.981  26.950  24.010  1.00  0.00     0.124 S 
ATOM     86  O   UNL A   1      48.196  25.750  23.207  1.00  0.00    -0.237 OA
ATOM     87  O   UNL A   1      46.631  27.509  23.974  1.00  0.00    -0.237 OA
ATOM     88  O   UNL A   1      49.049  27.945  23.952  1.00  0.00    -0.744 OA
ENDBRANCH  81  85
ENDBRANCH  54  78
BRANCH  66  89
ATOM     89  C   UNL A   1      44.021  33.064  27.954  1.00  0.00     0.023 A 
ATOM     90  C   UNL A   1      43.985  34.240  28.711  1.00  0.00     0.031 A 
ATOM     91  C   UNL A   1      43.929  33.252  26.547  1.00  0.00     0.131 A 
ATOM     92  C   UNL A   1      43.809  35.501  28.104  1.00  0.00     0.055 A 
ATOM     93  C   UNL A   1      43.827  34.509  25.941  1.00  0.00     0.041 A 
ATOM     94  F   UNL A   1      43.948  32.225  25.686  1.00  0.00    -0.206 F 
ATOM     95  C   UNL A   1      43.753  35.647  26.722  1.00  0.00     0.022 A 
BRANCH  92  96
ATOM     96  S   UNL A   1      43.601  36.944  29.178  1.00  0.00     0.124 S 
ATOM     97  O   UNL A   1      42.452  37.608  28.570  1.00  0.00    -0.237 OA
ATOM     98  O   UNL A   1      43.362  36.332  30.481  1.00  0.00    -0.237 OA
ATOM     99  O   UNL A   1      44.870  37.657  29.050  1.00  0.00    -0.744 OA
ENDBRANCH  92  96
ENDBRANCH  66  89
ENDBRANCH  40  41
ENDBRANCH  32  35
ENDBRANCH  30  31
ENDBRANCH  29  30
ENDBRANCH  28  29
ENDBRANCH   1  28
TORSDOF 19
ENDMDL
MODEL 3
REMARK VINA RESULT:     -12.6      3.723      5.332
REMARK SMILES Cc1cc(S(=O)(=O)Nc2ccc(Cl)cc2F)ccc1OCC(=O)NCCCCNC(=O)c1ccc(-c2c3nc(c(-c4cc(S(=O)(=O)[O-])ccc4F)c4ccc([nH]4)c(-c4cc(S(=O)(=O)[O-])ccc4F)c4nc(c(-c5cc(S(=O)(=O)[O-])ccc5F)c5ccc2[nH]5)C=C4)C=C3)cc1
REMARK SMILES IDX 25 1 24 2 22 3 23 4 21 6 20 7 19 8 1 9 2 10 3 11 4 12 18 13
REMARK SMILES IDX 17 14 5 15 6 16 7 17 8 18 9 20 10 21 15 22 11 23 14 24 16 25
REMARK SMILES IDX 12 26 13 27 26 28 27 29 28 30 29 31 30 32 31 34 32 35 33 36
REMARK SMILES IDX 94 37 34 38 93 39 35 40 36 41 37 42 87 43 38 44 92 45 86 46
REMARK SMILES IDX 88 47 39 48 91 49 85 50 84 51 40 53 72 54 52 55 71 56 53 57
REMARK SMILES IDX 56 58 70 59 89 60 54 61 55 62 69 64 90 65 57 66 41 67 42 68
REMARK SMILES IDX 50 69 43 70 49 71 51 72 48 73 44 74 45 75 46 76 47 77 73 78
REMARK SMILES IDX 74 79 82 80 75 81 81 82 83 83 80 84 76 85 77 86 78 87 79 88
REMARK SMILES IDX 58 89 59 90 67 91 60 92 66 93 68 94 65 95 61 96 62 97 63 98
REMARK SMILES IDX 64 99
REMARK H PARENT 24 5 8 19 29 33 88 52 56 63
REMARK Flexibility Score: inf
ROOT
ATOM      1  C   UNL A   1      40.770  19.671  26.379  1.00  0.00     0.116 C 
ENDROOT
BRANCH   1   2
ATOM      2  N   UNL A   1      40.483  21.093  26.504  1.00  0.00    -0.353 N 
ATOM      3  C   UNL A   1      39.362  21.786  26.156  1.00  0.00     0.257 C 
ATOM      4  O   UNL A   1      39.304  22.988  26.429  1.00  0.00    -0.271 OA
ATOM      5  H   UNL A   1      41.206  21.633  26.898  1.00  0.00     0.163 HD
BRANCH   3   6
ATOM      6  C   UNL A   1      38.189  21.064  25.489  1.00  0.00     0.329 C 
BRANCH   6   7
ATOM      7  O   UNL A   1      37.326  21.781  24.632  1.00  0.00    -0.484 OA
BRANCH   7   8
ATOM      8  C   UNL A   1      36.090  22.173  25.054  1.00  0.00     0.123 A 
ATOM      9  C   UNL A   1      34.770  19.971  24.808  1.00  0.00     0.048 C 
ATOM     10  C   UNL A   1      34.897  21.440  25.087  1.00  0.00    -0.008 A 
ATOM     11  C   UNL A   1      33.701  22.127  25.399  1.00  0.00     0.029 A 
ATOM     12  C   UNL A   1      33.690  23.494  25.711  1.00  0.00     0.088 A 
ATOM     13  C   UNL A   1      36.058  23.535  25.386  1.00  0.00     0.048 A 
ATOM     14  C   UNL A   1      34.892  24.173  25.800  1.00  0.00     0.026 A 
BRANCH  12  15
ATOM     15  S   UNL A   1      32.095  24.278  25.805  1.00  0.00     0.262 S 
ATOM     16  O   UNL A   1      31.189  23.527  24.966  1.00  0.00    -0.201 OA
ATOM     17  O   UNL A   1      31.813  24.440  27.221  1.00  0.00    -0.201 OA
BRANCH  15  18
ATOM     18  N   UNL A   1      32.142  25.855  25.232  1.00  0.00    -0.277 N 
ATOM     19  H   UNL A   1      31.895  25.999  24.290  1.00  0.00     0.180 HD
BRANCH  18  20
ATOM     20  C   UNL A   1      32.508  27.004  25.990  1.00  0.00     0.085 A 
ATOM     21  C   UNL A   1      33.810  27.475  25.777  1.00  0.00     0.031 A 
ATOM     22  C   UNL A   1      31.661  27.720  26.845  1.00  0.00     0.148 A 
ATOM     23  C   UNL A   1      34.216  28.698  26.308  1.00  0.00     0.023 A 
ATOM     24  C   UNL A   1      32.059  28.949  27.373  1.00  0.00     0.062 A 
ATOM     25  F   UNL A   1      30.418  27.291  27.098  1.00  0.00    -0.205 F 
ATOM     26  C   UNL A   1      33.330  29.441  27.085  1.00  0.00     0.044 A 
ATOM     27  Cl  UNL A   1      33.811  30.983  27.673  1.00  0.00    -0.084 Cl
ENDBRANCH  18  20
ENDBRANCH  15  18
ENDBRANCH  12  15
ENDBRANCH   7   8
ENDBRANCH   6   7
ENDBRANCH   3   6
ENDBRANCH   1   2
BRANCH   1  28
ATOM     28  C   UNL A   1      42.067  19.248  27.082  1.00  0.00     0.023 C 
BRANCH  28  29
ATOM     29  C   UNL A   1      43.085  18.488  26.237  1.00  0.00     0.023 C 
BRANCH  29  30
ATOM     30  C   UNL A   1      43.537  19.238  24.999  1.00  0.00     0.116 C 
BRANCH  30  31
ATOM     31  N   UNL A   1      44.953  19.560  24.950  1.00  0.00    -0.352 N 
ATOM     32  C   UNL A   1      45.571  20.804  24.905  1.00  0.00     0.251 C 
ATOM     33  H   UNL A   1      45.563  18.786  24.948  1.00  0.00     0.163 HD
ATOM     34  O   UNL A   1      46.765  20.883  24.669  1.00  0.00    -0.269 OA
BRANCH  32  35
ATOM     35  C   UNL A   1      44.797  22.028  25.251  1.00  0.00     0.039 A 
ATOM     36  C   UNL A   1      45.015  23.185  24.489  1.00  0.00     0.014 A 
ATOM     37  C   UNL A   1      44.030  22.100  26.406  1.00  0.00     0.014 A 
ATOM     38  C   UNL A   1      44.663  24.432  25.010  1.00  0.00     0.010 A 
ATOM     39  C   UNL A   1      43.809  23.329  26.985  1.00  0.00     0.010 A 
ATOM     40  C   UNL A   1      44.160  24.496  26.305  1.00  0.00    -0.014 A 
BRANCH  40  41
ATOM     41  C   UNL A   1      44.055  25.711  27.099  1.00  0.00     0.031 A 
ATOM     42  C   UNL A   1      42.781  26.459  27.161  1.00  0.00     0.074 A 
ATOM     43  C   UNL A   1      45.069  26.034  27.932  1.00  0.00     0.049 A 
ATOM     44  N   UNL A   1      42.681  27.674  27.573  1.00  0.00    -0.248 NA
ATOM     45  C   UNL A   1      41.504  25.896  26.734  1.00  0.00     0.031 C 
ATOM     46  C   UNL A   1      45.027  26.946  29.071  1.00  0.00     0.029 A 
ATOM     47  N   UNL A   1      46.422  25.748  27.766  1.00  0.00    -0.354 N 
ATOM     48  C   UNL A   1      41.345  27.952  27.747  1.00  0.00     0.074 A 
ATOM     49  C   UNL A   1      40.649  26.835  27.154  1.00  0.00     0.031 C 
ATOM     50  C   UNL A   1      46.275  27.349  29.352  1.00  0.00     0.029 A 
ATOM     51  C   UNL A   1      47.137  26.834  28.306  1.00  0.00     0.049 A 
ATOM     52  H   UNL A   1      46.806  24.941  27.352  1.00  0.00     0.167 HD
ATOM     53  C   UNL A   1      40.982  29.032  28.493  1.00  0.00     0.034 A 
ATOM     54  C   UNL A   1      47.948  27.597  27.515  1.00  0.00     0.034 A 
ATOM     55  C   UNL A   1      42.152  29.766  28.968  1.00  0.00     0.049 A 
ATOM     56  C   UNL A   1      47.528  29.049  27.444  1.00  0.00     0.074 A 
ATOM     57  C   UNL A   1      42.822  29.789  30.180  1.00  0.00     0.029 A 
ATOM     58  N   UNL A   1      42.970  30.410  28.051  1.00  0.00    -0.354 N 
ATOM     59  N   UNL A   1      46.348  29.488  27.790  1.00  0.00    -0.248 NA
ATOM     60  C   UNL A   1      48.403  30.120  26.984  1.00  0.00     0.031 C 
ATOM     61  C   UNL A   1      44.074  30.426  29.975  1.00  0.00     0.029 A 
ATOM     62  C   UNL A   1      44.148  30.812  28.648  1.00  0.00     0.049 A 
ATOM     63  H   UNL A   1      42.741  30.561  27.105  1.00  0.00     0.167 HD
ATOM     64  C   UNL A   1      46.284  30.849  27.610  1.00  0.00     0.074 A 
ATOM     65  C   UNL A   1      47.606  31.196  27.115  1.00  0.00     0.031 C 
ATOM     66  C   UNL A   1      45.142  31.554  27.884  1.00  0.00     0.034 A 
BRANCH  53  67
ATOM     67  C   UNL A   1      39.591  29.280  29.024  1.00  0.00     0.023 A 
ATOM     68  C   UNL A   1      39.400  29.364  30.420  1.00  0.00     0.031 A 
ATOM     69  C   UNL A   1      38.429  29.424  28.246  1.00  0.00     0.131 A 
ATOM     70  C   UNL A   1      38.118  29.484  30.984  1.00  0.00     0.055 A 
ATOM     71  C   UNL A   1      37.145  29.493  28.804  1.00  0.00     0.041 A 
ATOM     72  F   UNL A   1      38.487  29.556  26.913  1.00  0.00    -0.206 F 
ATOM     73  C   UNL A   1      36.983  29.512  30.182  1.00  0.00     0.022 A 
BRANCH  70  74
ATOM     74  S   UNL A   1      37.964  29.609  32.786  1.00  0.00     0.124 S 
ATOM     75  O   UNL A   1      37.359  30.926  32.954  1.00  0.00    -0.237 OA
ATOM     76  O   UNL A   1      37.119  28.464  33.105  1.00  0.00    -0.237 OA
ATOM     77  O   UNL A   1      39.346  29.501  33.252  1.00  0.00    -0.744 OA
ENDBRANCH  70  74
ENDBRANCH  53  67
BRANCH  54  78
ATOM     78  C   UNL A   1      48.592  26.807  26.427  1.00  0.00     0.023 A 
ATOM     79  C   UNL A   1      48.126  27.044  25.116  1.00  0.00     0.031 A 
ATOM     80  C   UNL A   1      49.863  26.239  26.580  1.00  0.00     0.131 A 
ATOM     81  C   UNL A   1      48.990  26.889  24.020  1.00  0.00     0.055 A 
ATOM     82  C   UNL A   1      50.696  26.018  25.473  1.00  0.00     0.041 A 
ATOM     83  F   UNL A   1      50.374  26.024  27.801  1.00  0.00    -0.206 F 
ATOM     84  C   UNL A   1      50.280  26.388  24.194  1.00  0.00     0.022 A 
BRANCH  81  85
ATOM     85  S   UNL A   1      48.488  27.616  22.431  1.00  0.00     0.124 S 
ATOM     86  O   UNL A   1      47.214  28.240  22.770  1.00  0.00    -0.237 OA
ATOM     87  O   UNL A   1      49.590  28.532  22.142  1.00  0.00    -0.237 OA
ATOM     88  O   UNL A   1      48.406  26.467  21.533  1.00  0.00    -0.744 OA
ENDBRANCH  81  85
ENDBRANCH  54  78
BRANCH  66  89
ATOM     89  C   UNL A   1      44.847  33.008  27.546  1.00  0.00     0.023 A 
ATOM     90  C   UNL A   1      45.272  34.094  28.320  1.00  0.00     0.031 A 
ATOM     91  C   UNL A   1      44.157  33.356  26.352  1.00  0.00     0.131 A 
ATOM     92  C   UNL A   1      44.973  35.422  27.953  1.00  0.00     0.055 A 
ATOM     93  C   UNL A   1      43.924  34.676  25.951  1.00  0.00     0.041 A 
ATOM     94  F   UNL A   1      43.685  32.432  25.504  1.00  0.00    -0.206 F 
ATOM     95  C   UNL A   1      44.322  35.723  26.761  1.00  0.00     0.022 A 
BRANCH  92  96
ATOM     96  S   UNL A   1      45.414  36.747  29.106  1.00  0.00     0.124 S 
ATOM     97  O   UNL A   1      44.319  36.683  30.070  1.00  0.00    -0.237 OA
ATOM     98  O   UNL A   1      46.717  36.312  29.599  1.00  0.00    -0.237 OA
ATOM     99  O   UNL A   1      45.435  37.943  28.268  1.00  0.00    -0.744 OA
ENDBRANCH  92  96
ENDBRANCH  66  89
ENDBRANCH  40  41
ENDBRANCH  32  35
ENDBRANCH  30  31
ENDBRANCH  29  30
ENDBRANCH  28  29
ENDBRANCH   1  28
TORSDOF 19
ENDMDL
