MODEL 1
REMARK VINA RESULT:     -13.1      0.000      0.000
REMARK SMILES CS(=O)(=O)Nc1ccc(-c2cc(Cl)cc3c2O[C@H](C(F)(F)F)C(C(=O)NCCCCNC(=O)c2ccc(-c4c5nc(c(-c6cc(S(=O)(=O)[O-])ccc6F)c6ccc([nH]6)c(-c6cc(S(=O)(=O)[O-])ccc6F)c6nc(c(-c7cc(S(=O)(=O)[O-])ccc7F)c7ccc4[nH]7)C=C6)C=C5)cc2)=C3)cc1
REMARK SMILES IDX 28 1 27 2 26 3 24 4 25 5 23 7 10 8 11 9 16 10 12 11 15 12
REMARK SMILES IDX 17 13 13 14 14 15 97 16 18 17 9 18 6 19 7 20 99 21 8 22
REMARK SMILES IDX 98 23 5 24 2 26 1 27 3 28 4 29 19 30 20 31 21 32 22 33 29 34
REMARK SMILES IDX 30 35 31 36 32 37 33 39 34 40 35 41 96 42 36 43 95 44 37 45
REMARK SMILES IDX 38 46 39 47 89 48 40 49 94 50 88 51 90 52 41 53 93 54 87 55
REMARK SMILES IDX 86 56 42 58 74 59 54 60 73 61 55 62 58 63 72 64 91 65 56 66
REMARK SMILES IDX 57 67 71 69 92 70 59 71 43 72 44 73 52 74 45 75 51 76 53 77
REMARK SMILES IDX 50 78 46 79 47 80 48 81 49 82 75 83 76 84 84 85 77 86 83 87
REMARK SMILES IDX 85 88 82 89 78 90 79 91 80 92 81 93 60 94 61 95 69 96 62 97
REMARK SMILES IDX 68 98 70 99 67 100 63 101 64 102 65 103 66 104
REMARK H PARENT 26 6 5 25 31 38 90 57 58 68
REMARK Flexibility Score: inf
ROOT
ATOM      1  C   UNL A   1      31.753  30.421  26.442  1.00  0.00     0.023 C 
ENDROOT
BRANCH   1   2
ATOM      2  C   UNL A   1      33.123  29.824  26.091  1.00  0.00     0.116 C 
BRANCH   2   3
ATOM      3  N   UNL A   1      33.232  28.492  26.645  1.00  0.00    -0.352 N 
ATOM      4  C   UNL A   1      32.516  27.383  26.345  1.00  0.00     0.251 C 
ATOM      5  O   UNL A   1      32.291  26.569  27.235  1.00  0.00    -0.270 OA
ATOM      6  H   UNL A   1      33.922  28.376  27.338  1.00  0.00     0.163 HD
BRANCH   4   7
ATOM      7  C   UNL A   1      32.131  27.146  24.920  1.00  0.00     0.067 C 
ATOM      8  C   UNL A   1      32.878  23.144  24.725  1.00  0.00     0.026 A 
ATOM      9  C   UNL A   1      34.136  22.939  25.353  1.00  0.00     0.033 A 
ATOM     10  C   UNL A   1      32.551  24.476  24.417  1.00  0.00     0.135 A 
ATOM     11  C   UNL A   1      35.081  23.952  25.498  1.00  0.00     0.042 A 
ATOM     12  C   UNL A   1      33.569  25.464  24.458  1.00  0.00     0.019 A 
ATOM     13  O   UNL A   1      31.260  24.897  24.134  1.00  0.00    -0.475 OA
ATOM     14  Cl  UNL A   1      36.566  23.622  26.297  1.00  0.00    -0.084 Cl
ATOM     15  C   UNL A   1      34.834  25.205  24.978  1.00  0.00     0.032 A 
ATOM     16  C   UNL A   1      33.192  26.859  24.138  1.00  0.00     0.025 C 
ATOM     17  C   UNL A   1      30.925  26.232  24.728  1.00  0.00     0.314 C 
BRANCH   8  18
ATOM     18  C   UNL A   1      32.202  21.890  24.281  1.00  0.00    -0.014 A 
ATOM     19  C   UNL A   1      32.311  19.200  23.352  1.00  0.00     0.048 A 
ATOM     20  C   UNL A   1      32.171  19.481  24.713  1.00  0.00     0.027 A 
ATOM     21  C   UNL A   1      32.205  20.254  22.449  1.00  0.00     0.027 A 
ATOM     22  C   UNL A   1      32.083  20.805  25.173  1.00  0.00     0.011 A 
ATOM     23  C   UNL A   1      32.146  21.587  22.909  1.00  0.00     0.011 A 
BRANCH  19  24
ATOM     24  N   UNL A   1      32.726  17.879  23.019  1.00  0.00    -0.284 N 
ATOM     25  H   UNL A   1      32.213  17.431  22.307  1.00  0.00     0.180 HD
BRANCH  24  26
ATOM     26  S   UNL A   1      33.968  17.000  23.683  1.00  0.00     0.229 S 
ATOM     27  C   UNL A   1      33.185  16.018  24.953  1.00  0.00     0.183 C 
ATOM     28  O   UNL A   1      34.922  17.896  24.300  1.00  0.00    -0.207 OA
ATOM     29  O   UNL A   1      34.378  16.086  22.638  1.00  0.00    -0.207 OA
ENDBRANCH  24  26
ENDBRANCH  19  24
ENDBRANCH   8  18
BRANCH  17  30
ATOM     30  C   UNL A   1      29.878  26.985  23.876  1.00  0.00     0.429 C 
ATOM     31  F   UNL A   1      30.033  26.771  22.550  1.00  0.00    -0.167 F 
ATOM     32  F   UNL A   1      28.618  26.611  24.206  1.00  0.00    -0.167 F 
ATOM     33  F   UNL A   1      29.931  28.332  24.055  1.00  0.00    -0.167 F 
ENDBRANCH  17  30
ENDBRANCH   4   7
ENDBRANCH   2   3
ENDBRANCH   1   2
BRANCH   1  34
ATOM     34  C   UNL A   1      31.710  31.953  26.538  1.00  0.00     0.023 C 
BRANCH  34  35
ATOM     35  C   UNL A   1      32.826  32.579  27.368  1.00  0.00     0.116 C 
BRANCH  35  36
ATOM     36  N   UNL A   1      32.567  33.980  27.652  1.00  0.00    -0.352 N 
ATOM     37  C   UNL A   1      33.128  34.787  28.613  1.00  0.00     0.251 C 
ATOM     38  H   UNL A   1      31.896  34.412  27.076  1.00  0.00     0.163 HD
ATOM     39  O   UNL A   1      32.632  35.886  28.845  1.00  0.00    -0.269 OA
BRANCH  37  40
ATOM     40  C   UNL A   1      34.304  34.318  29.381  1.00  0.00     0.039 A 
ATOM     41  C   UNL A   1      34.101  33.676  30.605  1.00  0.00     0.014 A 
ATOM     42  C   UNL A   1      35.600  34.507  28.896  1.00  0.00     0.014 A 
ATOM     43  C   UNL A   1      35.194  33.162  31.307  1.00  0.00     0.010 A 
ATOM     44  C   UNL A   1      36.680  33.928  29.559  1.00  0.00     0.010 A 
ATOM     45  C   UNL A   1      36.490  33.248  30.773  1.00  0.00    -0.014 A 
BRANCH  45  46
ATOM     46  C   UNL A   1      37.654  32.627  31.464  1.00  0.00     0.031 A 
ATOM     47  C   UNL A   1      38.387  31.476  30.828  1.00  0.00     0.074 A 
ATOM     48  C   UNL A   1      38.006  33.056  32.693  1.00  0.00     0.049 A 
ATOM     49  N   UNL A   1      39.367  30.754  31.305  1.00  0.00    -0.248 NA
ATOM     50  C   UNL A   1      37.937  31.064  29.489  1.00  0.00     0.031 C 
ATOM     51  C   UNL A   1      37.347  34.136  33.432  1.00  0.00     0.029 A 
ATOM     52  N   UNL A   1      38.997  32.633  33.547  1.00  0.00    -0.354 N 
ATOM     53  C   UNL A   1      39.639  29.791  30.338  1.00  0.00     0.074 A 
ATOM     54  C   UNL A   1      38.683  29.992  29.270  1.00  0.00     0.031 C 
ATOM     55  C   UNL A   1      37.961  34.301  34.615  1.00  0.00     0.029 A 
ATOM     56  C   UNL A   1      39.023  33.308  34.746  1.00  0.00     0.049 A 
ATOM     57  H   UNL A   1      39.629  31.913  33.320  1.00  0.00     0.167 HD
ATOM     58  C   UNL A   1      40.607  28.841  30.335  1.00  0.00     0.034 A 
ATOM     59  C   UNL A   1      39.798  33.136  35.836  1.00  0.00     0.034 A 
ATOM     60  C   UNL A   1      41.564  28.669  31.401  1.00  0.00     0.049 A 
ATOM     61  C   UNL A   1      40.856  32.060  35.814  1.00  0.00     0.074 A 
ATOM     62  C   UNL A   1      42.633  27.790  31.463  1.00  0.00     0.029 A 
ATOM     63  N   UNL A   1      41.565  29.376  32.597  1.00  0.00    -0.354 N 
ATOM     64  N   UNL A   1      41.144  31.204  34.860  1.00  0.00    -0.248 NA
ATOM     65  C   UNL A   1      41.701  31.933  37.008  1.00  0.00     0.031 C 
ATOM     66  C   UNL A   1      43.225  27.907  32.724  1.00  0.00     0.029 A 
ATOM     67  C   UNL A   1      42.587  28.924  33.417  1.00  0.00     0.049 A 
ATOM     68  H   UNL A   1      40.932  30.093  32.827  1.00  0.00     0.167 HD
ATOM     69  C   UNL A   1      42.226  30.462  35.329  1.00  0.00     0.074 A 
ATOM     70  C   UNL A   1      42.547  30.983  36.641  1.00  0.00     0.031 C 
ATOM     71  C   UNL A   1      42.895  29.446  34.729  1.00  0.00     0.034 A 
BRANCH  58  72
ATOM     72  C   UNL A   1      40.659  27.894  29.160  1.00  0.00     0.023 A 
ATOM     73  C   UNL A   1      41.596  28.045  28.122  1.00  0.00     0.031 A 
ATOM     74  C   UNL A   1      39.754  26.821  29.075  1.00  0.00     0.131 A 
ATOM     75  C   UNL A   1      41.563  27.180  27.016  1.00  0.00     0.055 A 
ATOM     76  C   UNL A   1      39.779  25.915  28.013  1.00  0.00     0.041 A 
ATOM     77  F   UNL A   1      38.821  26.638  30.023  1.00  0.00    -0.206 F 
ATOM     78  C   UNL A   1      40.680  26.101  26.968  1.00  0.00     0.022 A 
BRANCH  75  79
ATOM     79  S   UNL A   1      42.600  27.569  25.580  1.00  0.00     0.124 S 
ATOM     80  O   UNL A   1      42.404  26.386  24.745  1.00  0.00    -0.237 OA
ATOM     81  O   UNL A   1      42.004  28.805  25.086  1.00  0.00    -0.237 OA
ATOM     82  O   UNL A   1      43.938  27.706  26.150  1.00  0.00    -0.744 OA
ENDBRANCH  75  79
ENDBRANCH  58  72
BRANCH  59  83
ATOM     83  C   UNL A   1      39.596  33.976  37.054  1.00  0.00     0.023 A 
ATOM     84  C   UNL A   1      38.997  33.449  38.210  1.00  0.00     0.031 A 
ATOM     85  C   UNL A   1      39.944  35.338  37.060  1.00  0.00     0.131 A 
ATOM     86  C   UNL A   1      38.712  34.290  39.297  1.00  0.00     0.055 A 
ATOM     87  C   UNL A   1      39.716  36.157  38.167  1.00  0.00     0.041 A 
ATOM     88  F   UNL A   1      40.521  35.897  35.983  1.00  0.00    -0.206 F 
ATOM     89  C   UNL A   1      39.080  35.637  39.290  1.00  0.00     0.022 A 
BRANCH  86  90
ATOM     90  S   UNL A   1      37.749  33.622  40.682  1.00  0.00     0.124 S 
ATOM     91  O   UNL A   1      38.742  32.803  41.367  1.00  0.00    -0.237 OA
ATOM     92  O   UNL A   1      37.330  34.836  41.373  1.00  0.00    -0.237 OA
ATOM     93  O   UNL A   1      36.676  32.880  40.022  1.00  0.00    -0.744 OA
ENDBRANCH  86  90
ENDBRANCH  59  83
BRANCH  71  94
ATOM     94  C   UNL A   1      44.078  28.866  35.467  1.00  0.00     0.023 A 
ATOM     95  C   UNL A   1      45.389  29.320  35.243  1.00  0.00     0.031 A 
ATOM     96  C   UNL A   1      43.887  27.838  36.408  1.00  0.00     0.131 A 
ATOM     97  C   UNL A   1      46.464  28.709  35.908  1.00  0.00     0.055 A 
ATOM     98  C   UNL A   1      44.951  27.281  37.117  1.00  0.00     0.041 A 
ATOM     99  F   UNL A   1      42.657  27.363  36.660  1.00  0.00    -0.206 F 
ATOM    100  C   UNL A   1      46.252  27.706  36.858  1.00  0.00     0.022 A 
BRANCH  97 101
ATOM    101  S   UNL A   1      48.154  29.175  35.446  1.00  0.00     0.124 S 
ATOM    102  O   UNL A   1      48.901  27.963  35.766  1.00  0.00    -0.237 OA
ATOM    103  O   UNL A   1      48.016  29.481  34.025  1.00  0.00    -0.237 OA
ATOM    104  O   UNL A   1      48.440  30.324  36.302  1.00  0.00    -0.744 OA
ENDBRANCH  97 101
ENDBRANCH  71  94
ENDBRANCH  45  46
ENDBRANCH  37  40
ENDBRANCH  35  36
ENDBRANCH  34  35
ENDBRANCH   1  34
TORSDOF 18
ENDMDL
MODEL 2
REMARK VINA RESULT:     -12.3      1.741      2.042
REMARK SMILES CS(=O)(=O)Nc1ccc(-c2cc(Cl)cc3c2O[C@H](C(F)(F)F)C(C(=O)NCCCCNC(=O)c2ccc(-c4c5nc(c(-c6cc(S(=O)(=O)[O-])ccc6F)c6ccc([nH]6)c(-c6cc(S(=O)(=O)[O-])ccc6F)c6nc(c(-c7cc(S(=O)(=O)[O-])ccc7F)c7ccc4[nH]7)C=C6)C=C5)cc2)=C3)cc1
REMARK SMILES IDX 28 1 27 2 26 3 24 4 25 5 23 7 10 8 11 9 16 10 12 11 15 12
REMARK SMILES IDX 17 13 13 14 14 15 97 16 18 17 9 18 6 19 7 20 99 21 8 22
REMARK SMILES IDX 98 23 5 24 2 26 1 27 3 28 4 29 19 30 20 31 21 32 22 33 29 34
REMARK SMILES IDX 30 35 31 36 32 37 33 39 34 40 35 41 96 42 36 43 95 44 37 45
REMARK SMILES IDX 38 46 39 47 89 48 40 49 94 50 88 51 90 52 41 53 93 54 87 55
REMARK SMILES IDX 86 56 42 58 74 59 54 60 73 61 55 62 58 63 72 64 91 65 56 66
REMARK SMILES IDX 57 67 71 69 92 70 59 71 43 72 44 73 52 74 45 75 51 76 53 77
REMARK SMILES IDX 50 78 46 79 47 80 48 81 49 82 75 83 76 84 84 85 77 86 83 87
REMARK SMILES IDX 85 88 82 89 78 90 79 91 80 92 81 93 60 94 61 95 69 96 62 97
REMARK SMILES IDX 68 98 70 99 67 100 63 101 64 102 65 103 66 104
REMARK H PARENT 26 6 5 25 31 38 90 57 58 68
REMARK Flexibility Score: inf
ROOT
ATOM      1  C   UNL A   1      32.086  30.429  26.834  1.00  0.00     0.023 C 
ENDROOT
BRANCH   1   2
ATOM      2  C   UNL A   1      32.807  29.809  25.628  1.00  0.00     0.116 C 
BRANCH   2   3
ATOM      3  N   UNL A   1      33.414  28.553  26.016  1.00  0.00    -0.352 N 
ATOM      4  C   UNL A   1      32.970  27.292  25.807  1.00  0.00     0.251 C 
ATOM      5  O   UNL A   1      33.217  26.434  26.649  1.00  0.00    -0.270 OA
ATOM      6  H   UNL A   1      34.268  28.627  26.500  1.00  0.00     0.163 HD
BRANCH   4   7
ATOM      7  C   UNL A   1      32.297  26.977  24.510  1.00  0.00     0.067 C 
ATOM      8  C   UNL A   1      33.059  22.976  24.362  1.00  0.00     0.026 A 
ATOM      9  C   UNL A   1      34.425  22.815  24.719  1.00  0.00     0.033 A 
ATOM     10  C   UNL A   1      32.650  24.288  24.063  1.00  0.00     0.135 A 
ATOM     11  C   UNL A   1      35.360  23.840  24.609  1.00  0.00     0.042 A 
ATOM     12  C   UNL A   1      33.635  25.284  23.839  1.00  0.00     0.019 A 
ATOM     13  O   UNL A   1      31.321  24.684  24.040  1.00  0.00    -0.475 OA
ATOM     14  Cl  UNL A   1      36.986  23.564  25.091  1.00  0.00    -0.084 Cl
ATOM     15  C   UNL A   1      34.986  25.062  24.091  1.00  0.00     0.032 A 
ATOM     16  C   UNL A   1      33.173  26.657  23.536  1.00  0.00     0.025 C 
ATOM     17  C   UNL A   1      31.094  26.046  24.624  1.00  0.00     0.314 C 
BRANCH   8  18
ATOM     18  C   UNL A   1      32.328  21.696  24.134  1.00  0.00    -0.014 A 
ATOM     19  C   UNL A   1      32.315  18.907  23.557  1.00  0.00     0.048 A 
ATOM     20  C   UNL A   1      32.282  19.364  24.877  1.00  0.00     0.027 A 
ATOM     21  C   UNL A   1      32.162  19.839  22.535  1.00  0.00     0.027 A 
ATOM     22  C   UNL A   1      32.254  20.738  25.165  1.00  0.00     0.011 A 
ATOM     23  C   UNL A   1      32.164  21.221  22.821  1.00  0.00     0.011 A 
BRANCH  19  24
ATOM     24  N   UNL A   1      32.678  17.542  23.370  1.00  0.00    -0.284 N 
ATOM     25  H   UNL A   1      32.017  16.978  22.906  1.00  0.00     0.180 HD
BRANCH  24  26
ATOM     26  S   UNL A   1      34.080  16.785  23.838  1.00  0.00     0.229 S 
ATOM     27  C   UNL A   1      33.586  15.748  25.206  1.00  0.00     0.183 C 
ATOM     28  O   UNL A   1      35.030  17.768  24.310  1.00  0.00    -0.207 OA
ATOM     29  O   UNL A   1      34.411  15.901  22.739  1.00  0.00    -0.207 OA
ENDBRANCH  24  26
ENDBRANCH  19  24
ENDBRANCH   8  18
BRANCH  17  30
ATOM     30  C   UNL A   1      29.877  26.744  23.977  1.00  0.00     0.429 C 
ATOM     31  F   UNL A   1      29.863  28.078  24.198  1.00  0.00    -0.167 F 
ATOM     32  F   UNL A   1      29.859  26.552  22.636  1.00  0.00    -0.167 F 
ATOM     33  F   UNL A   1      28.692  26.266  24.442  1.00  0.00    -0.167 F 
ENDBRANCH  17  30
ENDBRANCH   4   7
ENDBRANCH   2   3
ENDBRANCH   1   2
BRANCH   1  34
ATOM     34  C   UNL A   1      31.968  31.960  26.811  1.00  0.00     0.023 C 
BRANCH  34  35
ATOM     35  C   UNL A   1      33.159  32.707  27.402  1.00  0.00     0.116 C 
BRANCH  35  36
ATOM     36  N   UNL A   1      32.792  34.038  27.854  1.00  0.00    -0.352 N 
ATOM     37  C   UNL A   1      33.222  34.727  28.963  1.00  0.00     0.251 C 
ATOM     38  H   UNL A   1      32.143  34.514  27.286  1.00  0.00     0.163 HD
ATOM     39  O   UNL A   1      32.642  35.755  29.300  1.00  0.00    -0.269 OA
BRANCH  37  40
ATOM     40  C   UNL A   1      34.359  34.212  29.760  1.00  0.00     0.039 A 
ATOM     41  C   UNL A   1      34.169  33.086  30.563  1.00  0.00     0.014 A 
ATOM     42  C   UNL A   1      35.609  34.835  29.711  1.00  0.00     0.014 A 
ATOM     43  C   UNL A   1      35.250  32.544  31.264  1.00  0.00     0.010 A 
ATOM     44  C   UNL A   1      36.701  34.250  30.350  1.00  0.00     0.010 A 
ATOM     45  C   UNL A   1      36.534  33.096  31.133  1.00  0.00    -0.014 A 
BRANCH  45  46
ATOM     46  C   UNL A   1      37.713  32.479  31.802  1.00  0.00     0.031 A 
ATOM     47  C   UNL A   1      38.488  31.386  31.113  1.00  0.00     0.074 A 
ATOM     48  C   UNL A   1      38.042  32.853  33.054  1.00  0.00     0.049 A 
ATOM     49  N   UNL A   1      39.488  30.672  31.560  1.00  0.00    -0.248 NA
ATOM     50  C   UNL A   1      38.061  31.032  29.750  1.00  0.00     0.031 C 
ATOM     51  C   UNL A   1      37.341  33.870  33.843  1.00  0.00     0.029 A 
ATOM     52  N   UNL A   1      39.039  32.417  33.894  1.00  0.00    -0.354 N 
ATOM     53  C   UNL A   1      39.798  29.772  30.546  1.00  0.00     0.074 A 
ATOM     54  C   UNL A   1      38.844  29.997  29.481  1.00  0.00     0.031 C 
ATOM     55  C   UNL A   1      37.941  33.992  35.039  1.00  0.00     0.029 A 
ATOM     56  C   UNL A   1      39.034  33.029  35.127  1.00  0.00     0.049 A 
ATOM     57  H   UNL A   1      39.696  31.731  33.635  1.00  0.00     0.167 HD
ATOM     58  C   UNL A   1      40.797  28.855  30.502  1.00  0.00     0.034 A 
ATOM     59  C   UNL A   1      39.807  32.825  36.213  1.00  0.00     0.034 A 
ATOM     60  C   UNL A   1      41.751  28.658  31.566  1.00  0.00     0.049 A 
ATOM     61  C   UNL A   1      40.900  31.786  36.144  1.00  0.00     0.074 A 
ATOM     62  C   UNL A   1      42.848  27.813  31.591  1.00  0.00     0.029 A 
ATOM     63  N   UNL A   1      41.720  29.300  32.797  1.00  0.00    -0.354 N 
ATOM     64  N   UNL A   1      41.222  30.992  35.149  1.00  0.00    -0.248 NA
ATOM     65  C   UNL A   1      41.740  31.624  37.338  1.00  0.00     0.031 C 
ATOM     66  C   UNL A   1      43.426  27.882  32.862  1.00  0.00     0.029 A 
ATOM     67  C   UNL A   1      42.751  28.839  33.601  1.00  0.00     0.049 A 
ATOM     68  H   UNL A   1      41.062  29.984  33.059  1.00  0.00     0.167 HD
ATOM     69  C   UNL A   1      42.325  30.261  35.588  1.00  0.00     0.074 A 
ATOM     70  C   UNL A   1      42.619  30.723  36.929  1.00  0.00     0.031 C 
ATOM     71  C   UNL A   1      43.032  29.301  34.942  1.00  0.00     0.034 A 
BRANCH  58  72
ATOM     72  C   UNL A   1      40.889  27.974  29.279  1.00  0.00     0.023 A 
ATOM     73  C   UNL A   1      41.875  28.164  28.295  1.00  0.00     0.031 A 
ATOM     74  C   UNL A   1      39.971  26.923  29.093  1.00  0.00     0.131 A 
ATOM     75  C   UNL A   1      41.880  27.363  27.142  1.00  0.00     0.055 A 
ATOM     76  C   UNL A   1      40.032  26.078  27.984  1.00  0.00     0.041 A 
ATOM     77  F   UNL A   1      38.993  26.705  29.986  1.00  0.00    -0.206 F 
ATOM     78  C   UNL A   1      40.983  26.304  26.993  1.00  0.00     0.022 A 
BRANCH  75  79
ATOM     79  S   UNL A   1      42.989  27.811  25.779  1.00  0.00     0.124 S 
ATOM     80  O   UNL A   1      44.169  27.004  26.081  1.00  0.00    -0.237 OA
ATOM     81  O   UNL A   1      42.224  27.410  24.605  1.00  0.00    -0.237 OA
ATOM     82  O   UNL A   1      43.170  29.252  25.944  1.00  0.00    -0.744 OA
ENDBRANCH  75  79
ENDBRANCH  58  72
BRANCH  59  83
ATOM     83  C   UNL A   1      39.568  33.592  37.472  1.00  0.00     0.023 A 
ATOM     84  C   UNL A   1      40.422  34.637  37.861  1.00  0.00     0.031 A 
ATOM     85  C   UNL A   1      38.514  33.251  38.338  1.00  0.00     0.131 A 
ATOM     86  C   UNL A   1      40.243  35.261  39.105  1.00  0.00     0.055 A 
ATOM     87  C   UNL A   1      38.302  33.918  39.546  1.00  0.00     0.041 A 
ATOM     88  F   UNL A   1      37.664  32.261  38.018  1.00  0.00    -0.206 F 
ATOM     89  C   UNL A   1      39.181  34.920  39.944  1.00  0.00     0.022 A 
BRANCH  86  90
ATOM     90  S   UNL A   1      41.491  36.455  39.664  1.00  0.00     0.124 S 
ATOM     91  O   UNL A   1      41.638  37.302  38.486  1.00  0.00    -0.237 OA
ATOM     92  O   UNL A   1      40.833  37.064  40.815  1.00  0.00    -0.237 OA
ATOM     93  O   UNL A   1      42.646  35.616  39.979  1.00  0.00    -0.744 OA
ENDBRANCH  86  90
ENDBRANCH  59  83
BRANCH  71  94
ATOM     94  C   UNL A   1      44.227  28.722  35.659  1.00  0.00     0.023 A 
ATOM     95  C   UNL A   1      44.108  27.639  36.548  1.00  0.00     0.031 A 
ATOM     96  C   UNL A   1      45.507  29.267  35.451  1.00  0.00     0.131 A 
ATOM     97  C   UNL A   1      45.239  27.175  37.239  1.00  0.00     0.055 A 
ATOM     98  C   UNL A   1      46.638  28.757  36.089  1.00  0.00     0.041 A 
ATOM     99  F   UNL A   1      45.680  30.304  34.616  1.00  0.00    -0.206 F 
ATOM    100  C   UNL A   1      46.505  27.713  37.001  1.00  0.00     0.022 A 
BRANCH  97 101
ATOM    101  S   UNL A   1      45.017  25.918  38.528  1.00  0.00     0.124 S 
ATOM    102  O   UNL A   1      46.313  25.939  39.198  1.00  0.00    -0.237 OA
ATOM    103  O   UNL A   1      43.895  26.453  39.296  1.00  0.00    -0.237 OA
ATOM    104  O   UNL A   1      44.727  24.701  37.774  1.00  0.00    -0.744 OA
ENDBRANCH  97 101
ENDBRANCH  71  94
ENDBRANCH  45  46
ENDBRANCH  37  40
ENDBRANCH  35  36
ENDBRANCH  34  35
ENDBRANCH   1  34
TORSDOF 18
ENDMDL
MODEL 3
REMARK VINA RESULT:     -12.1      1.971      2.310
REMARK SMILES CS(=O)(=O)Nc1ccc(-c2cc(Cl)cc3c2O[C@H](C(F)(F)F)C(C(=O)NCCCCNC(=O)c2ccc(-c4c5nc(c(-c6cc(S(=O)(=O)[O-])ccc6F)c6ccc([nH]6)c(-c6cc(S(=O)(=O)[O-])ccc6F)c6nc(c(-c7cc(S(=O)(=O)[O-])ccc7F)c7ccc4[nH]7)C=C6)C=C5)cc2)=C3)cc1
REMARK SMILES IDX 28 1 27 2 26 3 24 4 25 5 23 7 10 8 11 9 16 10 12 11 15 12
REMARK SMILES IDX 17 13 13 14 14 15 97 16 18 17 9 18 6 19 7 20 99 21 8 22
REMARK SMILES IDX 98 23 5 24 2 26 1 27 3 28 4 29 19 30 20 31 21 32 22 33 29 34
REMARK SMILES IDX 30 35 31 36 32 37 33 39 34 40 35 41 96 42 36 43 95 44 37 45
REMARK SMILES IDX 38 46 39 47 89 48 40 49 94 50 88 51 90 52 41 53 93 54 87 55
REMARK SMILES IDX 86 56 42 58 74 59 54 60 73 61 55 62 58 63 72 64 91 65 56 66
REMARK SMILES IDX 57 67 71 69 92 70 59 71 43 72 44 73 52 74 45 75 51 76 53 77
REMARK SMILES IDX 50 78 46 79 47 80 48 81 49 82 75 83 76 84 84 85 77 86 83 87
REMARK SMILES IDX 85 88 82 89 78 90 79 91 80 92 81 93 60 94 61 95 69 96 62 97
REMARK SMILES IDX 68 98 70 99 67 100 63 101 64 102 65 103 66 104
REMARK H PARENT 26 6 5 25 31 38 90 57 58 68
REMARK Flexibility Score: inf
ROOT
ATOM      1  C   UNL A   1      32.108  29.879  26.889  1.00  0.00     0.023 C 
ENDROOT
BRANCH   1   2
ATOM      2  C   UNL A   1      32.157  29.235  25.497  1.00  0.00     0.116 C 
BRANCH   2   3
ATOM      3  N   UNL A   1      33.167  28.198  25.474  1.00  0.00    -0.352 N 
ATOM      4  C   UNL A   1      33.022  26.872  25.247  1.00  0.00     0.251 C 
ATOM      5  O   UNL A   1      33.771  26.090  25.825  1.00  0.00    -0.270 OA
ATOM      6  H   UNL A   1      34.088  28.499  25.648  1.00  0.00     0.163 HD
BRANCH   4   7
ATOM      7  C   UNL A   1      32.031  26.427  24.219  1.00  0.00     0.067 C 
ATOM      8  C   UNL A   1      33.058  22.488  24.021  1.00  0.00     0.026 A 
ATOM      9  C   UNL A   1      34.477  22.445  23.967  1.00  0.00     0.033 A 
ATOM     10  C   UNL A   1      32.469  23.746  23.801  1.00  0.00     0.135 A 
ATOM     11  C   UNL A   1      35.249  23.524  23.545  1.00  0.00     0.042 A 
ATOM     12  C   UNL A   1      33.258  24.791  23.256  1.00  0.00     0.019 A 
ATOM     13  O   UNL A   1      31.161  24.045  24.153  1.00  0.00    -0.475 OA
ATOM     14  Cl  UNL A   1      36.962  23.394  23.538  1.00  0.00    -0.084 Cl
ATOM     15  C   UNL A   1      34.637  24.680  23.109  1.00  0.00     0.032 A 
ATOM     16  C   UNL A   1      32.612  26.106  23.045  1.00  0.00     0.025 C 
ATOM     17  C   UNL A   1      30.997  25.423  24.721  1.00  0.00     0.314 C 
BRANCH   8  18
ATOM     18  C   UNL A   1      32.405  21.147  24.072  1.00  0.00    -0.014 A 
ATOM     19  C   UNL A   1      32.539  18.307  23.919  1.00  0.00     0.048 A 
ATOM     20  C   UNL A   1      32.613  18.961  25.152  1.00  0.00     0.027 A 
ATOM     21  C   UNL A   1      32.208  19.058  22.795  1.00  0.00     0.027 A 
ATOM     22  C   UNL A   1      32.514  20.359  25.235  1.00  0.00     0.011 A 
ATOM     23  C   UNL A   1      32.137  20.466  22.872  1.00  0.00     0.011 A 
BRANCH  19  24
ATOM     24  N   UNL A   1      32.981  16.953  23.894  1.00  0.00    -0.284 N 
ATOM     25  H   UNL A   1      33.141  16.567  23.002  1.00  0.00     0.180 HD
BRANCH  24  26
ATOM     26  S   UNL A   1      33.259  15.946  25.184  1.00  0.00     0.229 S 
ATOM     27  C   UNL A   1      35.040  15.875  25.314  1.00  0.00     0.183 C 
ATOM     28  O   UNL A   1      32.755  14.622  24.888  1.00  0.00    -0.207 OA
ATOM     29  O   UNL A   1      32.783  16.679  26.339  1.00  0.00    -0.207 OA
ENDBRANCH  24  26
ENDBRANCH  19  24
ENDBRANCH   8  18
BRANCH  17  30
ATOM     30  C   UNL A   1      29.590  25.992  24.431  1.00  0.00     0.429 C 
ATOM     31  F   UNL A   1      28.729  25.802  25.456  1.00  0.00    -0.167 F 
ATOM     32  F   UNL A   1      29.643  27.323  24.182  1.00  0.00    -0.167 F 
ATOM     33  F   UNL A   1      29.014  25.426  23.337  1.00  0.00    -0.167 F 
ENDBRANCH  17  30
ENDBRANCH   4   7
ENDBRANCH   2   3
ENDBRANCH   1   2
BRANCH   1  34
ATOM     34  C   UNL A   1      31.815  31.386  26.905  1.00  0.00     0.023 C 
BRANCH  34  35
ATOM     35  C   UNL A   1      33.049  32.281  26.959  1.00  0.00     0.116 C 
BRANCH  35  36
ATOM     36  N   UNL A   1      32.723  33.624  27.408  1.00  0.00    -0.352 N 
ATOM     37  C   UNL A   1      33.223  34.326  28.478  1.00  0.00     0.251 C 
ATOM     38  H   UNL A   1      32.048  34.098  26.869  1.00  0.00     0.163 HD
ATOM     39  O   UNL A   1      32.674  35.366  28.830  1.00  0.00    -0.269 OA
BRANCH  37  40
ATOM     40  C   UNL A   1      34.398  33.811  29.218  1.00  0.00     0.039 A 
ATOM     41  C   UNL A   1      34.214  32.796  30.160  1.00  0.00     0.014 A 
ATOM     42  C   UNL A   1      35.676  34.324  28.981  1.00  0.00     0.014 A 
ATOM     43  C   UNL A   1      35.321  32.249  30.814  1.00  0.00     0.010 A 
ATOM     44  C   UNL A   1      36.785  33.726  29.577  1.00  0.00     0.010 A 
ATOM     45  C   UNL A   1      36.620  32.680  30.500  1.00  0.00    -0.014 A 
BRANCH  45  46
ATOM     46  C   UNL A   1      37.816  32.045  31.120  1.00  0.00     0.031 A 
ATOM     47  C   UNL A   1      38.616  31.025  30.354  1.00  0.00     0.074 A 
ATOM     48  C   UNL A   1      38.140  32.337  32.397  1.00  0.00     0.049 A 
ATOM     49  N   UNL A   1      39.635  30.306  30.748  1.00  0.00    -0.248 NA
ATOM     50  C   UNL A   1      38.194  30.759  28.970  1.00  0.00     0.031 C 
ATOM     51  C   UNL A   1      37.416  33.277  33.257  1.00  0.00     0.029 A 
ATOM     52  N   UNL A   1      39.150  31.868  33.201  1.00  0.00    -0.354 N 
ATOM     53  C   UNL A   1      39.965  29.489  29.671  1.00  0.00     0.074 A 
ATOM     54  C   UNL A   1      39.002  29.766  28.627  1.00  0.00     0.031 C 
ATOM     55  C   UNL A   1      38.017  33.328  34.458  1.00  0.00     0.029 A 
ATOM     56  C   UNL A   1      39.134  32.388  34.475  1.00  0.00     0.049 A 
ATOM     57  H   UNL A   1      39.823  31.218  32.893  1.00  0.00     0.167 HD
ATOM     58  C   UNL A   1      40.986  28.603  29.560  1.00  0.00     0.034 A 
ATOM     59  C   UNL A   1      39.914  32.126  35.543  1.00  0.00     0.034 A 
ATOM     60  C   UNL A   1      41.948  28.354  30.606  1.00  0.00     0.049 A 
ATOM     61  C   UNL A   1      41.033  31.123  35.398  1.00  0.00     0.074 A 
ATOM     62  C   UNL A   1      43.065  27.537  30.569  1.00  0.00     0.029 A 
ATOM     63  N   UNL A   1      41.905  28.906  31.880  1.00  0.00    -0.354 N 
ATOM     64  N   UNL A   1      41.372  30.411  34.348  1.00  0.00    -0.248 NA
ATOM     65  C   UNL A   1      41.880  30.896  36.576  1.00  0.00     0.031 C 
ATOM     66  C   UNL A   1      43.646  27.529  31.841  1.00  0.00     0.029 A 
ATOM     67  C   UNL A   1      42.949  28.413  32.648  1.00  0.00     0.049 A 
ATOM     68  H   UNL A   1      41.231  29.552  32.192  1.00  0.00     0.167 HD
ATOM     69  C   UNL A   1      42.493  29.679  34.732  1.00  0.00     0.074 A 
ATOM     70  C   UNL A   1      42.780  30.050  36.102  1.00  0.00     0.031 C 
ATOM     71  C   UNL A   1      43.222  28.785  34.017  1.00  0.00     0.034 A 
BRANCH  58  72
ATOM     72  C   UNL A   1      41.096  27.814  28.277  1.00  0.00     0.023 A 
ATOM     73  C   UNL A   1      40.613  26.498  28.166  1.00  0.00     0.031 A 
ATOM     74  C   UNL A   1      41.696  28.390  27.142  1.00  0.00     0.131 A 
ATOM     75  C   UNL A   1      40.798  25.781  26.974  1.00  0.00     0.055 A 
ATOM     76  C   UNL A   1      41.803  27.700  25.933  1.00  0.00     0.041 A 
ATOM     77  F   UNL A   1      42.197  29.634  27.191  1.00  0.00    -0.206 F 
ATOM     78  C   UNL A   1      41.364  26.381  25.849  1.00  0.00     0.022 A 
BRANCH  75  79
ATOM     79  S   UNL A   1      40.409  24.010  26.959  1.00  0.00     0.124 S 
ATOM     80  O   UNL A   1      40.506  23.674  28.378  1.00  0.00    -0.237 OA
ATOM     81  O   UNL A   1      39.068  23.986  26.387  1.00  0.00    -0.237 OA
ATOM     82  O   UNL A   1      41.457  23.435  26.118  1.00  0.00    -0.744 OA
ENDBRANCH  75  79
ENDBRANCH  58  72
BRANCH  59  83
ATOM     83  C   UNL A   1      39.660  32.795  36.854  1.00  0.00     0.023 A 
ATOM     84  C   UNL A   1      38.844  32.198  37.829  1.00  0.00     0.031 A 
ATOM     85  C   UNL A   1      40.182  34.072  37.129  1.00  0.00     0.131 A 
ATOM     86  C   UNL A   1      38.527  32.900  39.003  1.00  0.00     0.055 A 
ATOM     87  C   UNL A   1      39.915  34.740  38.325  1.00  0.00     0.041 A 
ATOM     88  F   UNL A   1      40.971  34.691  36.234  1.00  0.00    -0.206 F 
ATOM     89  C   UNL A   1      39.068  34.161  39.264  1.00  0.00     0.022 A 
BRANCH  86  90
ATOM     90  S   UNL A   1      37.303  32.188  40.136  1.00  0.00     0.124 S 
ATOM     91  O   UNL A   1      36.706  33.384  40.718  1.00  0.00    -0.237 OA
ATOM     92  O   UNL A   1      36.456  31.425  39.226  1.00  0.00    -0.237 OA
ATOM     93  O   UNL A   1      38.113  31.386  41.051  1.00  0.00    -0.744 OA
ENDBRANCH  86  90
ENDBRANCH  59  83
BRANCH  71  94
ATOM     94  C   UNL A   1      44.434  28.186  34.690  1.00  0.00     0.023 A 
ATOM     95  C   UNL A   1      44.365  26.981  35.410  1.00  0.00     0.031 A 
ATOM     96  C   UNL A   1      45.679  28.837  34.612  1.00  0.00     0.131 A 
ATOM     97  C   UNL A   1      45.505  26.494  36.070  1.00  0.00     0.055 A 
ATOM     98  C   UNL A   1      46.823  28.314  35.213  1.00  0.00     0.041 A 
ATOM     99  F   UNL A   1      45.803  29.994  33.941  1.00  0.00    -0.206 F 
ATOM    100  C   UNL A   1      46.737  27.143  35.960  1.00  0.00     0.022 A 
BRANCH  97 101
ATOM    101  S   UNL A   1      45.334  25.052  37.157  1.00  0.00     0.124 S 
ATOM    102  O   UNL A   1      44.023  25.277  37.755  1.00  0.00    -0.237 OA
ATOM    103  O   UNL A   1      45.422  23.940  36.215  1.00  0.00    -0.237 OA
ATOM    104  O   UNL A   1      46.464  25.178  38.074  1.00  0.00    -0.744 OA
ENDBRANCH  97 101
ENDBRANCH  71  94
ENDBRANCH  45  46
ENDBRANCH  37  40
ENDBRANCH  35  36
ENDBRANCH  34  35
ENDBRANCH   1  34
TORSDOF 18
ENDMDL
