MODEL 1
REMARK VINA RESULT:     -11.0      0.000      0.000
REMARK SMILES O=C(NCCCCNC(=O)[C@@H]1CC=CC[C@@H]1C(=O)N1CCN(C(=O)c2sc3cc([N+](=O)[O-])ccc3c2Cl)CC1)c1ccc(-c2c3nc(c(-c4cc(S(=O)(=O)[O-])ccc4F)c4ccc([nH]4)c(-c4cc(S(=O)(=O)[O-])ccc4F)c4nc(c(-c5cc(S(=O)(=O)[O-])ccc5F)c5ccc2[nH]5)C=C4)C=C3)cc1
REMARK SMILES IDX 5 1 4 2 3 3 1 4 2 5 40 7 41 8 102 9 42 10 101 11 43 12 44 13
REMARK SMILES IDX 45 14 95 15 46 16 100 17 94 18 96 19 47 20 99 21 93 22 92 23
REMARK SMILES IDX 48 25 80 26 60 27 79 28 61 29 64 30 78 31 97 32 62 33 63 34
REMARK SMILES IDX 77 36 98 37 65 38 49 39 50 40 58 41 51 42 57 43 59 44 56 45
REMARK SMILES IDX 52 46 53 47 54 48 55 49 81 50 82 51 90 52 83 53 89 54 91 55
REMARK SMILES IDX 88 56 84 57 85 58 86 59 87 60 66 61 67 62 75 63 68 64 74 65
REMARK SMILES IDX 76 66 73 67 69 68 70 69 71 70 72 71 6 72 7 73 8 74 9 75
REMARK SMILES IDX 10 77 11 78 12 79 16 80 13 81 15 82 14 83 17 84 18 85 19 86
REMARK SMILES IDX 20 87 39 88 21 89 38 90 22 91 23 92 24 93 25 94 26 95 36 96
REMARK SMILES IDX 27 97 35 98 37 99 28 100 34 101 29 102 33 103 30 104 31 105
REMARK SMILES IDX 32 106
REMARK H PARENT 3 6 96 24 64 35 8 76
REMARK Flexibility Score: inf
ROOT
ATOM      1  C   UNL A   1      35.623  33.770  31.897  1.00  0.00     0.023 C 
ENDROOT
BRANCH   1   2
ATOM      2  C   UNL A   1      34.791  32.724  31.170  1.00  0.00     0.116 C 
BRANCH   2   3
ATOM      3  N   UNL A   1      34.659  32.983  29.729  1.00  0.00    -0.352 N 
ATOM      4  O   UNL A   1      35.538  33.332  27.662  1.00  0.00    -0.269 OA
ATOM      5  C   UNL A   1      35.579  32.724  28.718  1.00  0.00     0.251 C 
ATOM      6  H   UNL A   1      33.811  33.393  29.443  1.00  0.00     0.163 HD
BRANCH   5   7
ATOM      7  C   UNL A   1      36.585  31.668  28.946  1.00  0.00     0.039 A 
ATOM      8  C   UNL A   1      36.343  30.308  28.749  1.00  0.00     0.014 A 
ATOM      9  C   UNL A   1      37.838  32.104  29.351  1.00  0.00     0.014 A 
ATOM     10  C   UNL A   1      37.404  29.420  28.935  1.00  0.00     0.010 A 
ATOM     11  C   UNL A   1      38.917  31.288  29.215  1.00  0.00     0.010 A 
ATOM     12  C   UNL A   1      38.695  29.930  29.171  1.00  0.00    -0.014 A 
BRANCH  12  13
ATOM     13  C   UNL A   1      39.866  29.084  29.338  1.00  0.00     0.031 A 
ATOM     14  C   UNL A   1      40.144  28.751  30.749  1.00  0.00     0.074 A 
ATOM     15  C   UNL A   1      40.519  28.505  28.303  1.00  0.00     0.049 A 
ATOM     16  N   UNL A   1      41.023  29.309  31.510  1.00  0.00    -0.248 NA
ATOM     17  C   UNL A   1      39.195  27.885  31.463  1.00  0.00     0.031 C 
ATOM     18  C   UNL A   1      40.145  28.461  26.880  1.00  0.00     0.029 A 
ATOM     19  N   UNL A   1      41.644  27.741  28.323  1.00  0.00    -0.354 N 
ATOM     20  C   UNL A   1      40.918  28.662  32.735  1.00  0.00     0.074 A 
ATOM     21  C   UNL A   1      39.638  27.999  32.718  1.00  0.00     0.031 C 
ATOM     22  C   UNL A   1      40.883  27.529  26.237  1.00  0.00     0.029 A 
ATOM     23  C   UNL A   1      41.911  27.056  27.142  1.00  0.00     0.049 A 
ATOM     24  H   UNL A   1      42.227  27.679  29.114  1.00  0.00     0.167 HD
ATOM     25  C   UNL A   1      42.015  28.500  33.527  1.00  0.00     0.034 A 
ATOM     26  C   UNL A   1      42.904  26.156  26.926  1.00  0.00     0.034 A 
ATOM     27  C   UNL A   1      43.113  29.295  33.031  1.00  0.00     0.049 A 
ATOM     28  C   UNL A   1      43.916  26.353  27.989  1.00  0.00     0.074 A 
ATOM     29  C   UNL A   1      43.343  30.645  32.864  1.00  0.00     0.029 A 
ATOM     30  N   UNL A   1      44.013  28.644  32.220  1.00  0.00    -0.354 N 
ATOM     31  N   UNL A   1      44.674  27.408  28.081  1.00  0.00    -0.248 NA
ATOM     32  C   UNL A   1      43.758  25.582  29.211  1.00  0.00     0.031 C 
ATOM     33  C   UNL A   1      44.084  30.749  31.653  1.00  0.00     0.029 A 
ATOM     34  C   UNL A   1      44.354  29.462  31.177  1.00  0.00     0.049 A 
ATOM     35  H   UNL A   1      44.358  27.734  32.368  1.00  0.00     0.167 HD
ATOM     36  C   UNL A   1      44.686  27.699  29.436  1.00  0.00     0.074 A 
ATOM     37  C   UNL A   1      44.211  26.480  30.089  1.00  0.00     0.031 C 
ATOM     38  C   UNL A   1      44.787  28.989  29.873  1.00  0.00     0.034 A 
BRANCH  25  39
ATOM     39  C   UNL A   1      42.228  27.335  34.468  1.00  0.00     0.023 A 
ATOM     40  C   UNL A   1      42.949  26.177  34.125  1.00  0.00     0.031 A 
ATOM     41  C   UNL A   1      41.890  27.461  35.832  1.00  0.00     0.131 A 
ATOM     42  C   UNL A   1      43.313  25.222  35.083  1.00  0.00     0.055 A 
ATOM     43  C   UNL A   1      42.309  26.541  36.801  1.00  0.00     0.041 A 
ATOM     44  F   UNL A   1      41.193  28.518  36.277  1.00  0.00    -0.206 F 
ATOM     45  C   UNL A   1      43.029  25.416  36.429  1.00  0.00     0.022 A 
BRANCH  42  46
ATOM     46  S   UNL A   1      44.191  23.715  34.582  1.00  0.00     0.124 S 
ATOM     47  O   UNL A   1      44.688  23.216  35.860  1.00  0.00    -0.237 OA
ATOM     48  O   UNL A   1      43.115  22.939  33.974  1.00  0.00    -0.237 OA
ATOM     49  O   UNL A   1      45.205  24.203  33.652  1.00  0.00    -0.744 OA
ENDBRANCH  42  46
ENDBRANCH  25  39
BRANCH  26  50
ATOM     50  C   UNL A   1      42.814  24.871  26.192  1.00  0.00     0.023 A 
ATOM     51  C   UNL A   1      41.774  23.976  26.494  1.00  0.00     0.031 A 
ATOM     52  C   UNL A   1      43.918  24.365  25.481  1.00  0.00     0.131 A 
ATOM     53  C   UNL A   1      41.891  22.618  26.166  1.00  0.00     0.055 A 
ATOM     54  C   UNL A   1      44.021  23.012  25.133  1.00  0.00     0.041 A 
ATOM     55  F   UNL A   1      44.959  25.158  25.186  1.00  0.00    -0.206 F 
ATOM     56  C   UNL A   1      43.012  22.125  25.496  1.00  0.00     0.022 A 
BRANCH  53  57
ATOM     57  S   UNL A   1      40.629  21.437  26.715  1.00  0.00     0.124 S 
ATOM     58  O   UNL A   1      39.418  21.987  26.112  1.00  0.00    -0.237 OA
ATOM     59  O   UNL A   1      41.119  20.194  26.130  1.00  0.00    -0.237 OA
ATOM     60  O   UNL A   1      40.698  21.532  28.170  1.00  0.00    -0.744 OA
ENDBRANCH  53  57
ENDBRANCH  26  50
BRANCH  38  61
ATOM     61  C   UNL A   1      45.193  30.062  28.884  1.00  0.00     0.023 A 
ATOM     62  C   UNL A   1      46.554  30.411  28.872  1.00  0.00     0.031 A 
ATOM     63  C   UNL A   1      44.308  30.878  28.153  1.00  0.00     0.131 A 
ATOM     64  C   UNL A   1      46.986  31.566  28.215  1.00  0.00     0.055 A 
ATOM     65  C   UNL A   1      44.758  31.991  27.430  1.00  0.00     0.041 A 
ATOM     66  F   UNL A   1      42.984  30.682  28.178  1.00  0.00    -0.206 F 
ATOM     67  C   UNL A   1      46.100  32.353  27.478  1.00  0.00     0.022 A 
BRANCH  64  68
ATOM     68  S   UNL A   1      48.678  32.163  28.462  1.00  0.00     0.124 S 
ATOM     69  O   UNL A   1      49.473  31.032  27.993  1.00  0.00    -0.237 OA
ATOM     70  O   UNL A   1      48.715  33.351  27.613  1.00  0.00    -0.237 OA
ATOM     71  O   UNL A   1      48.754  32.428  29.896  1.00  0.00    -0.744 OA
ENDBRANCH  64  68
ENDBRANCH  38  61
ENDBRANCH  12  13
ENDBRANCH   5   7
ENDBRANCH   2   3
ENDBRANCH   1   2
BRANCH   1  72
ATOM     72  C   UNL A   1      36.333  33.271  33.168  1.00  0.00     0.023 C 
BRANCH  72  73
ATOM     73  C   UNL A   1      37.250  32.048  33.001  1.00  0.00     0.116 C 
BRANCH  73  74
ATOM     74  N   UNL A   1      37.366  31.297  34.236  1.00  0.00    -0.356 N 
ATOM     75  C   UNL A   1      38.486  31.106  35.001  1.00  0.00     0.224 C 
ATOM     76  H   UNL A   1      36.541  30.873  34.564  1.00  0.00     0.163 HD
ATOM     77  O   UNL A   1      38.592  30.053  35.625  1.00  0.00    -0.275 OA
BRANCH  75  78
ATOM     78  C   UNL A   1      39.567  32.178  34.977  1.00  0.00     0.095 C 
ATOM     79  C   UNL A   1      40.929  31.665  35.482  1.00  0.00     0.041 C 
ATOM     80  C   UNL A   1      39.174  33.493  35.720  1.00  0.00     0.095 C 
ATOM     81  C   UNL A   1      41.952  32.775  35.524  1.00  0.00    -0.030 C 
ATOM     82  C   UNL A   1      40.203  34.541  35.239  1.00  0.00     0.041 C 
ATOM     83  C   UNL A   1      41.629  34.072  35.380  1.00  0.00    -0.030 C 
BRANCH  80  84
ATOM     84  C   UNL A   1      39.185  33.240  37.245  1.00  0.00     0.226 C 
ATOM     85  O   UNL A   1      38.842  32.151  37.703  1.00  0.00    -0.275 OA
ATOM     86  N   UNL A   1      39.708  34.198  38.084  1.00  0.00    -0.339 N 
ATOM     87  C   UNL A   1      40.474  33.743  39.242  1.00  0.00     0.141 C 
ATOM     88  C   UNL A   1      39.274  35.591  38.155  1.00  0.00     0.141 C 
ATOM     89  C   UNL A   1      41.713  34.628  39.412  1.00  0.00     0.141 C 
ATOM     90  C   UNL A   1      40.482  36.521  38.382  1.00  0.00     0.141 C 
ATOM     91  N   UNL A   1      41.349  36.051  39.482  1.00  0.00    -0.334 N 
ATOM     92  C   UNL A   1      41.951  36.843  40.459  1.00  0.00     0.265 C 
ATOM     93  O   UNL A   1      42.813  36.383  41.208  1.00  0.00    -0.268 OA
BRANCH  92  94
ATOM     94  C   UNL A   1      41.567  38.235  40.537  1.00  0.00     0.112 A 
ATOM     95  S   UNL A   1      40.152  38.627  41.405  1.00  0.00    -0.128 S 
ATOM     96  C   UNL A   1      42.134  39.345  39.953  1.00  0.00     0.072 A 
ATOM     97  C   UNL A   1      40.326  40.307  41.085  1.00  0.00     0.043 A 
ATOM     98  C   UNL A   1      41.459  40.567  40.308  1.00  0.00     0.012 A 
ATOM     99  Cl  UNL A   1      43.503  39.325  38.915  1.00  0.00    -0.082 Cl
ATOM    100  C   UNL A   1      39.464  41.331  41.522  1.00  0.00     0.105 A 
ATOM    101  C   UNL A   1      41.746  41.921  39.990  1.00  0.00     0.018 A 
ATOM    102  C   UNL A   1      39.775  42.654  41.177  1.00  0.00     0.270 A 
ATOM    103  C   UNL A   1      40.911  42.955  40.429  1.00  0.00     0.086 A 
BRANCH 102 104
ATOM    104  N   UNL A   1      38.881  43.734  41.610  1.00  0.00     0.062 N 
ATOM    105  O   UNL A   1      38.964  44.823  41.021  1.00  0.00    -0.258 OA
ATOM    106  O   UNL A   1      38.098  43.501  42.542  1.00  0.00    -0.258 OA
ENDBRANCH 102 104
ENDBRANCH  92  94
ENDBRANCH  80  84
ENDBRANCH  75  78
ENDBRANCH  73  74
ENDBRANCH  72  73
ENDBRANCH   1  72
TORSDOF 17
ENDMDL
MODEL 2
REMARK VINA RESULT:     -11.0      6.147     14.816
REMARK SMILES O=C(NCCCCNC(=O)[C@@H]1CC=CC[C@@H]1C(=O)N1CCN(C(=O)c2sc3cc([N+](=O)[O-])ccc3c2Cl)CC1)c1ccc(-c2c3nc(c(-c4cc(S(=O)(=O)[O-])ccc4F)c4ccc([nH]4)c(-c4cc(S(=O)(=O)[O-])ccc4F)c4nc(c(-c5cc(S(=O)(=O)[O-])ccc5F)c5ccc2[nH]5)C=C4)C=C3)cc1
REMARK SMILES IDX 5 1 4 2 3 3 1 4 2 5 40 7 41 8 102 9 42 10 101 11 43 12 44 13
REMARK SMILES IDX 45 14 95 15 46 16 100 17 94 18 96 19 47 20 99 21 93 22 92 23
REMARK SMILES IDX 48 25 80 26 60 27 79 28 61 29 64 30 78 31 97 32 62 33 63 34
REMARK SMILES IDX 77 36 98 37 65 38 49 39 50 40 58 41 51 42 57 43 59 44 56 45
REMARK SMILES IDX 52 46 53 47 54 48 55 49 81 50 82 51 90 52 83 53 89 54 91 55
REMARK SMILES IDX 88 56 84 57 85 58 86 59 87 60 66 61 67 62 75 63 68 64 74 65
REMARK SMILES IDX 76 66 73 67 69 68 70 69 71 70 72 71 6 72 7 73 8 74 9 75
REMARK SMILES IDX 10 77 11 78 12 79 16 80 13 81 15 82 14 83 17 84 18 85 19 86
REMARK SMILES IDX 20 87 39 88 21 89 38 90 22 91 23 92 24 93 25 94 26 95 36 96
REMARK SMILES IDX 27 97 35 98 37 99 28 100 34 101 29 102 33 103 30 104 31 105
REMARK SMILES IDX 32 106
REMARK H PARENT 3 6 96 24 64 35 8 76
REMARK Flexibility Score: inf
ROOT
ATOM      1  C   UNL A   1      43.876  23.994  24.655  1.00  0.00     0.023 C 
ENDROOT
BRANCH   1   2
ATOM      2  C   UNL A   1      43.604  22.780  25.530  1.00  0.00     0.116 C 
BRANCH   2   3
ATOM      3  N   UNL A   1      42.222  22.288  25.430  1.00  0.00    -0.352 N 
ATOM      4  O   UNL A   1      40.194  21.797  26.334  1.00  0.00    -0.269 OA
ATOM      5  C   UNL A   1      41.149  22.554  26.274  1.00  0.00     0.251 C 
ATOM      6  H   UNL A   1      42.032  21.693  24.669  1.00  0.00     0.163 HD
BRANCH   5   7
ATOM      7  C   UNL A   1      41.181  23.796  27.071  1.00  0.00     0.039 A 
ATOM      8  C   UNL A   1      42.151  24.076  28.035  1.00  0.00     0.014 A 
ATOM      9  C   UNL A   1      40.187  24.722  26.791  1.00  0.00     0.014 A 
ATOM     10  C   UNL A   1      42.106  25.319  28.669  1.00  0.00     0.010 A 
ATOM     11  C   UNL A   1      40.341  26.019  27.168  1.00  0.00     0.010 A 
ATOM     12  C   UNL A   1      41.187  26.287  28.221  1.00  0.00    -0.014 A 
BRANCH  12  13
ATOM     13  C   UNL A   1      41.094  27.620  28.793  1.00  0.00     0.031 A 
ATOM     14  C   UNL A   1      42.047  28.576  28.195  1.00  0.00     0.074 A 
ATOM     15  C   UNL A   1      40.111  27.997  29.646  1.00  0.00     0.049 A 
ATOM     16  N   UNL A   1      43.173  28.952  28.698  1.00  0.00    -0.248 NA
ATOM     17  C   UNL A   1      41.853  28.971  26.792  1.00  0.00     0.031 C 
ATOM     18  C   UNL A   1      38.902  27.260  30.049  1.00  0.00     0.029 A 
ATOM     19  N   UNL A   1      39.943  29.186  30.283  1.00  0.00    -0.354 N 
ATOM     20  C   UNL A   1      43.704  29.854  27.784  1.00  0.00     0.074 A 
ATOM     21  C   UNL A   1      42.991  29.628  26.553  1.00  0.00     0.031 C 
ATOM     22  C   UNL A   1      38.032  28.097  30.656  1.00  0.00     0.029 A 
ATOM     23  C   UNL A   1      38.692  29.370  30.865  1.00  0.00     0.049 A 
ATOM     24  H   UNL A   1      40.653  29.866  30.330  1.00  0.00     0.167 HD
ATOM     25  C   UNL A   1      44.480  30.892  28.208  1.00  0.00     0.034 A 
ATOM     26  C   UNL A   1      38.231  30.493  31.471  1.00  0.00     0.034 A 
ATOM     27  C   UNL A   1      44.834  30.717  29.597  1.00  0.00     0.049 A 
ATOM     28  C   UNL A   1      39.406  31.327  31.809  1.00  0.00     0.074 A 
ATOM     29  C   UNL A   1      45.562  29.787  30.309  1.00  0.00     0.029 A 
ATOM     30  N   UNL A   1      44.041  31.372  30.510  1.00  0.00    -0.354 N 
ATOM     31  N   UNL A   1      40.285  31.007  32.716  1.00  0.00    -0.248 NA
ATOM     32  C   UNL A   1      39.850  32.289  30.814  1.00  0.00     0.031 C 
ATOM     33  C   UNL A   1      44.871  29.641  31.545  1.00  0.00     0.029 A 
ATOM     34  C   UNL A   1      43.806  30.546  31.577  1.00  0.00     0.049 A 
ATOM     35  H   UNL A   1      43.696  32.289  30.412  1.00  0.00     0.167 HD
ATOM     36  C   UNL A   1      41.502  31.335  32.139  1.00  0.00     0.074 A 
ATOM     37  C   UNL A   1      41.166  32.227  31.029  1.00  0.00     0.031 C 
ATOM     38  C   UNL A   1      42.627  30.617  32.423  1.00  0.00     0.034 A 
BRANCH  25  39
ATOM     39  C   UNL A   1      44.562  32.237  27.521  1.00  0.00     0.023 A 
ATOM     40  C   UNL A   1      43.753  33.336  27.861  1.00  0.00     0.031 A 
ATOM     41  C   UNL A   1      45.628  32.513  26.639  1.00  0.00     0.131 A 
ATOM     42  C   UNL A   1      44.005  34.621  27.361  1.00  0.00     0.055 A 
ATOM     43  C   UNL A   1      45.920  33.806  26.191  1.00  0.00     0.041 A 
ATOM     44  F   UNL A   1      46.460  31.541  26.235  1.00  0.00    -0.206 F 
ATOM     45  C   UNL A   1      45.109  34.871  26.555  1.00  0.00     0.022 A 
BRANCH  42  46
ATOM     46  S   UNL A   1      42.898  35.997  27.780  1.00  0.00     0.124 S 
ATOM     47  O   UNL A   1      42.019  35.386  28.772  1.00  0.00    -0.237 OA
ATOM     48  O   UNL A   1      43.843  36.984  28.293  1.00  0.00    -0.237 OA
ATOM     49  O   UNL A   1      42.277  36.337  26.504  1.00  0.00    -0.744 OA
ENDBRANCH  42  46
ENDBRANCH  25  39
BRANCH  26  50
ATOM     50  C   UNL A   1      36.882  31.096  31.347  1.00  0.00     0.023 A 
ATOM     51  C   UNL A   1      36.332  31.296  30.069  1.00  0.00     0.031 A 
ATOM     52  C   UNL A   1      36.301  31.800  32.418  1.00  0.00     0.131 A 
ATOM     53  C   UNL A   1      35.302  32.228  29.879  1.00  0.00     0.055 A 
ATOM     54  C   UNL A   1      35.255  32.712  32.230  1.00  0.00     0.041 A 
ATOM     55  F   UNL A   1      36.797  31.677  33.660  1.00  0.00    -0.206 F 
ATOM     56  C   UNL A   1      34.765  32.946  30.949  1.00  0.00     0.022 A 
BRANCH  53  57
ATOM     57  S   UNL A   1      34.718  32.612  28.207  1.00  0.00     0.124 S 
ATOM     58  O   UNL A   1      35.903  33.219  27.605  1.00  0.00    -0.237 OA
ATOM     59  O   UNL A   1      34.362  31.288  27.710  1.00  0.00    -0.237 OA
ATOM     60  O   UNL A   1      33.606  33.528  28.446  1.00  0.00    -0.744 OA
ENDBRANCH  53  57
ENDBRANCH  26  50
BRANCH  38  61
ATOM     61  C   UNL A   1      42.602  29.662  33.599  1.00  0.00     0.023 A 
ATOM     62  C   UNL A   1      43.197  30.123  34.786  1.00  0.00     0.031 A 
ATOM     63  C   UNL A   1      42.244  28.301  33.541  1.00  0.00     0.131 A 
ATOM     64  C   UNL A   1      43.481  29.239  35.829  1.00  0.00     0.055 A 
ATOM     65  C   UNL A   1      42.457  27.435  34.621  1.00  0.00     0.041 A 
ATOM     66  F   UNL A   1      41.756  27.748  32.423  1.00  0.00    -0.206 F 
ATOM     67  C   UNL A   1      43.100  27.898  35.764  1.00  0.00     0.022 A 
BRANCH  64  68
ATOM     68  S   UNL A   1      44.514  29.782  37.214  1.00  0.00     0.124 S 
ATOM     69  O   UNL A   1      43.529  30.360  38.123  1.00  0.00    -0.237 OA
ATOM     70  O   UNL A   1      45.119  28.529  37.660  1.00  0.00    -0.237 OA
ATOM     71  O   UNL A   1      45.443  30.733  36.611  1.00  0.00    -0.744 OA
ENDBRANCH  64  68
ENDBRANCH  38  61
ENDBRANCH  12  13
ENDBRANCH   5   7
ENDBRANCH   2   3
ENDBRANCH   1   2
BRANCH   1  72
ATOM     72  C   UNL A   1      44.986  24.930  25.167  1.00  0.00     0.023 C 
BRANCH  72  73
ATOM     73  C   UNL A   1      44.569  26.379  25.468  1.00  0.00     0.116 C 
BRANCH  73  74
ATOM     74  N   UNL A   1      45.334  27.328  24.682  1.00  0.00    -0.356 N 
ATOM     75  C   UNL A   1      46.371  28.120  25.096  1.00  0.00     0.224 C 
ATOM     76  H   UNL A   1      45.076  27.412  23.735  1.00  0.00     0.163 HD
ATOM     77  O   UNL A   1      46.518  29.214  24.558  1.00  0.00    -0.275 OA
BRANCH  75  78
ATOM     78  C   UNL A   1      47.237  27.630  26.248  1.00  0.00     0.095 C 
ATOM     79  C   UNL A   1      47.883  28.781  27.043  1.00  0.00     0.041 C 
ATOM     80  C   UNL A   1      48.320  26.586  25.829  1.00  0.00     0.095 C 
ATOM     81  C   UNL A   1      48.800  28.256  28.122  1.00  0.00    -0.030 C 
ATOM     82  C   UNL A   1      48.787  25.948  27.156  1.00  0.00     0.041 C 
ATOM     83  C   UNL A   1      49.182  26.969  28.193  1.00  0.00    -0.030 C 
BRANCH  80  84
ATOM     84  C   UNL A   1      49.438  27.302  25.036  1.00  0.00     0.226 C 
ATOM     85  O   UNL A   1      49.161  28.120  24.160  1.00  0.00    -0.275 OA
ATOM     86  N   UNL A   1      50.751  27.119  25.406  1.00  0.00    -0.339 N 
ATOM     87  C   UNL A   1      51.648  28.269  25.325  1.00  0.00     0.141 C 
ATOM     88  C   UNL A   1      51.429  25.829  25.513  1.00  0.00     0.141 C 
ATOM     89  C   UNL A   1      52.551  28.298  26.563  1.00  0.00     0.141 C 
ATOM     90  C   UNL A   1      52.394  25.825  26.714  1.00  0.00     0.141 C 
ATOM     91  N   UNL A   1      53.261  27.022  26.737  1.00  0.00    -0.334 N 
ATOM     92  C   UNL A   1      54.619  27.056  27.048  1.00  0.00     0.265 C 
ATOM     93  O   UNL A   1      55.203  28.125  27.235  1.00  0.00    -0.268 OA
BRANCH  92  94
ATOM     94  C   UNL A   1      55.315  25.797  27.191  1.00  0.00     0.112 A 
ATOM     95  S   UNL A   1      55.803  24.986  25.773  1.00  0.00    -0.128 S 
ATOM     96  C   UNL A   1      55.611  25.072  28.323  1.00  0.00     0.072 A 
ATOM     97  C   UNL A   1      56.499  23.688  26.659  1.00  0.00     0.043 A 
ATOM     98  C   UNL A   1      56.350  23.869  28.037  1.00  0.00     0.012 A 
ATOM     99  Cl  UNL A   1      55.173  25.516  29.924  1.00  0.00    -0.082 Cl
ATOM    100  C   UNL A   1      57.144  22.560  26.115  1.00  0.00     0.105 A 
ATOM    101  C   UNL A   1      56.907  22.885  28.897  1.00  0.00     0.018 A 
ATOM    102  C   UNL A   1      57.669  21.605  26.997  1.00  0.00     0.270 A 
ATOM    103  C   UNL A   1      57.566  21.766  28.377  1.00  0.00     0.086 A 
BRANCH 102 104
ATOM    104  N   UNL A   1      58.332  20.415  26.449  1.00  0.00     0.062 N 
ATOM    105  O   UNL A   1      58.240  19.358  27.091  1.00  0.00    -0.258 OA
ATOM    106  O   UNL A   1      58.948  20.535  25.382  1.00  0.00    -0.258 OA
ENDBRANCH 102 104
ENDBRANCH  92  94
ENDBRANCH  80  84
ENDBRANCH  75  78
ENDBRANCH  73  74
ENDBRANCH  72  73
ENDBRANCH   1  72
TORSDOF 17
ENDMDL
MODEL 3
REMARK VINA RESULT:     -10.9      5.370     10.851
REMARK SMILES O=C(NCCCCNC(=O)[C@@H]1CC=CC[C@@H]1C(=O)N1CCN(C(=O)c2sc3cc([N+](=O)[O-])ccc3c2Cl)CC1)c1ccc(-c2c3nc(c(-c4cc(S(=O)(=O)[O-])ccc4F)c4ccc([nH]4)c(-c4cc(S(=O)(=O)[O-])ccc4F)c4nc(c(-c5cc(S(=O)(=O)[O-])ccc5F)c5ccc2[nH]5)C=C4)C=C3)cc1
REMARK SMILES IDX 5 1 4 2 3 3 1 4 2 5 40 7 41 8 102 9 42 10 101 11 43 12 44 13
REMARK SMILES IDX 45 14 95 15 46 16 100 17 94 18 96 19 47 20 99 21 93 22 92 23
REMARK SMILES IDX 48 25 80 26 60 27 79 28 61 29 64 30 78 31 97 32 62 33 63 34
REMARK SMILES IDX 77 36 98 37 65 38 49 39 50 40 58 41 51 42 57 43 59 44 56 45
REMARK SMILES IDX 52 46 53 47 54 48 55 49 81 50 82 51 90 52 83 53 89 54 91 55
REMARK SMILES IDX 88 56 84 57 85 58 86 59 87 60 66 61 67 62 75 63 68 64 74 65
REMARK SMILES IDX 76 66 73 67 69 68 70 69 71 70 72 71 6 72 7 73 8 74 9 75
REMARK SMILES IDX 10 77 11 78 12 79 16 80 13 81 15 82 14 83 17 84 18 85 19 86
REMARK SMILES IDX 20 87 39 88 21 89 38 90 22 91 23 92 24 93 25 94 26 95 36 96
REMARK SMILES IDX 27 97 35 98 37 99 28 100 34 101 29 102 33 103 30 104 31 105
REMARK SMILES IDX 32 106
REMARK H PARENT 3 6 96 24 64 35 8 76
REMARK Flexibility Score: inf
ROOT
ATOM      1  C   UNL A   1      45.386  39.179  32.732  1.00  0.00     0.023 C 
ENDROOT
BRANCH   1   2
ATOM      2  C   UNL A   1      46.184  37.896  32.559  1.00  0.00     0.116 C 
BRANCH   2   3
ATOM      3  N   UNL A   1      46.821  37.780  31.239  1.00  0.00    -0.352 N 
ATOM      4  O   UNL A   1      47.613  36.561  29.491  1.00  0.00    -0.269 OA
ATOM      5  C   UNL A   1      46.750  36.724  30.336  1.00  0.00     0.251 C 
ATOM      6  H   UNL A   1      47.370  38.548  30.958  1.00  0.00     0.163 HD
BRANCH   5   7
ATOM      7  C   UNL A   1      45.581  35.825  30.409  1.00  0.00     0.039 A 
ATOM      8  C   UNL A   1      44.258  36.269  30.419  1.00  0.00     0.014 A 
ATOM      9  C   UNL A   1      45.863  34.467  30.438  1.00  0.00     0.014 A 
ATOM     10  C   UNL A   1      43.244  35.308  30.419  1.00  0.00     0.010 A 
ATOM     11  C   UNL A   1      44.896  33.566  30.118  1.00  0.00     0.010 A 
ATOM     12  C   UNL A   1      43.583  33.950  30.268  1.00  0.00    -0.014 A 
BRANCH  12  13
ATOM     13  C   UNL A   1      42.595  32.885  30.220  1.00  0.00     0.031 A 
ATOM     14  C   UNL A   1      41.220  33.357  30.476  1.00  0.00     0.074 A 
ATOM     15  C   UNL A   1      42.874  31.629  29.795  1.00  0.00     0.049 A 
ATOM     16  N   UNL A   1      40.572  33.264  31.588  1.00  0.00    -0.248 NA
ATOM     17  C   UNL A   1      40.585  34.234  29.482  1.00  0.00     0.031 C 
ATOM     18  C   UNL A   1      44.108  31.113  29.179  1.00  0.00     0.029 A 
ATOM     19  N   UNL A   1      42.060  30.542  29.750  1.00  0.00    -0.354 N 
ATOM     20  C   UNL A   1      39.330  33.837  31.341  1.00  0.00     0.074 A 
ATOM     21  C   UNL A   1      39.493  34.623  30.144  1.00  0.00     0.031 C 
ATOM     22  C   UNL A   1      43.874  29.906  28.618  1.00  0.00     0.029 A 
ATOM     23  C   UNL A   1      42.545  29.473  29.002  1.00  0.00     0.049 A 
ATOM     24  H   UNL A   1      41.191  30.512  30.212  1.00  0.00     0.167 HD
ATOM     25  C   UNL A   1      38.219  33.380  31.984  1.00  0.00     0.034 A 
ATOM     26  C   UNL A   1      41.897  28.316  28.714  1.00  0.00     0.034 A 
ATOM     27  C   UNL A   1      38.593  32.487  33.056  1.00  0.00     0.049 A 
ATOM     28  C   UNL A   1      40.784  28.182  29.681  1.00  0.00     0.074 A 
ATOM     29  C   UNL A   1      39.307  32.616  34.229  1.00  0.00     0.029 A 
ATOM     30  N   UNL A   1      38.568  31.144  32.761  1.00  0.00    -0.354 N 
ATOM     31  N   UNL A   1      40.952  27.958  30.953  1.00  0.00    -0.248 NA
ATOM     32  C   UNL A   1      39.502  28.757  29.307  1.00  0.00     0.031 C 
ATOM     33  C   UNL A   1      40.030  31.396  34.359  1.00  0.00     0.029 A 
ATOM     34  C   UNL A   1      39.665  30.541  33.315  1.00  0.00     0.049 A 
ATOM     35  H   UNL A   1      37.872  30.689  32.233  1.00  0.00     0.167 HD
ATOM     36  C   UNL A   1      40.030  28.791  31.568  1.00  0.00     0.074 A 
ATOM     37  C   UNL A   1      39.090  29.162  30.510  1.00  0.00     0.031 C 
ATOM     38  C   UNL A   1      40.290  29.338  32.792  1.00  0.00     0.034 A 
BRANCH  25  39
ATOM     39  C   UNL A   1      36.824  33.394  31.400  1.00  0.00     0.023 A 
ATOM     40  C   UNL A   1      35.817  34.288  31.807  1.00  0.00     0.031 A 
ATOM     41  C   UNL A   1      36.538  32.639  30.243  1.00  0.00     0.131 A 
ATOM     42  C   UNL A   1      34.616  34.421  31.098  1.00  0.00     0.055 A 
ATOM     43  C   UNL A   1      35.367  32.817  29.497  1.00  0.00     0.041 A 
ATOM     44  F   UNL A   1      37.418  31.746  29.766  1.00  0.00    -0.206 F 
ATOM     45  C   UNL A   1      34.399  33.716  29.921  1.00  0.00     0.022 A 
BRANCH  42  46
ATOM     46  S   UNL A   1      33.322  35.543  31.697  1.00  0.00     0.124 S 
ATOM     47  O   UNL A   1      34.104  36.576  32.368  1.00  0.00    -0.237 OA
ATOM     48  O   UNL A   1      32.682  35.943  30.447  1.00  0.00    -0.237 OA
ATOM     49  O   UNL A   1      32.509  34.696  32.565  1.00  0.00    -0.744 OA
ENDBRANCH  42  46
ENDBRANCH  25  39
BRANCH  26  50
ATOM     50  C   UNL A   1      41.869  27.596  27.419  1.00  0.00     0.023 A 
ATOM     51  C   UNL A   1      42.142  26.218  27.391  1.00  0.00     0.031 A 
ATOM     52  C   UNL A   1      41.941  28.295  26.200  1.00  0.00     0.131 A 
ATOM     53  C   UNL A   1      42.552  25.601  26.200  1.00  0.00     0.055 A 
ATOM     54  C   UNL A   1      42.326  27.670  25.006  1.00  0.00     0.041 A 
ATOM     55  F   UNL A   1      41.721  29.618  26.160  1.00  0.00    -0.206 F 
ATOM     56  C   UNL A   1      42.656  26.319  25.008  1.00  0.00     0.022 A 
BRANCH  53  57
ATOM     57  S   UNL A   1      43.074  23.865  26.207  1.00  0.00     0.124 S 
ATOM     58  O   UNL A   1      44.362  23.939  26.893  1.00  0.00    -0.237 OA
ATOM     59  O   UNL A   1      41.992  23.237  26.956  1.00  0.00    -0.237 OA
ATOM     60  O   UNL A   1      43.146  23.535  24.786  1.00  0.00    -0.744 OA
ENDBRANCH  53  57
ENDBRANCH  26  50
BRANCH  38  61
ATOM     61  C   UNL A   1      41.446  28.789  33.603  1.00  0.00     0.023 A 
ATOM     62  C   UNL A   1      41.153  27.699  34.440  1.00  0.00     0.031 A 
ATOM     63  C   UNL A   1      42.703  29.405  33.757  1.00  0.00     0.131 A 
ATOM     64  C   UNL A   1      42.056  27.300  35.429  1.00  0.00     0.055 A 
ATOM     65  C   UNL A   1      43.637  28.951  34.696  1.00  0.00     0.041 A 
ATOM     66  F   UNL A   1      43.037  30.505  33.072  1.00  0.00    -0.206 F 
ATOM     67  C   UNL A   1      43.306  27.907  35.554  1.00  0.00     0.022 A 
BRANCH  64  68
ATOM     68  S   UNL A   1      41.542  26.103  36.687  1.00  0.00     0.124 S 
ATOM     69  O   UNL A   1      40.488  26.829  37.389  1.00  0.00    -0.237 OA
ATOM     70  O   UNL A   1      41.093  24.974  35.875  1.00  0.00    -0.237 OA
ATOM     71  O   UNL A   1      42.756  25.860  37.461  1.00  0.00    -0.744 OA
ENDBRANCH  64  68
ENDBRANCH  38  61
ENDBRANCH  12  13
ENDBRANCH   5   7
ENDBRANCH   2   3
ENDBRANCH   1   2
BRANCH   1  72
ATOM     72  C   UNL A   1      45.309  39.710  34.175  1.00  0.00     0.023 C 
BRANCH  72  73
ATOM     73  C   UNL A   1      43.933  40.209  34.645  1.00  0.00     0.116 C 
BRANCH  73  74
ATOM     74  N   UNL A   1      43.040  40.441  33.527  1.00  0.00    -0.356 N 
ATOM     75  C   UNL A   1      42.470  41.624  33.138  1.00  0.00     0.224 C 
ATOM     76  H   UNL A   1      42.816  39.653  32.981  1.00  0.00     0.163 HD
ATOM     77  O   UNL A   1      41.361  41.589  32.609  1.00  0.00    -0.275 OA
BRANCH  75  78
ATOM     78  C   UNL A   1      43.209  42.917  33.450  1.00  0.00     0.095 C 
ATOM     79  C   UNL A   1      42.287  44.152  33.438  1.00  0.00     0.041 C 
ATOM     80  C   UNL A   1      44.460  43.166  32.549  1.00  0.00     0.095 C 
ATOM     81  C   UNL A   1      43.069  45.423  33.667  1.00  0.00    -0.030 C 
ATOM     82  C   UNL A   1      45.256  44.272  33.277  1.00  0.00     0.041 C 
ATOM     83  C   UNL A   1      44.412  45.471  33.628  1.00  0.00    -0.030 C 
BRANCH  80  84
ATOM     84  C   UNL A   1      43.994  43.546  31.125  1.00  0.00     0.226 C 
ATOM     85  O   UNL A   1      43.514  44.656  30.896  1.00  0.00    -0.275 OA
ATOM     86  N   UNL A   1      44.242  42.684  30.081  1.00  0.00    -0.339 N 
ATOM     87  C   UNL A   1      44.606  43.264  28.790  1.00  0.00     0.141 C 
ATOM     88  C   UNL A   1      43.823  41.286  30.019  1.00  0.00     0.141 C 
ATOM     89  C   UNL A   1      45.741  42.446  28.166  1.00  0.00     0.141 C 
ATOM     90  C   UNL A   1      44.912  40.426  29.347  1.00  0.00     0.141 C 
ATOM     91  N   UNL A   1      45.389  41.021  28.081  1.00  0.00    -0.334 N 
ATOM     92  C   UNL A   1      45.668  40.338  26.898  1.00  0.00     0.265 C 
ATOM     93  O   UNL A   1      46.250  40.893  25.965  1.00  0.00    -0.268 OA
BRANCH  92  94
ATOM     94  C   UNL A   1      45.294  38.944  26.814  1.00  0.00     0.112 A 
ATOM     95  S   UNL A   1      46.524  37.803  26.512  1.00  0.00    -0.128 S 
ATOM     96  C   UNL A   1      44.052  38.354  26.875  1.00  0.00     0.072 A 
ATOM     97  C   UNL A   1      45.420  36.486  26.545  1.00  0.00     0.043 A 
ATOM     98  C   UNL A   1      44.112  36.918  26.778  1.00  0.00     0.012 A 
ATOM     99  Cl  UNL A   1      42.565  39.197  27.055  1.00  0.00    -0.082 Cl
ATOM    100  C   UNL A   1      45.740  35.126  26.363  1.00  0.00     0.105 A 
ATOM    101  C   UNL A   1      43.094  35.931  26.862  1.00  0.00     0.018 A 
ATOM    102  C   UNL A   1      44.706  34.183  26.441  1.00  0.00     0.270 A 
ATOM    103  C   UNL A   1      43.394  34.574  26.701  1.00  0.00     0.086 A 
BRANCH 102 104
ATOM    104  N   UNL A   1      45.016  32.763  26.238  1.00  0.00     0.062 N 
ATOM    105  O   UNL A   1      44.147  32.052  25.712  1.00  0.00    -0.258 OA
ATOM    106  O   UNL A   1      46.125  32.354  26.608  1.00  0.00    -0.258 OA
ENDBRANCH 102 104
ENDBRANCH  92  94
ENDBRANCH  80  84
ENDBRANCH  75  78
ENDBRANCH  73  74
ENDBRANCH  72  73
ENDBRANCH   1  72
TORSDOF 17
ENDMDL
