MODEL 1
REMARK VINA RESULT:     -14.0      0.000      0.000
REMARK SMILES COc1ccc([C@H]2[NH2+][C@@H](C(=O)NCCCCNC(=O)c3ccc(-c4c5nc(c(-c6cc(S(=O)(=O)[O-])ccc6F)c6ccc([nH]6)c(-c6cc(S(=O)(=O)[O-])ccc6F)c6nc(c(-c7cc(S(=O)(=O)[O-])ccc7F)c7ccc4[nH]7)C=C6)C=C5)cc3)CC3=c4ccccc4=N[C@H]32)cc1Cn1cc([N+](=O)[O-])cn1
REMARK SMILES IDX 14 1 13 2 12 3 10 4 11 5 9 7 7 8 8 9 92 10 84 13 91 14 83 15
REMARK SMILES IDX 85 16 90 17 86 18 89 19 87 20 88 21 6 22 3 23 4 24 94 25
REMARK SMILES IDX 5 26 93 27 2 28 1 29 95 30 96 31 97 32 103 33 98 34 102 35
REMARK SMILES IDX 99 36 100 37 101 38 15 39 16 40 17 41 18 42 19 44 20 45
REMARK SMILES IDX 21 46 82 47 22 48 81 49 23 50 24 51 25 52 75 53 26 54 80 55
REMARK SMILES IDX 74 56 76 57 27 58 79 59 73 60 72 61 28 63 60 64 40 65 59 66
REMARK SMILES IDX 41 67 44 68 58 69 77 70 42 71 43 72 57 74 78 75 45 76 29 77
REMARK SMILES IDX 30 78 38 79 31 80 37 81 39 82 36 83 32 84 33 85 34 86 35 87
REMARK SMILES IDX 61 88 62 89 70 90 63 91 69 92 71 93 68 94 64 95 65 96 66 97
REMARK SMILES IDX 67 98 46 99 47 100 55 101 48 102 54 103 56 104 53 105 49 106
REMARK SMILES IDX 50 107 51 108 52 109
REMARK H PARENT 12 6 8 11 8 12 17 43 76 62 44 73
REMARK Flexibility Score: inf
ROOT
ATOM      1  C   UNL A   1      32.001  28.972  27.244  1.00  0.00     0.023 C 
ENDROOT
BRANCH   1   2
ATOM      2  C   UNL A   1      31.420  27.358  27.278  1.00  0.00     0.116 C 
BRANCH   2   3
ATOM      3  N   UNL A   1      31.876  25.987  26.749  1.00  0.00    -0.351 N 
ATOM      4  C   UNL A   1      32.701  25.200  25.995  1.00  0.00     0.278 C 
ATOM      5  O   UNL A   1      32.282  24.030  25.884  1.00  0.00    -0.268 OA
ATOM      6  H   UNL A   1      31.256  25.348  27.171  1.00  0.00     0.163 HD
BRANCH   4   7
ATOM      7  C   UNL A   1      34.057  25.497  25.270  1.00  0.00     0.277 C 
ATOM      8  C   UNL A   1      32.945  25.253  23.111  1.00  0.00     0.243 C 
ATOM      9  N   UNL A   1      33.991  25.996  23.866  1.00  0.00    -0.327 N 
ATOM     10  C   UNL A   1      33.840  23.692  23.169  1.00  0.00     0.196 C 
ATOM     11  H   UNL A   1      33.763  26.991  23.870  1.00  0.00     0.347 HD
ATOM     12  H   UNL A   1      34.895  25.851  23.416  1.00  0.00     0.347 HD
ATOM     13  C   UNL A   1      34.445  23.287  24.511  1.00  0.00    -0.024 C 
ATOM     14  N   UNL A   1      33.271  22.378  22.692  1.00  0.00    -0.270 NA
ATOM     15  C   UNL A   1      35.023  24.340  25.353  1.00  0.00     0.109 C 
ATOM     16  C   UNL A   1      34.135  22.052  24.882  1.00  0.00     0.002 A 
ATOM     17  C   UNL A   1      33.409  21.560  23.707  1.00  0.00     0.066 A 
ATOM     18  C   UNL A   1      34.069  21.427  26.172  1.00  0.00     0.010 A 
ATOM     19  C   UNL A   1      32.722  20.242  23.916  1.00  0.00     0.028 A 
ATOM     20  C   UNL A   1      33.250  20.373  26.324  1.00  0.00     0.001 A 
ATOM     21  C   UNL A   1      32.584  19.774  25.177  1.00  0.00     0.002 A 
BRANCH   8  22
ATOM     22  C   UNL A   1      31.529  26.024  23.588  1.00  0.00     0.012 A 
ATOM     23  C   UNL A   1      29.083  27.622  23.585  1.00  0.00     0.123 A 
ATOM     24  C   UNL A   1      29.084  26.205  23.528  1.00  0.00     0.047 A 
ATOM     25  C   UNL A   1      30.280  28.296  23.809  1.00  0.00     0.016 A 
ATOM     26  C   UNL A   1      30.269  25.423  23.507  1.00  0.00     0.014 A 
ATOM     27  C   UNL A   1      31.375  27.387  23.956  1.00  0.00     0.019 A 
BRANCH  23  28
ATOM     28  O   UNL A   1      27.825  28.144  23.487  1.00  0.00    -0.496 OA
ATOM     29  C   UNL A   1      26.701  27.377  23.895  1.00  0.00     0.278 C 
ENDBRANCH  23  28
BRANCH  25  30
ATOM     30  C   UNL A   1      30.408  29.852  23.570  1.00  0.00     0.183 C 
BRANCH  30  31
ATOM     31  N   UNL A   1      29.440  30.828  22.949  1.00  0.00    -0.261 N 
ATOM     32  C   UNL A   1      28.779  30.824  21.719  1.00  0.00     0.194 A 
ATOM     33  N   UNL A   1      28.775  31.676  23.782  1.00  0.00    -0.174 NA
ATOM     34  C   UNL A   1      28.097  32.029  21.650  1.00  0.00     0.307 A 
ATOM     35  C   UNL A   1      27.997  32.418  22.982  1.00  0.00     0.220 A 
BRANCH  34  36
ATOM     36  N   UNL A   1      27.694  32.749  20.476  1.00  0.00     0.066 N 
ATOM     37  O   UNL A   1      27.717  32.139  19.401  1.00  0.00    -0.258 OA
ATOM     38  O   UNL A   1      27.273  33.904  20.644  1.00  0.00    -0.258 OA
ENDBRANCH  34  36
ENDBRANCH  30  31
ENDBRANCH  25  30
ENDBRANCH   8  22
ENDBRANCH   4   7
ENDBRANCH   2   3
ENDBRANCH   1   2
BRANCH   1  39
ATOM     39  C   UNL A   1      31.439  30.504  27.196  1.00  0.00     0.023 C 
BRANCH  39  40
ATOM     40  C   UNL A   1      31.910  31.568  26.150  1.00  0.00     0.116 C 
BRANCH  40  41
ATOM     41  N   UNL A   1      32.031  32.891  26.745  1.00  0.00    -0.352 N 
ATOM     42  C   UNL A   1      32.898  33.436  27.661  1.00  0.00     0.251 C 
ATOM     43  H   UNL A   1      31.350  33.527  26.425  1.00  0.00     0.163 HD
ATOM     44  O   UNL A   1      32.546  34.492  28.193  1.00  0.00    -0.269 OA
BRANCH  42  45
ATOM     45  C   UNL A   1      34.206  32.844  28.065  1.00  0.00     0.039 A 
ATOM     46  C   UNL A   1      34.181  31.538  28.583  1.00  0.00     0.014 A 
ATOM     47  C   UNL A   1      35.405  33.558  28.129  1.00  0.00     0.014 A 
ATOM     48  C   UNL A   1      35.331  30.949  29.135  1.00  0.00     0.010 A 
ATOM     49  C   UNL A   1      36.567  32.954  28.657  1.00  0.00     0.010 A 
ATOM     50  C   UNL A   1      36.543  31.648  29.183  1.00  0.00    -0.014 A 
BRANCH  50  51
ATOM     51  C   UNL A   1      37.736  31.045  29.865  1.00  0.00     0.031 A 
ATOM     52  C   UNL A   1      38.053  31.407  31.297  1.00  0.00     0.074 A 
ATOM     53  C   UNL A   1      38.525  30.149  29.231  1.00  0.00     0.049 A 
ATOM     54  N   UNL A   1      39.046  31.017  32.058  1.00  0.00    -0.248 NA
ATOM     55  C   UNL A   1      37.135  32.351  31.951  1.00  0.00     0.031 C 
ATOM     56  C   UNL A   1      38.342  29.698  27.852  1.00  0.00     0.029 A 
ATOM     57  N   UNL A   1      39.631  29.449  29.658  1.00  0.00    -0.354 N 
ATOM     58  C   UNL A   1      38.882  31.678  33.274  1.00  0.00     0.074 A 
ATOM     59  C   UNL A   1      37.727  32.538  33.122  1.00  0.00     0.031 C 
ATOM     60  C   UNL A   1      39.278  28.781  27.557  1.00  0.00     0.029 A 
ATOM     61  C   UNL A   1      40.164  28.608  28.705  1.00  0.00     0.049 A 
ATOM     62  H   UNL A   1      40.008  29.543  30.563  1.00  0.00     0.167 HD
ATOM     63  C   UNL A   1      39.607  31.567  34.417  1.00  0.00     0.034 A 
ATOM     64  C   UNL A   1      41.246  27.800  28.741  1.00  0.00     0.034 A 
ATOM     65  C   UNL A   1      40.747  30.694  34.570  1.00  0.00     0.049 A 
ATOM     66  C   UNL A   1      42.069  27.730  30.007  1.00  0.00     0.074 A 
ATOM     67  C   UNL A   1      41.529  30.483  35.694  1.00  0.00     0.029 A 
ATOM     68  N   UNL A   1      41.271  29.885  33.570  1.00  0.00    -0.354 N 
ATOM     69  N   UNL A   1      41.884  28.352  31.149  1.00  0.00    -0.248 NA
ATOM     70  C   UNL A   1      43.243  26.846  29.991  1.00  0.00     0.031 C 
ATOM     71  C   UNL A   1      42.560  29.601  35.357  1.00  0.00     0.029 A 
ATOM     72  C   UNL A   1      42.380  29.198  34.043  1.00  0.00     0.049 A 
ATOM     73  H   UNL A   1      40.909  29.809  32.658  1.00  0.00     0.167 HD
ATOM     74  C   UNL A   1      42.899  27.906  31.992  1.00  0.00     0.074 A 
ATOM     75  C   UNL A   1      43.684  26.954  31.236  1.00  0.00     0.031 C 
ATOM     76  C   UNL A   1      43.158  28.252  33.279  1.00  0.00     0.034 A 
BRANCH  63  77
ATOM     77  C   UNL A   1      39.201  32.436  35.588  1.00  0.00     0.023 A 
ATOM     78  C   UNL A   1      39.625  33.772  35.698  1.00  0.00     0.031 A 
ATOM     79  C   UNL A   1      38.400  31.916  36.621  1.00  0.00     0.131 A 
ATOM     80  C   UNL A   1      39.325  34.511  36.852  1.00  0.00     0.055 A 
ATOM     81  C   UNL A   1      38.030  32.687  37.726  1.00  0.00     0.041 A 
ATOM     82  F   UNL A   1      37.974  30.644  36.583  1.00  0.00    -0.206 F 
ATOM     83  C   UNL A   1      38.508  33.987  37.856  1.00  0.00     0.022 A 
BRANCH  80  84
ATOM     84  S   UNL A   1      40.146  36.111  37.089  1.00  0.00     0.124 S 
ATOM     85  O   UNL A   1      39.406  36.657  38.224  1.00  0.00    -0.237 OA
ATOM     86  O   UNL A   1      41.526  35.725  37.347  1.00  0.00    -0.237 OA
ATOM     87  O   UNL A   1      39.918  36.803  35.817  1.00  0.00    -0.744 OA
ENDBRANCH  80  84
ENDBRANCH  63  77
BRANCH  64  88
ATOM     88  C   UNL A   1      41.644  27.001  27.543  1.00  0.00     0.023 A 
ATOM     89  C   UNL A   1      41.411  25.616  27.481  1.00  0.00     0.031 A 
ATOM     90  C   UNL A   1      42.330  27.597  26.468  1.00  0.00     0.131 A 
ATOM     91  C   UNL A   1      41.901  24.868  26.398  1.00  0.00     0.055 A 
ATOM     92  C   UNL A   1      42.764  26.858  25.365  1.00  0.00     0.041 A 
ATOM     93  F   UNL A   1      42.587  28.915  26.473  1.00  0.00    -0.206 F 
ATOM     94  C   UNL A   1      42.563  25.482  25.333  1.00  0.00     0.022 A 
BRANCH  91  95
ATOM     95  S   UNL A   1      41.755  23.059  26.450  1.00  0.00     0.124 S 
ATOM     96  O   UNL A   1      42.494  22.737  27.665  1.00  0.00    -0.237 OA
ATOM     97  O   UNL A   1      40.309  22.875  26.509  1.00  0.00    -0.237 OA
ATOM     98  O   UNL A   1      42.386  22.632  25.203  1.00  0.00    -0.744 OA
ENDBRANCH  91  95
ENDBRANCH  64  88
BRANCH  76  99
ATOM     99  C   UNL A   1      44.310  27.556  33.965  1.00  0.00     0.023 A 
ATOM    100  C   UNL A   1      44.151  26.316  34.608  1.00  0.00     0.031 A 
ATOM    101  C   UNL A   1      45.588  28.145  33.971  1.00  0.00     0.131 A 
ATOM    102  C   UNL A   1      45.239  25.727  35.271  1.00  0.00     0.055 A 
ATOM    103  C   UNL A   1      46.680  27.528  34.582  1.00  0.00     0.041 A 
ATOM    104  F   UNL A   1      45.797  29.331  33.375  1.00  0.00    -0.206 F 
ATOM    105  C   UNL A   1      46.506  26.317  35.247  1.00  0.00     0.022 A 
BRANCH 102 106
ATOM    106  S   UNL A   1      44.962  24.216  36.234  1.00  0.00     0.124 S 
ATOM    107  O   UNL A   1      43.822  23.621  35.544  1.00  0.00    -0.237 OA
ATOM    108  O   UNL A   1      46.233  23.513  36.088  1.00  0.00    -0.237 OA
ATOM    109  O   UNL A   1      44.681  24.712  37.580  1.00  0.00    -0.744 OA
ENDBRANCH 102 106
ENDBRANCH  76  99
ENDBRANCH  50  51
ENDBRANCH  42  45
ENDBRANCH  40  41
ENDBRANCH  39  40
ENDBRANCH   1  39
TORSDOF 19
ENDMDL
MODEL 2
REMARK VINA RESULT:     -13.5      4.902     11.055
REMARK SMILES COc1ccc([C@H]2[NH2+][C@@H](C(=O)NCCCCNC(=O)c3ccc(-c4c5nc(c(-c6cc(S(=O)(=O)[O-])ccc6F)c6ccc([nH]6)c(-c6cc(S(=O)(=O)[O-])ccc6F)c6nc(c(-c7cc(S(=O)(=O)[O-])ccc7F)c7ccc4[nH]7)C=C6)C=C5)cc3)CC3=c4ccccc4=N[C@H]32)cc1Cn1cc([N+](=O)[O-])cn1
REMARK SMILES IDX 14 1 13 2 12 3 10 4 11 5 9 7 7 8 8 9 92 10 84 13 91 14 83 15
REMARK SMILES IDX 85 16 90 17 86 18 89 19 87 20 88 21 6 22 3 23 4 24 94 25
REMARK SMILES IDX 5 26 93 27 2 28 1 29 95 30 96 31 97 32 103 33 98 34 102 35
REMARK SMILES IDX 99 36 100 37 101 38 15 39 16 40 17 41 18 42 19 44 20 45
REMARK SMILES IDX 21 46 82 47 22 48 81 49 23 50 24 51 25 52 75 53 26 54 80 55
REMARK SMILES IDX 74 56 76 57 27 58 79 59 73 60 72 61 28 63 60 64 40 65 59 66
REMARK SMILES IDX 41 67 44 68 58 69 77 70 42 71 43 72 57 74 78 75 45 76 29 77
REMARK SMILES IDX 30 78 38 79 31 80 37 81 39 82 36 83 32 84 33 85 34 86 35 87
REMARK SMILES IDX 61 88 62 89 70 90 63 91 69 92 71 93 68 94 64 95 65 96 66 97
REMARK SMILES IDX 67 98 46 99 47 100 55 101 48 102 54 103 56 104 53 105 49 106
REMARK SMILES IDX 50 107 51 108 52 109
REMARK H PARENT 12 6 8 11 8 12 17 43 76 62 44 73
REMARK Flexibility Score: inf
ROOT
ATOM      1  C   UNL A   1      36.728  22.846  24.080  1.00  0.00     0.023 C 
ENDROOT
BRANCH   1   2
ATOM      2  C   UNL A   1      35.657  23.686  23.036  1.00  0.00     0.116 C 
BRANCH   2   3
ATOM      3  N   UNL A   1      34.484  24.673  23.184  1.00  0.00    -0.351 N 
ATOM      4  C   UNL A   1      33.597  25.385  23.943  1.00  0.00     0.278 C 
ATOM      5  O   UNL A   1      32.679  25.887  23.265  1.00  0.00    -0.268 OA
ATOM      6  H   UNL A   1      34.257  24.916  22.258  1.00  0.00     0.163 HD
BRANCH   4   7
ATOM      7  C   UNL A   1      33.538  25.685  25.478  1.00  0.00     0.277 C 
ATOM      8  C   UNL A   1      31.548  24.284  25.665  1.00  0.00     0.243 C 
ATOM      9  N   UNL A   1      32.802  24.715  26.341  1.00  0.00    -0.327 N 
ATOM     10  C   UNL A   1      30.784  25.911  25.778  1.00  0.00     0.196 C 
ATOM     11  H   UNL A   1      33.392  23.900  26.512  1.00  0.00     0.347 HD
ATOM     12  H   UNL A   1      32.568  25.164  27.227  1.00  0.00     0.347 HD
ATOM     13  C   UNL A   1      31.647  27.111  25.399  1.00  0.00    -0.024 C 
ATOM     14  N   UNL A   1      29.472  26.271  25.125  1.00  0.00    -0.270 NA
ATOM     15  C   UNL A   1      33.065  27.088  25.775  1.00  0.00     0.109 C 
ATOM     16  C   UNL A   1      31.069  27.928  24.529  1.00  0.00     0.002 A 
ATOM     17  C   UNL A   1      29.731  27.339  24.410  1.00  0.00     0.066 A 
ATOM     18  C   UNL A   1      31.612  28.857  23.580  1.00  0.00     0.010 A 
ATOM     19  C   UNL A   1      28.900  27.919  23.303  1.00  0.00     0.028 A 
ATOM     20  C   UNL A   1      30.878  29.155  22.493  1.00  0.00     0.001 A 
ATOM     21  C   UNL A   1      29.505  28.686  22.370  1.00  0.00     0.002 A 
BRANCH   8  22
ATOM     22  C   UNL A   1      32.093  23.112  24.590  1.00  0.00     0.012 A 
ATOM     23  C   UNL A   1      32.526  20.572  23.212  1.00  0.00     0.123 A 
ATOM     24  C   UNL A   1      31.673  21.590  22.714  1.00  0.00     0.047 A 
ATOM     25  C   UNL A   1      33.322  20.835  24.324  1.00  0.00     0.016 A 
ATOM     26  C   UNL A   1      31.441  22.817  23.389  1.00  0.00     0.014 A 
ATOM     27  C   UNL A   1      33.134  22.170  24.802  1.00  0.00     0.019 A 
BRANCH  23  28
ATOM     28  O   UNL A   1      32.502  19.449  22.437  1.00  0.00    -0.496 OA
ATOM     29  C   UNL A   1      31.852  19.467  21.173  1.00  0.00     0.278 C 
ENDBRANCH  23  28
BRANCH  25  30
ATOM     30  C   UNL A   1      34.043  19.673  25.114  1.00  0.00     0.183 C 
BRANCH  30  31
ATOM     31  N   UNL A   1      33.858  18.177  25.038  1.00  0.00    -0.261 N 
ATOM     32  C   UNL A   1      32.767  17.361  25.344  1.00  0.00     0.194 A 
ATOM     33  N   UNL A   1      34.693  17.477  24.221  1.00  0.00    -0.174 NA
ATOM     34  C   UNL A   1      33.209  16.058  25.178  1.00  0.00     0.307 A 
ATOM     35  C   UNL A   1      34.314  16.197  24.343  1.00  0.00     0.220 A 
BRANCH  34  36
ATOM     36  N   UNL A   1      32.710  14.869  25.808  1.00  0.00     0.066 N 
ATOM     37  O   UNL A   1      31.800  15.005  26.634  1.00  0.00    -0.258 OA
ATOM     38  O   UNL A   1      33.172  13.788  25.412  1.00  0.00    -0.258 OA
ENDBRANCH  34  36
ENDBRANCH  30  31
ENDBRANCH  25  30
ENDBRANCH   8  22
ENDBRANCH   4   7
ENDBRANCH   2   3
ENDBRANCH   1   2
BRANCH   1  39
ATOM     39  C   UNL A   1      37.319  21.343  24.322  1.00  0.00     0.023 C 
BRANCH  39  40
ATOM     40  C   UNL A   1      37.425  20.670  25.731  1.00  0.00     0.116 C 
BRANCH  40  41
ATOM     41  N   UNL A   1      38.684  19.957  25.892  1.00  0.00    -0.352 N 
ATOM     42  C   UNL A   1      39.962  20.360  26.192  1.00  0.00     0.251 C 
ATOM     43  H   UNL A   1      38.602  18.985  25.759  1.00  0.00     0.163 HD
ATOM     44  O   UNL A   1      40.865  19.555  25.949  1.00  0.00    -0.269 OA
BRANCH  42  45
ATOM     45  C   UNL A   1      40.335  21.686  26.765  1.00  0.00     0.039 A 
ATOM     46  C   UNL A   1      39.812  22.824  26.129  1.00  0.00     0.014 A 
ATOM     47  C   UNL A   1      41.295  21.868  27.763  1.00  0.00     0.014 A 
ATOM     48  C   UNL A   1      40.223  24.117  26.491  1.00  0.00     0.010 A 
ATOM     49  C   UNL A   1      41.686  23.170  28.147  1.00  0.00     0.010 A 
ATOM     50  C   UNL A   1      41.169  24.312  27.505  1.00  0.00    -0.014 A 
BRANCH  50  51
ATOM     51  C   UNL A   1      41.672  25.692  27.814  1.00  0.00     0.031 A 
ATOM     52  C   UNL A   1      43.021  26.138  27.301  1.00  0.00     0.074 A 
ATOM     53  C   UNL A   1      40.924  26.567  28.521  1.00  0.00     0.049 A 
ATOM     54  N   UNL A   1      43.648  27.275  27.474  1.00  0.00    -0.248 NA
ATOM     55  C   UNL A   1      43.772  25.160  26.499  1.00  0.00     0.031 C 
ATOM     56  C   UNL A   1      39.602  26.283  29.077  1.00  0.00     0.029 A 
ATOM     57  N   UNL A   1      41.158  27.874  28.889  1.00  0.00    -0.354 N 
ATOM     58  C   UNL A   1      44.871  27.146  26.818  1.00  0.00     0.074 A 
ATOM     59  C   UNL A   1      44.916  25.796  26.296  1.00  0.00     0.031 C 
ATOM     60  C   UNL A   1      39.130  27.384  29.686  1.00  0.00     0.029 A 
ATOM     61  C   UNL A   1      40.132  28.444  29.611  1.00  0.00     0.049 A 
ATOM     62  H   UNL A   1      41.984  28.356  28.657  1.00  0.00     0.167 HD
ATOM     63  C   UNL A   1      45.854  28.066  26.644  1.00  0.00     0.034 A 
ATOM     64  C   UNL A   1      40.012  29.671  30.162  1.00  0.00     0.034 A 
ATOM     65  C   UNL A   1      45.796  29.418  27.150  1.00  0.00     0.049 A 
ATOM     66  C   UNL A   1      41.141  30.663  30.001  1.00  0.00     0.074 A 
ATOM     67  C   UNL A   1      46.723  30.436  27.001  1.00  0.00     0.029 A 
ATOM     68  N   UNL A   1      44.754  29.942  27.903  1.00  0.00    -0.354 N 
ATOM     69  N   UNL A   1      42.280  30.523  29.362  1.00  0.00    -0.248 NA
ATOM     70  C   UNL A   1      40.967  31.980  30.631  1.00  0.00     0.031 C 
ATOM     71  C   UNL A   1      46.274  31.551  27.716  1.00  0.00     0.029 A 
ATOM     72  C   UNL A   1      45.029  31.257  28.249  1.00  0.00     0.049 A 
ATOM     73  H   UNL A   1      43.938  29.452  28.155  1.00  0.00     0.167 HD
ATOM     74  C   UNL A   1      42.937  31.745  29.486  1.00  0.00     0.074 A 
ATOM     75  C   UNL A   1      42.065  32.613  30.247  1.00  0.00     0.031 C 
ATOM     76  C   UNL A   1      44.154  32.115  29.012  1.00  0.00     0.034 A 
BRANCH  63  77
ATOM     77  C   UNL A   1      47.094  27.628  25.894  1.00  0.00     0.023 A 
ATOM     78  C   UNL A   1      47.285  27.943  24.537  1.00  0.00     0.031 A 
ATOM     79  C   UNL A   1      48.086  26.864  26.534  1.00  0.00     0.131 A 
ATOM     80  C   UNL A   1      48.389  27.424  23.844  1.00  0.00     0.055 A 
ATOM     81  C   UNL A   1      49.229  26.425  25.860  1.00  0.00     0.041 A 
ATOM     82  F   UNL A   1      47.957  26.517  27.825  1.00  0.00    -0.206 F 
ATOM     83  C   UNL A   1      49.377  26.689  24.503  1.00  0.00     0.022 A 
BRANCH  80  84
ATOM     84  S   UNL A   1      48.434  27.597  22.039  1.00  0.00     0.124 S 
ATOM     85  O   UNL A   1      49.546  28.525  21.859  1.00  0.00    -0.237 OA
ATOM     86  O   UNL A   1      48.660  26.229  21.595  1.00  0.00    -0.237 OA
ATOM     87  O   UNL A   1      47.114  28.148  21.717  1.00  0.00    -0.744 OA
ENDBRANCH  80  84
ENDBRANCH  63  77
BRANCH  64  88
ATOM     88  C   UNL A   1      38.793  30.043  30.944  1.00  0.00     0.023 A 
ATOM     89  C   UNL A   1      37.754  30.788  30.360  1.00  0.00     0.031 A 
ATOM     90  C   UNL A   1      38.679  29.721  32.309  1.00  0.00     0.131 A 
ATOM     91  C   UNL A   1      36.676  31.228  31.146  1.00  0.00     0.055 A 
ATOM     92  C   UNL A   1      37.576  30.109  33.072  1.00  0.00     0.041 A 
ATOM     93  F   UNL A   1      39.643  29.016  32.923  1.00  0.00    -0.206 F 
ATOM     94  C   UNL A   1      36.573  30.880  32.495  1.00  0.00     0.022 A 
BRANCH  91  95
ATOM     95  S   UNL A   1      35.458  32.352  30.406  1.00  0.00     0.124 S 
ATOM     96  O   UNL A   1      35.257  31.749  29.093  1.00  0.00    -0.237 OA
ATOM     97  O   UNL A   1      34.343  32.246  31.340  1.00  0.00    -0.237 OA
ATOM     98  O   UNL A   1      36.146  33.642  30.401  1.00  0.00    -0.744 OA
ENDBRANCH  91  95
ENDBRANCH  64  88
BRANCH  76  99
ATOM     99  C   UNL A   1      44.589  33.540  29.260  1.00  0.00     0.023 A 
ATOM    100  C   UNL A   1      44.218  34.589  28.401  1.00  0.00     0.031 A 
ATOM    101  C   UNL A   1      45.386  33.850  30.377  1.00  0.00     0.131 A 
ATOM    102  C   UNL A   1      44.683  35.891  28.646  1.00  0.00     0.055 A 
ATOM    103  C   UNL A   1      45.798  35.156  30.648  1.00  0.00     0.041 A 
ATOM    104  F   UNL A   1      45.773  32.887  31.229  1.00  0.00    -0.206 F 
ATOM    105  C   UNL A   1      45.456  36.184  29.774  1.00  0.00     0.022 A 
BRANCH 102 106
ATOM    106  S   UNL A   1      44.330  37.188  27.429  1.00  0.00     0.124 S 
ATOM    107  O   UNL A   1      45.602  37.295  26.720  1.00  0.00    -0.237 OA
ATOM    108  O   UNL A   1      43.224  36.613  26.670  1.00  0.00    -0.237 OA
ATOM    109  O   UNL A   1      43.980  38.346  28.251  1.00  0.00    -0.744 OA
ENDBRANCH 102 106
ENDBRANCH  76  99
ENDBRANCH  50  51
ENDBRANCH  42  45
ENDBRANCH  40  41
ENDBRANCH  39  40
ENDBRANCH   1  39
TORSDOF 19
ENDMDL
MODEL 3
REMARK VINA RESULT:     -13.2      2.293      2.935
REMARK SMILES COc1ccc([C@H]2[NH2+][C@@H](C(=O)NCCCCNC(=O)c3ccc(-c4c5nc(c(-c6cc(S(=O)(=O)[O-])ccc6F)c6ccc([nH]6)c(-c6cc(S(=O)(=O)[O-])ccc6F)c6nc(c(-c7cc(S(=O)(=O)[O-])ccc7F)c7ccc4[nH]7)C=C6)C=C5)cc3)CC3=c4ccccc4=N[C@H]32)cc1Cn1cc([N+](=O)[O-])cn1
REMARK SMILES IDX 14 1 13 2 12 3 10 4 11 5 9 7 7 8 8 9 92 10 84 13 91 14 83 15
REMARK SMILES IDX 85 16 90 17 86 18 89 19 87 20 88 21 6 22 3 23 4 24 94 25
REMARK SMILES IDX 5 26 93 27 2 28 1 29 95 30 96 31 97 32 103 33 98 34 102 35
REMARK SMILES IDX 99 36 100 37 101 38 15 39 16 40 17 41 18 42 19 44 20 45
REMARK SMILES IDX 21 46 82 47 22 48 81 49 23 50 24 51 25 52 75 53 26 54 80 55
REMARK SMILES IDX 74 56 76 57 27 58 79 59 73 60 72 61 28 63 60 64 40 65 59 66
REMARK SMILES IDX 41 67 44 68 58 69 77 70 42 71 43 72 57 74 78 75 45 76 29 77
REMARK SMILES IDX 30 78 38 79 31 80 37 81 39 82 36 83 32 84 33 85 34 86 35 87
REMARK SMILES IDX 61 88 62 89 70 90 63 91 69 92 71 93 68 94 64 95 65 96 66 97
REMARK SMILES IDX 67 98 46 99 47 100 55 101 48 102 54 103 56 104 53 105 49 106
REMARK SMILES IDX 50 107 51 108 52 109
REMARK H PARENT 12 6 8 11 8 12 17 43 76 62 44 73
REMARK Flexibility Score: inf
ROOT
ATOM      1  C   UNL A   1      32.624  28.438  27.348  1.00  0.00     0.023 C 
ENDROOT
BRANCH   1   2
ATOM      2  C   UNL A   1      31.803  26.956  27.082  1.00  0.00     0.116 C 
BRANCH   2   3
ATOM      3  N   UNL A   1      32.147  25.564  26.523  1.00  0.00    -0.351 N 
ATOM      4  C   UNL A   1      32.866  24.738  25.705  1.00  0.00     0.278 C 
ATOM      5  O   UNL A   1      32.384  23.589  25.637  1.00  0.00    -0.268 OA
ATOM      6  H   UNL A   1      31.535  24.956  27.000  1.00  0.00     0.163 HD
BRANCH   4   7
ATOM      7  C   UNL A   1      34.167  24.970  24.865  1.00  0.00     0.277 C 
ATOM      8  C   UNL A   1      32.843  24.905  22.815  1.00  0.00     0.243 C 
ATOM      9  N   UNL A   1      34.008  25.535  23.494  1.00  0.00    -0.327 N 
ATOM     10  C   UNL A   1      33.618  23.282  22.726  1.00  0.00     0.196 C 
ATOM     11  H   UNL A   1      33.858  26.542  23.559  1.00  0.00     0.347 HD
ATOM     12  H   UNL A   1      34.853  25.346  22.953  1.00  0.00     0.347 HD
ATOM     13  C   UNL A   1      34.313  22.774  23.987  1.00  0.00    -0.024 C 
ATOM     14  N   UNL A   1      32.909  22.035  22.256  1.00  0.00    -0.270 NA
ATOM     15  C   UNL A   1      35.045  23.743  24.810  1.00  0.00     0.109 C 
ATOM     16  C   UNL A   1      33.946  21.549  24.338  1.00  0.00     0.002 A 
ATOM     17  C   UNL A   1      33.078  21.164  23.221  1.00  0.00     0.066 A 
ATOM     18  C   UNL A   1      33.954  20.872  25.604  1.00  0.00     0.010 A 
ATOM     19  C   UNL A   1      32.315  19.891  23.444  1.00  0.00     0.028 A 
ATOM     20  C   UNL A   1      33.074  19.874  25.794  1.00  0.00     0.001 A 
ATOM     21  C   UNL A   1      32.261  19.377  24.693  1.00  0.00     0.002 A 
BRANCH   8  22
ATOM     22  C   UNL A   1      31.541  25.753  23.456  1.00  0.00     0.012 A 
ATOM     23  C   UNL A   1      29.167  27.434  23.730  1.00  0.00     0.123 A 
ATOM     24  C   UNL A   1      29.122  26.017  23.767  1.00  0.00     0.047 A 
ATOM     25  C   UNL A   1      30.401  28.077  23.720  1.00  0.00     0.016 A 
ATOM     26  C   UNL A   1      30.269  25.193  23.612  1.00  0.00     0.014 A 
ATOM     27  C   UNL A   1      31.482  27.140  23.754  1.00  0.00     0.019 A 
BRANCH  23  28
ATOM     28  O   UNL A   1      27.923  27.994  23.796  1.00  0.00    -0.496 OA
ATOM     29  C   UNL A   1      26.768  27.166  23.814  1.00  0.00     0.278 C 
ENDBRANCH  23  28
BRANCH  25  30
ATOM     30  C   UNL A   1      30.529  29.610  23.363  1.00  0.00     0.183 C 
BRANCH  30  31
ATOM     31  N   UNL A   1      29.502  30.580  22.833  1.00  0.00    -0.261 N 
ATOM     32  C   UNL A   1      28.803  30.622  21.625  1.00  0.00     0.194 A 
ATOM     33  N   UNL A   1      28.830  31.346  23.736  1.00  0.00    -0.174 NA
ATOM     34  C   UNL A   1      28.071  31.798  21.650  1.00  0.00     0.307 A 
ATOM     35  C   UNL A   1      27.996  32.101  23.006  1.00  0.00     0.220 A 
BRANCH  34  36
ATOM     36  N   UNL A   1      27.601  32.570  20.535  1.00  0.00     0.066 N 
ATOM     37  O   UNL A   1      27.391  31.968  19.477  1.00  0.00    -0.258 OA
ATOM     38  O   UNL A   1      27.361  33.769  20.745  1.00  0.00    -0.258 OA
ENDBRANCH  34  36
ENDBRANCH  30  31
ENDBRANCH  25  30
ENDBRANCH   8  22
ENDBRANCH   4   7
ENDBRANCH   2   3
ENDBRANCH   1   2
BRANCH   1  39
ATOM     39  C   UNL A   1      32.388  30.047  27.193  1.00  0.00     0.023 C 
BRANCH  39  40
ATOM     40  C   UNL A   1      33.513  31.053  26.783  1.00  0.00     0.116 C 
BRANCH  40  41
ATOM     41  N   UNL A   1      33.662  32.121  27.760  1.00  0.00    -0.352 N 
ATOM     42  C   UNL A   1      34.556  32.348  28.778  1.00  0.00     0.251 C 
ATOM     43  H   UNL A   1      32.981  32.828  27.674  1.00  0.00     0.163 HD
ATOM     44  O   UNL A   1      34.228  33.185  29.623  1.00  0.00    -0.269 OA
BRANCH  42  45
ATOM     45  C   UNL A   1      35.866  31.656  28.943  1.00  0.00     0.039 A 
ATOM     46  C   UNL A   1      35.842  30.376  29.522  1.00  0.00     0.014 A 
ATOM     47  C   UNL A   1      37.107  32.261  28.727  1.00  0.00     0.014 A 
ATOM     48  C   UNL A   1      37.028  29.705  29.863  1.00  0.00     0.010 A 
ATOM     49  C   UNL A   1      38.300  31.573  29.043  1.00  0.00     0.010 A 
ATOM     50  C   UNL A   1      38.277  30.293  29.631  1.00  0.00    -0.014 A 
BRANCH  50  51
ATOM     51  C   UNL A   1      39.532  29.609  30.090  1.00  0.00     0.031 A 
ATOM     52  C   UNL A   1      40.234  30.079  31.343  1.00  0.00     0.074 A 
ATOM     53  C   UNL A   1      40.035  28.549  29.421  1.00  0.00     0.049 A 
ATOM     54  N   UNL A   1      41.339  29.641  31.897  1.00  0.00    -0.248 NA
ATOM     55  C   UNL A   1      39.617  31.206  32.056  1.00  0.00     0.031 C 
ATOM     56  C   UNL A   1      39.465  27.980  28.201  1.00  0.00     0.029 A 
ATOM     57  N   UNL A   1      41.132  27.754  29.670  1.00  0.00    -0.354 N 
ATOM     58  C   UNL A   1      41.557  30.447  33.012  1.00  0.00     0.074 A 
ATOM     59  C   UNL A   1      40.499  31.436  33.017  1.00  0.00     0.031 C 
ATOM     60  C   UNL A   1      40.194  26.915  27.825  1.00  0.00     0.029 A 
ATOM     61  C   UNL A   1      41.315  26.748  28.746  1.00  0.00     0.049 A 
ATOM     62  H   UNL A   1      41.731  27.893  30.439  1.00  0.00     0.167 HD
ATOM     63  C   UNL A   1      42.529  30.363  33.957  1.00  0.00     0.034 A 
ATOM     64  C   UNL A   1      42.278  25.807  28.640  1.00  0.00     0.034 A 
ATOM     65  C   UNL A   1      43.570  29.362  33.959  1.00  0.00     0.049 A 
ATOM     66  C   UNL A   1      43.380  25.763  29.673  1.00  0.00     0.074 A 
ATOM     67  C   UNL A   1      44.581  29.170  34.885  1.00  0.00     0.029 A 
ATOM     68  N   UNL A   1      43.736  28.384  32.986  1.00  0.00    -0.354 N 
ATOM     69  N   UNL A   1      43.555  26.526  30.728  1.00  0.00    -0.248 NA
ATOM     70  C   UNL A   1      44.411  24.728  29.505  1.00  0.00     0.031 C 
ATOM     71  C   UNL A   1      45.394  28.121  34.442  1.00  0.00     0.029 A 
ATOM     72  C   UNL A   1      44.848  27.607  33.277  1.00  0.00     0.049 A 
ATOM     73  H   UNL A   1      43.151  28.260  32.205  1.00  0.00     0.167 HD
ATOM     74  C   UNL A   1      44.696  26.039  31.363  1.00  0.00     0.074 A 
ATOM     75  C   UNL A   1      45.158  24.910  30.584  1.00  0.00     0.031 C 
ATOM     76  C   UNL A   1      45.304  26.484  32.491  1.00  0.00     0.034 A 
BRANCH  63  77
ATOM     77  C   UNL A   1      42.524  31.402  35.057  1.00  0.00     0.023 A 
ATOM     78  C   UNL A   1      41.493  31.463  36.011  1.00  0.00     0.031 A 
ATOM     79  C   UNL A   1      43.549  32.362  35.139  1.00  0.00     0.131 A 
ATOM     80  C   UNL A   1      41.461  32.509  36.945  1.00  0.00     0.055 A 
ATOM     81  C   UNL A   1      43.558  33.349  36.128  1.00  0.00     0.041 A 
ATOM     82  F   UNL A   1      44.556  32.368  34.250  1.00  0.00    -0.206 F 
ATOM     83  C   UNL A   1      42.501  33.438  37.028  1.00  0.00     0.022 A 
BRANCH  80  84
ATOM     84  S   UNL A   1      39.965  32.725  37.947  1.00  0.00     0.124 S 
ATOM     85  O   UNL A   1      40.465  32.439  39.289  1.00  0.00    -0.237 OA
ATOM     86  O   UNL A   1      39.600  34.109  37.679  1.00  0.00    -0.237 OA
ATOM     87  O   UNL A   1      39.045  31.721  37.407  1.00  0.00    -0.744 OA
ENDBRANCH  80  84
ENDBRANCH  63  77
BRANCH  64  88
ATOM     88  C   UNL A   1      42.275  24.834  27.505  1.00  0.00     0.023 A 
ATOM     89  C   UNL A   1      41.482  23.675  27.542  1.00  0.00     0.031 A 
ATOM     90  C   UNL A   1      43.121  25.012  26.394  1.00  0.00     0.131 A 
ATOM     91  C   UNL A   1      41.586  22.717  26.520  1.00  0.00     0.055 A 
ATOM     92  C   UNL A   1      43.178  24.086  25.350  1.00  0.00     0.041 A 
ATOM     93  F   UNL A   1      43.907  26.097  26.305  1.00  0.00    -0.206 F 
ATOM     94  C   UNL A   1      42.418  22.923  25.417  1.00  0.00     0.022 A 
BRANCH  91  95
ATOM     95  S   UNL A   1      40.696  21.146  26.702  1.00  0.00     0.124 S 
ATOM     96  O   UNL A   1      39.355  21.512  26.263  1.00  0.00    -0.237 OA
ATOM     97  O   UNL A   1      41.448  20.268  25.813  1.00  0.00    -0.237 OA
ATOM     98  O   UNL A   1      40.827  20.846  28.127  1.00  0.00    -0.744 OA
ENDBRANCH  91  95
ENDBRANCH  64  88
BRANCH  76  99
ATOM     99  C   UNL A   1      46.510  25.715  32.978  1.00  0.00     0.023 A 
ATOM    100  C   UNL A   1      47.796  25.948  32.460  1.00  0.00     0.031 A 
ATOM    101  C   UNL A   1      46.367  24.735  33.977  1.00  0.00     0.131 A 
ATOM    102  C   UNL A   1      48.881  25.178  32.910  1.00  0.00     0.055 A 
ATOM    103  C   UNL A   1      47.458  24.013  34.461  1.00  0.00     0.041 A 
ATOM    104  F   UNL A   1      45.160  24.469  34.505  1.00  0.00    -0.206 F 
ATOM    105  C   UNL A   1      48.722  24.225  33.919  1.00  0.00     0.022 A 
BRANCH 102 106
ATOM    106  S   UNL A   1      50.492  25.384  32.103  1.00  0.00     0.124 S 
ATOM    107  O   UNL A   1      50.190  26.366  31.066  1.00  0.00    -0.237 OA
ATOM    108  O   UNL A   1      51.334  25.853  33.199  1.00  0.00    -0.237 OA
ATOM    109  O   UNL A   1      50.806  24.042  31.613  1.00  0.00    -0.744 OA
ENDBRANCH 102 106
ENDBRANCH  76  99
ENDBRANCH  50  51
ENDBRANCH  42  45
ENDBRANCH  40  41
ENDBRANCH  39  40
ENDBRANCH   1  39
TORSDOF 19
ENDMDL
