MODEL 1
REMARK VINA RESULT:     -11.4      0.000      0.000
REMARK SMILES CC[C@H]1CCCC[C@@H]1C1(C(=O)NCCCCNC(=O)c2ccc(-c3c4nc(c(-c5cc(S(=O)(=O)[O-])ccc5F)c5ccc([nH]5)c(-c5cc(S(=O)(=O)[O-])ccc5F)c5nc(c(-c6cc(S(=O)(=O)[O-])ccc6F)c6ccc3[nH]6)C=C5)C=C4)cc2)CC1
REMARK SMILES IDX 15 1 14 2 13 3 12 4 10 5 11 6 9 8 83 9 84 10 8 11 3 12 4 13
REMARK SMILES IDX 5 14 7 15 6 16 2 17 1 18 16 19 17 20 18 21 19 23 20 24 21 25
REMARK SMILES IDX 82 26 22 27 81 28 23 29 24 30 25 31 75 32 26 33 80 34 74 35
REMARK SMILES IDX 76 36 27 37 79 38 73 39 72 40 28 42 60 43 40 44 59 45 41 46
REMARK SMILES IDX 44 47 58 48 77 49 42 50 43 51 57 53 78 54 45 55 29 56 30 57
REMARK SMILES IDX 38 58 31 59 37 60 39 61 36 62 32 63 33 64 34 65 35 66 61 67
REMARK SMILES IDX 62 68 70 69 63 70 69 71 71 72 68 73 64 74 65 75 66 76 67 77
REMARK SMILES IDX 46 78 47 79 55 80 48 81 54 82 56 83 53 84 49 85 50 86 51 87
REMARK SMILES IDX 52 88
REMARK H PARENT 12 7 17 22 76 41 44 52
REMARK Flexibility Score: inf
ROOT
ATOM      1  C   UNL A   1      31.784  29.289  27.170  1.00  0.00     0.023 C 
ENDROOT
BRANCH   1   2
ATOM      2  C   UNL A   1      32.071  27.815  27.480  1.00  0.00     0.023 C 
BRANCH   2   3
ATOM      3  C   UNL A   1      31.741  26.833  26.359  1.00  0.00     0.116 C 
BRANCH   3   4
ATOM      4  N   UNL A   1      31.084  25.635  26.831  1.00  0.00    -0.356 N 
ATOM      5  C   UNL A   1      31.105  24.316  26.484  1.00  0.00     0.226 C 
ATOM      6  O   UNL A   1      30.524  23.557  27.261  1.00  0.00    -0.274 OA
ATOM      7  H   UNL A   1      30.474  25.814  27.583  1.00  0.00     0.163 HD
BRANCH   5   8
ATOM      8  C   UNL A   1      31.797  23.720  25.254  1.00  0.00     0.052 C 
ATOM      9  C   UNL A   1      31.090  24.045  23.931  1.00  0.00     0.018 C 
ATOM     10  C   UNL A   1      31.189  22.626  24.390  1.00  0.00     0.018 C 
BRANCH   8  11
ATOM     11  C   UNL A   1      33.368  23.757  25.367  1.00  0.00     0.008 C 
ATOM     12  C   UNL A   1      34.223  23.055  24.277  1.00  0.00    -0.007 C 
ATOM     13  C   UNL A   1      34.405  21.546  24.536  1.00  0.00     0.004 C 
ATOM     14  C   UNL A   1      34.827  21.216  25.967  1.00  0.00     0.000 C 
ATOM     15  C   UNL A   1      33.827  23.391  26.789  1.00  0.00     0.005 C 
ATOM     16  C   UNL A   1      33.956  21.891  27.020  1.00  0.00     0.000 C 
BRANCH  12  17
ATOM     17  C   UNL A   1      35.638  23.688  24.119  1.00  0.00     0.000 C 
ATOM     18  C   UNL A   1      36.629  22.878  23.294  1.00  0.00     0.004 C 
ENDBRANCH  12  17
ENDBRANCH   8  11
ENDBRANCH   5   8
ENDBRANCH   3   4
ENDBRANCH   2   3
ENDBRANCH   1   2
BRANCH   1  19
ATOM     19  C   UNL A   1      32.945  30.101  26.603  1.00  0.00     0.116 C 
BRANCH  19  20
ATOM     20  N   UNL A   1      32.919  31.503  26.987  1.00  0.00    -0.352 N 
ATOM     21  C   UNL A   1      33.869  32.220  27.676  1.00  0.00     0.251 C 
ATOM     22  H   UNL A   1      32.117  32.006  26.717  1.00  0.00     0.163 HD
ATOM     23  O   UNL A   1      33.657  33.392  27.971  1.00  0.00    -0.269 OA
BRANCH  21  24
ATOM     24  C   UNL A   1      35.115  31.549  28.106  1.00  0.00     0.039 A 
ATOM     25  C   UNL A   1      36.298  32.291  28.130  1.00  0.00     0.014 A 
ATOM     26  C   UNL A   1      35.106  30.219  28.534  1.00  0.00     0.014 A 
ATOM     27  C   UNL A   1      37.459  31.723  28.660  1.00  0.00     0.010 A 
ATOM     28  C   UNL A   1      36.248  29.676  29.119  1.00  0.00     0.010 A 
ATOM     29  C   UNL A   1      37.432  30.426  29.198  1.00  0.00    -0.014 A 
BRANCH  29  30
ATOM     30  C   UNL A   1      38.630  29.847  29.861  1.00  0.00     0.031 A 
ATOM     31  C   UNL A   1      39.043  30.327  31.225  1.00  0.00     0.074 A 
ATOM     32  C   UNL A   1      39.380  28.940  29.206  1.00  0.00     0.049 A 
ATOM     33  N   UNL A   1      40.091  29.998  31.936  1.00  0.00    -0.248 NA
ATOM     34  C   UNL A   1      38.175  31.330  31.860  1.00  0.00     0.031 C 
ATOM     35  C   UNL A   1      39.105  28.429  27.861  1.00  0.00     0.029 A 
ATOM     36  N   UNL A   1      40.532  28.290  29.575  1.00  0.00    -0.354 N 
ATOM     37  C   UNL A   1      40.016  30.763  33.096  1.00  0.00     0.074 A 
ATOM     38  C   UNL A   1      38.852  31.612  32.962  1.00  0.00     0.031 C 
ATOM     39  C   UNL A   1      40.048  27.534  27.528  1.00  0.00     0.029 A 
ATOM     40  C   UNL A   1      41.020  27.436  28.612  1.00  0.00     0.049 A 
ATOM     41  H   UNL A   1      40.970  28.425  30.447  1.00  0.00     0.167 HD
ATOM     42  C   UNL A   1      40.832  30.741  34.180  1.00  0.00     0.034 A 
ATOM     43  C   UNL A   1      42.129  26.669  28.600  1.00  0.00     0.034 A 
ATOM     44  C   UNL A   1      41.983  29.880  34.300  1.00  0.00     0.049 A 
ATOM     45  C   UNL A   1      43.031  26.675  29.808  1.00  0.00     0.074 A 
ATOM     46  C   UNL A   1      42.845  29.736  35.374  1.00  0.00     0.029 A 
ATOM     47  N   UNL A   1      42.441  29.021  33.308  1.00  0.00    -0.354 N 
ATOM     48  N   UNL A   1      42.917  27.364  30.920  1.00  0.00    -0.248 NA
ATOM     49  C   UNL A   1      44.204  25.793  29.765  1.00  0.00     0.031 C 
ATOM     50  C   UNL A   1      43.857  28.841  35.009  1.00  0.00     0.029 A 
ATOM     51  C   UNL A   1      43.588  28.368  33.735  1.00  0.00     0.049 A 
ATOM     52  H   UNL A   1      42.014  28.895  32.430  1.00  0.00     0.167 HD
ATOM     53  C   UNL A   1      43.986  26.970  31.721  1.00  0.00     0.074 A 
ATOM     54  C   UNL A   1      44.726  25.979  30.967  1.00  0.00     0.031 C 
ATOM     55  C   UNL A   1      44.319  27.385  32.970  1.00  0.00     0.034 A 
BRANCH  42  56
ATOM     56  C   UNL A   1      40.513  31.696  35.305  1.00  0.00     0.023 A 
ATOM     57  C   UNL A   1      39.504  31.419  36.244  1.00  0.00     0.031 A 
ATOM     58  C   UNL A   1      41.205  32.914  35.425  1.00  0.00     0.131 A 
ATOM     59  C   UNL A   1      39.161  32.379  37.208  1.00  0.00     0.055 A 
ATOM     60  C   UNL A   1      40.915  33.830  36.439  1.00  0.00     0.041 A 
ATOM     61  F   UNL A   1      42.166  33.245  34.547  1.00  0.00    -0.206 F 
ATOM     62  C   UNL A   1      39.875  33.572  37.328  1.00  0.00     0.022 A 
BRANCH  59  63
ATOM     63  S   UNL A   1      37.670  32.108  38.205  1.00  0.00     0.124 S 
ATOM     64  O   UNL A   1      38.165  32.374  39.554  1.00  0.00    -0.237 OA
ATOM     65  O   UNL A   1      36.742  33.092  37.660  1.00  0.00    -0.237 OA
ATOM     66  O   UNL A   1      37.329  30.712  37.939  1.00  0.00    -0.744 OA
ENDBRANCH  59  63
ENDBRANCH  42  56
BRANCH  43  67
ATOM     67  C   UNL A   1      42.458  25.837  27.408  1.00  0.00     0.023 A 
ATOM     68  C   UNL A   1      42.063  24.492  27.333  1.00  0.00     0.031 A 
ATOM     69  C   UNL A   1      43.206  26.366  26.340  1.00  0.00     0.131 A 
ATOM     70  C   UNL A   1      42.456  23.708  26.236  1.00  0.00     0.055 A 
ATOM     71  C   UNL A   1      43.551  25.595  25.229  1.00  0.00     0.041 A 
ATOM     72  F   UNL A   1      43.603  27.648  26.359  1.00  0.00    -0.206 F 
ATOM     73  C   UNL A   1      43.186  24.254  25.179  1.00  0.00     0.022 A 
BRANCH  70  74
ATOM     74  S   UNL A   1      42.062  21.937  26.251  1.00  0.00     0.124 S 
ATOM     75  O   UNL A   1      42.901  21.438  25.168  1.00  0.00    -0.237 OA
ATOM     76  O   UNL A   1      42.457  21.550  27.601  1.00  0.00    -0.237 OA
ATOM     77  O   UNL A   1      40.624  21.906  25.991  1.00  0.00    -0.744 OA
ENDBRANCH  70  74
ENDBRANCH  43  67
BRANCH  55  78
ATOM     78  C   UNL A   1      45.509  26.724  33.618  1.00  0.00     0.023 A 
ATOM     79  C   UNL A   1      45.395  25.511  34.320  1.00  0.00     0.031 A 
ATOM     80  C   UNL A   1      46.780  27.321  33.528  1.00  0.00     0.131 A 
ATOM     81  C   UNL A   1      46.524  24.958  34.945  1.00  0.00     0.055 A 
ATOM     82  C   UNL A   1      47.908  26.738  34.104  1.00  0.00     0.041 A 
ATOM     83  F   UNL A   1      46.944  28.480  32.871  1.00  0.00    -0.206 F 
ATOM     84  C   UNL A   1      47.782  25.554  34.827  1.00  0.00     0.022 A 
BRANCH  81  85
ATOM     85  S   UNL A   1      46.314  23.481  35.977  1.00  0.00     0.124 S 
ATOM     86  O   UNL A   1      46.249  22.419  34.978  1.00  0.00    -0.237 OA
ATOM     87  O   UNL A   1      47.517  23.505  36.804  1.00  0.00    -0.237 OA
ATOM     88  O   UNL A   1      45.066  23.738  36.694  1.00  0.00    -0.744 OA
ENDBRANCH  81  85
ENDBRANCH  55  78
ENDBRANCH  29  30
ENDBRANCH  21  24
ENDBRANCH  19  20
ENDBRANCH   1  19
TORSDOF 16
ENDMDL
MODEL 2
REMARK VINA RESULT:     -11.4      4.977     10.230
REMARK SMILES CC[C@H]1CCCC[C@@H]1C1(C(=O)NCCCCNC(=O)c2ccc(-c3c4nc(c(-c5cc(S(=O)(=O)[O-])ccc5F)c5ccc([nH]5)c(-c5cc(S(=O)(=O)[O-])ccc5F)c5nc(c(-c6cc(S(=O)(=O)[O-])ccc6F)c6ccc3[nH]6)C=C5)C=C4)cc2)CC1
REMARK SMILES IDX 15 1 14 2 13 3 12 4 10 5 11 6 9 8 83 9 84 10 8 11 3 12 4 13
REMARK SMILES IDX 5 14 7 15 6 16 2 17 1 18 16 19 17 20 18 21 19 23 20 24 21 25
REMARK SMILES IDX 82 26 22 27 81 28 23 29 24 30 25 31 75 32 26 33 80 34 74 35
REMARK SMILES IDX 76 36 27 37 79 38 73 39 72 40 28 42 60 43 40 44 59 45 41 46
REMARK SMILES IDX 44 47 58 48 77 49 42 50 43 51 57 53 78 54 45 55 29 56 30 57
REMARK SMILES IDX 38 58 31 59 37 60 39 61 36 62 32 63 33 64 34 65 35 66 61 67
REMARK SMILES IDX 62 68 70 69 63 70 69 71 71 72 68 73 64 74 65 75 66 76 67 77
REMARK SMILES IDX 46 78 47 79 55 80 48 81 54 82 56 83 53 84 49 85 50 86 51 87
REMARK SMILES IDX 52 88
REMARK H PARENT 12 7 17 22 76 41 44 52
REMARK Flexibility Score: inf
ROOT
ATOM      1  C   UNL A   1      35.870  21.441  25.662  1.00  0.00     0.023 C 
ENDROOT
BRANCH   1   2
ATOM      2  C   UNL A   1      34.826  20.684  24.831  1.00  0.00     0.023 C 
BRANCH   2   3
ATOM      3  C   UNL A   1      33.441  20.572  25.462  1.00  0.00     0.116 C 
BRANCH   3   4
ATOM      4  N   UNL A   1      33.356  21.212  26.756  1.00  0.00    -0.356 N 
ATOM      5  C   UNL A   1      32.711  22.303  27.257  1.00  0.00     0.226 C 
ATOM      6  O   UNL A   1      32.750  22.423  28.483  1.00  0.00    -0.274 OA
ATOM      7  H   UNL A   1      33.893  20.748  27.439  1.00  0.00     0.163 HD
BRANCH   5   8
ATOM      8  C   UNL A   1      31.944  23.349  26.442  1.00  0.00     0.052 C 
ATOM      9  C   UNL A   1      30.419  23.224  26.559  1.00  0.00     0.018 C 
ATOM     10  C   UNL A   1      31.081  23.014  25.235  1.00  0.00     0.018 C 
BRANCH   8  11
ATOM     11  C   UNL A   1      32.646  24.759  26.454  1.00  0.00     0.008 C 
ATOM     12  C   UNL A   1      31.904  25.981  25.847  1.00  0.00    -0.007 C 
ATOM     13  C   UNL A   1      32.077  26.092  24.319  1.00  0.00     0.004 C 
ATOM     14  C   UNL A   1      33.526  25.949  23.854  1.00  0.00     0.000 C 
ATOM     15  C   UNL A   1      34.098  24.656  25.954  1.00  0.00     0.005 C 
ATOM     16  C   UNL A   1      34.226  24.727  24.437  1.00  0.00     0.000 C 
BRANCH  12  17
ATOM     17  C   UNL A   1      32.351  27.334  26.479  1.00  0.00     0.000 C 
ATOM     18  C   UNL A   1      31.741  28.582  25.854  1.00  0.00     0.004 C 
ENDBRANCH  12  17
ENDBRANCH   8  11
ENDBRANCH   5   8
ENDBRANCH   3   4
ENDBRANCH   2   3
ENDBRANCH   1   2
BRANCH   1  19
ATOM     19  C   UNL A   1      37.235  21.647  25.012  1.00  0.00     0.116 C 
BRANCH  19  20
ATOM     20  N   UNL A   1      38.211  20.630  25.370  1.00  0.00    -0.352 N 
ATOM     21  C   UNL A   1      39.390  20.781  26.063  1.00  0.00     0.251 C 
ATOM     22  H   UNL A   1      38.001  19.713  25.080  1.00  0.00     0.163 HD
ATOM     23  O   UNL A   1      40.131  19.818  26.228  1.00  0.00    -0.269 OA
BRANCH  21  24
ATOM     24  C   UNL A   1      39.778  22.122  26.553  1.00  0.00     0.039 A 
ATOM     25  C   UNL A   1      40.838  22.221  27.456  1.00  0.00     0.014 A 
ATOM     26  C   UNL A   1      39.138  23.272  26.083  1.00  0.00     0.014 A 
ATOM     27  C   UNL A   1      41.312  23.481  27.828  1.00  0.00     0.010 A 
ATOM     28  C   UNL A   1      39.653  24.527  26.407  1.00  0.00     0.010 A 
ATOM     29  C   UNL A   1      40.752  24.642  27.273  1.00  0.00    -0.014 A 
BRANCH  29  30
ATOM     30  C   UNL A   1      41.314  25.985  27.576  1.00  0.00     0.031 A 
ATOM     31  C   UNL A   1      42.702  26.342  27.122  1.00  0.00     0.074 A 
ATOM     32  C   UNL A   1      40.599  26.854  28.317  1.00  0.00     0.049 A 
ATOM     33  N   UNL A   1      43.393  27.429  27.348  1.00  0.00    -0.248 NA
ATOM     34  C   UNL A   1      43.416  25.327  26.333  1.00  0.00     0.031 C 
ATOM     35  C   UNL A   1      39.258  26.605  28.852  1.00  0.00     0.029 A 
ATOM     36  N   UNL A   1      40.899  28.119  28.758  1.00  0.00    -0.354 N 
ATOM     37  C   UNL A   1      44.628  27.226  26.740  1.00  0.00     0.074 A 
ATOM     38  C   UNL A   1      44.607  25.887  26.189  1.00  0.00     0.031 C 
ATOM     39  C   UNL A   1      38.846  27.688  29.530  1.00  0.00     0.029 A 
ATOM     40  C   UNL A   1      39.904  28.692  29.517  1.00  0.00     0.049 A 
ATOM     41  H   UNL A   1      41.748  28.574  28.551  1.00  0.00     0.167 HD
ATOM     42  C   UNL A   1      45.673  28.086  26.633  1.00  0.00     0.034 A 
ATOM     43  C   UNL A   1      39.855  29.886  30.142  1.00  0.00     0.034 A 
ATOM     44  C   UNL A   1      45.671  29.420  27.181  1.00  0.00     0.049 A 
ATOM     45  C   UNL A   1      41.036  30.818  30.026  1.00  0.00     0.074 A 
ATOM     46  C   UNL A   1      46.652  30.394  27.084  1.00  0.00     0.029 A 
ATOM     47  N   UNL A   1      44.643  29.970  27.936  1.00  0.00    -0.354 N 
ATOM     48  N   UNL A   1      42.175  30.631  29.401  1.00  0.00    -0.248 NA
ATOM     49  C   UNL A   1      40.918  32.123  30.688  1.00  0.00     0.031 C 
ATOM     50  C   UNL A   1      46.244  31.504  27.832  1.00  0.00     0.029 A 
ATOM     51  C   UNL A   1      44.978  31.255  28.335  1.00  0.00     0.049 A 
ATOM     52  H   UNL A   1      43.799  29.513  28.157  1.00  0.00     0.167 HD
ATOM     53  C   UNL A   1      42.895  31.811  29.568  1.00  0.00     0.074 A 
ATOM     54  C   UNL A   1      42.058  32.703  30.344  1.00  0.00     0.031 C 
ATOM     55  C   UNL A   1      44.134  32.131  29.113  1.00  0.00     0.034 A 
BRANCH  42  56
ATOM     56  C   UNL A   1      46.907  27.590  25.917  1.00  0.00     0.023 A 
ATOM     57  C   UNL A   1      47.180  27.949  24.585  1.00  0.00     0.031 A 
ATOM     58  C   UNL A   1      47.805  26.723  26.562  1.00  0.00     0.131 A 
ATOM     59  C   UNL A   1      48.276  27.381  23.918  1.00  0.00     0.055 A 
ATOM     60  C   UNL A   1      48.941  26.227  25.917  1.00  0.00     0.041 A 
ATOM     61  F   UNL A   1      47.588  26.328  27.827  1.00  0.00    -0.206 F 
ATOM     62  C   UNL A   1      49.173  26.542  24.581  1.00  0.00     0.022 A 
BRANCH  59  63
ATOM     63  S   UNL A   1      48.425  27.639  22.128  1.00  0.00     0.124 S 
ATOM     64  O   UNL A   1      48.666  26.278  21.654  1.00  0.00    -0.237 OA
ATOM     65  O   UNL A   1      47.131  28.216  21.783  1.00  0.00    -0.237 OA
ATOM     66  O   UNL A   1      49.566  28.544  22.006  1.00  0.00    -0.744 OA
ENDBRANCH  59  63
ENDBRANCH  42  56
BRANCH  43  67
ATOM     67  C   UNL A   1      38.656  30.273  30.939  1.00  0.00     0.023 A 
ATOM     68  C   UNL A   1      37.601  30.991  30.356  1.00  0.00     0.031 A 
ATOM     69  C   UNL A   1      38.565  29.959  32.307  1.00  0.00     0.131 A 
ATOM     70  C   UNL A   1      36.520  31.413  31.148  1.00  0.00     0.055 A 
ATOM     71  C   UNL A   1      37.465  30.338  33.079  1.00  0.00     0.041 A 
ATOM     72  F   UNL A   1      39.544  29.268  32.912  1.00  0.00    -0.206 F 
ATOM     73  C   UNL A   1      36.440  31.080  32.501  1.00  0.00     0.022 A 
BRANCH  70  74
ATOM     74  S   UNL A   1      35.256  32.474  30.395  1.00  0.00     0.124 S 
ATOM     75  O   UNL A   1      36.039  33.642  30.009  1.00  0.00    -0.237 OA
ATOM     76  O   UNL A   1      34.768  31.637  29.304  1.00  0.00    -0.237 OA
ATOM     77  O   UNL A   1      34.304  32.692  31.484  1.00  0.00    -0.744 OA
ENDBRANCH  70  74
ENDBRANCH  43  67
BRANCH  55  78
ATOM     78  C   UNL A   1      44.632  33.526  29.400  1.00  0.00     0.023 A 
ATOM     79  C   UNL A   1      44.162  34.643  28.689  1.00  0.00     0.031 A 
ATOM     80  C   UNL A   1      45.594  33.734  30.405  1.00  0.00     0.131 A 
ATOM     81  C   UNL A   1      44.690  35.915  28.962  1.00  0.00     0.055 A 
ATOM     82  C   UNL A   1      46.074  35.008  30.709  1.00  0.00     0.041 A 
ATOM     83  F   UNL A   1      46.078  32.701  31.112  1.00  0.00    -0.206 F 
ATOM     84  C   UNL A   1      45.629  36.107  29.979  1.00  0.00     0.022 A 
BRANCH  81  85
ATOM     85  S   UNL A   1      44.184  37.312  27.921  1.00  0.00     0.124 S 
ATOM     86  O   UNL A   1      43.054  37.854  28.669  1.00  0.00    -0.237 OA
ATOM     87  O   UNL A   1      45.387  38.137  27.898  1.00  0.00    -0.237 OA
ATOM     88  O   UNL A   1      43.841  36.683  26.647  1.00  0.00    -0.744 OA
ENDBRANCH  81  85
ENDBRANCH  55  78
ENDBRANCH  29  30
ENDBRANCH  21  24
ENDBRANCH  19  20
ENDBRANCH   1  19
TORSDOF 16
ENDMDL
MODEL 3
REMARK VINA RESULT:     -11.2      2.572      2.958
REMARK SMILES CC[C@H]1CCCC[C@@H]1C1(C(=O)NCCCCNC(=O)c2ccc(-c3c4nc(c(-c5cc(S(=O)(=O)[O-])ccc5F)c5ccc([nH]5)c(-c5cc(S(=O)(=O)[O-])ccc5F)c5nc(c(-c6cc(S(=O)(=O)[O-])ccc6F)c6ccc3[nH]6)C=C5)C=C4)cc2)CC1
REMARK SMILES IDX 15 1 14 2 13 3 12 4 10 5 11 6 9 8 83 9 84 10 8 11 3 12 4 13
REMARK SMILES IDX 5 14 7 15 6 16 2 17 1 18 16 19 17 20 18 21 19 23 20 24 21 25
REMARK SMILES IDX 82 26 22 27 81 28 23 29 24 30 25 31 75 32 26 33 80 34 74 35
REMARK SMILES IDX 76 36 27 37 79 38 73 39 72 40 28 42 60 43 40 44 59 45 41 46
REMARK SMILES IDX 44 47 58 48 77 49 42 50 43 51 57 53 78 54 45 55 29 56 30 57
REMARK SMILES IDX 38 58 31 59 37 60 39 61 36 62 32 63 33 64 34 65 35 66 61 67
REMARK SMILES IDX 62 68 70 69 63 70 69 71 71 72 68 73 64 74 65 75 66 76 67 77
REMARK SMILES IDX 46 78 47 79 55 80 48 81 54 82 56 83 53 84 49 85 50 86 51 87
REMARK SMILES IDX 52 88
REMARK H PARENT 12 7 17 22 76 41 44 52
REMARK Flexibility Score: inf
ROOT
ATOM      1  C   UNL A   1      33.404  27.839  25.510  1.00  0.00     0.023 C 
ENDROOT
BRANCH   1   2
ATOM      2  C   UNL A   1      32.557  27.150  26.587  1.00  0.00     0.023 C 
BRANCH   2   3
ATOM      3  C   UNL A   1      31.166  26.705  26.143  1.00  0.00     0.116 C 
BRANCH   3   4
ATOM      4  N   UNL A   1      30.758  25.449  26.732  1.00  0.00    -0.356 N 
ATOM      5  C   UNL A   1      30.997  24.133  26.470  1.00  0.00     0.226 C 
ATOM      6  O   UNL A   1      30.600  23.344  27.330  1.00  0.00    -0.274 OA
ATOM      7  H   UNL A   1      30.165  25.575  27.508  1.00  0.00     0.163 HD
BRANCH   5   8
ATOM      8  C   UNL A   1      31.720  23.576  25.240  1.00  0.00     0.052 C 
ATOM      9  C   UNL A   1      30.966  23.808  23.924  1.00  0.00     0.018 C 
ATOM     10  C   UNL A   1      31.202  22.414  24.408  1.00  0.00     0.018 C 
BRANCH   8  11
ATOM     11  C   UNL A   1      33.283  23.759  25.324  1.00  0.00     0.008 C 
ATOM     12  C   UNL A   1      34.188  23.024  24.298  1.00  0.00    -0.007 C 
ATOM     13  C   UNL A   1      34.503  21.571  24.707  1.00  0.00     0.004 C 
ATOM     14  C   UNL A   1      34.961  21.427  26.157  1.00  0.00     0.000 C 
ATOM     15  C   UNL A   1      33.782  23.582  26.768  1.00  0.00     0.005 C 
ATOM     16  C   UNL A   1      34.042  22.130  27.149  1.00  0.00     0.000 C 
BRANCH  12  17
ATOM     17  C   UNL A   1      35.542  23.756  24.054  1.00  0.00     0.000 C 
ATOM     18  C   UNL A   1      36.575  22.973  23.255  1.00  0.00     0.004 C 
ENDBRANCH  12  17
ENDBRANCH   8  11
ENDBRANCH   5   8
ENDBRANCH   3   4
ENDBRANCH   2   3
ENDBRANCH   1   2
BRANCH   1  19
ATOM     19  C   UNL A   1      34.474  28.807  26.006  1.00  0.00     0.116 C 
BRANCH  19  20
ATOM     20  N   UNL A   1      33.936  30.052  26.532  1.00  0.00    -0.352 N 
ATOM     21  C   UNL A   1      34.446  30.851  27.529  1.00  0.00     0.251 C 
ATOM     22  H   UNL A   1      33.098  30.364  26.121  1.00  0.00     0.163 HD
ATOM     23  O   UNL A   1      33.826  31.845  27.893  1.00  0.00    -0.269 OA
BRANCH  21  24
ATOM     24  C   UNL A   1      35.711  30.468  28.192  1.00  0.00     0.039 A 
ATOM     25  C   UNL A   1      35.648  29.705  29.359  1.00  0.00     0.014 A 
ATOM     26  C   UNL A   1      36.947  30.811  27.636  1.00  0.00     0.014 A 
ATOM     27  C   UNL A   1      36.826  29.216  29.928  1.00  0.00     0.010 A 
ATOM     28  C   UNL A   1      38.115  30.271  28.170  1.00  0.00     0.010 A 
ATOM     29  C   UNL A   1      38.065  29.459  29.314  1.00  0.00    -0.014 A 
BRANCH  29  30
ATOM     30  C   UNL A   1      39.315  28.856  29.847  1.00  0.00     0.031 A 
ATOM     31  C   UNL A   1      39.988  29.453  31.051  1.00  0.00     0.074 A 
ATOM     32  C   UNL A   1      39.878  27.813  29.204  1.00  0.00     0.049 A 
ATOM     33  N   UNL A   1      41.117  29.117  31.621  1.00  0.00    -0.248 NA
ATOM     34  C   UNL A   1      39.313  30.599  31.680  1.00  0.00     0.031 C 
ATOM     35  C   UNL A   1      39.342  27.175  27.999  1.00  0.00     0.029 A 
ATOM     36  N   UNL A   1      41.028  27.111  29.464  1.00  0.00    -0.354 N 
ATOM     37  C   UNL A   1      41.295  30.017  32.668  1.00  0.00     0.074 A 
ATOM     38  C   UNL A   1      40.186  30.946  32.612  1.00  0.00     0.031 C 
ATOM     39  C   UNL A   1      40.150  26.166  27.639  1.00  0.00     0.029 A 
ATOM     40  C   UNL A   1      41.283  26.108  28.556  1.00  0.00     0.049 A 
ATOM     41  H   UNL A   1      41.616  27.306  30.229  1.00  0.00     0.167 HD
ATOM     42  C   UNL A   1      42.280  30.049  33.600  1.00  0.00     0.034 A 
ATOM     43  C   UNL A   1      42.317  25.248  28.467  1.00  0.00     0.034 A 
ATOM     44  C   UNL A   1      43.372  29.107  33.644  1.00  0.00     0.049 A 
ATOM     45  C   UNL A   1      43.411  25.315  29.503  1.00  0.00     0.074 A 
ATOM     46  C   UNL A   1      44.393  29.013  34.576  1.00  0.00     0.029 A 
ATOM     47  N   UNL A   1      43.593  28.100  32.714  1.00  0.00    -0.354 N 
ATOM     48  N   UNL A   1      43.537  26.137  30.518  1.00  0.00    -0.248 NA
ATOM     49  C   UNL A   1      44.495  24.331  29.387  1.00  0.00     0.031 C 
ATOM     50  C   UNL A   1      45.263  27.994  34.173  1.00  0.00     0.029 A 
ATOM     51  C   UNL A   1      44.747  27.400  33.032  1.00  0.00     0.049 A 
ATOM     52  H   UNL A   1      43.014  27.911  31.939  1.00  0.00     0.167 HD
ATOM     53  C   UNL A   1      44.697  25.745  31.181  1.00  0.00     0.074 A 
ATOM     54  C   UNL A   1      45.227  24.610  30.455  1.00  0.00     0.031 C 
ATOM     55  C   UNL A   1      45.267  26.272  32.295  1.00  0.00     0.034 A 
BRANCH  42  56
ATOM     56  C   UNL A   1      42.226  31.155  34.626  1.00  0.00     0.023 A 
ATOM     57  C   UNL A   1      42.837  32.401  34.399  1.00  0.00     0.031 A 
ATOM     58  C   UNL A   1      41.582  30.954  35.859  1.00  0.00     0.131 A 
ATOM     59  C   UNL A   1      42.862  33.365  35.419  1.00  0.00     0.055 A 
ATOM     60  C   UNL A   1      41.538  31.949  36.838  1.00  0.00     0.041 A 
ATOM     61  F   UNL A   1      40.997  29.779  36.143  1.00  0.00    -0.206 F 
ATOM     62  C   UNL A   1      42.195  33.158  36.628  1.00  0.00     0.022 A 
BRANCH  59  63
ATOM     63  S   UNL A   1      43.905  34.832  35.195  1.00  0.00     0.124 S 
ATOM     64  O   UNL A   1      43.765  35.077  33.761  1.00  0.00    -0.237 OA
ATOM     65  O   UNL A   1      43.270  35.808  36.074  1.00  0.00    -0.237 OA
ATOM     66  O   UNL A   1      45.229  34.379  35.616  1.00  0.00    -0.744 OA
ENDBRANCH  59  63
ENDBRANCH  42  56
BRANCH  43  67
ATOM     67  C   UNL A   1      42.379  24.255  27.357  1.00  0.00     0.023 A 
ATOM     68  C   UNL A   1      41.626  23.072  27.401  1.00  0.00     0.031 A 
ATOM     69  C   UNL A   1      43.224  24.458  26.250  1.00  0.00     0.131 A 
ATOM     70  C   UNL A   1      41.764  22.115  26.383  1.00  0.00     0.055 A 
ATOM     71  C   UNL A   1      43.320  23.527  25.215  1.00  0.00     0.041 A 
ATOM     72  F   UNL A   1      43.961  25.575  26.155  1.00  0.00    -0.206 F 
ATOM     73  C   UNL A   1      42.595  22.341  25.285  1.00  0.00     0.022 A 
BRANCH  70  74
ATOM     74  S   UNL A   1      40.895  20.532  26.555  1.00  0.00     0.124 S 
ATOM     75  O   UNL A   1      40.958  20.314  27.996  1.00  0.00    -0.237 OA
ATOM     76  O   UNL A   1      39.579  20.848  26.010  1.00  0.00    -0.237 OA
ATOM     77  O   UNL A   1      41.698  19.614  25.749  1.00  0.00    -0.744 OA
ENDBRANCH  70  74
ENDBRANCH  43  67
BRANCH  55  78
ATOM     78  C   UNL A   1      46.502  25.587  32.825  1.00  0.00     0.023 A 
ATOM     79  C   UNL A   1      47.776  25.831  32.285  1.00  0.00     0.031 A 
ATOM     80  C   UNL A   1      46.396  24.675  33.890  1.00  0.00     0.131 A 
ATOM     81  C   UNL A   1      48.889  25.134  32.782  1.00  0.00     0.055 A 
ATOM     82  C   UNL A   1      47.513  24.027  34.417  1.00  0.00     0.041 A 
ATOM     83  F   UNL A   1      45.202  24.404  34.441  1.00  0.00    -0.206 F 
ATOM     84  C   UNL A   1      48.768  24.247  33.855  1.00  0.00     0.022 A 
BRANCH  81  85
ATOM     85  S   UNL A   1      50.492  25.349  31.960  1.00  0.00     0.124 S 
ATOM     86  O   UNL A   1      50.145  26.220  30.842  1.00  0.00    -0.237 OA
ATOM     87  O   UNL A   1      51.304  25.953  33.011  1.00  0.00    -0.237 OA
ATOM     88  O   UNL A   1      50.873  23.987  31.591  1.00  0.00    -0.744 OA
ENDBRANCH  81  85
ENDBRANCH  55  78
ENDBRANCH  29  30
ENDBRANCH  21  24
ENDBRANCH  19  20
ENDBRANCH   1  19
TORSDOF 16
ENDMDL
