MODEL 1
REMARK VINA RESULT:     -11.5      0.000      0.000
REMARK SMILES Cc1ccc(C(=O)N[C@@H](CC(=O)NCCCCNC(=O)c2ccc(-c3c4nc(c(-c5cc(S(=O)(=O)[O-])ccc5F)c5ccc([nH]5)c(-c5cc(S(=O)(=O)[O-])ccc5F)c5nc(c(-c6cc(S(=O)(=O)[O-])ccc6F)c6ccc3[nH]6)C=C5)C=C4)cc2)c2cccs2)o1
REMARK SMILES IDX 15 1 14 2 13 3 11 4 12 5 10 7 9 8 8 9 6 10 7 11 5 13 1 14
REMARK SMILES IDX 2 15 3 16 89 17 4 18 84 19 85 20 88 21 86 22 87 23 16 24
REMARK SMILES IDX 17 25 18 26 19 27 20 29 21 30 22 31 83 32 23 33 82 34 24 35
REMARK SMILES IDX 25 36 26 37 76 38 27 39 81 40 75 41 77 42 28 43 80 44 74 45
REMARK SMILES IDX 73 46 29 48 61 49 41 50 60 51 42 52 45 53 59 54 78 55 43 56
REMARK SMILES IDX 44 57 58 59 79 60 46 61 30 62 31 63 39 64 32 65 38 66 40 67
REMARK SMILES IDX 37 68 33 69 34 70 35 71 36 72 62 73 63 74 71 75 64 76 70 77
REMARK SMILES IDX 72 78 69 79 65 80 66 81 67 82 68 83 47 84 48 85 56 86 49 87
REMARK SMILES IDX 55 88 57 89 54 90 50 91 51 92 52 93 53 94
REMARK H PARENT 13 6 8 12 18 28 77 47 45 58
REMARK Flexibility Score: inf
ROOT
ATOM      1  C   UNL A   1      31.464  27.722  26.395  1.00  0.00     0.023 C 
ENDROOT
BRANCH   1   2
ATOM      2  C   UNL A   1      30.811  26.518  25.718  1.00  0.00     0.116 C 
BRANCH   2   3
ATOM      3  N   UNL A   1      30.629  25.424  26.653  1.00  0.00    -0.356 N 
ATOM      4  C   UNL A   1      30.628  24.083  26.433  1.00  0.00     0.222 C 
ATOM      5  O   UNL A   1      30.440  23.331  27.392  1.00  0.00    -0.275 OA
ATOM      6  H   UNL A   1      30.482  25.695  27.589  1.00  0.00     0.163 HD
BRANCH   4   7
ATOM      7  C   UNL A   1      30.912  23.517  25.058  1.00  0.00     0.130 C 
BRANCH   7   8
ATOM      8  C   UNL A   1      32.327  22.991  24.787  1.00  0.00     0.132 C 
BRANCH   8   9
ATOM      9  N   UNL A   1      33.001  23.664  23.694  1.00  0.00    -0.341 N 
ATOM     10  C   UNL A   1      34.287  24.009  23.393  1.00  0.00     0.287 C 
ATOM     11  O   UNL A   1      34.394  24.855  22.501  1.00  0.00    -0.266 OA
ATOM     12  H   UNL A   1      32.372  23.945  22.990  1.00  0.00     0.164 HD
BRANCH  10  13
ATOM     13  C   UNL A   1      35.436  23.392  24.019  1.00  0.00     0.191 A 
ATOM     14  C   UNL A   1      37.985  24.208  26.403  1.00  0.00     0.087 C 
ATOM     15  C   UNL A   1      37.164  23.500  25.404  1.00  0.00     0.101 A 
ATOM     16  C   UNL A   1      37.297  22.318  24.718  1.00  0.00     0.046 A 
ATOM     17  O   UNL A   1      36.031  24.134  25.014  1.00  0.00    -0.456 OA
ATOM     18  C   UNL A   1      36.194  22.251  23.827  1.00  0.00     0.056 A 
ENDBRANCH  10  13
ENDBRANCH   8   9
BRANCH   8  19
ATOM     19  C   UNL A   1      32.429  21.500  24.555  1.00  0.00     0.027 A 
ATOM     20  C   UNL A   1      32.726  20.522  25.485  1.00  0.00     0.017 A 
ATOM     21  S   UNL A   1      32.238  20.811  22.988  1.00  0.00    -0.147 S 
ATOM     22  C   UNL A   1      32.836  19.225  24.904  1.00  0.00     0.012 A 
ATOM     23  C   UNL A   1      32.601  19.243  23.549  1.00  0.00     0.065 A 
ENDBRANCH   8  19
ENDBRANCH   7   8
ENDBRANCH   4   7
ENDBRANCH   2   3
ENDBRANCH   1   2
BRANCH   1  24
ATOM     24  C   UNL A   1      31.889  28.838  25.455  1.00  0.00     0.023 C 
BRANCH  24  25
ATOM     25  C   UNL A   1      33.127  29.587  25.905  1.00  0.00     0.116 C 
BRANCH  25  26
ATOM     26  N   UNL A   1      32.830  30.908  26.442  1.00  0.00    -0.352 N 
ATOM     27  C   UNL A   1      33.555  31.639  27.355  1.00  0.00     0.251 C 
ATOM     28  H   UNL A   1      32.005  31.331  26.110  1.00  0.00     0.163 HD
ATOM     29  O   UNL A   1      33.109  32.675  27.825  1.00  0.00    -0.269 OA
BRANCH  27  30
ATOM     30  C   UNL A   1      34.866  31.112  27.783  1.00  0.00     0.039 A 
ATOM     31  C   UNL A   1      35.942  31.990  27.913  1.00  0.00     0.014 A 
ATOM     32  C   UNL A   1      34.988  29.771  28.156  1.00  0.00     0.014 A 
ATOM     33  C   UNL A   1      37.126  31.532  28.491  1.00  0.00     0.010 A 
ATOM     34  C   UNL A   1      36.122  29.354  28.836  1.00  0.00     0.010 A 
ATOM     35  C   UNL A   1      37.209  30.225  28.999  1.00  0.00    -0.014 A 
BRANCH  35  36
ATOM     36  C   UNL A   1      38.434  29.734  29.678  1.00  0.00     0.031 A 
ATOM     37  C   UNL A   1      38.798  30.278  31.032  1.00  0.00     0.074 A 
ATOM     38  C   UNL A   1      39.244  28.858  29.053  1.00  0.00     0.049 A 
ATOM     39  N   UNL A   1      39.858  30.045  31.761  1.00  0.00    -0.248 NA
ATOM     40  C   UNL A   1      37.863  31.247  31.625  1.00  0.00     0.031 C 
ATOM     41  C   UNL A   1      39.020  28.302  27.715  1.00  0.00     0.029 A 
ATOM     42  N   UNL A   1      40.422  28.282  29.455  1.00  0.00    -0.354 N 
ATOM     43  C   UNL A   1      39.723  30.850  32.888  1.00  0.00     0.074 A 
ATOM     44  C   UNL A   1      38.526  31.639  32.701  1.00  0.00     0.031 C 
ATOM     45  C   UNL A   1      40.007  27.440  27.426  1.00  0.00     0.029 A 
ATOM     46  C   UNL A   1      40.961  27.419  28.530  1.00  0.00     0.049 A 
ATOM     47  H   UNL A   1      40.843  28.469  30.326  1.00  0.00     0.167 HD
ATOM     48  C   UNL A   1      40.507  30.901  33.993  1.00  0.00     0.034 A 
ATOM     49  C   UNL A   1      42.101  26.700  28.563  1.00  0.00     0.034 A 
ATOM     50  C   UNL A   1      41.691  30.095  34.161  1.00  0.00     0.049 A 
ATOM     51  C   UNL A   1      42.975  26.790  29.789  1.00  0.00     0.074 A 
ATOM     52  C   UNL A   1      42.533  30.019  35.256  1.00  0.00     0.029 A 
ATOM     53  N   UNL A   1      42.208  29.232  33.202  1.00  0.00    -0.354 N 
ATOM     54  N   UNL A   1      42.806  27.512  30.874  1.00  0.00    -0.248 NA
ATOM     55  C   UNL A   1      44.186  25.961  29.800  1.00  0.00     0.031 C 
ATOM     56  C   UNL A   1      43.599  29.174  34.930  1.00  0.00     0.029 A 
ATOM     57  C   UNL A   1      43.377  28.648  33.667  1.00  0.00     0.049 A 
ATOM     58  H   UNL A   1      41.803  29.059  32.322  1.00  0.00     0.167 HD
ATOM     59  C   UNL A   1      43.875  27.198  31.708  1.00  0.00     0.074 A 
ATOM     60  C   UNL A   1      44.672  26.212  31.006  1.00  0.00     0.031 C 
ATOM     61  C   UNL A   1      44.169  27.676  32.946  1.00  0.00     0.034 A 
BRANCH  48  62
ATOM     62  C   UNL A   1      40.112  31.877  35.077  1.00  0.00     0.023 A 
ATOM     63  C   UNL A   1      39.321  31.486  36.173  1.00  0.00     0.031 A 
ATOM     64  C   UNL A   1      40.482  33.231  34.989  1.00  0.00     0.131 A 
ATOM     65  C   UNL A   1      38.843  32.449  37.074  1.00  0.00     0.055 A 
ATOM     66  C   UNL A   1      40.086  34.167  35.947  1.00  0.00     0.041 A 
ATOM     67  F   UNL A   1      41.217  33.674  33.956  1.00  0.00    -0.206 F 
ATOM     68  C   UNL A   1      39.245  33.783  36.986  1.00  0.00     0.022 A 
BRANCH  65  69
ATOM     69  S   UNL A   1      37.549  31.964  38.251  1.00  0.00     0.124 S 
ATOM     70  O   UNL A   1      36.525  32.974  37.994  1.00  0.00    -0.237 OA
ATOM     71  O   UNL A   1      37.229  30.606  37.826  1.00  0.00    -0.237 OA
ATOM     72  O   UNL A   1      38.210  32.073  39.550  1.00  0.00    -0.744 OA
ENDBRANCH  65  69
ENDBRANCH  48  62
BRANCH  49  73
ATOM     73  C   UNL A   1      42.486  25.842  27.405  1.00  0.00     0.023 A 
ATOM     74  C   UNL A   1      42.071  24.503  27.324  1.00  0.00     0.031 A 
ATOM     75  C   UNL A   1      43.295  26.344  26.370  1.00  0.00     0.131 A 
ATOM     76  C   UNL A   1      42.500  23.701  26.254  1.00  0.00     0.055 A 
ATOM     77  C   UNL A   1      43.672  25.558  25.280  1.00  0.00     0.041 A 
ATOM     78  F   UNL A   1      43.717  27.619  26.395  1.00  0.00    -0.206 F 
ATOM     79  C   UNL A   1      43.284  24.224  25.224  1.00  0.00     0.022 A 
BRANCH  76  80
ATOM     80  S   UNL A   1      42.080  21.936  26.266  1.00  0.00     0.124 S 
ATOM     81  O   UNL A   1      40.646  21.970  26.008  1.00  0.00    -0.237 OA
ATOM     82  O   UNL A   1      42.916  21.417  25.188  1.00  0.00    -0.237 OA
ATOM     83  O   UNL A   1      42.463  21.506  27.609  1.00  0.00    -0.744 OA
ENDBRANCH  76  80
ENDBRANCH  49  73
BRANCH  61  84
ATOM     84  C   UNL A   1      45.382  27.101  33.636  1.00  0.00     0.023 A 
ATOM     85  C   UNL A   1      45.301  25.961  34.454  1.00  0.00     0.031 A 
ATOM     86  C   UNL A   1      46.641  27.707  33.471  1.00  0.00     0.131 A 
ATOM     87  C   UNL A   1      46.444  25.499  35.123  1.00  0.00     0.055 A 
ATOM     88  C   UNL A   1      47.788  27.202  34.084  1.00  0.00     0.041 A 
ATOM     89  F   UNL A   1      46.777  28.801  32.705  1.00  0.00    -0.206 F 
ATOM     90  C   UNL A   1      47.690  26.099  34.926  1.00  0.00     0.022 A 
BRANCH  87  91
ATOM     91  S   UNL A   1      46.263  24.163  36.336  1.00  0.00     0.124 S 
ATOM     92  O   UNL A   1      45.321  23.271  35.665  1.00  0.00    -0.237 OA
ATOM     93  O   UNL A   1      47.629  23.667  36.463  1.00  0.00    -0.237 OA
ATOM     94  O   UNL A   1      45.738  24.842  37.518  1.00  0.00    -0.744 OA
ENDBRANCH  87  91
ENDBRANCH  61  84
ENDBRANCH  35  36
ENDBRANCH  27  30
ENDBRANCH  25  26
ENDBRANCH  24  25
ENDBRANCH   1  24
TORSDOF 18
ENDMDL
MODEL 2
REMARK VINA RESULT:     -11.4      1.401      2.332
REMARK SMILES Cc1ccc(C(=O)N[C@@H](CC(=O)NCCCCNC(=O)c2ccc(-c3c4nc(c(-c5cc(S(=O)(=O)[O-])ccc5F)c5ccc([nH]5)c(-c5cc(S(=O)(=O)[O-])ccc5F)c5nc(c(-c6cc(S(=O)(=O)[O-])ccc6F)c6ccc3[nH]6)C=C5)C=C4)cc2)c2cccs2)o1
REMARK SMILES IDX 15 1 14 2 13 3 11 4 12 5 10 7 9 8 8 9 6 10 7 11 5 13 1 14
REMARK SMILES IDX 2 15 3 16 89 17 4 18 84 19 85 20 88 21 86 22 87 23 16 24
REMARK SMILES IDX 17 25 18 26 19 27 20 29 21 30 22 31 83 32 23 33 82 34 24 35
REMARK SMILES IDX 25 36 26 37 76 38 27 39 81 40 75 41 77 42 28 43 80 44 74 45
REMARK SMILES IDX 73 46 29 48 61 49 41 50 60 51 42 52 45 53 59 54 78 55 43 56
REMARK SMILES IDX 44 57 58 59 79 60 46 61 30 62 31 63 39 64 32 65 38 66 40 67
REMARK SMILES IDX 37 68 33 69 34 70 35 71 36 72 62 73 63 74 71 75 64 76 70 77
REMARK SMILES IDX 72 78 69 79 65 80 66 81 67 82 68 83 47 84 48 85 56 86 49 87
REMARK SMILES IDX 55 88 57 89 54 90 50 91 51 92 52 93 53 94
REMARK H PARENT 13 6 8 12 18 28 77 47 45 58
REMARK Flexibility Score: inf
ROOT
ATOM      1  C   UNL A   1      32.232  27.459  26.793  1.00  0.00     0.023 C 
ENDROOT
BRANCH   1   2
ATOM      2  C   UNL A   1      31.200  26.715  25.947  1.00  0.00     0.116 C 
BRANCH   2   3
ATOM      3  N   UNL A   1      30.908  25.409  26.503  1.00  0.00    -0.356 N 
ATOM      4  C   UNL A   1      30.933  24.185  25.911  1.00  0.00     0.222 C 
ATOM      5  O   UNL A   1      30.632  23.199  26.588  1.00  0.00    -0.275 OA
ATOM      6  H   UNL A   1      30.652  25.407  27.455  1.00  0.00     0.163 HD
BRANCH   4   7
ATOM      7  C   UNL A   1      31.377  24.024  24.473  1.00  0.00     0.130 C 
BRANCH   7   8
ATOM      8  C   UNL A   1      32.884  24.068  24.188  1.00  0.00     0.132 C 
BRANCH   8   9
ATOM      9  N   UNL A   1      33.209  24.393  22.813  1.00  0.00    -0.341 N 
ATOM     10  C   UNL A   1      33.057  25.474  21.994  1.00  0.00     0.287 C 
ATOM     11  O   UNL A   1      33.193  25.228  20.792  1.00  0.00    -0.266 OA
ATOM     12  H   UNL A   1      33.651  23.643  22.352  1.00  0.00     0.164 HD
BRANCH  10  13
ATOM     13  C   UNL A   1      32.821  26.812  22.490  1.00  0.00     0.191 A 
ATOM     14  C   UNL A   1      30.177  29.228  22.609  1.00  0.00     0.087 C 
ATOM     15  C   UNL A   1      31.483  28.560  22.754  1.00  0.00     0.101 A 
ATOM     16  C   UNL A   1      32.730  28.970  23.154  1.00  0.00     0.046 A 
ATOM     17  O   UNL A   1      31.522  27.256  22.385  1.00  0.00    -0.456 OA
ATOM     18  C   UNL A   1      33.589  27.853  22.981  1.00  0.00     0.056 A 
ENDBRANCH  10  13
ENDBRANCH   8   9
BRANCH   8  19
ATOM     19  C   UNL A   1      33.651  22.822  24.571  1.00  0.00     0.027 A 
ATOM     20  C   UNL A   1      33.310  21.509  24.304  1.00  0.00     0.017 A 
ATOM     21  S   UNL A   1      35.099  22.896  25.500  1.00  0.00    -0.147 S 
ATOM     22  C   UNL A   1      34.210  20.575  24.896  1.00  0.00     0.012 A 
ATOM     23  C   UNL A   1      35.226  21.199  25.581  1.00  0.00     0.065 A 
ENDBRANCH   8  19
ENDBRANCH   7   8
ENDBRANCH   4   7
ENDBRANCH   2   3
ENDBRANCH   1   2
BRANCH   1  24
ATOM     24  C   UNL A   1      32.060  28.969  26.841  1.00  0.00     0.023 C 
BRANCH  24  25
ATOM     25  C   UNL A   1      33.345  29.744  26.629  1.00  0.00     0.116 C 
BRANCH  25  26
ATOM     26  N   UNL A   1      33.271  31.113  27.120  1.00  0.00    -0.352 N 
ATOM     27  C   UNL A   1      34.163  31.775  27.933  1.00  0.00     0.251 C 
ATOM     28  H   UNL A   1      32.483  31.629  26.835  1.00  0.00     0.163 HD
ATOM     29  O   UNL A   1      33.898  32.880  28.384  1.00  0.00    -0.269 OA
BRANCH  27  30
ATOM     30  C   UNL A   1      35.425  31.095  28.279  1.00  0.00     0.039 A 
ATOM     31  C   UNL A   1      36.632  31.773  28.111  1.00  0.00     0.014 A 
ATOM     32  C   UNL A   1      35.393  29.828  28.868  1.00  0.00     0.014 A 
ATOM     33  C   UNL A   1      37.806  31.206  28.608  1.00  0.00     0.010 A 
ATOM     34  C   UNL A   1      36.540  29.325  29.463  1.00  0.00     0.010 A 
ATOM     35  C   UNL A   1      37.762  30.001  29.328  1.00  0.00    -0.014 A 
BRANCH  35  36
ATOM     36  C   UNL A   1      38.985  29.409  29.924  1.00  0.00     0.031 A 
ATOM     37  C   UNL A   1      39.491  29.926  31.242  1.00  0.00     0.074 A 
ATOM     38  C   UNL A   1      39.671  28.462  29.252  1.00  0.00     0.049 A 
ATOM     39  N   UNL A   1      40.578  29.607  31.896  1.00  0.00    -0.248 NA
ATOM     40  C   UNL A   1      38.688  30.976  31.888  1.00  0.00     0.031 C 
ATOM     41  C   UNL A   1      39.303  27.921  27.941  1.00  0.00     0.029 A 
ATOM     42  N   UNL A   1      40.820  27.788  29.576  1.00  0.00    -0.354 N 
ATOM     43  C   UNL A   1      40.594  30.426  33.020  1.00  0.00     0.074 A 
ATOM     44  C   UNL A   1      39.459  31.315  32.910  1.00  0.00     0.031 C 
ATOM     45  C   UNL A   1      40.189  26.975  27.591  1.00  0.00     0.029 A 
ATOM     46  C   UNL A   1      41.215  26.877  28.625  1.00  0.00     0.049 A 
ATOM     47  H   UNL A   1      41.318  27.943  30.413  1.00  0.00     0.167 HD
ATOM     48  C   UNL A   1      41.457  30.414  34.066  1.00  0.00     0.034 A 
ATOM     49  C   UNL A   1      42.289  26.062  28.585  1.00  0.00     0.034 A 
ATOM     50  C   UNL A   1      42.576  29.510  34.159  1.00  0.00     0.049 A 
ATOM     51  C   UNL A   1      43.252  26.082  29.745  1.00  0.00     0.074 A 
ATOM     52  C   UNL A   1      43.485  29.367  35.192  1.00  0.00     0.029 A 
ATOM     53  N   UNL A   1      42.946  28.600  33.176  1.00  0.00    -0.354 N 
ATOM     54  N   UNL A   1      43.225  26.822  30.830  1.00  0.00    -0.248 NA
ATOM     55  C   UNL A   1      44.385  25.151  29.679  1.00  0.00     0.031 C 
ATOM     56  C   UNL A   1      44.449  28.431  34.800  1.00  0.00     0.029 A 
ATOM     57  C   UNL A   1      44.091  27.920  33.562  1.00  0.00     0.049 A 
ATOM     58  H   UNL A   1      42.465  28.458  32.328  1.00  0.00     0.167 HD
ATOM     59  C   UNL A   1      44.320  26.422  31.590  1.00  0.00     0.074 A 
ATOM     60  C   UNL A   1      44.977  25.367  30.844  1.00  0.00     0.031 C 
ATOM     61  C   UNL A   1      44.743  26.879  32.798  1.00  0.00     0.034 A 
BRANCH  48  62
ATOM     62  C   UNL A   1      41.226  31.427  35.164  1.00  0.00     0.023 A 
ATOM     63  C   UNL A   1      40.154  31.308  36.067  1.00  0.00     0.031 A 
ATOM     64  C   UNL A   1      42.054  32.558  35.279  1.00  0.00     0.131 A 
ATOM     65  C   UNL A   1      39.878  32.345  36.971  1.00  0.00     0.055 A 
ATOM     66  C   UNL A   1      41.833  33.539  36.249  1.00  0.00     0.041 A 
ATOM     67  F   UNL A   1      43.081  32.743  34.433  1.00  0.00    -0.206 F 
ATOM     68  C   UNL A   1      40.728  33.446  37.089  1.00  0.00     0.022 A 
BRANCH  65  69
ATOM     69  S   UNL A   1      38.296  32.318  37.860  1.00  0.00     0.124 S 
ATOM     70  O   UNL A   1      37.710  31.070  37.377  1.00  0.00    -0.237 OA
ATOM     71  O   UNL A   1      38.718  32.328  39.256  1.00  0.00    -0.237 OA
ATOM     72  O   UNL A   1      37.624  33.532  37.401  1.00  0.00    -0.744 OA
ENDBRANCH  65  69
ENDBRANCH  48  62
BRANCH  49  73
ATOM     73  C   UNL A   1      42.513  25.168  27.413  1.00  0.00     0.023 A 
ATOM     74  C   UNL A   1      42.019  23.854  27.396  1.00  0.00     0.031 A 
ATOM     75  C   UNL A   1      43.247  25.609  26.297  1.00  0.00     0.131 A 
ATOM     76  C   UNL A   1      42.299  23.014  26.306  1.00  0.00     0.055 A 
ATOM     77  C   UNL A   1      43.476  24.787  25.191  1.00  0.00     0.041 A 
ATOM     78  F   UNL A   1      43.740  26.857  26.258  1.00  0.00    -0.206 F 
ATOM     79  C   UNL A   1      43.010  23.477  25.198  1.00  0.00     0.022 A 
BRANCH  76  80
ATOM     80  S   UNL A   1      41.784  21.276  26.391  1.00  0.00     0.124 S 
ATOM     81  O   UNL A   1      40.366  21.371  26.069  1.00  0.00    -0.237 OA
ATOM     82  O   UNL A   1      42.634  20.657  25.379  1.00  0.00    -0.237 OA
ATOM     83  O   UNL A   1      42.088  20.899  27.770  1.00  0.00    -0.744 OA
ENDBRANCH  76  80
ENDBRANCH  49  73
BRANCH  61  84
ATOM     84  C   UNL A   1      45.949  26.204  33.406  1.00  0.00     0.023 A 
ATOM     85  C   UNL A   1      45.839  25.020  34.155  1.00  0.00     0.031 A 
ATOM     86  C   UNL A   1      47.229  26.759  33.233  1.00  0.00     0.131 A 
ATOM     87  C   UNL A   1      46.979  24.463  34.753  1.00  0.00     0.055 A 
ATOM     88  C   UNL A   1      48.370  26.162  33.771  1.00  0.00     0.041 A 
ATOM     89  F   UNL A   1      47.394  27.892  32.530  1.00  0.00    -0.206 F 
ATOM     90  C   UNL A   1      48.246  25.015  34.547  1.00  0.00     0.022 A 
BRANCH  87  91
ATOM     91  S   UNL A   1      46.772  23.064  35.887  1.00  0.00     0.124 S 
ATOM     92  O   UNL A   1      47.462  21.992  35.175  1.00  0.00    -0.237 OA
ATOM     93  O   UNL A   1      47.424  23.545  37.100  1.00  0.00    -0.237 OA
ATOM     94  O   UNL A   1      45.322  22.911  35.983  1.00  0.00    -0.744 OA
ENDBRANCH  87  91
ENDBRANCH  61  84
ENDBRANCH  35  36
ENDBRANCH  27  30
ENDBRANCH  25  26
ENDBRANCH  24  25
ENDBRANCH   1  24
TORSDOF 18
ENDMDL
MODEL 3
REMARK VINA RESULT:     -11.4      3.167      8.648
REMARK SMILES Cc1ccc(C(=O)N[C@@H](CC(=O)NCCCCNC(=O)c2ccc(-c3c4nc(c(-c5cc(S(=O)(=O)[O-])ccc5F)c5ccc([nH]5)c(-c5cc(S(=O)(=O)[O-])ccc5F)c5nc(c(-c6cc(S(=O)(=O)[O-])ccc6F)c6ccc3[nH]6)C=C5)C=C4)cc2)c2cccs2)o1
REMARK SMILES IDX 15 1 14 2 13 3 11 4 12 5 10 7 9 8 8 9 6 10 7 11 5 13 1 14
REMARK SMILES IDX 2 15 3 16 89 17 4 18 84 19 85 20 88 21 86 22 87 23 16 24
REMARK SMILES IDX 17 25 18 26 19 27 20 29 21 30 22 31 83 32 23 33 82 34 24 35
REMARK SMILES IDX 25 36 26 37 76 38 27 39 81 40 75 41 77 42 28 43 80 44 74 45
REMARK SMILES IDX 73 46 29 48 61 49 41 50 60 51 42 52 45 53 59 54 78 55 43 56
REMARK SMILES IDX 44 57 58 59 79 60 46 61 30 62 31 63 39 64 32 65 38 66 40 67
REMARK SMILES IDX 37 68 33 69 34 70 35 71 36 72 62 73 63 74 71 75 64 76 70 77
REMARK SMILES IDX 72 78 69 79 65 80 66 81 67 82 68 83 47 84 48 85 56 86 49 87
REMARK SMILES IDX 55 88 57 89 54 90 50 91 51 92 52 93 53 94
REMARK H PARENT 13 6 8 12 18 28 77 47 45 58
REMARK Flexibility Score: inf
ROOT
ATOM      1  C   UNL A   1      31.434  30.722  25.827  1.00  0.00     0.023 C 
ENDROOT
BRANCH   1   2
ATOM      2  C   UNL A   1      32.767  29.988  25.954  1.00  0.00     0.116 C 
BRANCH   2   3
ATOM      3  N   UNL A   1      33.328  29.688  24.651  1.00  0.00    -0.356 N 
ATOM      4  C   UNL A   1      33.206  28.571  23.886  1.00  0.00     0.222 C 
ATOM      5  O   UNL A   1      33.789  28.536  22.801  1.00  0.00    -0.275 OA
ATOM      6  H   UNL A   1      33.884  30.403  24.262  1.00  0.00     0.163 HD
BRANCH   4   7
ATOM      7  C   UNL A   1      32.325  27.420  24.324  1.00  0.00     0.130 C 
BRANCH   7   8
ATOM      8  C   UNL A   1      31.271  26.917  23.329  1.00  0.00     0.132 C 
BRANCH   8   9
ATOM      9  N   UNL A   1      31.822  26.508  22.052  1.00  0.00    -0.341 N 
ATOM     10  C   UNL A   1      32.759  25.612  21.626  1.00  0.00     0.287 C 
ATOM     11  O   UNL A   1      33.155  25.796  20.471  1.00  0.00    -0.266 OA
ATOM     12  H   UNL A   1      31.419  27.002  21.301  1.00  0.00     0.164 HD
BRANCH  10  13
ATOM     13  C   UNL A   1      33.210  24.498  22.432  1.00  0.00     0.191 A 
ATOM     14  C   UNL A   1      36.271  22.852  23.306  1.00  0.00     0.087 C 
ATOM     15  C   UNL A   1      34.845  23.208  23.192  1.00  0.00     0.101 A 
ATOM     16  C   UNL A   1      33.673  22.606  23.577  1.00  0.00     0.046 A 
ATOM     17  O   UNL A   1      34.576  24.362  22.532  1.00  0.00    -0.456 OA
ATOM     18  C   UNL A   1      32.625  23.429  23.086  1.00  0.00     0.056 A 
ENDBRANCH  10  13
ENDBRANCH   8   9
BRANCH   8  19
ATOM     19  C   UNL A   1      30.127  27.870  23.063  1.00  0.00     0.027 A 
ATOM     20  C   UNL A   1      28.792  27.690  23.373  1.00  0.00     0.017 A 
ATOM     21  S   UNL A   1      30.361  29.359  22.229  1.00  0.00    -0.147 S 
ATOM     22  C   UNL A   1      27.967  28.748  22.891  1.00  0.00     0.012 A 
ATOM     23  C   UNL A   1      28.695  29.718  22.243  1.00  0.00     0.065 A 
ENDBRANCH   8  19
ENDBRANCH   7   8
ENDBRANCH   4   7
ENDBRANCH   2   3
ENDBRANCH   1   2
BRANCH   1  24
ATOM     24  C   UNL A   1      31.350  32.042  26.578  1.00  0.00     0.023 C 
BRANCH  24  25
ATOM     25  C   UNL A   1      32.643  32.452  27.252  1.00  0.00     0.116 C 
BRANCH  25  26
ATOM     26  N   UNL A   1      32.669  33.861  27.622  1.00  0.00    -0.352 N 
ATOM     27  C   UNL A   1      33.531  34.498  28.486  1.00  0.00     0.251 C 
ATOM     28  H   UNL A   1      31.984  34.428  27.201  1.00  0.00     0.163 HD
ATOM     29  O   UNL A   1      33.344  35.661  28.813  1.00  0.00    -0.269 OA
BRANCH  27  30
ATOM     30  C   UNL A   1      34.659  33.724  29.039  1.00  0.00     0.039 A 
ATOM     31  C   UNL A   1      35.964  34.120  28.748  1.00  0.00     0.014 A 
ATOM     32  C   UNL A   1      34.412  32.676  29.930  1.00  0.00     0.014 A 
ATOM     33  C   UNL A   1      37.025  33.508  29.414  1.00  0.00     0.010 A 
ATOM     34  C   UNL A   1      35.459  32.155  30.675  1.00  0.00     0.010 A 
ATOM     35  C   UNL A   1      36.778  32.554  30.415  1.00  0.00    -0.014 A 
BRANCH  35  36
ATOM     36  C   UNL A   1      37.885  31.936  31.186  1.00  0.00     0.031 A 
ATOM     37  C   UNL A   1      38.674  30.809  30.576  1.00  0.00     0.074 A 
ATOM     38  C   UNL A   1      38.135  32.339  32.448  1.00  0.00     0.049 A 
ATOM     39  N   UNL A   1      39.623  30.081  31.103  1.00  0.00    -0.248 NA
ATOM     40  C   UNL A   1      38.314  30.424  29.202  1.00  0.00     0.031 C 
ATOM     41  C   UNL A   1      37.399  33.386  33.163  1.00  0.00     0.029 A 
ATOM     42  N   UNL A   1      39.071  31.916  33.356  1.00  0.00    -0.354 N 
ATOM     43  C   UNL A   1      39.961  29.145  30.132  1.00  0.00     0.074 A 
ATOM     44  C   UNL A   1      39.055  29.342  29.023  1.00  0.00     0.031 C 
ATOM     45  C   UNL A   1      37.937  33.547  34.382  1.00  0.00     0.029 A 
ATOM     46  C   UNL A   1      39.019  32.583  34.558  1.00  0.00     0.049 A 
ATOM     47  H   UNL A   1      39.721  31.201  33.166  1.00  0.00     0.167 HD
ATOM     48  C   UNL A   1      40.958  28.227  30.150  1.00  0.00     0.034 A 
ATOM     49  C   UNL A   1      39.752  32.427  35.678  1.00  0.00     0.034 A 
ATOM     50  C   UNL A   1      41.857  28.055  31.264  1.00  0.00     0.049 A 
ATOM     51  C   UNL A   1      40.839  31.383  35.689  1.00  0.00     0.074 A 
ATOM     52  C   UNL A   1      42.938  27.199  31.376  1.00  0.00     0.029 A 
ATOM     53  N   UNL A   1      41.774  28.749  32.466  1.00  0.00    -0.354 N 
ATOM     54  N   UNL A   1      41.187  30.541  34.742  1.00  0.00    -0.248 NA
ATOM     55  C   UNL A   1      41.639  31.274  36.915  1.00  0.00     0.031 C 
ATOM     56  C   UNL A   1      43.456  27.316  32.670  1.00  0.00     0.029 A 
ATOM     57  C   UNL A   1      42.761  28.312  33.337  1.00  0.00     0.049 A 
ATOM     58  H   UNL A   1      41.112  29.449  32.669  1.00  0.00     0.167 HD
ATOM     59  C   UNL A   1      42.267  29.825  35.249  1.00  0.00     0.074 A 
ATOM     60  C   UNL A   1      42.521  30.344  36.578  1.00  0.00     0.031 C 
ATOM     61  C   UNL A   1      42.990  28.832  34.667  1.00  0.00     0.034 A 
BRANCH  48  62
ATOM     62  C   UNL A   1      41.098  27.333  28.938  1.00  0.00     0.023 A 
ATOM     63  C   UNL A   1      42.136  27.509  28.005  1.00  0.00     0.031 A 
ATOM     64  C   UNL A   1      40.150  26.327  28.679  1.00  0.00     0.131 A 
ATOM     65  C   UNL A   1      42.144  26.766  26.815  1.00  0.00     0.055 A 
ATOM     66  C   UNL A   1      40.222  25.522  27.540  1.00  0.00     0.041 A 
ATOM     67  F   UNL A   1      39.122  26.123  29.518  1.00  0.00    -0.206 F 
ATOM     68  C   UNL A   1      41.211  25.752  26.590  1.00  0.00     0.022 A 
BRANCH  65  69
ATOM     69  S   UNL A   1      43.280  27.268  25.491  1.00  0.00     0.124 S 
ATOM     70  O   UNL A   1      42.402  28.063  24.636  1.00  0.00    -0.237 OA
ATOM     71  O   UNL A   1      44.305  28.007  26.219  1.00  0.00    -0.237 OA
ATOM     72  O   UNL A   1      43.716  25.997  24.914  1.00  0.00    -0.744 OA
ENDBRANCH  65  69
ENDBRANCH  48  62
BRANCH  49  73
ATOM     73  C   UNL A   1      39.482  33.271  36.879  1.00  0.00     0.023 A 
ATOM     74  C   UNL A   1      40.175  34.473  37.093  1.00  0.00     0.031 A 
ATOM     75  C   UNL A   1      38.539  32.874  37.844  1.00  0.00     0.131 A 
ATOM     76  C   UNL A   1      39.946  35.214  38.263  1.00  0.00     0.055 A 
ATOM     77  C   UNL A   1      38.275  33.643  38.979  1.00  0.00     0.041 A 
ATOM     78  F   UNL A   1      37.845  31.735  37.688  1.00  0.00    -0.206 F 
ATOM     79  C   UNL A   1      38.990  34.816  39.199  1.00  0.00     0.022 A 
BRANCH  76  80
ATOM     80  S   UNL A   1      40.975  36.674  38.584  1.00  0.00     0.124 S 
ATOM     81  O   UNL A   1      41.726  36.787  37.339  1.00  0.00    -0.237 OA
ATOM     82  O   UNL A   1      39.972  37.706  38.825  1.00  0.00    -0.237 OA
ATOM     83  O   UNL A   1      41.759  36.286  39.754  1.00  0.00    -0.744 OA
ENDBRANCH  76  80
ENDBRANCH  49  73
BRANCH  61  84
ATOM     84  C   UNL A   1      44.153  28.276  35.453  1.00  0.00     0.023 A 
ATOM     85  C   UNL A   1      45.446  28.819  35.351  1.00  0.00     0.031 A 
ATOM     86  C   UNL A   1      43.962  27.183  36.317  1.00  0.00     0.131 A 
ATOM     87  C   UNL A   1      46.508  28.230  36.054  1.00  0.00     0.055 A 
ATOM     88  C   UNL A   1      45.009  26.646  37.067  1.00  0.00     0.041 A 
ATOM     89  F   UNL A   1      42.750  26.621  36.451  1.00  0.00    -0.206 F 
ATOM     90  C   UNL A   1      46.293  27.162  36.927  1.00  0.00     0.022 A 
BRANCH  87  91
ATOM     91  S   UNL A   1      48.194  28.817  35.734  1.00  0.00     0.124 S 
ATOM     92  O   UNL A   1      48.703  27.794  34.825  1.00  0.00    -0.237 OA
ATOM     93  O   UNL A   1      47.962  30.132  35.147  1.00  0.00    -0.237 OA
ATOM     94  O   UNL A   1      48.809  28.830  37.060  1.00  0.00    -0.744 OA
ENDBRANCH  87  91
ENDBRANCH  61  84
ENDBRANCH  35  36
ENDBRANCH  27  30
ENDBRANCH  25  26
ENDBRANCH  24  25
ENDBRANCH   1  24
TORSDOF 18
ENDMDL
