MODEL 1
REMARK VINA RESULT:     -12.2      0.000      0.000
REMARK SMILES CC(C)CN(C)c1cc2c(cc1Cl)C=C(C(=O)NCCCCNC(=O)c1ccc(-c3c4nc(c(-c5cc(S(=O)(=O)[O-])ccc5F)c5ccc([nH]5)c(-c5cc(S(=O)(=O)[O-])ccc5F)c5nc(c(-c6cc(S(=O)(=O)[O-])ccc6F)c6ccc3[nH]6)C=C5)C=C4)cc1)[C@H](C(F)(F)F)O2
REMARK SMILES IDX 20 1 19 2 18 3 16 4 17 5 15 7 7 8 8 9 12 10 9 11 11 12 13 13
REMARK SMILES IDX 10 14 94 15 14 16 89 17 5 18 6 19 4 20 2 21 1 22 3 23 90 24
REMARK SMILES IDX 91 25 92 26 93 27 21 28 22 29 23 30 24 31 25 33 26 34 27 35
REMARK SMILES IDX 88 36 28 37 87 38 29 39 30 40 31 41 81 42 32 43 86 44 80 45
REMARK SMILES IDX 82 46 33 47 85 48 79 49 78 50 34 52 66 53 46 54 65 55 47 56
REMARK SMILES IDX 50 57 64 58 83 59 48 60 49 61 63 63 84 64 51 65 35 66 36 67
REMARK SMILES IDX 44 68 37 69 43 70 45 71 42 72 38 73 39 74 40 75 41 76 67 77
REMARK SMILES IDX 68 78 76 79 69 80 75 81 77 82 74 83 70 84 71 85 72 86 73 87
REMARK SMILES IDX 52 88 53 89 61 90 54 91 60 92 62 93 59 94 55 95 56 96 57 97
REMARK SMILES IDX 58 98
REMARK H PARENT 18 6 23 32 82 51 50 62
REMARK Flexibility Score: inf
ROOT
ATOM      1  C   UNL A   1      31.037  29.175  24.385  1.00  0.00     0.023 C 
ENDROOT
BRANCH   1   2
ATOM      2  C   UNL A   1      30.690  27.873  23.667  1.00  0.00     0.116 C 
BRANCH   2   3
ATOM      3  N   UNL A   1      31.674  27.573  22.647  1.00  0.00    -0.352 N 
ATOM      4  C   UNL A   1      32.459  26.508  22.365  1.00  0.00     0.251 C 
ATOM      5  O   UNL A   1      33.175  26.599  21.364  1.00  0.00    -0.270 OA
ATOM      6  H   UNL A   1      31.800  28.315  22.013  1.00  0.00     0.163 HD
BRANCH   4   7
ATOM      7  C   UNL A   1      32.478  25.253  23.168  1.00  0.00     0.067 C 
ATOM      8  C   UNL A   1      32.785  20.333  24.331  1.00  0.00     0.059 A 
ATOM      9  C   UNL A   1      32.891  21.534  25.051  1.00  0.00     0.074 A 
ATOM     10  C   UNL A   1      32.435  20.424  22.967  1.00  0.00     0.065 A 
ATOM     11  C   UNL A   1      32.701  22.772  24.434  1.00  0.00     0.130 A 
ATOM     12  C   UNL A   1      32.297  21.667  22.338  1.00  0.00     0.034 A 
ATOM     13  Cl  UNL A   1      32.115  19.022  22.004  1.00  0.00    -0.082 Cl
ATOM     14  C   UNL A   1      32.443  22.845  23.071  1.00  0.00     0.019 A 
ATOM     15  O   UNL A   1      32.775  23.860  25.246  1.00  0.00    -0.475 OA
ATOM     16  C   UNL A   1      32.341  24.140  22.426  1.00  0.00     0.025 C 
ATOM     17  C   UNL A   1      32.726  25.190  24.655  1.00  0.00     0.314 C 
BRANCH   8  18
ATOM     18  N   UNL A   1      33.030  19.105  24.966  1.00  0.00    -0.373 N 
ATOM     19  C   UNL A   1      32.723  19.084  26.395  1.00  0.00     0.143 C 
BRANCH  18  20
ATOM     20  C   UNL A   1      34.259  18.392  24.556  1.00  0.00     0.119 C 
BRANCH  20  21
ATOM     21  C   UNL A   1      34.002  16.904  24.240  1.00  0.00     0.002 C 
ATOM     22  C   UNL A   1      34.356  16.559  22.791  1.00  0.00     0.009 C 
ATOM     23  C   UNL A   1      34.805  15.997  25.177  1.00  0.00     0.009 C 
ENDBRANCH  20  21
ENDBRANCH  18  20
ENDBRANCH   8  18
BRANCH  17  24
ATOM     24  C   UNL A   1      33.966  25.954  25.154  1.00  0.00     0.429 C 
ATOM     25  F   UNL A   1      34.294  27.016  24.390  1.00  0.00    -0.167 F 
ATOM     26  F   UNL A   1      33.743  26.416  26.413  1.00  0.00    -0.167 F 
ATOM     27  F   UNL A   1      35.067  25.168  25.221  1.00  0.00    -0.167 F 
ENDBRANCH  17  24
ENDBRANCH   4   7
ENDBRANCH   2   3
ENDBRANCH   1   2
BRANCH   1  28
ATOM     28  C   UNL A   1      31.732  28.989  25.732  1.00  0.00     0.023 C 
BRANCH  28  29
ATOM     29  C   UNL A   1      32.946  29.878  25.953  1.00  0.00     0.116 C 
BRANCH  29  30
ATOM     30  N   UNL A   1      32.648  31.126  26.645  1.00  0.00    -0.352 N 
ATOM     31  C   UNL A   1      33.468  31.830  27.499  1.00  0.00     0.251 C 
ATOM     32  H   UNL A   1      31.756  31.511  26.483  1.00  0.00     0.163 HD
ATOM     33  O   UNL A   1      33.072  32.842  28.064  1.00  0.00    -0.269 OA
BRANCH  31  34
ATOM     34  C   UNL A   1      34.813  31.285  27.756  1.00  0.00     0.039 A 
ATOM     35  C   UNL A   1      34.950  29.943  28.121  1.00  0.00     0.014 A 
ATOM     36  C   UNL A   1      35.896  32.163  27.819  1.00  0.00     0.014 A 
ATOM     37  C   UNL A   1      36.118  29.532  28.744  1.00  0.00     0.010 A 
ATOM     38  C   UNL A   1      37.101  31.716  28.360  1.00  0.00     0.010 A 
ATOM     39  C   UNL A   1      37.199  30.418  28.887  1.00  0.00    -0.014 A 
BRANCH  39  40
ATOM     40  C   UNL A   1      38.413  29.985  29.625  1.00  0.00     0.031 A 
ATOM     41  C   UNL A   1      39.371  28.999  29.013  1.00  0.00     0.074 A 
ATOM     42  C   UNL A   1      38.670  30.523  30.831  1.00  0.00     0.049 A 
ATOM     43  N   UNL A   1      40.442  28.462  29.536  1.00  0.00    -0.248 NA
ATOM     44  C   UNL A   1      39.092  28.558  27.637  1.00  0.00     0.031 C 
ATOM     45  C   UNL A   1      37.828  31.518  31.496  1.00  0.00     0.029 A 
ATOM     46  N   UNL A   1      39.710  30.330  31.703  1.00  0.00    -0.354 N 
ATOM     47  C   UNL A   1      40.952  27.604  28.567  1.00  0.00     0.074 A 
ATOM     48  C   UNL A   1      40.058  27.672  27.433  1.00  0.00     0.031 C 
ATOM     49  C   UNL A   1      38.405  31.881  32.647  1.00  0.00     0.029 A 
ATOM     50  C   UNL A   1      39.607  31.078  32.853  1.00  0.00     0.049 A 
ATOM     51  H   UNL A   1      40.458  29.715  31.525  1.00  0.00     0.167 HD
ATOM     52  C   UNL A   1      42.070  26.843  28.620  1.00  0.00     0.034 A 
ATOM     53  C   UNL A   1      40.371  31.095  33.963  1.00  0.00     0.034 A 
ATOM     54  C   UNL A   1      42.958  26.808  29.753  1.00  0.00     0.049 A 
ATOM     55  C   UNL A   1      41.579  30.202  34.022  1.00  0.00     0.074 A 
ATOM     56  C   UNL A   1      44.117  26.068  29.909  1.00  0.00     0.029 A 
ATOM     57  N   UNL A   1      42.800  27.551  30.915  1.00  0.00    -0.354 N 
ATOM     58  N   UNL A   1      42.041  29.386  33.104  1.00  0.00    -0.248 NA
ATOM     59  C   UNL A   1      42.367  30.218  35.261  1.00  0.00     0.031 C 
ATOM     60  C   UNL A   1      44.631  26.325  31.181  1.00  0.00     0.029 A 
ATOM     61  C   UNL A   1      43.830  27.272  31.799  1.00  0.00     0.049 A 
ATOM     62  H   UNL A   1      42.064  28.182  31.086  1.00  0.00     0.167 HD
ATOM     63  C   UNL A   1      43.176  28.797  33.648  1.00  0.00     0.074 A 
ATOM     64  C   UNL A   1      43.347  29.370  34.968  1.00  0.00     0.031 C 
ATOM     65  C   UNL A   1      43.994  27.861  33.107  1.00  0.00     0.034 A 
BRANCH  52  66
ATOM     66  C   UNL A   1      42.419  25.983  27.429  1.00  0.00     0.023 A 
ATOM     67  C   UNL A   1      42.010  24.637  27.385  1.00  0.00     0.031 A 
ATOM     68  C   UNL A   1      43.254  26.459  26.403  1.00  0.00     0.131 A 
ATOM     69  C   UNL A   1      42.461  23.806  26.351  1.00  0.00     0.055 A 
ATOM     70  C   UNL A   1      43.672  25.636  25.357  1.00  0.00     0.041 A 
ATOM     71  F   UNL A   1      43.668  27.737  26.399  1.00  0.00    -0.206 F 
ATOM     72  C   UNL A   1      43.285  24.299  25.334  1.00  0.00     0.022 A 
BRANCH  69  73
ATOM     73  S   UNL A   1      42.043  22.041  26.314  1.00  0.00     0.124 S 
ATOM     74  O   UNL A   1      42.881  21.559  25.217  1.00  0.00    -0.237 OA
ATOM     75  O   UNL A   1      42.449  21.602  27.647  1.00  0.00    -0.237 OA
ATOM     76  O   UNL A   1      40.608  22.024  26.054  1.00  0.00    -0.744 OA
ENDBRANCH  69  73
ENDBRANCH  52  66
BRANCH  53  77
ATOM     77  C   UNL A   1      39.991  32.014  35.075  1.00  0.00     0.023 A 
ATOM     78  C   UNL A   1      39.255  31.538  36.178  1.00  0.00     0.031 A 
ATOM     79  C   UNL A   1      40.214  33.396  34.975  1.00  0.00     0.131 A 
ATOM     80  C   UNL A   1      38.684  32.445  37.077  1.00  0.00     0.055 A 
ATOM     81  C   UNL A   1      39.709  34.291  35.920  1.00  0.00     0.041 A 
ATOM     82  F   UNL A   1      40.899  33.897  33.936  1.00  0.00    -0.206 F 
ATOM     83  C   UNL A   1      38.918  33.818  36.964  1.00  0.00     0.022 A 
BRANCH  80  84
ATOM     84  S   UNL A   1      37.478  31.888  38.315  1.00  0.00     0.124 S 
ATOM     85  O   UNL A   1      37.223  30.514  37.893  1.00  0.00    -0.237 OA
ATOM     86  O   UNL A   1      38.234  32.039  39.556  1.00  0.00    -0.237 OA
ATOM     87  O   UNL A   1      36.363  32.816  38.153  1.00  0.00    -0.744 OA
ENDBRANCH  80  84
ENDBRANCH  53  77
BRANCH  65  88
ATOM     88  C   UNL A   1      45.163  27.368  33.921  1.00  0.00     0.023 A 
ATOM     89  C   UNL A   1      44.988  26.311  34.835  1.00  0.00     0.031 A 
ATOM     90  C   UNL A   1      46.387  28.059  33.922  1.00  0.00     0.131 A 
ATOM     91  C   UNL A   1      46.004  26.009  35.748  1.00  0.00     0.055 A 
ATOM     92  C   UNL A   1      47.414  27.723  34.806  1.00  0.00     0.041 A 
ATOM     93  F   UNL A   1      46.594  29.079  33.075  1.00  0.00    -0.206 F 
ATOM     94  C   UNL A   1      47.217  26.705  35.736  1.00  0.00     0.022 A 
BRANCH  91  95
ATOM     95  S   UNL A   1      45.757  24.760  37.039  1.00  0.00     0.124 S 
ATOM     96  O   UNL A   1      45.069  23.698  36.308  1.00  0.00    -0.237 OA
ATOM     97  O   UNL A   1      47.129  24.455  37.436  1.00  0.00    -0.237 OA
ATOM     98  O   UNL A   1      44.949  25.444  38.042  1.00  0.00    -0.744 OA
ENDBRANCH  91  95
ENDBRANCH  65  88
ENDBRANCH  39  40
ENDBRANCH  31  34
ENDBRANCH  29  30
ENDBRANCH  28  29
ENDBRANCH   1  28
TORSDOF 18
ENDMDL
MODEL 2
REMARK VINA RESULT:     -11.9      2.741      8.022
REMARK SMILES CC(C)CN(C)c1cc2c(cc1Cl)C=C(C(=O)NCCCCNC(=O)c1ccc(-c3c4nc(c(-c5cc(S(=O)(=O)[O-])ccc5F)c5ccc([nH]5)c(-c5cc(S(=O)(=O)[O-])ccc5F)c5nc(c(-c6cc(S(=O)(=O)[O-])ccc6F)c6ccc3[nH]6)C=C5)C=C4)cc1)[C@H](C(F)(F)F)O2
REMARK SMILES IDX 20 1 19 2 18 3 16 4 17 5 15 7 7 8 8 9 12 10 9 11 11 12 13 13
REMARK SMILES IDX 10 14 94 15 14 16 89 17 5 18 6 19 4 20 2 21 1 22 3 23 90 24
REMARK SMILES IDX 91 25 92 26 93 27 21 28 22 29 23 30 24 31 25 33 26 34 27 35
REMARK SMILES IDX 88 36 28 37 87 38 29 39 30 40 31 41 81 42 32 43 86 44 80 45
REMARK SMILES IDX 82 46 33 47 85 48 79 49 78 50 34 52 66 53 46 54 65 55 47 56
REMARK SMILES IDX 50 57 64 58 83 59 48 60 49 61 63 63 84 64 51 65 35 66 36 67
REMARK SMILES IDX 44 68 37 69 43 70 45 71 42 72 38 73 39 74 40 75 41 76 67 77
REMARK SMILES IDX 68 78 76 79 69 80 75 81 77 82 74 83 70 84 71 85 72 86 73 87
REMARK SMILES IDX 52 88 53 89 61 90 54 91 60 92 62 93 59 94 55 95 56 96 57 97
REMARK SMILES IDX 58 98
REMARK H PARENT 18 6 23 32 82 51 50 62
REMARK Flexibility Score: inf
ROOT
ATOM      1  C   UNL A   1      33.007  29.394  27.252  1.00  0.00     0.023 C 
ENDROOT
BRANCH   1   2
ATOM      2  C   UNL A   1      34.137  28.770  26.435  1.00  0.00     0.116 C 
BRANCH   2   3
ATOM      3  N   UNL A   1      33.975  29.067  25.027  1.00  0.00    -0.352 N 
ATOM      4  C   UNL A   1      33.560  28.366  23.947  1.00  0.00     0.251 C 
ATOM      5  O   UNL A   1      33.520  28.976  22.875  1.00  0.00    -0.270 OA
ATOM      6  H   UNL A   1      34.223  29.993  24.804  1.00  0.00     0.163 HD
BRANCH   4   7
ATOM      7  C   UNL A   1      33.134  26.939  23.996  1.00  0.00     0.067 C 
ATOM      8  C   UNL A   1      33.233  21.956  24.895  1.00  0.00     0.059 A 
ATOM      9  C   UNL A   1      32.230  22.895  24.603  1.00  0.00     0.074 A 
ATOM     10  C   UNL A   1      34.569  22.408  24.877  1.00  0.00     0.065 A 
ATOM     11  C   UNL A   1      32.537  24.233  24.348  1.00  0.00     0.130 A 
ATOM     12  C   UNL A   1      34.871  23.761  24.674  1.00  0.00     0.034 A 
ATOM     13  Cl  UNL A   1      35.909  21.329  25.060  1.00  0.00    -0.082 Cl
ATOM     14  C   UNL A   1      33.850  24.678  24.421  1.00  0.00     0.019 A 
ATOM     15  O   UNL A   1      31.486  25.034  24.024  1.00  0.00    -0.475 OA
ATOM     16  C   UNL A   1      34.143  26.088  24.247  1.00  0.00     0.025 C 
ATOM     17  C   UNL A   1      31.706  26.466  23.881  1.00  0.00     0.314 C 
BRANCH   8  18
ATOM     18  N   UNL A   1      32.890  20.627  25.195  1.00  0.00    -0.373 N 
ATOM     19  C   UNL A   1      33.165  20.221  26.572  1.00  0.00     0.143 C 
BRANCH  18  20
ATOM     20  C   UNL A   1      33.191  19.625  24.151  1.00  0.00     0.119 C 
BRANCH  20  21
ATOM     21  C   UNL A   1      33.520  18.238  24.739  1.00  0.00     0.002 C 
ATOM     22  C   UNL A   1      32.511  17.175  24.295  1.00  0.00     0.009 C 
ATOM     23  C   UNL A   1      34.927  17.788  24.333  1.00  0.00     0.009 C 
ENDBRANCH  20  21
ENDBRANCH  18  20
ENDBRANCH   8  18
BRANCH  17  24
ATOM     24  C   UNL A   1      30.696  27.173  24.803  1.00  0.00     0.429 C 
ATOM     25  F   UNL A   1      30.738  28.519  24.722  1.00  0.00    -0.167 F 
ATOM     26  F   UNL A   1      29.433  26.789  24.478  1.00  0.00    -0.167 F 
ATOM     27  F   UNL A   1      30.873  26.855  26.107  1.00  0.00    -0.167 F 
ENDBRANCH  17  24
ENDBRANCH   4   7
ENDBRANCH   2   3
ENDBRANCH   1   2
BRANCH   1  28
ATOM     28  C   UNL A   1      32.686  30.841  26.885  1.00  0.00     0.023 C 
BRANCH  28  29
ATOM     29  C   UNL A   1      33.588  31.880  27.530  1.00  0.00     0.116 C 
BRANCH  29  30
ATOM     30  N   UNL A   1      32.983  33.202  27.643  1.00  0.00    -0.352 N 
ATOM     31  C   UNL A   1      33.316  34.206  28.526  1.00  0.00     0.251 C 
ATOM     32  H   UNL A   1      32.249  33.399  27.016  1.00  0.00     0.163 HD
ATOM     33  O   UNL A   1      32.686  35.256  28.555  1.00  0.00    -0.269 OA
BRANCH  31  34
ATOM     34  C   UNL A   1      34.416  33.944  29.472  1.00  0.00     0.039 A 
ATOM     35  C   UNL A   1      35.726  34.255  29.101  1.00  0.00     0.014 A 
ATOM     36  C   UNL A   1      34.148  33.215  30.632  1.00  0.00     0.014 A 
ATOM     37  C   UNL A   1      36.777  33.661  29.782  1.00  0.00     0.010 A 
ATOM     38  C   UNL A   1      35.214  32.698  31.368  1.00  0.00     0.010 A 
ATOM     39  C   UNL A   1      36.532  32.860  30.911  1.00  0.00    -0.014 A 
BRANCH  39  40
ATOM     40  C   UNL A   1      37.661  32.169  31.581  1.00  0.00     0.031 A 
ATOM     41  C   UNL A   1      38.069  32.545  32.980  1.00  0.00     0.074 A 
ATOM     42  C   UNL A   1      38.287  31.166  30.939  1.00  0.00     0.049 A 
ATOM     43  N   UNL A   1      39.067  32.095  33.694  1.00  0.00    -0.248 NA
ATOM     44  C   UNL A   1      37.252  33.558  33.668  1.00  0.00     0.031 C 
ATOM     45  C   UNL A   1      37.944  30.695  29.597  1.00  0.00     0.029 A 
ATOM     46  N   UNL A   1      39.323  30.354  31.322  1.00  0.00    -0.354 N 
ATOM     47  C   UNL A   1      39.015  32.782  34.902  1.00  0.00     0.074 A 
ATOM     48  C   UNL A   1      37.902  33.700  34.816  1.00  0.00     0.031 C 
ATOM     49  C   UNL A   1      38.720  29.651  29.287  1.00  0.00     0.029 A 
ATOM     50  C   UNL A   1      39.682  29.435  30.364  1.00  0.00     0.049 A 
ATOM     51  H   UNL A   1      39.767  30.421  32.199  1.00  0.00     0.167 HD
ATOM     52  C   UNL A   1      39.817  32.646  35.985  1.00  0.00     0.034 A 
ATOM     53  C   UNL A   1      40.693  28.543  30.335  1.00  0.00     0.034 A 
ATOM     54  C   UNL A   1      40.908  31.709  36.056  1.00  0.00     0.049 A 
ATOM     55  C   UNL A   1      41.604  28.445  31.527  1.00  0.00     0.074 A 
ATOM     56  C   UNL A   1      41.784  31.494  37.106  1.00  0.00     0.029 A 
ATOM     57  N   UNL A   1      41.266  30.821  35.050  1.00  0.00    -0.354 N 
ATOM     58  N   UNL A   1      41.550  29.112  32.657  1.00  0.00    -0.248 NA
ATOM     59  C   UNL A   1      42.716  27.490  31.447  1.00  0.00     0.031 C 
ATOM     60  C   UNL A   1      42.699  30.515  36.717  1.00  0.00     0.029 A 
ATOM     61  C   UNL A   1      42.360  30.071  35.449  1.00  0.00     0.049 A 
ATOM     62  H   UNL A   1      40.810  30.739  34.182  1.00  0.00     0.167 HD
ATOM     63  C   UNL A   1      42.614  28.652  33.425  1.00  0.00     0.074 A 
ATOM     64  C   UNL A   1      43.279  27.631  32.641  1.00  0.00     0.031 C 
ATOM     65  C   UNL A   1      43.006  29.048  34.661  1.00  0.00     0.034 A 
BRANCH  52  66
ATOM     66  C   UNL A   1      39.560  33.515  37.192  1.00  0.00     0.023 A 
ATOM     67  C   UNL A   1      40.306  34.693  37.387  1.00  0.00     0.031 A 
ATOM     68  C   UNL A   1      38.668  33.117  38.203  1.00  0.00     0.131 A 
ATOM     69  C   UNL A   1      40.167  35.415  38.579  1.00  0.00     0.055 A 
ATOM     70  C   UNL A   1      38.508  33.860  39.374  1.00  0.00     0.041 A 
ATOM     71  F   UNL A   1      37.931  32.003  38.062  1.00  0.00    -0.206 F 
ATOM     72  C   UNL A   1      39.268  35.008  39.571  1.00  0.00     0.022 A 
BRANCH  69  73
ATOM     73  S   UNL A   1      41.185  36.879  38.915  1.00  0.00     0.124 S 
ATOM     74  O   UNL A   1      41.847  36.502  40.163  1.00  0.00    -0.237 OA
ATOM     75  O   UNL A   1      42.051  36.926  37.740  1.00  0.00    -0.237 OA
ATOM     76  O   UNL A   1      40.216  37.963  39.028  1.00  0.00    -0.744 OA
ENDBRANCH  69  73
ENDBRANCH  52  66
BRANCH  53  77
ATOM     77  C   UNL A   1      40.847  27.681  29.128  1.00  0.00     0.023 A 
ATOM     78  C   UNL A   1      41.774  28.015  28.122  1.00  0.00     0.031 A 
ATOM     79  C   UNL A   1      39.967  26.614  28.888  1.00  0.00     0.131 A 
ATOM     80  C   UNL A   1      41.730  27.358  26.887  1.00  0.00     0.055 A 
ATOM     81  C   UNL A   1      39.981  25.907  27.684  1.00  0.00     0.041 A 
ATOM     82  F   UNL A   1      39.059  26.266  29.812  1.00  0.00    -0.206 F 
ATOM     83  C   UNL A   1      40.849  26.296  26.666  1.00  0.00     0.022 A 
BRANCH  80  84
ATOM     84  S   UNL A   1      42.689  27.974  25.475  1.00  0.00     0.124 S 
ATOM     85  O   UNL A   1      42.709  26.814  24.591  1.00  0.00    -0.237 OA
ATOM     86  O   UNL A   1      41.869  29.098  25.026  1.00  0.00    -0.237 OA
ATOM     87  O   UNL A   1      43.973  28.343  26.064  1.00  0.00    -0.744 OA
ENDBRANCH  80  84
ENDBRANCH  53  77
BRANCH  65  88
ATOM     88  C   UNL A   1      44.218  28.394  35.275  1.00  0.00     0.023 A 
ATOM     89  C   UNL A   1      44.057  27.378  36.236  1.00  0.00     0.031 A 
ATOM     90  C   UNL A   1      45.508  28.900  35.044  1.00  0.00     0.131 A 
ATOM     91  C   UNL A   1      45.164  26.935  36.968  1.00  0.00     0.055 A 
ATOM     92  C   UNL A   1      46.616  28.423  35.746  1.00  0.00     0.041 A 
ATOM     93  F   UNL A   1      45.707  29.876  34.144  1.00  0.00    -0.206 F 
ATOM     94  C   UNL A   1      46.443  27.447  36.725  1.00  0.00     0.022 A 
BRANCH  91  95
ATOM     95  S   UNL A   1      44.973  25.739  38.318  1.00  0.00     0.124 S 
ATOM     96  O   UNL A   1      44.111  26.466  39.248  1.00  0.00    -0.237 OA
ATOM     97  O   UNL A   1      44.345  24.609  37.639  1.00  0.00    -0.237 OA
ATOM     98  O   UNL A   1      46.336  25.514  38.786  1.00  0.00    -0.744 OA
ENDBRANCH  91  95
ENDBRANCH  65  88
ENDBRANCH  39  40
ENDBRANCH  31  34
ENDBRANCH  29  30
ENDBRANCH  28  29
ENDBRANCH   1  28
TORSDOF 18
ENDMDL
MODEL 3
REMARK VINA RESULT:     -11.7      4.937      8.159
REMARK SMILES CC(C)CN(C)c1cc2c(cc1Cl)C=C(C(=O)NCCCCNC(=O)c1ccc(-c3c4nc(c(-c5cc(S(=O)(=O)[O-])ccc5F)c5ccc([nH]5)c(-c5cc(S(=O)(=O)[O-])ccc5F)c5nc(c(-c6cc(S(=O)(=O)[O-])ccc6F)c6ccc3[nH]6)C=C5)C=C4)cc1)[C@H](C(F)(F)F)O2
REMARK SMILES IDX 20 1 19 2 18 3 16 4 17 5 15 7 7 8 8 9 12 10 9 11 11 12 13 13
REMARK SMILES IDX 10 14 94 15 14 16 89 17 5 18 6 19 4 20 2 21 1 22 3 23 90 24
REMARK SMILES IDX 91 25 92 26 93 27 21 28 22 29 23 30 24 31 25 33 26 34 27 35
REMARK SMILES IDX 88 36 28 37 87 38 29 39 30 40 31 41 81 42 32 43 86 44 80 45
REMARK SMILES IDX 82 46 33 47 85 48 79 49 78 50 34 52 66 53 46 54 65 55 47 56
REMARK SMILES IDX 50 57 64 58 83 59 48 60 49 61 63 63 84 64 51 65 35 66 36 67
REMARK SMILES IDX 44 68 37 69 43 70 45 71 42 72 38 73 39 74 40 75 41 76 67 77
REMARK SMILES IDX 68 78 76 79 69 80 75 81 77 82 74 83 70 84 71 85 72 86 73 87
REMARK SMILES IDX 52 88 53 89 61 90 54 91 60 92 62 93 59 94 55 95 56 96 57 97
REMARK SMILES IDX 58 98
REMARK H PARENT 18 6 23 32 82 51 50 62
REMARK Flexibility Score: inf
ROOT
ATOM      1  C   UNL A   1      35.540  22.103  25.877  1.00  0.00     0.023 C 
ENDROOT
BRANCH   1   2
ATOM      2  C   UNL A   1      34.413  21.866  26.880  1.00  0.00     0.116 C 
BRANCH   2   3
ATOM      3  N   UNL A   1      33.356  21.073  26.285  1.00  0.00    -0.352 N 
ATOM      4  C   UNL A   1      32.308  21.339  25.472  1.00  0.00     0.251 C 
ATOM      5  O   UNL A   1      31.615  20.377  25.132  1.00  0.00    -0.270 OA
ATOM      6  H   UNL A   1      33.415  20.121  26.528  1.00  0.00     0.163 HD
BRANCH   4   7
ATOM      7  C   UNL A   1      31.978  22.699  24.960  1.00  0.00     0.067 C 
ATOM      8  C   UNL A   1      31.550  27.740  24.730  1.00  0.00     0.059 A 
ATOM      9  C   UNL A   1      31.498  26.694  23.795  1.00  0.00     0.074 A 
ATOM     10  C   UNL A   1      31.670  27.388  26.091  1.00  0.00     0.065 A 
ATOM     11  C   UNL A   1      31.606  25.359  24.190  1.00  0.00     0.130 A 
ATOM     12  C   UNL A   1      31.830  26.053  26.480  1.00  0.00     0.034 A 
ATOM     13  Cl  UNL A   1      31.585  28.565  27.357  1.00  0.00    -0.082 Cl
ATOM     14  C   UNL A   1      31.810  25.035  25.525  1.00  0.00     0.019 A 
ATOM     15  O   UNL A   1      31.486  24.433  23.200  1.00  0.00    -0.475 OA
ATOM     16  C   UNL A   1      32.013  23.651  25.908  1.00  0.00     0.025 C 
ATOM     17  C   UNL A   1      31.724  23.030  23.510  1.00  0.00     0.314 C 
BRANCH   8  18
ATOM     18  N   UNL A   1      31.490  29.076  24.299  1.00  0.00    -0.373 N 
ATOM     19  C   UNL A   1      31.462  30.065  25.376  1.00  0.00     0.143 C 
BRANCH  18  20
ATOM     20  C   UNL A   1      30.608  29.348  23.144  1.00  0.00     0.119 C 
BRANCH  20  21
ATOM     21  C   UNL A   1      29.176  29.729  23.570  1.00  0.00     0.002 C 
ATOM     22  C   UNL A   1      28.865  31.200  23.277  1.00  0.00     0.009 C 
ATOM     23  C   UNL A   1      28.140  28.851  22.862  1.00  0.00     0.009 C 
ENDBRANCH  20  21
ENDBRANCH  18  20
ENDBRANCH   8  18
BRANCH  17  24
ATOM     24  C   UNL A   1      32.783  22.520  22.516  1.00  0.00     0.429 C 
ATOM     25  F   UNL A   1      32.960  23.328  21.450  1.00  0.00    -0.167 F 
ATOM     26  F   UNL A   1      33.984  22.411  23.143  1.00  0.00    -0.167 F 
ATOM     27  F   UNL A   1      32.489  21.291  22.029  1.00  0.00    -0.167 F 
ENDBRANCH  17  24
ENDBRANCH   4   7
ENDBRANCH   2   3
ENDBRANCH   1   2
BRANCH   1  28
ATOM     28  C   UNL A   1      36.296  20.842  25.465  1.00  0.00     0.023 C 
BRANCH  28  29
ATOM     29  C   UNL A   1      37.652  21.090  24.825  1.00  0.00     0.116 C 
BRANCH  29  30
ATOM     30  N   UNL A   1      38.645  20.065  25.123  1.00  0.00    -0.352 N 
ATOM     31  C   UNL A   1      39.747  20.175  25.942  1.00  0.00     0.251 C 
ATOM     32  H   UNL A   1      38.512  19.192  24.687  1.00  0.00     0.163 HD
ATOM     33  O   UNL A   1      40.540  19.248  26.063  1.00  0.00    -0.269 OA
BRANCH  31  34
ATOM     34  C   UNL A   1      39.968  21.467  26.617  1.00  0.00     0.039 A 
ATOM     35  C   UNL A   1      39.355  22.616  26.112  1.00  0.00     0.014 A 
ATOM     36  C   UNL A   1      40.935  21.546  27.620  1.00  0.00     0.014 A 
ATOM     37  C   UNL A   1      39.859  23.858  26.468  1.00  0.00     0.010 A 
ATOM     38  C   UNL A   1      41.372  22.802  28.043  1.00  0.00     0.010 A 
ATOM     39  C   UNL A   1      40.885  23.963  27.422  1.00  0.00    -0.014 A 
BRANCH  39  40
ATOM     40  C   UNL A   1      41.465  25.294  27.734  1.00  0.00     0.031 A 
ATOM     41  C   UNL A   1      42.859  25.646  27.289  1.00  0.00     0.074 A 
ATOM     42  C   UNL A   1      40.710  26.201  28.380  1.00  0.00     0.049 A 
ATOM     43  N   UNL A   1      43.547  26.732  27.526  1.00  0.00    -0.248 NA
ATOM     44  C   UNL A   1      43.573  24.653  26.471  1.00  0.00     0.031 C 
ATOM     45  C   UNL A   1      39.332  25.975  28.820  1.00  0.00     0.029 A 
ATOM     46  N   UNL A   1      40.976  27.489  28.765  1.00  0.00    -0.354 N 
ATOM     47  C   UNL A   1      44.781  26.545  26.911  1.00  0.00     0.074 A 
ATOM     48  C   UNL A   1      44.757  25.231  26.311  1.00  0.00     0.031 C 
ATOM     49  C   UNL A   1      38.860  27.098  29.372  1.00  0.00     0.029 A 
ATOM     50  C   UNL A   1      39.926  28.094  29.416  1.00  0.00     0.049 A 
ATOM     51  H   UNL A   1      41.836  27.938  28.594  1.00  0.00     0.167 HD
ATOM     52  C   UNL A   1      45.828  27.401  26.845  1.00  0.00     0.034 A 
ATOM     53  C   UNL A   1      39.837  29.300  30.012  1.00  0.00     0.034 A 
ATOM     54  C   UNL A   1      45.822  28.716  27.434  1.00  0.00     0.049 A 
ATOM     55  C   UNL A   1      41.030  30.214  29.973  1.00  0.00     0.074 A 
ATOM     56  C   UNL A   1      46.833  29.661  27.428  1.00  0.00     0.029 A 
ATOM     57  N   UNL A   1      44.753  29.279  28.118  1.00  0.00    -0.354 N 
ATOM     58  N   UNL A   1      42.195  30.018  29.400  1.00  0.00    -0.248 NA
ATOM     59  C   UNL A   1      40.912  31.504  30.665  1.00  0.00     0.031 C 
ATOM     60  C   UNL A   1      46.395  30.773  28.148  1.00  0.00     0.029 A 
ATOM     61  C   UNL A   1      45.088  30.551  28.553  1.00  0.00     0.049 A 
ATOM     62  H   UNL A   1      43.886  28.839  28.272  1.00  0.00     0.167 HD
ATOM     63  C   UNL A   1      42.945  31.160  29.653  1.00  0.00     0.074 A 
ATOM     64  C   UNL A   1      42.094  32.055  30.410  1.00  0.00     0.031 C 
ATOM     65  C   UNL A   1      44.225  31.437  29.298  1.00  0.00     0.034 A 
BRANCH  52  66
ATOM     66  C   UNL A   1      47.075  26.967  26.114  1.00  0.00     0.023 A 
ATOM     67  C   UNL A   1      48.116  26.324  26.810  1.00  0.00     0.031 A 
ATOM     68  C   UNL A   1      47.282  27.297  24.763  1.00  0.00     0.131 A 
ATOM     69  C   UNL A   1      49.327  26.057  26.159  1.00  0.00     0.055 A 
ATOM     70  C   UNL A   1      48.479  26.997  24.110  1.00  0.00     0.041 A 
ATOM     71  F   UNL A   1      46.318  27.908  24.054  1.00  0.00    -0.206 F 
ATOM     72  C   UNL A   1      49.513  26.385  24.812  1.00  0.00     0.022 A 
BRANCH  69  73
ATOM     73  S   UNL A   1      50.730  25.325  27.048  1.00  0.00     0.124 S 
ATOM     74  O   UNL A   1      50.087  24.227  27.768  1.00  0.00    -0.237 OA
ATOM     75  O   UNL A   1      51.609  24.922  25.953  1.00  0.00    -0.237 OA
ATOM     76  O   UNL A   1      51.222  26.414  27.884  1.00  0.00    -0.744 OA
ENDBRANCH  69  73
ENDBRANCH  52  66
BRANCH  53  77
ATOM     77  C   UNL A   1      38.551  29.678  30.667  1.00  0.00     0.023 A 
ATOM     78  C   UNL A   1      37.578  30.412  29.962  1.00  0.00     0.031 A 
ATOM     79  C   UNL A   1      38.348  29.455  32.037  1.00  0.00     0.131 A 
ATOM     80  C   UNL A   1      36.501  30.982  30.651  1.00  0.00     0.055 A 
ATOM     81  C   UNL A   1      37.230  29.958  32.705  1.00  0.00     0.041 A 
ATOM     82  F   UNL A   1      39.254  28.770  32.752  1.00  0.00    -0.206 F 
ATOM     83  C   UNL A   1      36.313  30.747  32.016  1.00  0.00     0.022 A 
BRANCH  80  84
ATOM     84  S   UNL A   1      35.414  32.186  29.838  1.00  0.00     0.124 S 
ATOM     85  O   UNL A   1      36.345  33.256  29.498  1.00  0.00    -0.237 OA
ATOM     86  O   UNL A   1      34.902  31.411  28.710  1.00  0.00    -0.237 OA
ATOM     87  O   UNL A   1      34.427  32.509  30.864  1.00  0.00    -0.744 OA
ENDBRANCH  80  84
ENDBRANCH  53  77
BRANCH  65  88
ATOM     88  C   UNL A   1      44.818  32.758  29.715  1.00  0.00     0.023 A 
ATOM     89  C   UNL A   1      44.809  33.846  28.821  1.00  0.00     0.031 A 
ATOM     90  C   UNL A   1      45.543  32.880  30.912  1.00  0.00     0.131 A 
ATOM     91  C   UNL A   1      45.557  34.991  29.117  1.00  0.00     0.055 A 
ATOM     92  C   UNL A   1      46.251  34.043  31.222  1.00  0.00     0.041 A 
ATOM     93  F   UNL A   1      45.587  31.865  31.789  1.00  0.00    -0.206 F 
ATOM     94  C   UNL A   1      46.272  35.099  30.314  1.00  0.00     0.022 A 
BRANCH  91  95
ATOM     95  S   UNL A   1      45.695  36.350  27.923  1.00  0.00     0.124 S 
ATOM     96  O   UNL A   1      45.589  35.645  26.647  1.00  0.00    -0.237 OA
ATOM     97  O   UNL A   1      44.547  37.182  28.273  1.00  0.00    -0.237 OA
ATOM     98  O   UNL A   1      47.002  36.932  28.201  1.00  0.00    -0.744 OA
ENDBRANCH  91  95
ENDBRANCH  65  88
ENDBRANCH  39  40
ENDBRANCH  31  34
ENDBRANCH  29  30
ENDBRANCH  28  29
ENDBRANCH   1  28
TORSDOF 18
ENDMDL
