MODEL 1
REMARK VINA RESULT:     -11.0      0.000      0.000
REMARK SMILES COc1ccc(C[C@H](C)[C@](O)(C(=O)NCCCCNC(=O)c2ccc(-c3c4nc(c(-c5cc(S(=O)(=O)[O-])ccc5F)c5ccc([nH]5)c(-c5cc(S(=O)(=O)[O-])ccc5F)c5nc(c(-c6cc(S(=O)(=O)[O-])ccc6F)c6ccc3[nH]6)C=C5)C=C4)cc2)C(C)C)cc1OC
REMARK SMILES IDX 16 1 15 2 14 3 12 4 13 5 10 7 8 8 9 9 7 10 6 11 3 12 4 13
REMARK SMILES IDX 89 14 5 15 88 16 2 17 1 18 90 19 91 20 85 21 86 22 87 23
REMARK SMILES IDX 11 24 17 26 18 27 19 28 20 29 21 31 22 32 23 33 84 34 24 35
REMARK SMILES IDX 83 36 25 37 26 38 27 39 77 40 28 41 82 42 76 43 78 44 29 45
REMARK SMILES IDX 81 46 75 47 74 48 30 50 62 51 42 52 61 53 43 54 46 55 60 56
REMARK SMILES IDX 79 57 44 58 45 59 59 61 80 62 47 63 31 64 32 65 40 66 33 67
REMARK SMILES IDX 39 68 41 69 38 70 34 71 35 72 36 73 37 74 63 75 64 76 72 77
REMARK SMILES IDX 65 78 71 79 73 80 70 81 66 82 67 83 68 84 69 85 48 86 49 87
REMARK SMILES IDX 57 88 50 89 56 90 58 91 55 92 51 93 52 94 53 95 54 96
REMARK H PARENT 14 6 11 25 19 30 78 49 46 60
REMARK Flexibility Score: inf
ROOT
ATOM      1  C   UNL A   1      35.073  23.248  26.448  1.00  0.00     0.023 C 
ENDROOT
BRANCH   1   2
ATOM      2  C   UNL A   1      34.627  24.389  25.541  1.00  0.00     0.116 C 
BRANCH   2   3
ATOM      3  N   UNL A   1      33.686  25.316  26.145  1.00  0.00    -0.354 N 
ATOM      4  C   UNL A   1      32.766  26.147  25.570  1.00  0.00     0.252 C 
ATOM      5  O   UNL A   1      31.823  26.495  26.292  1.00  0.00    -0.272 OA
ATOM      6  H   UNL A   1      33.716  25.351  27.128  1.00  0.00     0.163 HD
BRANCH   4   7
ATOM      7  C   UNL A   1      32.874  26.671  24.079  1.00  0.00     0.148 C 
BRANCH   7   8
ATOM      8  C   UNL A   1      31.598  26.093  23.321  1.00  0.00     0.032 C 
ATOM      9  C   UNL A   1      30.805  27.135  22.533  1.00  0.00     0.011 C 
BRANCH   8  10
ATOM     10  C   UNL A   1      31.887  24.803  22.478  1.00  0.00     0.042 C 
BRANCH  10  11
ATOM     11  C   UNL A   1      31.869  23.447  23.152  1.00  0.00    -0.044 A 
ATOM     12  C   UNL A   1      32.013  20.982  24.512  1.00  0.00     0.160 A 
ATOM     13  C   UNL A   1      32.636  21.144  23.270  1.00  0.00     0.051 A 
ATOM     14  C   UNL A   1      31.243  22.028  25.039  1.00  0.00     0.160 A 
ATOM     15  C   UNL A   1      32.521  22.352  22.576  1.00  0.00     0.008 A 
ATOM     16  C   UNL A   1      31.206  23.262  24.374  1.00  0.00     0.054 A 
BRANCH  12  17
ATOM     17  O   UNL A   1      32.224  19.872  25.286  1.00  0.00    -0.493 OA
ATOM     18  C   UNL A   1      33.356  19.086  24.943  1.00  0.00     0.278 C 
ENDBRANCH  12  17
BRANCH  14  19
ATOM     19  O   UNL A   1      30.514  21.991  26.202  1.00  0.00    -0.493 OA
ATOM     20  C   UNL A   1      30.255  23.253  26.813  1.00  0.00     0.278 C 
ENDBRANCH  14  19
ENDBRANCH  10  11
ENDBRANCH   8  10
ENDBRANCH   7   8
BRANCH   7  21
ATOM     21  C   UNL A   1      32.920  28.269  24.167  1.00  0.00     0.025 C 
ATOM     22  C   UNL A   1      33.602  28.776  25.462  1.00  0.00     0.011 C 
ATOM     23  C   UNL A   1      33.678  28.984  23.025  1.00  0.00     0.011 C 
ENDBRANCH   7  21
BRANCH   7  24
ATOM     24  O   UNL A   1      34.047  26.261  23.388  1.00  0.00    -0.379 OA
ATOM     25  H   UNL A   1      34.170  26.816  22.602  1.00  0.00     0.212 HD
ENDBRANCH   7  24
ENDBRANCH   4   7
ENDBRANCH   2   3
ENDBRANCH   1   2
BRANCH   1  26
ATOM     26  C   UNL A   1      35.437  21.935  25.754  1.00  0.00     0.023 C 
BRANCH  26  27
ATOM     27  C   UNL A   1      36.678  21.959  24.865  1.00  0.00     0.116 C 
BRANCH  27  28
ATOM     28  N   UNL A   1      37.602  20.863  25.121  1.00  0.00    -0.352 N 
ATOM     29  C   UNL A   1      38.828  20.862  25.749  1.00  0.00     0.251 C 
ATOM     30  H   UNL A   1      37.304  19.983  24.793  1.00  0.00     0.163 HD
ATOM     31  O   UNL A   1      39.499  19.833  25.766  1.00  0.00    -0.269 OA
BRANCH  29  32
ATOM     32  C   UNL A   1      39.358  22.103  26.357  1.00  0.00     0.039 A 
ATOM     33  C   UNL A   1      40.437  22.015  27.242  1.00  0.00     0.014 A 
ATOM     34  C   UNL A   1      38.819  23.351  26.037  1.00  0.00     0.014 A 
ATOM     35  C   UNL A   1      41.045  23.183  27.713  1.00  0.00     0.010 A 
ATOM     36  C   UNL A   1      39.478  24.511  26.438  1.00  0.00     0.010 A 
ATOM     37  C   UNL A   1      40.610  24.441  27.265  1.00  0.00    -0.014 A 
BRANCH  37  38
ATOM     38  C   UNL A   1      41.335  25.691  27.621  1.00  0.00     0.031 A 
ATOM     39  C   UNL A   1      40.648  26.761  28.425  1.00  0.00     0.074 A 
ATOM     40  C   UNL A   1      42.578  25.903  27.141  1.00  0.00     0.049 A 
ATOM     41  N   UNL A   1      41.059  27.967  28.723  1.00  0.00    -0.248 NA
ATOM     42  C   UNL A   1      39.305  26.441  28.931  1.00  0.00     0.031 C 
ATOM     43  C   UNL A   1      43.339  24.961  26.316  1.00  0.00     0.029 A 
ATOM     44  N   UNL A   1      43.417  26.984  27.260  1.00  0.00    -0.354 N 
ATOM     45  C   UNL A   1      40.020  28.556  29.436  1.00  0.00     0.074 A 
ATOM     46  C   UNL A   1      38.940  27.594  29.472  1.00  0.00     0.031 C 
ATOM     47  C   UNL A   1      44.534  25.496  26.023  1.00  0.00     0.029 A 
ATOM     48  C   UNL A   1      44.609  26.840  26.588  1.00  0.00     0.049 A 
ATOM     49  H   UNL A   1      43.186  27.789  27.779  1.00  0.00     0.167 HD
ATOM     50  C   UNL A   1      39.981  29.778  30.025  1.00  0.00     0.034 A 
ATOM     51  C   UNL A   1      45.637  27.697  26.423  1.00  0.00     0.034 A 
ATOM     52  C   UNL A   1      41.074  30.720  29.995  1.00  0.00     0.049 A 
ATOM     53  C   UNL A   1      45.556  29.063  27.057  1.00  0.00     0.074 A 
ATOM     54  C   UNL A   1      41.162  31.956  30.611  1.00  0.00     0.029 A 
ATOM     55  N   UNL A   1      42.264  30.538  29.302  1.00  0.00    -0.354 N 
ATOM     56  N   UNL A   1      44.586  29.586  27.770  1.00  0.00    -0.248 NA
ATOM     57  C   UNL A   1      46.709  29.953  26.866  1.00  0.00     0.031 C 
ATOM     58  C   UNL A   1      42.373  32.548  30.237  1.00  0.00     0.029 A 
ATOM     59  C   UNL A   1      43.076  31.652  29.448  1.00  0.00     0.049 A 
ATOM     60  H   UNL A   1      42.497  29.734  28.784  1.00  0.00     0.167 HD
ATOM     61  C   UNL A   1      45.026  30.855  28.136  1.00  0.00     0.074 A 
ATOM     62  C   UNL A   1      46.352  31.013  27.577  1.00  0.00     0.031 C 
ATOM     63  C   UNL A   1      44.393  31.802  28.874  1.00  0.00     0.034 A 
BRANCH  50  64
ATOM     64  C   UNL A   1      38.703  30.169  30.729  1.00  0.00     0.023 A 
ATOM     65  C   UNL A   1      37.673  30.855  30.063  1.00  0.00     0.031 A 
ATOM     66  C   UNL A   1      38.521  29.876  32.093  1.00  0.00     0.131 A 
ATOM     67  C   UNL A   1      36.548  31.294  30.775  1.00  0.00     0.055 A 
ATOM     68  C   UNL A   1      37.361  30.241  32.777  1.00  0.00     0.041 A 
ATOM     69  F   UNL A   1      39.477  29.239  32.789  1.00  0.00    -0.206 F 
ATOM     70  C   UNL A   1      36.372  30.970  32.122  1.00  0.00     0.022 A 
BRANCH  67  71
ATOM     71  S   UNL A   1      35.389  32.422  29.953  1.00  0.00     0.124 S 
ATOM     72  O   UNL A   1      36.261  33.547  29.620  1.00  0.00    -0.237 OA
ATOM     73  O   UNL A   1      34.918  31.624  28.827  1.00  0.00    -0.237 OA
ATOM     74  O   UNL A   1      34.392  32.702  30.983  1.00  0.00    -0.744 OA
ENDBRANCH  67  71
ENDBRANCH  50  64
BRANCH  51  75
ATOM     75  C   UNL A   1      46.825  27.308  25.609  1.00  0.00     0.023 A 
ATOM     76  C   UNL A   1      46.991  27.784  24.299  1.00  0.00     0.031 A 
ATOM     77  C   UNL A   1      47.792  26.419  26.113  1.00  0.00     0.131 A 
ATOM     78  C   UNL A   1      48.069  27.336  23.521  1.00  0.00     0.055 A 
ATOM     79  C   UNL A   1      48.892  26.016  25.354  1.00  0.00     0.041 A 
ATOM     80  F   UNL A   1      47.685  25.936  27.361  1.00  0.00    -0.206 F 
ATOM     81  C   UNL A   1      49.028  26.465  24.044  1.00  0.00     0.022 A 
BRANCH  78  82
ATOM     82  S   UNL A   1      48.154  27.839  21.781  1.00  0.00     0.124 S 
ATOM     83  O   UNL A   1      48.363  26.560  21.111  1.00  0.00    -0.237 OA
ATOM     84  O   UNL A   1      46.850  28.463  21.582  1.00  0.00    -0.237 OA
ATOM     85  O   UNL A   1      49.292  28.755  21.747  1.00  0.00    -0.744 OA
ENDBRANCH  78  82
ENDBRANCH  51  75
BRANCH  63  86
ATOM     86  C   UNL A   1      45.150  33.077  29.153  1.00  0.00     0.023 A 
ATOM     87  C   UNL A   1      46.026  33.194  30.246  1.00  0.00     0.031 A 
ATOM     88  C   UNL A   1      44.992  34.190  28.307  1.00  0.00     0.131 A 
ATOM     89  C   UNL A   1      46.678  34.413  30.490  1.00  0.00     0.055 A 
ATOM     90  C   UNL A   1      45.686  35.381  28.523  1.00  0.00     0.041 A 
ATOM     91  F   UNL A   1      44.164  34.133  27.251  1.00  0.00    -0.206 F 
ATOM     92  C   UNL A   1      46.527  35.501  29.625  1.00  0.00     0.022 A 
BRANCH  89  93
ATOM     93  S   UNL A   1      47.674  34.584  31.996  1.00  0.00     0.124 S 
ATOM     94  O   UNL A   1      47.441  35.979  32.356  1.00  0.00    -0.237 OA
ATOM     95  O   UNL A   1      47.078  33.589  32.881  1.00  0.00    -0.237 OA
ATOM     96  O   UNL A   1      49.031  34.278  31.546  1.00  0.00    -0.744 OA
ENDBRANCH  89  93
ENDBRANCH  63  86
ENDBRANCH  37  38
ENDBRANCH  29  32
ENDBRANCH  27  28
ENDBRANCH  26  27
ENDBRANCH   1  26
TORSDOF 21
ENDMDL
MODEL 2
REMARK VINA RESULT:     -10.9      1.937      2.204
REMARK SMILES COc1ccc(C[C@H](C)[C@](O)(C(=O)NCCCCNC(=O)c2ccc(-c3c4nc(c(-c5cc(S(=O)(=O)[O-])ccc5F)c5ccc([nH]5)c(-c5cc(S(=O)(=O)[O-])ccc5F)c5nc(c(-c6cc(S(=O)(=O)[O-])ccc6F)c6ccc3[nH]6)C=C5)C=C4)cc2)C(C)C)cc1OC
REMARK SMILES IDX 16 1 15 2 14 3 12 4 13 5 10 7 8 8 9 9 7 10 6 11 3 12 4 13
REMARK SMILES IDX 89 14 5 15 88 16 2 17 1 18 90 19 91 20 85 21 86 22 87 23
REMARK SMILES IDX 11 24 17 26 18 27 19 28 20 29 21 31 22 32 23 33 84 34 24 35
REMARK SMILES IDX 83 36 25 37 26 38 27 39 77 40 28 41 82 42 76 43 78 44 29 45
REMARK SMILES IDX 81 46 75 47 74 48 30 50 62 51 42 52 61 53 43 54 46 55 60 56
REMARK SMILES IDX 79 57 44 58 45 59 59 61 80 62 47 63 31 64 32 65 40 66 33 67
REMARK SMILES IDX 39 68 41 69 38 70 34 71 35 72 36 73 37 74 63 75 64 76 72 77
REMARK SMILES IDX 65 78 71 79 73 80 70 81 66 82 67 83 68 84 69 85 48 86 49 87
REMARK SMILES IDX 57 88 50 89 56 90 58 91 55 92 51 93 52 94 53 95 54 96
REMARK H PARENT 14 6 11 25 19 30 78 49 46 60
REMARK Flexibility Score: inf
ROOT
ATOM      1  C   UNL A   1      35.557  23.378  26.187  1.00  0.00     0.023 C 
ENDROOT
BRANCH   1   2
ATOM      2  C   UNL A   1      34.525  24.135  25.359  1.00  0.00     0.116 C 
BRANCH   2   3
ATOM      3  N   UNL A   1      33.765  25.131  26.093  1.00  0.00    -0.354 N 
ATOM      4  C   UNL A   1      32.906  26.097  25.650  1.00  0.00     0.252 C 
ATOM      5  O   UNL A   1      32.083  26.513  26.476  1.00  0.00    -0.272 OA
ATOM      6  H   UNL A   1      33.889  25.106  27.069  1.00  0.00     0.163 HD
BRANCH   4   7
ATOM      7  C   UNL A   1      32.939  26.688  24.180  1.00  0.00     0.148 C 
BRANCH   7   8
ATOM      8  C   UNL A   1      31.567  26.250  23.503  1.00  0.00     0.032 C 
ATOM      9  C   UNL A   1      30.808  27.386  22.818  1.00  0.00     0.011 C 
BRANCH   8  10
ATOM     10  C   UNL A   1      31.682  24.978  22.592  1.00  0.00     0.042 C 
BRANCH  10  11
ATOM     11  C   UNL A   1      31.729  23.604  23.227  1.00  0.00    -0.044 A 
ATOM     12  C   UNL A   1      31.982  21.114  24.523  1.00  0.00     0.160 A 
ATOM     13  C   UNL A   1      32.657  21.360  23.324  1.00  0.00     0.051 A 
ATOM     14  C   UNL A   1      31.108  22.084  25.035  1.00  0.00     0.160 A 
ATOM     15  C   UNL A   1      32.490  22.578  22.658  1.00  0.00     0.008 A 
ATOM     16  C   UNL A   1      31.016  23.332  24.403  1.00  0.00     0.054 A 
BRANCH  12  17
ATOM     17  O   UNL A   1      32.233  19.998  25.277  1.00  0.00    -0.493 OA
ATOM     18  C   UNL A   1      33.454  19.327  25.000  1.00  0.00     0.278 C 
ENDBRANCH  12  17
BRANCH  14  19
ATOM     19  O   UNL A   1      30.323  21.957  26.154  1.00  0.00    -0.493 OA
ATOM     20  C   UNL A   1      30.235  23.111  26.986  1.00  0.00     0.278 C 
ENDBRANCH  14  19
ENDBRANCH  10  11
ENDBRANCH   8  10
ENDBRANCH   7   8
BRANCH   7  21
ATOM     21  C   UNL A   1      33.121  28.271  24.338  1.00  0.00     0.025 C 
ATOM     22  C   UNL A   1      33.836  28.662  25.655  1.00  0.00     0.011 C 
ATOM     23  C   UNL A   1      33.943  28.967  23.229  1.00  0.00     0.011 C 
ENDBRANCH   7  21
BRANCH   7  24
ATOM     24  O   UNL A   1      34.019  26.226  23.378  1.00  0.00    -0.379 OA
ATOM     25  H   UNL A   1      33.778  26.296  22.441  1.00  0.00     0.212 HD
ENDBRANCH   7  24
ENDBRANCH   4   7
ENDBRANCH   2   3
ENDBRANCH   1   2
BRANCH   1  26
ATOM     26  C   UNL A   1      35.849  21.941  25.754  1.00  0.00     0.023 C 
BRANCH  26  27
ATOM     27  C   UNL A   1      37.031  21.744  24.808  1.00  0.00     0.116 C 
BRANCH  27  28
ATOM     28  N   UNL A   1      37.920  20.660  25.199  1.00  0.00    -0.352 N 
ATOM     29  C   UNL A   1      39.089  20.687  25.926  1.00  0.00     0.251 C 
ATOM     30  H   UNL A   1      37.642  19.765  24.896  1.00  0.00     0.163 HD
ATOM     31  O   UNL A   1      39.747  19.657  26.054  1.00  0.00    -0.269 OA
BRANCH  29  32
ATOM     32  C   UNL A   1      39.579  21.958  26.507  1.00  0.00     0.039 A 
ATOM     33  C   UNL A   1      40.576  21.912  27.486  1.00  0.00     0.014 A 
ATOM     34  C   UNL A   1      39.085  23.189  26.072  1.00  0.00     0.014 A 
ATOM     35  C   UNL A   1      41.155  23.101  27.942  1.00  0.00     0.010 A 
ATOM     36  C   UNL A   1      39.720  24.365  26.463  1.00  0.00     0.010 A 
ATOM     37  C   UNL A   1      40.776  24.335  27.388  1.00  0.00    -0.014 A 
BRANCH  37  38
ATOM     38  C   UNL A   1      41.482  25.598  27.735  1.00  0.00     0.031 A 
ATOM     39  C   UNL A   1      40.753  26.697  28.460  1.00  0.00     0.074 A 
ATOM     40  C   UNL A   1      42.749  25.793  27.315  1.00  0.00     0.049 A 
ATOM     41  N   UNL A   1      41.149  27.913  28.734  1.00  0.00    -0.248 NA
ATOM     42  C   UNL A   1      39.385  26.395  28.904  1.00  0.00     0.031 C 
ATOM     43  C   UNL A   1      43.553  24.820  26.570  1.00  0.00     0.029 A 
ATOM     44  N   UNL A   1      43.582  26.878  27.439  1.00  0.00    -0.354 N 
ATOM     45  C   UNL A   1      40.074  28.528  29.367  1.00  0.00     0.074 A 
ATOM     46  C   UNL A   1      38.992  27.567  29.381  1.00  0.00     0.031 C 
ATOM     47  C   UNL A   1      44.763  25.345  26.321  1.00  0.00     0.029 A 
ATOM     48  C   UNL A   1      44.808  26.710  26.838  1.00  0.00     0.049 A 
ATOM     49  H   UNL A   1      43.324  27.702  27.914  1.00  0.00     0.167 HD
ATOM     50  C   UNL A   1      40.004  29.771  29.906  1.00  0.00     0.034 A 
ATOM     51  C   UNL A   1      45.845  27.561  26.697  1.00  0.00     0.034 A 
ATOM     52  C   UNL A   1      41.098  30.713  29.900  1.00  0.00     0.049 A 
ATOM     53  C   UNL A   1      45.731  28.950  27.274  1.00  0.00     0.074 A 
ATOM     54  C   UNL A   1      41.155  31.971  30.473  1.00  0.00     0.029 A 
ATOM     55  N   UNL A   1      42.323  30.506  29.280  1.00  0.00    -0.354 N 
ATOM     56  N   UNL A   1      44.724  29.498  27.912  1.00  0.00    -0.248 NA
ATOM     57  C   UNL A   1      46.894  29.833  27.112  1.00  0.00     0.031 C 
ATOM     58  C   UNL A   1      42.385  32.550  30.143  1.00  0.00     0.029 A 
ATOM     59  C   UNL A   1      43.128  31.625  29.427  1.00  0.00     0.049 A 
ATOM     60  H   UNL A   1      42.583  29.682  28.805  1.00  0.00     0.167 HD
ATOM     61  C   UNL A   1      45.145  30.781  28.253  1.00  0.00     0.074 A 
ATOM     62  C   UNL A   1      46.500  30.919  27.762  1.00  0.00     0.031 C 
ATOM     63  C   UNL A   1      44.474  31.755  28.920  1.00  0.00     0.034 A 
BRANCH  50  64
ATOM     64  C   UNL A   1      38.690  30.187  30.525  1.00  0.00     0.023 A 
ATOM     65  C   UNL A   1      37.711  30.873  29.787  1.00  0.00     0.031 A 
ATOM     66  C   UNL A   1      38.423  29.919  31.880  1.00  0.00     0.131 A 
ATOM     67  C   UNL A   1      36.549  31.336  30.421  1.00  0.00     0.055 A 
ATOM     68  C   UNL A   1      37.228  30.308  32.486  1.00  0.00     0.041 A 
ATOM     69  F   UNL A   1      39.328  29.284  32.643  1.00  0.00    -0.206 F 
ATOM     70  C   UNL A   1      36.288  31.036  31.761  1.00  0.00     0.022 A 
BRANCH  67  71
ATOM     71  S   UNL A   1      35.456  32.462  29.512  1.00  0.00     0.124 S 
ATOM     72  O   UNL A   1      34.403  32.707  30.496  1.00  0.00    -0.237 OA
ATOM     73  O   UNL A   1      36.334  33.589  29.223  1.00  0.00    -0.237 OA
ATOM     74  O   UNL A   1      35.042  31.676  28.351  1.00  0.00    -0.744 OA
ENDBRANCH  67  71
ENDBRANCH  50  64
BRANCH  51  75
ATOM     75  C   UNL A   1      47.075  27.142  25.964  1.00  0.00     0.023 A 
ATOM     76  C   UNL A   1      48.138  26.517  26.633  1.00  0.00     0.031 A 
ATOM     77  C   UNL A   1      47.224  27.401  24.589  1.00  0.00     0.131 A 
ATOM     78  C   UNL A   1      49.320  26.213  25.941  1.00  0.00     0.055 A 
ATOM     79  C   UNL A   1      48.381  27.048  23.893  1.00  0.00     0.041 A 
ATOM     80  F   UNL A   1      46.236  27.994  23.898  1.00  0.00    -0.206 F 
ATOM     81  C   UNL A   1      49.444  26.462  24.573  1.00  0.00     0.022 A 
BRANCH  78  82
ATOM     82  S   UNL A   1      50.732  25.563  26.876  1.00  0.00     0.124 S 
ATOM     83  O   UNL A   1      51.653  25.196  25.807  1.00  0.00    -0.237 OA
ATOM     84  O   UNL A   1      51.114  26.715  27.687  1.00  0.00    -0.237 OA
ATOM     85  O   UNL A   1      50.160  24.442  27.620  1.00  0.00    -0.744 OA
ENDBRANCH  78  82
ENDBRANCH  51  75
BRANCH  63  86
ATOM     86  C   UNL A   1      45.217  33.040  29.191  1.00  0.00     0.023 A 
ATOM     87  C   UNL A   1      45.201  34.110  28.281  1.00  0.00     0.031 A 
ATOM     88  C   UNL A   1      45.949  33.193  30.383  1.00  0.00     0.131 A 
ATOM     89  C   UNL A   1      45.940  35.271  28.556  1.00  0.00     0.055 A 
ATOM     90  C   UNL A   1      46.635  34.371  30.677  1.00  0.00     0.041 A 
ATOM     91  F   UNL A   1      46.000  32.199  31.285  1.00  0.00    -0.206 F 
ATOM     92  C   UNL A   1      46.642  35.415  29.756  1.00  0.00     0.022 A 
BRANCH  89  93
ATOM     93  S   UNL A   1      46.031  36.568  27.292  1.00  0.00     0.124 S 
ATOM     94  O   UNL A   1      44.793  37.305  27.525  1.00  0.00    -0.237 OA
ATOM     95  O   UNL A   1      47.263  37.265  27.645  1.00  0.00    -0.237 OA
ATOM     96  O   UNL A   1      46.080  35.821  26.036  1.00  0.00    -0.744 OA
ENDBRANCH  89  93
ENDBRANCH  63  86
ENDBRANCH  37  38
ENDBRANCH  29  32
ENDBRANCH  27  28
ENDBRANCH  26  27
ENDBRANCH   1  26
TORSDOF 21
ENDMDL
MODEL 3
REMARK VINA RESULT:     -10.8      5.055     10.148
REMARK SMILES COc1ccc(C[C@H](C)[C@](O)(C(=O)NCCCCNC(=O)c2ccc(-c3c4nc(c(-c5cc(S(=O)(=O)[O-])ccc5F)c5ccc([nH]5)c(-c5cc(S(=O)(=O)[O-])ccc5F)c5nc(c(-c6cc(S(=O)(=O)[O-])ccc6F)c6ccc3[nH]6)C=C5)C=C4)cc2)C(C)C)cc1OC
REMARK SMILES IDX 16 1 15 2 14 3 12 4 13 5 10 7 8 8 9 9 7 10 6 11 3 12 4 13
REMARK SMILES IDX 89 14 5 15 88 16 2 17 1 18 90 19 91 20 85 21 86 22 87 23
REMARK SMILES IDX 11 24 17 26 18 27 19 28 20 29 21 31 22 32 23 33 84 34 24 35
REMARK SMILES IDX 83 36 25 37 26 38 27 39 77 40 28 41 82 42 76 43 78 44 29 45
REMARK SMILES IDX 81 46 75 47 74 48 30 50 62 51 42 52 61 53 43 54 46 55 60 56
REMARK SMILES IDX 79 57 44 58 45 59 59 61 80 62 47 63 31 64 32 65 40 66 33 67
REMARK SMILES IDX 39 68 41 69 38 70 34 71 35 72 36 73 37 74 63 75 64 76 72 77
REMARK SMILES IDX 65 78 71 79 73 80 70 81 66 82 67 83 68 84 69 85 48 86 49 87
REMARK SMILES IDX 57 88 50 89 56 90 58 91 55 92 51 93 52 94 53 95 54 96
REMARK H PARENT 14 6 11 25 19 30 78 49 46 60
REMARK Flexibility Score: inf
ROOT
ATOM      1  C   UNL A   1      32.019  30.237  25.859  1.00  0.00     0.023 C 
ENDROOT
BRANCH   1   2
ATOM      2  C   UNL A   1      32.808  29.055  26.411  1.00  0.00     0.116 C 
BRANCH   2   3
ATOM      3  N   UNL A   1      31.997  27.945  26.878  1.00  0.00    -0.354 N 
ATOM      4  C   UNL A   1      31.568  26.823  26.226  1.00  0.00     0.252 C 
ATOM      5  O   UNL A   1      31.272  25.858  26.943  1.00  0.00    -0.272 OA
ATOM      6  H   UNL A   1      31.710  28.011  27.817  1.00  0.00     0.163 HD
BRANCH   4   7
ATOM      7  C   UNL A   1      31.426  26.728  24.651  1.00  0.00     0.148 C 
BRANCH   7   8
ATOM      8  C   UNL A   1      32.863  26.310  24.109  1.00  0.00     0.032 C 
ATOM      9  C   UNL A   1      33.581  27.400  23.314  1.00  0.00     0.011 C 
BRANCH   8  10
ATOM     10  C   UNL A   1      33.789  25.657  25.194  1.00  0.00     0.042 C 
BRANCH  10  11
ATOM     11  C   UNL A   1      34.292  24.242  24.996  1.00  0.00    -0.044 A 
ATOM     12  C   UNL A   1      35.340  21.632  24.809  1.00  0.00     0.160 A 
ATOM     13  C   UNL A   1      36.005  22.708  24.211  1.00  0.00     0.051 A 
ATOM     14  C   UNL A   1      34.102  21.846  25.431  1.00  0.00     0.160 A 
ATOM     15  C   UNL A   1      35.457  23.992  24.263  1.00  0.00     0.008 A 
ATOM     16  C   UNL A   1      33.606  23.153  25.550  1.00  0.00     0.054 A 
BRANCH  12  17
ATOM     17  O   UNL A   1      35.914  20.393  24.906  1.00  0.00    -0.493 OA
ATOM     18  C   UNL A   1      37.334  20.371  24.961  1.00  0.00     0.278 C 
ENDBRANCH  12  17
BRANCH  14  19
ATOM     19  O   UNL A   1      33.299  20.884  25.991  1.00  0.00    -0.493 OA
ATOM     20  C   UNL A   1      32.488  20.145  25.081  1.00  0.00     0.278 C 
ENDBRANCH  14  19
ENDBRANCH  10  11
ENDBRANCH   8  10
ENDBRANCH   7   8
BRANCH   7  21
ATOM     21  C   UNL A   1      30.275  25.651  24.369  1.00  0.00     0.025 C 
ATOM     22  C   UNL A   1      28.944  26.302  23.918  1.00  0.00     0.011 C 
ATOM     23  C   UNL A   1      30.587  24.607  23.271  1.00  0.00     0.011 C 
ENDBRANCH   7  21
BRANCH   7  24
ATOM     24  O   UNL A   1      31.026  27.937  24.017  1.00  0.00    -0.379 OA
ATOM     25  H   UNL A   1      31.792  28.526  23.933  1.00  0.00     0.212 HD
ENDBRANCH   7  24
ENDBRANCH   4   7
ENDBRANCH   2   3
ENDBRANCH   1   2
BRANCH   1  26
ATOM     26  C   UNL A   1      31.730  31.374  26.839  1.00  0.00     0.023 C 
BRANCH  26  27
ATOM     27  C   UNL A   1      32.921  32.236  27.249  1.00  0.00     0.116 C 
BRANCH  27  28
ATOM     28  N   UNL A   1      32.567  33.614  27.560  1.00  0.00    -0.352 N 
ATOM     29  C   UNL A   1      33.134  34.498  28.450  1.00  0.00     0.251 C 
ATOM     30  H   UNL A   1      31.802  33.971  27.052  1.00  0.00     0.163 HD
ATOM     31  O   UNL A   1      32.608  35.594  28.634  1.00  0.00    -0.269 OA
BRANCH  29  32
ATOM     32  C   UNL A   1      34.340  34.115  29.219  1.00  0.00     0.039 A 
ATOM     33  C   UNL A   1      34.182  33.398  30.409  1.00  0.00     0.014 A 
ATOM     34  C   UNL A   1      35.620  34.431  28.760  1.00  0.00     0.014 A 
ATOM     35  C   UNL A   1      35.307  32.901  31.074  1.00  0.00     0.010 A 
ATOM     36  C   UNL A   1      36.733  33.863  29.375  1.00  0.00     0.010 A 
ATOM     37  C   UNL A   1      36.590  33.076  30.529  1.00  0.00    -0.014 A 
BRANCH  37  38
ATOM     38  C   UNL A   1      37.788  32.425  31.125  1.00  0.00     0.031 A 
ATOM     39  C   UNL A   1      38.527  31.358  30.363  1.00  0.00     0.074 A 
ATOM     40  C   UNL A   1      38.155  32.727  32.388  1.00  0.00     0.049 A 
ATOM     41  N   UNL A   1      39.506  30.586  30.758  1.00  0.00    -0.248 NA
ATOM     42  C   UNL A   1      38.080  31.108  28.985  1.00  0.00     0.031 C 
ATOM     43  C   UNL A   1      37.497  33.715  33.247  1.00  0.00     0.029 A 
ATOM     44  N   UNL A   1      39.159  32.224  33.179  1.00  0.00    -0.354 N 
ATOM     45  C   UNL A   1      39.781  29.744  29.684  1.00  0.00     0.074 A 
ATOM     46  C   UNL A   1      38.824  30.066  28.646  1.00  0.00     0.031 C 
ATOM     47  C   UNL A   1      38.125  33.758  34.432  1.00  0.00     0.029 A 
ATOM     48  C   UNL A   1      39.195  32.765  34.443  1.00  0.00     0.049 A 
ATOM     49  H   UNL A   1      39.794  31.538  32.869  1.00  0.00     0.167 HD
ATOM     50  C   UNL A   1      40.755  28.807  29.568  1.00  0.00     0.034 A 
ATOM     51  C   UNL A   1      39.982  32.481  35.501  1.00  0.00     0.034 A 
ATOM     52  C   UNL A   1      41.712  28.510  30.606  1.00  0.00     0.049 A 
ATOM     53  C   UNL A   1      41.035  31.411  35.360  1.00  0.00     0.074 A 
ATOM     54  C   UNL A   1      42.777  27.627  30.568  1.00  0.00     0.029 A 
ATOM     55  N   UNL A   1      41.715  29.079  31.873  1.00  0.00    -0.354 N 
ATOM     56  N   UNL A   1      41.313  30.659  34.320  1.00  0.00    -0.248 NA
ATOM     57  C   UNL A   1      41.881  31.153  36.533  1.00  0.00     0.031 C 
ATOM     58  C   UNL A   1      43.380  27.612  31.831  1.00  0.00     0.029 A 
ATOM     59  C   UNL A   1      42.741  28.540  32.636  1.00  0.00     0.049 A 
ATOM     60  H   UNL A   1      41.081  29.765  32.185  1.00  0.00     0.167 HD
ATOM     61  C   UNL A   1      42.385  29.860  34.707  1.00  0.00     0.074 A 
ATOM     62  C   UNL A   1      42.711  30.230  36.068  1.00  0.00     0.031 C 
ATOM     63  C   UNL A   1      43.047  28.910  33.998  1.00  0.00     0.034 A 
BRANCH  50  64
ATOM     64  C   UNL A   1      40.813  28.022  28.279  1.00  0.00     0.023 A 
ATOM     65  C   UNL A   1      40.171  26.778  28.142  1.00  0.00     0.031 A 
ATOM     66  C   UNL A   1      41.541  28.508  27.179  1.00  0.00     0.131 A 
ATOM     67  C   UNL A   1      40.335  26.030  26.968  1.00  0.00     0.055 A 
ATOM     68  C   UNL A   1      41.631  27.797  25.981  1.00  0.00     0.041 A 
ATOM     69  F   UNL A   1      42.192  29.681  27.254  1.00  0.00    -0.206 F 
ATOM     70  C   UNL A   1      41.039  26.541  25.876  1.00  0.00     0.022 A 
BRANCH  67  71
ATOM     71  S   UNL A   1      39.739  24.316  26.945  1.00  0.00     0.124 S 
ATOM     72  O   UNL A   1      40.862  23.624  26.314  1.00  0.00    -0.237 OA
ATOM     73  O   UNL A   1      39.530  24.036  28.360  1.00  0.00    -0.237 OA
ATOM     74  O   UNL A   1      38.525  24.385  26.134  1.00  0.00    -0.744 OA
ENDBRANCH  67  71
ENDBRANCH  50  64
BRANCH  51  75
ATOM     75  C   UNL A   1      39.800  33.200  36.796  1.00  0.00     0.023 A 
ATOM     76  C   UNL A   1      38.964  32.681  37.798  1.00  0.00     0.031 A 
ATOM     77  C   UNL A   1      40.423  34.437  37.034  1.00  0.00     0.131 A 
ATOM     78  C   UNL A   1      38.738  33.416  38.971  1.00  0.00     0.055 A 
ATOM     79  C   UNL A   1      40.237  35.141  38.226  1.00  0.00     0.041 A 
ATOM     80  F   UNL A   1      41.236  34.978  36.111  1.00  0.00    -0.206 F 
ATOM     81  C   UNL A   1      39.379  34.636  39.198  1.00  0.00     0.022 A 
BRANCH  78  82
ATOM     82  S   UNL A   1      37.522  32.796  40.165  1.00  0.00     0.124 S 
ATOM     83  O   UNL A   1      36.418  32.412  39.293  1.00  0.00    -0.237 OA
ATOM     84  O   UNL A   1      38.251  31.702  40.798  1.00  0.00    -0.237 OA
ATOM     85  O   UNL A   1      37.267  33.951  41.023  1.00  0.00    -0.744 OA
ENDBRANCH  78  82
ENDBRANCH  51  75
BRANCH  63  86
ATOM     86  C   UNL A   1      44.216  28.236  34.672  1.00  0.00     0.023 A 
ATOM     87  C   UNL A   1      44.044  27.136  35.529  1.00  0.00     0.031 A 
ATOM     88  C   UNL A   1      45.524  28.705  34.449  1.00  0.00     0.131 A 
ATOM     89  C   UNL A   1      45.156  26.568  36.168  1.00  0.00     0.055 A 
ATOM     90  C   UNL A   1      46.632  28.099  35.042  1.00  0.00     0.041 A 
ATOM     91  F   UNL A   1      45.745  29.755  33.642  1.00  0.00    -0.206 F 
ATOM     92  C   UNL A   1      46.451  27.030  35.915  1.00  0.00     0.022 A 
BRANCH  89  93
ATOM     93  S   UNL A   1      44.886  25.256  37.391  1.00  0.00     0.124 S 
ATOM     94  O   UNL A   1      45.905  24.280  37.018  1.00  0.00    -0.237 OA
ATOM     95  O   UNL A   1      45.103  25.954  38.653  1.00  0.00    -0.237 OA
ATOM     96  O   UNL A   1      43.507  24.836  37.145  1.00  0.00    -0.744 OA
ENDBRANCH  89  93
ENDBRANCH  63  86
ENDBRANCH  37  38
ENDBRANCH  29  32
ENDBRANCH  27  28
ENDBRANCH  26  27
ENDBRANCH   1  26
TORSDOF 21
ENDMDL
