MODEL 1
REMARK VINA RESULT:     -11.8      0.000      0.000
REMARK SMILES Cc1n[nH]c(CCC(=O)NCCCCNC(=O)c2ccc(-c3c4nc(c(-c5cc(S(=O)(=O)[O-])ccc5F)c5ccc([nH]5)c(-c5cc(S(=O)(=O)[O-])ccc5F)c5nc(c(-c6cc(S(=O)(=O)[O-])ccc6F)c6ccc3[nH]6)C=C5)C=C4)cc2)c1C
REMARK SMILES IDX 13 1 12 2 11 3 10 4 8 5 9 6 7 8 6 9 5 10 1 11 2 12 3 13
REMARK SMILES IDX 81 14 4 15 82 16 14 18 15 19 16 20 17 22 18 23 19 24 80 25
REMARK SMILES IDX 20 26 79 27 21 28 22 29 23 30 73 31 24 32 78 33 72 34 74 35
REMARK SMILES IDX 25 36 77 37 71 38 70 39 26 41 58 42 38 43 57 44 39 45 42 46
REMARK SMILES IDX 56 47 75 48 40 49 41 50 55 52 76 53 43 54 27 55 28 56 36 57
REMARK SMILES IDX 29 58 35 59 37 60 34 61 30 62 31 63 32 64 33 65 59 66 60 67
REMARK SMILES IDX 68 68 61 69 67 70 69 71 66 72 62 73 63 74 64 75 65 76 44 77
REMARK SMILES IDX 45 78 53 79 46 80 52 81 54 82 51 83 47 84 48 85 49 86 50 87
REMARK H PARENT 10 7 4 17 15 21 74 40 42 51
REMARK Flexibility Score: inf
ROOT
ATOM      1  C   UNL A   1      39.223  32.047  29.889  1.00  0.00     0.023 C 
ENDROOT
BRANCH   1   2
ATOM      2  C   UNL A   1      39.159  33.553  30.169  1.00  0.00     0.023 C 
BRANCH   2   3
ATOM      3  C   UNL A   1      37.780  34.207  30.142  1.00  0.00     0.116 C 
BRANCH   3   4
ATOM      4  N   UNL A   1      37.134  34.008  28.849  1.00  0.00    -0.356 N 
ATOM      5  C   UNL A   1      35.857  33.629  28.553  1.00  0.00     0.220 C 
ATOM      6  O   UNL A   1      35.595  33.310  27.389  1.00  0.00    -0.275 OA
ATOM      7  H   UNL A   1      37.710  34.172  28.068  1.00  0.00     0.163 HD
BRANCH   5   8
ATOM      8  C   UNL A   1      34.766  33.642  29.610  1.00  0.00     0.106 C 
BRANCH   8   9
ATOM      9  C   UNL A   1      33.657  34.659  29.319  1.00  0.00     0.066 C 
BRANCH   9  10
ATOM     10  C   UNL A   1      33.392  35.565  30.477  1.00  0.00     0.039 A 
ATOM     11  C   UNL A   1      33.687  37.252  33.715  1.00  0.00     0.069 C 
ATOM     12  C   UNL A   1      33.364  36.731  32.363  1.00  0.00     0.062 A 
ATOM     13  N   UNL A   1      32.871  37.554  31.430  1.00  0.00    -0.181 NA
ATOM     14  C   UNL A   1      33.638  35.435  31.833  1.00  0.00    -0.007 A 
ATOM     15  N   UNL A   1      32.883  36.824  30.309  1.00  0.00    -0.282 N 
ATOM     16  C   UNL A   1      34.244  34.278  32.542  1.00  0.00     0.048 C 
ATOM     17  H   UNL A   1      32.556  37.162  29.444  1.00  0.00     0.190 HD
ENDBRANCH   9  10
ENDBRANCH   8   9
ENDBRANCH   5   8
ENDBRANCH   3   4
ENDBRANCH   2   3
ENDBRANCH   1   2
BRANCH   1  18
ATOM     18  C   UNL A   1      38.437  31.213  30.891  1.00  0.00     0.116 C 
BRANCH  18  19
ATOM     19  N   UNL A   1      37.053  30.945  30.476  1.00  0.00    -0.352 N 
ATOM     20  C   UNL A   1      36.611  30.143  29.427  1.00  0.00     0.251 C 
ATOM     21  H   UNL A   1      36.351  31.385  31.007  1.00  0.00     0.163 HD
ATOM     22  O   UNL A   1      35.492  30.226  28.975  1.00  0.00    -0.269 OA
BRANCH  20  23
ATOM     23  C   UNL A   1      37.590  29.177  28.896  1.00  0.00     0.039 A 
ATOM     24  C   UNL A   1      38.325  29.458  27.741  1.00  0.00     0.014 A 
ATOM     25  C   UNL A   1      37.947  28.157  29.766  1.00  0.00     0.014 A 
ATOM     26  C   UNL A   1      39.544  28.806  27.551  1.00  0.00     0.010 A 
ATOM     27  C   UNL A   1      39.217  27.649  29.656  1.00  0.00     0.010 A 
ATOM     28  C   UNL A   1      40.025  27.950  28.551  1.00  0.00    -0.014 A 
BRANCH  28  29
ATOM     29  C   UNL A   1      41.428  27.513  28.580  1.00  0.00     0.031 A 
ATOM     30  C   UNL A   1      41.795  26.325  27.743  1.00  0.00     0.074 A 
ATOM     31  C   UNL A   1      42.414  28.328  29.014  1.00  0.00     0.049 A 
ATOM     32  N   UNL A   1      42.306  25.204  28.136  1.00  0.00    -0.248 NA
ATOM     33  C   UNL A   1      41.498  26.348  26.303  1.00  0.00     0.031 C 
ATOM     34  C   UNL A   1      42.291  29.686  29.554  1.00  0.00     0.029 A 
ATOM     35  N   UNL A   1      43.758  28.194  28.851  1.00  0.00    -0.354 N 
ATOM     36  C   UNL A   1      42.604  24.465  26.988  1.00  0.00     0.074 A 
ATOM     37  C   UNL A   1      41.913  25.138  25.918  1.00  0.00     0.031 C 
ATOM     38  C   UNL A   1      43.449  30.349  29.361  1.00  0.00     0.029 A 
ATOM     39  C   UNL A   1      44.445  29.401  28.899  1.00  0.00     0.049 A 
ATOM     40  H   UNL A   1      44.202  27.325  28.713  1.00  0.00     0.167 HD
ATOM     41  C   UNL A   1      43.558  23.484  26.990  1.00  0.00     0.034 A 
ATOM     42  C   UNL A   1      45.734  29.627  28.545  1.00  0.00     0.034 A 
ATOM     43  C   UNL A   1      43.976  23.181  28.344  1.00  0.00     0.049 A 
ATOM     44  C   UNL A   1      46.435  28.325  28.682  1.00  0.00     0.074 A 
ATOM     45  C   UNL A   1      43.324  22.794  29.500  1.00  0.00     0.029 A 
ATOM     46  N   UNL A   1      45.204  23.649  28.766  1.00  0.00    -0.354 N 
ATOM     47  N   UNL A   1      46.527  27.683  29.819  1.00  0.00    -0.248 NA
ATOM     48  C   UNL A   1      46.610  27.497  27.498  1.00  0.00     0.031 C 
ATOM     49  C   UNL A   1      43.938  23.570  30.529  1.00  0.00     0.029 A 
ATOM     50  C   UNL A   1      44.987  24.295  29.955  1.00  0.00     0.049 A 
ATOM     51  H   UNL A   1      46.066  23.540  28.303  1.00  0.00     0.167 HD
ATOM     52  C   UNL A   1      46.301  26.352  29.498  1.00  0.00     0.074 A 
ATOM     53  C   UNL A   1      46.492  26.284  28.049  1.00  0.00     0.031 C 
ATOM     54  C   UNL A   1      45.691  25.494  30.373  1.00  0.00     0.034 A 
BRANCH  41  55
ATOM     55  C   UNL A   1      44.390  23.006  25.809  1.00  0.00     0.023 A 
ATOM     56  C   UNL A   1      44.441  21.610  25.584  1.00  0.00     0.031 A 
ATOM     57  C   UNL A   1      45.333  23.765  25.086  1.00  0.00     0.131 A 
ATOM     58  C   UNL A   1      45.464  21.027  24.816  1.00  0.00     0.055 A 
ATOM     59  C   UNL A   1      46.302  23.185  24.256  1.00  0.00     0.041 A 
ATOM     60  F   UNL A   1      45.433  25.093  25.200  1.00  0.00    -0.206 F 
ATOM     61  C   UNL A   1      46.401  21.808  24.150  1.00  0.00     0.022 A 
BRANCH  58  62
ATOM     62  S   UNL A   1      45.671  19.227  24.888  1.00  0.00     0.124 S 
ATOM     63  O   UNL A   1      44.453  18.822  25.581  1.00  0.00    -0.237 OA
ATOM     64  O   UNL A   1      45.756  18.878  23.473  1.00  0.00    -0.237 OA
ATOM     65  O   UNL A   1      46.907  19.058  25.648  1.00  0.00    -0.744 OA
ENDBRANCH  58  62
ENDBRANCH  41  55
BRANCH  42  66
ATOM     66  C   UNL A   1      46.247  30.836  27.848  1.00  0.00     0.023 A 
ATOM     67  C   UNL A   1      45.468  31.583  26.945  1.00  0.00     0.031 A 
ATOM     68  C   UNL A   1      47.494  31.399  28.222  1.00  0.00     0.131 A 
ATOM     69  C   UNL A   1      45.948  32.816  26.442  1.00  0.00     0.055 A 
ATOM     70  C   UNL A   1      47.970  32.606  27.709  1.00  0.00     0.041 A 
ATOM     71  F   UNL A   1      48.264  30.827  29.162  1.00  0.00    -0.206 F 
ATOM     72  C   UNL A   1      47.194  33.326  26.818  1.00  0.00     0.022 A 
BRANCH  69  73
ATOM     73  S   UNL A   1      44.896  33.837  25.362  1.00  0.00     0.124 S 
ATOM     74  O   UNL A   1      45.879  34.646  24.652  1.00  0.00    -0.237 OA
ATOM     75  O   UNL A   1      44.188  32.834  24.576  1.00  0.00    -0.237 OA
ATOM     76  O   UNL A   1      44.057  34.575  26.307  1.00  0.00    -0.744 OA
ENDBRANCH  69  73
ENDBRANCH  42  66
BRANCH  54  77
ATOM     77  C   UNL A   1      45.491  25.910  31.819  1.00  0.00     0.023 A 
ATOM     78  C   UNL A   1      44.301  26.469  32.337  1.00  0.00     0.031 A 
ATOM     79  C   UNL A   1      46.491  25.549  32.741  1.00  0.00     0.131 A 
ATOM     80  C   UNL A   1      44.146  26.645  33.727  1.00  0.00     0.055 A 
ATOM     81  C   UNL A   1      46.327  25.704  34.118  1.00  0.00     0.041 A 
ATOM     82  F   UNL A   1      47.634  24.983  32.320  1.00  0.00    -0.206 F 
ATOM     83  C   UNL A   1      45.153  26.256  34.616  1.00  0.00     0.022 A 
BRANCH  80  84
ATOM     84  S   UNL A   1      42.626  27.384  34.407  1.00  0.00     0.124 S 
ATOM     85  O   UNL A   1      41.873  27.774  33.221  1.00  0.00    -0.237 OA
ATOM     86  O   UNL A   1      42.061  26.289  35.191  1.00  0.00    -0.237 OA
ATOM     87  O   UNL A   1      43.124  28.506  35.205  1.00  0.00    -0.744 OA
ENDBRANCH  80  84
ENDBRANCH  54  77
ENDBRANCH  28  29
ENDBRANCH  20  23
ENDBRANCH  18  19
ENDBRANCH   1  18
TORSDOF 16
ENDMDL
MODEL 2
REMARK VINA RESULT:     -11.7      1.147      1.868
REMARK SMILES Cc1n[nH]c(CCC(=O)NCCCCNC(=O)c2ccc(-c3c4nc(c(-c5cc(S(=O)(=O)[O-])ccc5F)c5ccc([nH]5)c(-c5cc(S(=O)(=O)[O-])ccc5F)c5nc(c(-c6cc(S(=O)(=O)[O-])ccc6F)c6ccc3[nH]6)C=C5)C=C4)cc2)c1C
REMARK SMILES IDX 13 1 12 2 11 3 10 4 8 5 9 6 7 8 6 9 5 10 1 11 2 12 3 13
REMARK SMILES IDX 81 14 4 15 82 16 14 18 15 19 16 20 17 22 18 23 19 24 80 25
REMARK SMILES IDX 20 26 79 27 21 28 22 29 23 30 73 31 24 32 78 33 72 34 74 35
REMARK SMILES IDX 25 36 77 37 71 38 70 39 26 41 58 42 38 43 57 44 39 45 42 46
REMARK SMILES IDX 56 47 75 48 40 49 41 50 55 52 76 53 43 54 27 55 28 56 36 57
REMARK SMILES IDX 29 58 35 59 37 60 34 61 30 62 31 63 32 64 33 65 59 66 60 67
REMARK SMILES IDX 68 68 61 69 67 70 69 71 66 72 62 73 63 74 64 75 65 76 44 77
REMARK SMILES IDX 45 78 53 79 46 80 52 81 54 82 51 83 47 84 48 85 49 86 50 87
REMARK H PARENT 10 7 4 17 15 21 74 40 42 51
REMARK Flexibility Score: inf
ROOT
ATOM      1  C   UNL A   1      39.054  31.989  31.159  1.00  0.00     0.023 C 
ENDROOT
BRANCH   1   2
ATOM      2  C   UNL A   1      38.371  31.000  32.111  1.00  0.00     0.023 C 
BRANCH   2   3
ATOM      3  C   UNL A   1      38.185  31.444  33.560  1.00  0.00     0.116 C 
BRANCH   3   4
ATOM      4  N   UNL A   1      38.078  32.896  33.650  1.00  0.00    -0.356 N 
ATOM      5  C   UNL A   1      36.983  33.705  33.561  1.00  0.00     0.220 C 
ATOM      6  O   UNL A   1      37.159  34.921  33.445  1.00  0.00    -0.275 OA
ATOM      7  H   UNL A   1      38.930  33.366  33.797  1.00  0.00     0.163 HD
BRANCH   5   8
ATOM      8  C   UNL A   1      35.576  33.138  33.651  1.00  0.00     0.106 C 
BRANCH   8   9
ATOM      9  C   UNL A   1      34.987  32.769  32.285  1.00  0.00     0.066 C 
BRANCH   9  10
ATOM     10  C   UNL A   1      34.305  33.923  31.624  1.00  0.00     0.039 A 
ATOM     11  C   UNL A   1      32.862  36.112  29.067  1.00  0.00     0.069 C 
ATOM     12  C   UNL A   1      33.356  35.404  30.274  1.00  0.00     0.062 A 
ATOM     13  N   UNL A   1      32.670  35.479  31.420  1.00  0.00    -0.181 NA
ATOM     14  C   UNL A   1      34.450  34.493  30.371  1.00  0.00    -0.007 A 
ATOM     15  N   UNL A   1      33.270  34.591  32.221  1.00  0.00    -0.282 N 
ATOM     16  C   UNL A   1      35.397  34.100  29.295  1.00  0.00     0.048 C 
ATOM     17  H   UNL A   1      32.993  34.433  33.152  1.00  0.00     0.190 HD
ENDBRANCH   9  10
ENDBRANCH   8   9
ENDBRANCH   5   8
ENDBRANCH   3   4
ENDBRANCH   2   3
ENDBRANCH   1   2
BRANCH   1  18
ATOM     18  C   UNL A   1      38.516  31.926  29.736  1.00  0.00     0.116 C 
BRANCH  18  19
ATOM     19  N   UNL A   1      37.114  31.491  29.656  1.00  0.00    -0.352 N 
ATOM     20  C   UNL A   1      36.589  30.417  28.943  1.00  0.00     0.251 C 
ATOM     21  H   UNL A   1      36.467  32.024  30.170  1.00  0.00     0.163 HD
ATOM     22  O   UNL A   1      35.409  30.322  28.690  1.00  0.00    -0.269 OA
BRANCH  20  23
ATOM     23  C   UNL A   1      37.556  29.390  28.514  1.00  0.00     0.039 A 
ATOM     24  C   UNL A   1      38.336  29.571  27.367  1.00  0.00     0.014 A 
ATOM     25  C   UNL A   1      37.856  28.425  29.464  1.00  0.00     0.014 A 
ATOM     26  C   UNL A   1      39.542  28.876  27.265  1.00  0.00     0.010 A 
ATOM     27  C   UNL A   1      39.113  27.877  29.432  1.00  0.00     0.010 A 
ATOM     28  C   UNL A   1      39.965  28.079  28.338  1.00  0.00    -0.014 A 
BRANCH  28  29
ATOM     29  C   UNL A   1      41.354  27.609  28.444  1.00  0.00     0.031 A 
ATOM     30  C   UNL A   1      41.743  26.422  27.616  1.00  0.00     0.074 A 
ATOM     31  C   UNL A   1      42.330  28.395  28.947  1.00  0.00     0.049 A 
ATOM     32  N   UNL A   1      42.204  25.285  28.024  1.00  0.00    -0.248 NA
ATOM     33  C   UNL A   1      41.534  26.469  26.161  1.00  0.00     0.031 C 
ATOM     34  C   UNL A   1      42.206  29.750  29.496  1.00  0.00     0.029 A 
ATOM     35  N   UNL A   1      43.678  28.232  28.863  1.00  0.00    -0.354 N 
ATOM     36  C   UNL A   1      42.553  24.553  26.887  1.00  0.00     0.074 A 
ATOM     37  C   UNL A   1      41.943  25.254  25.786  1.00  0.00     0.031 C 
ATOM     38  C   UNL A   1      43.389  30.388  29.381  1.00  0.00     0.029 A 
ATOM     39  C   UNL A   1      44.388  29.422  28.968  1.00  0.00     0.049 A 
ATOM     40  H   UNL A   1      44.110  27.355  28.741  1.00  0.00     0.167 HD
ATOM     41  C   UNL A   1      43.483  23.549  26.933  1.00  0.00     0.034 A 
ATOM     42  C   UNL A   1      45.701  29.621  28.694  1.00  0.00     0.034 A 
ATOM     43  C   UNL A   1      43.812  23.221  28.306  1.00  0.00     0.049 A 
ATOM     44  C   UNL A   1      46.363  28.302  28.856  1.00  0.00     0.074 A 
ATOM     45  C   UNL A   1      43.083  22.837  29.416  1.00  0.00     0.029 A 
ATOM     46  N   UNL A   1      45.023  23.655  28.806  1.00  0.00    -0.354 N 
ATOM     47  N   UNL A   1      46.372  27.645  29.988  1.00  0.00    -0.248 NA
ATOM     48  C   UNL A   1      46.589  27.483  27.674  1.00  0.00     0.031 C 
ATOM     49  C   UNL A   1      43.652  23.586  30.490  1.00  0.00     0.029 A 
ATOM     50  C   UNL A   1      44.749  24.293  29.988  1.00  0.00     0.049 A 
ATOM     51  H   UNL A   1      45.908  23.531  28.394  1.00  0.00     0.167 HD
ATOM     52  C   UNL A   1      46.135  26.323  29.637  1.00  0.00     0.074 A 
ATOM     53  C   UNL A   1      46.411  26.267  28.201  1.00  0.00     0.031 C 
ATOM     54  C   UNL A   1      45.455  25.470  30.464  1.00  0.00     0.034 A 
BRANCH  41  55
ATOM     55  C   UNL A   1      44.373  23.065  25.798  1.00  0.00     0.023 A 
ATOM     56  C   UNL A   1      44.402  21.672  25.556  1.00  0.00     0.031 A 
ATOM     57  C   UNL A   1      45.378  23.809  25.145  1.00  0.00     0.131 A 
ATOM     58  C   UNL A   1      45.454  21.073  24.842  1.00  0.00     0.055 A 
ATOM     59  C   UNL A   1      46.381  23.215  24.368  1.00  0.00     0.041 A 
ATOM     60  F   UNL A   1      45.504  25.132  25.285  1.00  0.00    -0.206 F 
ATOM     61  C   UNL A   1      46.450  21.838  24.246  1.00  0.00     0.022 A 
BRANCH  58  62
ATOM     62  S   UNL A   1      45.610  19.267  24.899  1.00  0.00     0.124 S 
ATOM     63  O   UNL A   1      46.858  19.106  25.638  1.00  0.00    -0.237 OA
ATOM     64  O   UNL A   1      44.390  18.883  25.602  1.00  0.00    -0.237 OA
ATOM     65  O   UNL A   1      45.666  18.886  23.490  1.00  0.00    -0.744 OA
ENDBRANCH  58  62
ENDBRANCH  41  55
BRANCH  42  66
ATOM     66  C   UNL A   1      46.282  30.826  28.045  1.00  0.00     0.023 A 
ATOM     67  C   UNL A   1      45.578  31.598  27.102  1.00  0.00     0.031 A 
ATOM     68  C   UNL A   1      47.514  31.358  28.503  1.00  0.00     0.131 A 
ATOM     69  C   UNL A   1      46.115  32.825  26.645  1.00  0.00     0.055 A 
ATOM     70  C   UNL A   1      48.048  32.560  28.035  1.00  0.00     0.041 A 
ATOM     71  F   UNL A   1      48.211  30.760  29.484  1.00  0.00    -0.206 F 
ATOM     72  C   UNL A   1      47.345  33.305  27.104  1.00  0.00     0.022 A 
BRANCH  69  73
ATOM     73  S   UNL A   1      45.155  33.879  25.512  1.00  0.00     0.124 S 
ATOM     74  O   UNL A   1      44.334  34.653  26.435  1.00  0.00    -0.237 OA
ATOM     75  O   UNL A   1      46.200  34.609  24.803  1.00  0.00    -0.237 OA
ATOM     76  O   UNL A   1      44.420  32.915  24.693  1.00  0.00    -0.744 OA
ENDBRANCH  69  73
ENDBRANCH  42  66
BRANCH  54  77
ATOM     77  C   UNL A   1      45.177  25.874  31.900  1.00  0.00     0.023 A 
ATOM     78  C   UNL A   1      44.005  26.529  32.338  1.00  0.00     0.031 A 
ATOM     79  C   UNL A   1      46.064  25.405  32.887  1.00  0.00     0.131 A 
ATOM     80  C   UNL A   1      43.755  26.691  33.716  1.00  0.00     0.055 A 
ATOM     81  C   UNL A   1      45.805  25.547  34.250  1.00  0.00     0.041 A 
ATOM     82  F   UNL A   1      47.181  24.745  32.541  1.00  0.00    -0.206 F 
ATOM     83  C   UNL A   1      44.649  26.194  34.670  1.00  0.00     0.022 A 
BRANCH  80  84
ATOM     84  S   UNL A   1      42.258  27.552  34.296  1.00  0.00     0.124 S 
ATOM     85  O   UNL A   1      42.722  28.308  35.453  1.00  0.00    -0.237 OA
ATOM     86  O   UNL A   1      41.872  28.342  33.129  1.00  0.00    -0.237 OA
ATOM     87  O   UNL A   1      41.341  26.457  34.616  1.00  0.00    -0.744 OA
ENDBRANCH  80  84
ENDBRANCH  54  77
ENDBRANCH  28  29
ENDBRANCH  20  23
ENDBRANCH  18  19
ENDBRANCH   1  18
TORSDOF 16
ENDMDL
MODEL 3
REMARK VINA RESULT:     -11.7      3.331      4.793
REMARK SMILES Cc1n[nH]c(CCC(=O)NCCCCNC(=O)c2ccc(-c3c4nc(c(-c5cc(S(=O)(=O)[O-])ccc5F)c5ccc([nH]5)c(-c5cc(S(=O)(=O)[O-])ccc5F)c5nc(c(-c6cc(S(=O)(=O)[O-])ccc6F)c6ccc3[nH]6)C=C5)C=C4)cc2)c1C
REMARK SMILES IDX 13 1 12 2 11 3 10 4 8 5 9 6 7 8 6 9 5 10 1 11 2 12 3 13
REMARK SMILES IDX 81 14 4 15 82 16 14 18 15 19 16 20 17 22 18 23 19 24 80 25
REMARK SMILES IDX 20 26 79 27 21 28 22 29 23 30 73 31 24 32 78 33 72 34 74 35
REMARK SMILES IDX 25 36 77 37 71 38 70 39 26 41 58 42 38 43 57 44 39 45 42 46
REMARK SMILES IDX 56 47 75 48 40 49 41 50 55 52 76 53 43 54 27 55 28 56 36 57
REMARK SMILES IDX 29 58 35 59 37 60 34 61 30 62 31 63 32 64 33 65 59 66 60 67
REMARK SMILES IDX 68 68 61 69 67 70 69 71 66 72 62 73 63 74 64 75 65 76 44 77
REMARK SMILES IDX 45 78 53 79 46 80 52 81 54 82 51 83 47 84 48 85 49 86 50 87
REMARK H PARENT 10 7 4 17 15 21 74 40 42 51
REMARK Flexibility Score: inf
ROOT
ATOM      1  C   UNL A   1      33.862  30.506  26.875  1.00  0.00     0.023 C 
ENDROOT
BRANCH   1   2
ATOM      2  C   UNL A   1      32.393  30.175  27.162  1.00  0.00     0.023 C 
BRANCH   2   3
ATOM      3  C   UNL A   1      31.363  30.635  26.134  1.00  0.00     0.116 C 
BRANCH   3   4
ATOM      4  N   UNL A   1      31.555  29.949  24.861  1.00  0.00    -0.356 N 
ATOM      5  C   UNL A   1      31.554  28.616  24.570  1.00  0.00     0.220 C 
ATOM      6  O   UNL A   1      31.959  28.257  23.461  1.00  0.00    -0.275 OA
ATOM      7  H   UNL A   1      31.710  30.542  24.090  1.00  0.00     0.163 HD
BRANCH   5   8
ATOM      8  C   UNL A   1      31.025  27.594  25.563  1.00  0.00     0.106 C 
BRANCH   8   9
ATOM      9  C   UNL A   1      30.527  26.308  24.895  1.00  0.00     0.066 C 
BRANCH   9  10
ATOM     10  C   UNL A   1      30.879  25.083  25.675  1.00  0.00     0.039 A 
ATOM     11  C   UNL A   1      32.765  22.624  27.627  1.00  0.00     0.069 C 
ATOM     12  C   UNL A   1      31.796  23.459  26.874  1.00  0.00     0.062 A 
ATOM     13  N   UNL A   1      30.512  23.493  27.247  1.00  0.00    -0.181 NA
ATOM     14  C   UNL A   1      32.068  24.389  25.827  1.00  0.00    -0.007 A 
ATOM     15  N   UNL A   1      29.978  24.467  26.501  1.00  0.00    -0.282 N 
ATOM     16  C   UNL A   1      33.381  24.682  25.195  1.00  0.00     0.048 C 
ATOM     17  H   UNL A   1      29.027  24.716  26.542  1.00  0.00     0.190 HD
ENDBRANCH   9  10
ENDBRANCH   8   9
ENDBRANCH   5   8
ENDBRANCH   3   4
ENDBRANCH   2   3
ENDBRANCH   1   2
BRANCH   1  18
ATOM     18  C   UNL A   1      34.835  29.770  27.787  1.00  0.00     0.116 C 
BRANCH  18  19
ATOM     19  N   UNL A   1      35.416  30.621  28.836  1.00  0.00    -0.352 N 
ATOM     20  C   UNL A   1      36.569  30.396  29.582  1.00  0.00     0.251 C 
ATOM     21  H   UNL A   1      34.928  31.452  29.036  1.00  0.00     0.163 HD
ATOM     22  O   UNL A   1      36.796  30.982  30.616  1.00  0.00    -0.269 OA
BRANCH  20  23
ATOM     23  C   UNL A   1      37.509  29.401  29.035  1.00  0.00     0.039 A 
ATOM     24  C   UNL A   1      38.236  29.661  27.869  1.00  0.00     0.014 A 
ATOM     25  C   UNL A   1      37.845  28.368  29.897  1.00  0.00     0.014 A 
ATOM     26  C   UNL A   1      39.431  28.970  27.661  1.00  0.00     0.010 A 
ATOM     27  C   UNL A   1      39.096  27.819  29.768  1.00  0.00     0.010 A 
ATOM     28  C   UNL A   1      39.898  28.097  28.653  1.00  0.00    -0.014 A 
BRANCH  28  29
ATOM     29  C   UNL A   1      41.286  27.615  28.660  1.00  0.00     0.031 A 
ATOM     30  C   UNL A   1      41.604  26.420  27.813  1.00  0.00     0.074 A 
ATOM     31  C   UNL A   1      42.304  28.395  29.086  1.00  0.00     0.049 A 
ATOM     32  N   UNL A   1      42.085  25.282  28.192  1.00  0.00    -0.248 NA
ATOM     33  C   UNL A   1      41.290  26.462  26.377  1.00  0.00     0.031 C 
ATOM     34  C   UNL A   1      42.231  29.754  29.634  1.00  0.00     0.029 A 
ATOM     35  N   UNL A   1      43.641  28.220  28.904  1.00  0.00    -0.354 N 
ATOM     36  C   UNL A   1      42.343  24.540  27.037  1.00  0.00     0.074 A 
ATOM     37  C   UNL A   1      41.661  25.241  25.980  1.00  0.00     0.031 C 
ATOM     38  C   UNL A   1      43.408  30.381  29.430  1.00  0.00     0.029 A 
ATOM     39  C   UNL A   1      44.366  29.404  28.950  1.00  0.00     0.049 A 
ATOM     40  H   UNL A   1      44.055  27.338  28.756  1.00  0.00     0.167 HD
ATOM     41  C   UNL A   1      43.266  23.529  27.021  1.00  0.00     0.034 A 
ATOM     42  C   UNL A   1      45.657  29.590  28.580  1.00  0.00     0.034 A 
ATOM     43  C   UNL A   1      43.691  23.205  28.368  1.00  0.00     0.049 A 
ATOM     44  C   UNL A   1      46.318  28.266  28.700  1.00  0.00     0.074 A 
ATOM     45  C   UNL A   1      43.042  22.833  29.531  1.00  0.00     0.029 A 
ATOM     46  N   UNL A   1      44.939  23.631  28.776  1.00  0.00    -0.354 N 
ATOM     47  N   UNL A   1      46.404  27.615  29.833  1.00  0.00    -0.248 NA
ATOM     48  C   UNL A   1      46.450  27.439  27.510  1.00  0.00     0.031 C 
ATOM     49  C   UNL A   1      43.694  23.583  30.555  1.00  0.00     0.029 A 
ATOM     50  C   UNL A   1      44.758  24.277  29.971  1.00  0.00     0.049 A 
ATOM     51  H   UNL A   1      45.791  23.498  28.301  1.00  0.00     0.167 HD
ATOM     52  C   UNL A   1      46.132  26.294  29.508  1.00  0.00     0.074 A 
ATOM     53  C   UNL A   1      46.301  26.228  28.056  1.00  0.00     0.031 C 
ATOM     54  C   UNL A   1      45.506  25.451  30.387  1.00  0.00     0.034 A 
BRANCH  41  55
ATOM     55  C   UNL A   1      44.066  23.031  25.827  1.00  0.00     0.023 A 
ATOM     56  C   UNL A   1      44.045  21.640  25.576  1.00  0.00     0.031 A 
ATOM     57  C   UNL A   1      45.043  23.756  25.112  1.00  0.00     0.131 A 
ATOM     58  C   UNL A   1      45.033  21.020  24.791  1.00  0.00     0.055 A 
ATOM     59  C   UNL A   1      45.977  23.142  24.266  1.00  0.00     0.041 A 
ATOM     60  F   UNL A   1      45.210  25.074  25.250  1.00  0.00    -0.206 F 
ATOM     61  C   UNL A   1      46.005  21.765  24.134  1.00  0.00     0.022 A 
BRANCH  58  62
ATOM     62  S   UNL A   1      45.149  19.210  24.829  1.00  0.00     0.124 S 
ATOM     63  O   UNL A   1      46.518  19.016  25.294  1.00  0.00    -0.237 OA
ATOM     64  O   UNL A   1      44.091  18.862  25.772  1.00  0.00    -0.237 OA
ATOM     65  O   UNL A   1      44.901  18.825  23.442  1.00  0.00    -0.744 OA
ENDBRANCH  58  62
ENDBRANCH  41  55
BRANCH  42  66
ATOM     66  C   UNL A   1      46.199  30.787  27.883  1.00  0.00     0.023 A 
ATOM     67  C   UNL A   1      45.417  31.596  27.037  1.00  0.00     0.031 A 
ATOM     68  C   UNL A   1      47.492  31.272  28.202  1.00  0.00     0.131 A 
ATOM     69  C   UNL A   1      45.938  32.813  26.536  1.00  0.00     0.055 A 
ATOM     70  C   UNL A   1      48.008  32.465  27.690  1.00  0.00     0.041 A 
ATOM     71  F   UNL A   1      48.278  30.638  29.088  1.00  0.00    -0.206 F 
ATOM     72  C   UNL A   1      47.227  33.246  26.857  1.00  0.00     0.022 A 
BRANCH  69  73
ATOM     73  S   UNL A   1      44.890  33.914  25.535  1.00  0.00     0.124 S 
ATOM     74  O   UNL A   1      45.815  34.984  25.184  1.00  0.00    -0.237 OA
ATOM     75  O   UNL A   1      44.465  33.040  24.448  1.00  0.00    -0.237 OA
ATOM     76  O   UNL A   1      43.823  34.299  26.459  1.00  0.00    -0.744 OA
ENDBRANCH  69  73
ENDBRANCH  42  66
BRANCH  54  77
ATOM     77  C   UNL A   1      45.338  25.865  31.837  1.00  0.00     0.023 A 
ATOM     78  C   UNL A   1      44.179  26.472  32.370  1.00  0.00     0.031 A 
ATOM     79  C   UNL A   1      46.330  25.454  32.747  1.00  0.00     0.131 A 
ATOM     80  C   UNL A   1      44.045  26.644  33.763  1.00  0.00     0.055 A 
ATOM     81  C   UNL A   1      46.186  25.605  34.126  1.00  0.00     0.041 A 
ATOM     82  F   UNL A   1      47.442  24.840  32.310  1.00  0.00    -0.206 F 
ATOM     83  C   UNL A   1      45.042  26.205  34.639  1.00  0.00     0.022 A 
BRANCH  80  84
ATOM     84  S   UNL A   1      42.566  27.445  34.463  1.00  0.00     0.124 S 
ATOM     85  O   UNL A   1      41.683  27.602  33.313  1.00  0.00    -0.237 OA
ATOM     86  O   UNL A   1      42.132  26.485  35.475  1.00  0.00    -0.237 OA
ATOM     87  O   UNL A   1      43.086  28.702  35.004  1.00  0.00    -0.744 OA
ENDBRANCH  80  84
ENDBRANCH  54  77
ENDBRANCH  28  29
ENDBRANCH  20  23
ENDBRANCH  18  19
ENDBRANCH   1  18
TORSDOF 16
ENDMDL
