MODEL 1
REMARK VINA RESULT:     -11.7      0.000      0.000
REMARK SMILES CC[NH2+][C@@]1(C(=O)NCCCCNC(=O)c2ccc(-c3c4nc(c(-c5cc(S(=O)(=O)[O-])ccc5F)c5ccc([nH]5)c(-c5cc(S(=O)(=O)[O-])ccc5F)c5nc(c(-c6cc(S(=O)(=O)[O-])ccc6F)c6ccc3[nH]6)C=C5)C=C4)cc2)CCC[C@@H]1CC[N@@H+](C)C1CCCC1
REMARK SMILES IDX 9 1 8 2 7 3 5 4 6 5 4 7 78 8 81 9 79 10 80 11 3 12 2 15 1 16
REMARK SMILES IDX 82 17 83 18 84 19 85 20 86 22 87 23 90 24 88 25 89 26 10 27
REMARK SMILES IDX 11 28 12 29 13 30 14 32 15 33 16 34 77 35 17 36 76 37 18 38
REMARK SMILES IDX 19 39 20 40 70 41 21 42 75 43 69 44 71 45 22 46 74 47 68 48
REMARK SMILES IDX 67 49 23 51 55 52 35 53 54 54 36 55 39 56 53 57 72 58 37 59
REMARK SMILES IDX 38 60 52 62 73 63 40 64 24 65 25 66 33 67 26 68 32 69 34 70
REMARK SMILES IDX 31 71 27 72 28 73 29 74 30 75 56 76 57 77 65 78 58 79 64 80
REMARK SMILES IDX 66 81 63 82 59 83 60 84 61 85 62 86 41 87 42 88 50 89 43 90
REMARK SMILES IDX 49 91 51 92 48 93 44 94 45 95 46 96 47 97
REMARK H PARENT 7 6 3 13 3 14 84 21 12 31 71 50 39 61
REMARK Flexibility Score: inf
ROOT
ATOM      1  C   UNL A   1      31.318  27.615  26.356  1.00  0.00     0.023 C 
ENDROOT
BRANCH   1   2
ATOM      2  C   UNL A   1      32.178  26.355  26.369  1.00  0.00     0.116 C 
BRANCH   2   3
ATOM      3  N   UNL A   1      31.421  25.226  26.883  1.00  0.00    -0.351 N 
ATOM      4  C   UNL A   1      31.445  23.877  26.715  1.00  0.00     0.281 C 
ATOM      5  O   UNL A   1      30.478  23.313  27.252  1.00  0.00    -0.268 OA
ATOM      6  H   UNL A   1      30.716  25.507  27.509  1.00  0.00     0.163 HD
BRANCH   4   7
ATOM      7  C   UNL A   1      32.556  23.034  25.938  1.00  0.00     0.178 C 
ATOM      8  C   UNL A   1      33.970  23.200  26.539  1.00  0.00     0.079 C 
ATOM      9  C   UNL A   1      32.746  23.385  24.417  1.00  0.00     0.066 C 
ATOM     10  C   UNL A   1      34.798  24.033  25.574  1.00  0.00     0.008 C 
ATOM     11  C   UNL A   1      33.907  24.367  24.392  1.00  0.00     0.011 C 
BRANCH   7  12
ATOM     12  N   UNL A   1      32.142  21.588  25.975  1.00  0.00    -0.334 N 
ATOM     13  H   UNL A   1      31.659  21.423  26.858  1.00  0.00     0.347 HD
ATOM     14  H   UNL A   1      31.558  21.448  25.149  1.00  0.00     0.347 HD
BRANCH  12  15
ATOM     15  C   UNL A   1      33.224  20.610  25.864  1.00  0.00     0.257 C 
ATOM     16  C   UNL A   1      33.334  20.144  24.418  1.00  0.00     0.071 C 
ENDBRANCH  12  15
ENDBRANCH   7  12
BRANCH   9  17
ATOM     17  C   UNL A   1      31.450  23.616  23.576  1.00  0.00     0.072 C 
BRANCH  17  18
ATOM     18  C   UNL A   1      30.851  25.014  23.262  1.00  0.00     0.262 C 
BRANCH  18  19
ATOM     19  N   UNL A   1      31.574  26.182  22.696  1.00  0.00    -0.335 N 
ATOM     20  C   UNL A   1      32.230  25.729  21.452  1.00  0.00     0.332 C 
ATOM     21  H   UNL A   1      32.251  26.504  23.387  1.00  0.00     0.348 HD
BRANCH  19  22
ATOM     22  C   UNL A   1      30.735  27.348  22.449  1.00  0.00     0.183 C 
ATOM     23  C   UNL A   1      29.448  27.305  23.277  1.00  0.00     0.065 C 
ATOM     24  C   UNL A   1      31.237  28.753  22.815  1.00  0.00     0.065 C 
ATOM     25  C   UNL A   1      28.821  28.681  23.084  1.00  0.00     0.006 C 
ATOM     26  C   UNL A   1      29.970  29.598  22.672  1.00  0.00     0.006 C 
ENDBRANCH  19  22
ENDBRANCH  18  19
ENDBRANCH  17  18
ENDBRANCH   9  17
ENDBRANCH   4   7
ENDBRANCH   2   3
ENDBRANCH   1   2
BRANCH   1  27
ATOM     27  C   UNL A   1      31.814  28.805  27.160  1.00  0.00     0.023 C 
BRANCH  27  28
ATOM     28  C   UNL A   1      32.588  29.813  26.333  1.00  0.00     0.116 C 
BRANCH  28  29
ATOM     29  N   UNL A   1      32.335  31.206  26.692  1.00  0.00    -0.352 N 
ATOM     30  C   UNL A   1      33.202  32.059  27.344  1.00  0.00     0.251 C 
ATOM     31  H   UNL A   1      31.456  31.574  26.442  1.00  0.00     0.163 HD
ATOM     32  O   UNL A   1      32.856  33.194  27.656  1.00  0.00    -0.269 OA
BRANCH  30  33
ATOM     33  C   UNL A   1      34.531  31.531  27.714  1.00  0.00     0.039 A 
ATOM     34  C   UNL A   1      35.576  32.424  27.958  1.00  0.00     0.014 A 
ATOM     35  C   UNL A   1      34.674  30.172  27.995  1.00  0.00     0.014 A 
ATOM     36  C   UNL A   1      36.736  31.960  28.582  1.00  0.00     0.010 A 
ATOM     37  C   UNL A   1      35.776  29.739  28.717  1.00  0.00     0.010 A 
ATOM     38  C   UNL A   1      36.821  30.627  29.018  1.00  0.00    -0.014 A 
BRANCH  38  39
ATOM     39  C   UNL A   1      37.997  30.123  29.774  1.00  0.00     0.031 A 
ATOM     40  C   UNL A   1      38.223  30.592  31.185  1.00  0.00     0.074 A 
ATOM     41  C   UNL A   1      38.901  29.328  29.169  1.00  0.00     0.049 A 
ATOM     42  N   UNL A   1      39.234  30.369  31.984  1.00  0.00    -0.248 NA
ATOM     43  C   UNL A   1      37.195  31.478  31.750  1.00  0.00     0.031 C 
ATOM     44  C   UNL A   1      38.829  28.856  27.784  1.00  0.00     0.029 A 
ATOM     45  N   UNL A   1      40.065  28.777  29.643  1.00  0.00    -0.354 N 
ATOM     46  C   UNL A   1      38.976  31.113  33.131  1.00  0.00     0.074 A 
ATOM     47  C   UNL A   1      37.764  31.862  32.879  1.00  0.00     0.031 C 
ATOM     48  C   UNL A   1      39.874  28.049  27.538  1.00  0.00     0.029 A 
ATOM     49  C   UNL A   1      40.714  27.979  28.729  1.00  0.00     0.049 A 
ATOM     50  H   UNL A   1      40.404  28.938  30.553  1.00  0.00     0.167 HD
ATOM     51  C   UNL A   1      39.663  31.141  34.301  1.00  0.00     0.034 A 
ATOM     52  C   UNL A   1      41.853  27.270  28.845  1.00  0.00     0.034 A 
ATOM     53  C   UNL A   1      40.850  30.361  34.543  1.00  0.00     0.049 A 
ATOM     54  C   UNL A   1      42.604  27.309  30.151  1.00  0.00     0.074 A 
ATOM     55  C   UNL A   1      41.591  30.249  35.705  1.00  0.00     0.029 A 
ATOM     56  N   UNL A   1      41.472  29.554  33.597  1.00  0.00    -0.354 N 
ATOM     57  N   UNL A   1      42.319  27.972  31.248  1.00  0.00    -0.248 NA
ATOM     58  C   UNL A   1      43.825  26.499  30.234  1.00  0.00     0.031 C 
ATOM     59  C   UNL A   1      42.689  29.418  35.446  1.00  0.00     0.029 A 
ATOM     60  C   UNL A   1      42.600  28.961  34.141  1.00  0.00     0.049 A 
ATOM     61  H   UNL A   1      41.156  29.423  32.673  1.00  0.00     0.167 HD
ATOM     62  C   UNL A   1      43.311  27.631  32.164  1.00  0.00     0.074 A 
ATOM     63  C   UNL A   1      44.193  26.699  31.491  1.00  0.00     0.031 C 
ATOM     64  C   UNL A   1      43.473  28.043  33.447  1.00  0.00     0.034 A 
BRANCH  51  65
ATOM     65  C   UNL A   1      39.138  32.062  35.380  1.00  0.00     0.023 A 
ATOM     66  C   UNL A   1      39.532  33.411  35.448  1.00  0.00     0.031 A 
ATOM     67  C   UNL A   1      38.314  31.569  36.405  1.00  0.00     0.131 A 
ATOM     68  C   UNL A   1      39.212  34.180  36.576  1.00  0.00     0.055 A 
ATOM     69  C   UNL A   1      37.908  32.373  37.473  1.00  0.00     0.041 A 
ATOM     70  F   UNL A   1      37.916  30.288  36.408  1.00  0.00    -0.206 F 
ATOM     71  C   UNL A   1      38.380  33.679  37.578  1.00  0.00     0.022 A 
BRANCH  68  72
ATOM     72  S   UNL A   1      40.072  35.761  36.810  1.00  0.00     0.124 S 
ATOM     73  O   UNL A   1      41.468  35.329  36.862  1.00  0.00    -0.237 OA
ATOM     74  O   UNL A   1      39.679  36.513  35.625  1.00  0.00    -0.237 OA
ATOM     75  O   UNL A   1      39.535  36.258  38.075  1.00  0.00    -0.744 OA
ENDBRANCH  68  72
ENDBRANCH  51  65
BRANCH  52  76
ATOM     76  C   UNL A   1      42.344  26.437  27.711  1.00  0.00     0.023 A 
ATOM     77  C   UNL A   1      41.916  25.108  27.565  1.00  0.00     0.031 A 
ATOM     78  C   UNL A   1      43.260  26.943  26.774  1.00  0.00     0.131 A 
ATOM     79  C   UNL A   1      42.431  24.315  26.529  1.00  0.00     0.055 A 
ATOM     80  C   UNL A   1      43.740  26.164  25.720  1.00  0.00     0.041 A 
ATOM     81  F   UNL A   1      43.691  28.211  26.863  1.00  0.00    -0.206 F 
ATOM     82  C   UNL A   1      43.334  24.838  25.599  1.00  0.00     0.022 A 
BRANCH  79  83
ATOM     83  S   UNL A   1      41.944  22.570  26.446  1.00  0.00     0.124 S 
ATOM     84  O   UNL A   1      42.426  22.065  27.727  1.00  0.00    -0.237 OA
ATOM     85  O   UNL A   1      40.497  22.665  26.296  1.00  0.00    -0.237 OA
ATOM     86  O   UNL A   1      42.658  22.074  25.271  1.00  0.00    -0.744 OA
ENDBRANCH  79  83
ENDBRANCH  52  76
BRANCH  64  87
ATOM     87  C   UNL A   1      44.627  27.446  34.212  1.00  0.00     0.023 A 
ATOM     88  C   UNL A   1      44.454  26.351  35.075  1.00  0.00     0.031 A 
ATOM     89  C   UNL A   1      45.916  27.992  34.082  1.00  0.00     0.131 A 
ATOM     90  C   UNL A   1      45.542  25.867  35.816  1.00  0.00     0.055 A 
ATOM     91  C   UNL A   1      47.006  27.472  34.780  1.00  0.00     0.041 A 
ATOM     92  F   UNL A   1      46.135  29.040  33.271  1.00  0.00    -0.206 F 
ATOM     93  C   UNL A   1      46.820  26.412  35.662  1.00  0.00     0.022 A 
BRANCH  90  94
ATOM     94  S   UNL A   1      45.250  24.569  37.047  1.00  0.00     0.124 S 
ATOM     95  O   UNL A   1      46.375  24.754  37.957  1.00  0.00    -0.237 OA
ATOM     96  O   UNL A   1      43.938  24.928  37.575  1.00  0.00    -0.237 OA
ATOM     97  O   UNL A   1      45.284  23.336  36.261  1.00  0.00    -0.744 OA
ENDBRANCH  90  94
ENDBRANCH  64  87
ENDBRANCH  38  39
ENDBRANCH  30  33
ENDBRANCH  28  29
ENDBRANCH  27  28
ENDBRANCH   1  27
TORSDOF 20
ENDMDL
MODEL 2
REMARK VINA RESULT:     -11.5      1.781      2.336
REMARK SMILES CC[NH2+][C@@]1(C(=O)NCCCCNC(=O)c2ccc(-c3c4nc(c(-c5cc(S(=O)(=O)[O-])ccc5F)c5ccc([nH]5)c(-c5cc(S(=O)(=O)[O-])ccc5F)c5nc(c(-c6cc(S(=O)(=O)[O-])ccc6F)c6ccc3[nH]6)C=C5)C=C4)cc2)CCC[C@@H]1CC[N@@H+](C)C1CCCC1
REMARK SMILES IDX 9 1 8 2 7 3 5 4 6 5 4 7 78 8 81 9 79 10 80 11 3 12 2 15 1 16
REMARK SMILES IDX 82 17 83 18 84 19 85 20 86 22 87 23 90 24 88 25 89 26 10 27
REMARK SMILES IDX 11 28 12 29 13 30 14 32 15 33 16 34 77 35 17 36 76 37 18 38
REMARK SMILES IDX 19 39 20 40 70 41 21 42 75 43 69 44 71 45 22 46 74 47 68 48
REMARK SMILES IDX 67 49 23 51 55 52 35 53 54 54 36 55 39 56 53 57 72 58 37 59
REMARK SMILES IDX 38 60 52 62 73 63 40 64 24 65 25 66 33 67 26 68 32 69 34 70
REMARK SMILES IDX 31 71 27 72 28 73 29 74 30 75 56 76 57 77 65 78 58 79 64 80
REMARK SMILES IDX 66 81 63 82 59 83 60 84 61 85 62 86 41 87 42 88 50 89 43 90
REMARK SMILES IDX 49 91 51 92 48 93 44 94 45 95 46 96 47 97
REMARK H PARENT 7 6 3 13 3 14 84 21 12 31 71 50 39 61
REMARK Flexibility Score: inf
ROOT
ATOM      1  C   UNL A   1      32.101  27.929  26.274  1.00  0.00     0.023 C 
ENDROOT
BRANCH   1   2
ATOM      2  C   UNL A   1      32.773  26.565  26.387  1.00  0.00     0.116 C 
BRANCH   2   3
ATOM      3  N   UNL A   1      31.829  25.569  26.864  1.00  0.00    -0.351 N 
ATOM      4  C   UNL A   1      31.581  24.257  26.607  1.00  0.00     0.281 C 
ATOM      5  O   UNL A   1      30.543  23.852  27.155  1.00  0.00    -0.268 OA
ATOM      6  H   UNL A   1      31.217  25.934  27.542  1.00  0.00     0.163 HD
BRANCH   4   7
ATOM      7  C   UNL A   1      32.474  23.274  25.722  1.00  0.00     0.178 C 
ATOM      8  C   UNL A   1      33.946  23.208  26.190  1.00  0.00     0.079 C 
ATOM      9  C   UNL A   1      32.578  23.630  24.193  1.00  0.00     0.066 C 
ATOM     10  C   UNL A   1      34.801  23.929  25.161  1.00  0.00     0.008 C 
ATOM     11  C   UNL A   1      33.869  24.424  24.071  1.00  0.00     0.011 C 
BRANCH   7  12
ATOM     12  N   UNL A   1      31.848  21.907  25.780  1.00  0.00    -0.334 N 
ATOM     13  H   UNL A   1      31.312  21.846  26.646  1.00  0.00     0.347 HD
ATOM     14  H   UNL A   1      31.283  21.827  24.935  1.00  0.00     0.347 HD
BRANCH  12  15
ATOM     15  C   UNL A   1      32.775  20.777  25.745  1.00  0.00     0.257 C 
ATOM     16  C   UNL A   1      32.615  20.036  24.424  1.00  0.00     0.071 C 
ENDBRANCH  12  15
ENDBRANCH   7  12
BRANCH   9  17
ATOM     17  C   UNL A   1      31.262  24.076  23.478  1.00  0.00     0.072 C 
BRANCH  17  18
ATOM     18  C   UNL A   1      30.753  25.542  23.424  1.00  0.00     0.262 C 
BRANCH  18  19
ATOM     19  N   UNL A   1      31.358  26.664  22.660  1.00  0.00    -0.335 N 
ATOM     20  C   UNL A   1      31.915  26.094  21.415  1.00  0.00     0.332 C 
ATOM     21  H   UNL A   1      32.080  27.091  23.239  1.00  0.00     0.348 HD
BRANCH  19  22
ATOM     22  C   UNL A   1      30.440  27.758  22.369  1.00  0.00     0.183 C 
ATOM     23  C   UNL A   1      29.183  27.690  23.240  1.00  0.00     0.065 C 
ATOM     24  C   UNL A   1      30.863  29.212  22.629  1.00  0.00     0.065 C 
ATOM     25  C   UNL A   1      28.466  29.010  22.982  1.00  0.00     0.006 C 
ATOM     26  C   UNL A   1      29.542  29.967  22.475  1.00  0.00     0.006 C 
ENDBRANCH  19  22
ENDBRANCH  18  19
ENDBRANCH  17  18
ENDBRANCH   9  17
ENDBRANCH   4   7
ENDBRANCH   2   3
ENDBRANCH   1   2
BRANCH   1  27
ATOM     27  C   UNL A   1      32.507  28.990  27.282  1.00  0.00     0.023 C 
BRANCH  27  28
ATOM     28  C   UNL A   1      33.383  30.080  26.695  1.00  0.00     0.116 C 
BRANCH  28  29
ATOM     29  N   UNL A   1      33.368  31.334  27.442  1.00  0.00    -0.352 N 
ATOM     30  C   UNL A   1      34.347  31.794  28.300  1.00  0.00     0.251 C 
ATOM     31  H   UNL A   1      32.578  31.910  27.323  1.00  0.00     0.163 HD
ATOM     32  O   UNL A   1      34.195  32.835  28.930  1.00  0.00    -0.269 OA
BRANCH  30  33
ATOM     33  C   UNL A   1      35.547  30.952  28.482  1.00  0.00     0.039 A 
ATOM     34  C   UNL A   1      36.762  31.369  27.936  1.00  0.00     0.014 A 
ATOM     35  C   UNL A   1      35.490  29.859  29.348  1.00  0.00     0.014 A 
ATOM     36  C   UNL A   1      37.941  30.742  28.342  1.00  0.00     0.010 A 
ATOM     37  C   UNL A   1      36.671  29.318  29.835  1.00  0.00     0.010 A 
ATOM     38  C   UNL A   1      37.909  29.751  29.338  1.00  0.00    -0.014 A 
BRANCH  38  39
ATOM     39  C   UNL A   1      39.153  29.133  29.868  1.00  0.00     0.031 A 
ATOM     40  C   UNL A   1      39.771  29.680  31.125  1.00  0.00     0.074 A 
ATOM     41  C   UNL A   1      39.770  28.153  29.178  1.00  0.00     0.049 A 
ATOM     42  N   UNL A   1      40.903  29.369  31.700  1.00  0.00    -0.248 NA
ATOM     43  C   UNL A   1      39.037  30.765  31.793  1.00  0.00     0.031 C 
ATOM     44  C   UNL A   1      39.306  27.581  27.912  1.00  0.00     0.029 A 
ATOM     45  N   UNL A   1      40.928  27.467  29.443  1.00  0.00    -0.354 N 
ATOM     46  C   UNL A   1      41.031  30.241  32.776  1.00  0.00     0.074 A 
ATOM     47  C   UNL A   1      39.906  31.149  32.712  1.00  0.00     0.031 C 
ATOM     48  C   UNL A   1      40.142  26.599  27.539  1.00  0.00     0.029 A 
ATOM     49  C   UNL A   1      41.225  26.499  28.513  1.00  0.00     0.049 A 
ATOM     50  H   UNL A   1      41.493  27.650  30.229  1.00  0.00     0.167 HD
ATOM     51  C   UNL A   1      41.974  30.261  33.751  1.00  0.00     0.034 A 
ATOM     52  C   UNL A   1      42.251  25.629  28.456  1.00  0.00     0.034 A 
ATOM     53  C   UNL A   1      43.068  29.324  33.814  1.00  0.00     0.049 A 
ATOM     54  C   UNL A   1      43.291  25.661  29.547  1.00  0.00     0.074 A 
ATOM     55  C   UNL A   1      44.043  29.196  34.787  1.00  0.00     0.029 A 
ATOM     56  N   UNL A   1      43.330  28.349  32.859  1.00  0.00    -0.354 N 
ATOM     57  N   UNL A   1      43.369  26.454  30.591  1.00  0.00    -0.248 NA
ATOM     58  C   UNL A   1      44.375  24.676  29.454  1.00  0.00     0.031 C 
ATOM     59  C   UNL A   1      44.925  28.181  34.393  1.00  0.00     0.029 A 
ATOM     60  C   UNL A   1      44.465  27.632  33.206  1.00  0.00     0.049 A 
ATOM     61  H   UNL A   1      42.789  28.190  32.052  1.00  0.00     0.167 HD
ATOM     62  C   UNL A   1      44.495  26.039  31.297  1.00  0.00     0.074 A 
ATOM     63  C   UNL A   1      45.057  24.923  30.562  1.00  0.00     0.031 C 
ATOM     64  C   UNL A   1      45.014  26.530  32.452  1.00  0.00     0.034 A 
BRANCH  51  65
ATOM     65  C   UNL A   1      41.852  31.343  34.799  1.00  0.00     0.023 A 
ATOM     66  C   UNL A   1      40.844  31.305  35.779  1.00  0.00     0.031 A 
ATOM     67  C   UNL A   1      42.687  32.473  34.764  1.00  0.00     0.131 A 
ATOM     68  C   UNL A   1      40.615  32.423  36.594  1.00  0.00     0.055 A 
ATOM     69  C   UNL A   1      42.522  33.538  35.652  1.00  0.00     0.041 A 
ATOM     70  F   UNL A   1      43.658  32.579  33.843  1.00  0.00    -0.206 F 
ATOM     71  C   UNL A   1      41.463  33.530  36.557  1.00  0.00     0.022 A 
BRANCH  68  72
ATOM     72  S   UNL A   1      39.070  32.490  37.545  1.00  0.00     0.124 S 
ATOM     73  O   UNL A   1      38.493  33.749  37.080  1.00  0.00    -0.237 OA
ATOM     74  O   UNL A   1      38.384  31.276  37.120  1.00  0.00    -0.237 OA
ATOM     75  O   UNL A   1      39.525  32.498  38.935  1.00  0.00    -0.744 OA
ENDBRANCH  68  72
ENDBRANCH  51  65
BRANCH  52  76
ATOM     76  C   UNL A   1      42.340  24.633  27.352  1.00  0.00     0.023 A 
ATOM     77  C   UNL A   1      41.592  23.446  27.401  1.00  0.00     0.031 A 
ATOM     78  C   UNL A   1      43.184  24.837  26.248  1.00  0.00     0.131 A 
ATOM     79  C   UNL A   1      41.729  22.489  26.385  1.00  0.00     0.055 A 
ATOM     80  C   UNL A   1      43.288  23.901  25.218  1.00  0.00     0.041 A 
ATOM     81  F   UNL A   1      43.912  25.961  26.148  1.00  0.00    -0.206 F 
ATOM     82  C   UNL A   1      42.565  22.713  25.288  1.00  0.00     0.022 A 
BRANCH  79  83
ATOM     83  S   UNL A   1      40.837  20.918  26.544  1.00  0.00     0.124 S 
ATOM     84  O   UNL A   1      41.693  20.011  25.789  1.00  0.00    -0.237 OA
ATOM     85  O   UNL A   1      40.816  20.726  27.990  1.00  0.00    -0.237 OA
ATOM     86  O   UNL A   1      39.538  21.202  25.938  1.00  0.00    -0.744 OA
ENDBRANCH  79  83
ENDBRANCH  52  76
BRANCH  64  87
ATOM     87  C   UNL A   1      46.225  25.824  33.007  1.00  0.00     0.023 A 
ATOM     88  C   UNL A   1      46.108  24.714  33.860  1.00  0.00     0.031 A 
ATOM     89  C   UNL A   1      47.516  26.281  32.684  1.00  0.00     0.131 A 
ATOM     90  C   UNL A   1      47.259  24.127  34.404  1.00  0.00     0.055 A 
ATOM     91  C   UNL A   1      48.659  25.659  33.185  1.00  0.00     0.041 A 
ATOM     92  F   UNL A   1      47.683  27.338  31.874  1.00  0.00    -0.206 F 
ATOM     93  C   UNL A   1      48.535  24.584  34.060  1.00  0.00     0.022 A 
BRANCH  90  94
ATOM     94  S   UNL A   1      47.067  22.809  35.635  1.00  0.00     0.124 S 
ATOM     95  O   UNL A   1      47.533  21.638  34.901  1.00  0.00    -0.237 OA
ATOM     96  O   UNL A   1      47.930  23.267  36.719  1.00  0.00    -0.237 OA
ATOM     97  O   UNL A   1      45.636  22.825  35.935  1.00  0.00    -0.744 OA
ENDBRANCH  90  94
ENDBRANCH  64  87
ENDBRANCH  38  39
ENDBRANCH  30  33
ENDBRANCH  28  29
ENDBRANCH  27  28
ENDBRANCH   1  27
TORSDOF 20
ENDMDL
MODEL 3
REMARK VINA RESULT:     -11.2      4.212      9.152
REMARK SMILES CC[NH2+][C@@]1(C(=O)NCCCCNC(=O)c2ccc(-c3c4nc(c(-c5cc(S(=O)(=O)[O-])ccc5F)c5ccc([nH]5)c(-c5cc(S(=O)(=O)[O-])ccc5F)c5nc(c(-c6cc(S(=O)(=O)[O-])ccc6F)c6ccc3[nH]6)C=C5)C=C4)cc2)CCC[C@@H]1CC[N@@H+](C)C1CCCC1
REMARK SMILES IDX 9 1 8 2 7 3 5 4 6 5 4 7 78 8 81 9 79 10 80 11 3 12 2 15 1 16
REMARK SMILES IDX 82 17 83 18 84 19 85 20 86 22 87 23 90 24 88 25 89 26 10 27
REMARK SMILES IDX 11 28 12 29 13 30 14 32 15 33 16 34 77 35 17 36 76 37 18 38
REMARK SMILES IDX 19 39 20 40 70 41 21 42 75 43 69 44 71 45 22 46 74 47 68 48
REMARK SMILES IDX 67 49 23 51 55 52 35 53 54 54 36 55 39 56 53 57 72 58 37 59
REMARK SMILES IDX 38 60 52 62 73 63 40 64 24 65 25 66 33 67 26 68 32 69 34 70
REMARK SMILES IDX 31 71 27 72 28 73 29 74 30 75 56 76 57 77 65 78 58 79 64 80
REMARK SMILES IDX 66 81 63 82 59 83 60 84 61 85 62 86 41 87 42 88 50 89 43 90
REMARK SMILES IDX 49 91 51 92 48 93 44 94 45 95 46 96 47 97
REMARK H PARENT 7 6 3 13 3 14 84 21 12 31 71 50 39 61
REMARK Flexibility Score: inf
ROOT
ATOM      1  C   UNL A   1      36.532  20.863  24.550  1.00  0.00     0.023 C 
ENDROOT
BRANCH   1   2
ATOM      2  C   UNL A   1      35.195  20.287  25.005  1.00  0.00     0.116 C 
BRANCH   2   3
ATOM      3  N   UNL A   1      34.843  20.790  26.321  1.00  0.00    -0.351 N 
ATOM      4  C   UNL A   1      33.879  21.603  26.831  1.00  0.00     0.281 C 
ATOM      5  O   UNL A   1      34.075  21.883  28.025  1.00  0.00    -0.268 OA
ATOM      6  H   UNL A   1      35.455  20.462  27.018  1.00  0.00     0.163 HD
BRANCH   4   7
ATOM      7  C   UNL A   1      32.604  22.169  26.056  1.00  0.00     0.178 C 
ATOM      8  C   UNL A   1      31.944  21.121  25.131  1.00  0.00     0.079 C 
ATOM      9  C   UNL A   1      32.865  23.399  25.110  1.00  0.00     0.066 C 
ATOM     10  C   UNL A   1      32.235  21.512  23.692  1.00  0.00     0.008 C 
ATOM     11  C   UNL A   1      33.055  22.788  23.731  1.00  0.00     0.011 C 
BRANCH   7  12
ATOM     12  N   UNL A   1      31.617  22.648  27.086  1.00  0.00    -0.334 N 
ATOM     13  H   UNL A   1      31.392  21.861  27.693  1.00  0.00     0.347 HD
ATOM     14  H   UNL A   1      32.075  23.425  27.564  1.00  0.00     0.347 HD
BRANCH  12  15
ATOM     15  C   UNL A   1      30.362  23.189  26.565  1.00  0.00     0.257 C 
ATOM     16  C   UNL A   1      29.204  22.669  27.407  1.00  0.00     0.071 C 
ENDBRANCH  12  15
ENDBRANCH   7  12
BRANCH   9  17
ATOM     17  C   UNL A   1      33.804  24.523  25.654  1.00  0.00     0.072 C 
BRANCH  17  18
ATOM     18  C   UNL A   1      34.249  25.762  24.830  1.00  0.00     0.262 C 
BRANCH  18  19
ATOM     19  N   UNL A   1      33.490  27.027  24.650  1.00  0.00    -0.335 N 
ATOM     20  C   UNL A   1      32.343  26.728  23.766  1.00  0.00     0.332 C 
ATOM     21  H   UNL A   1      34.115  27.719  24.239  1.00  0.00     0.348 HD
BRANCH  19  22
ATOM     22  C   UNL A   1      33.044  27.643  25.893  1.00  0.00     0.183 C 
ATOM     23  C   UNL A   1      32.844  29.153  25.738  1.00  0.00     0.065 C 
ATOM     24  C   UNL A   1      31.686  27.259  26.503  1.00  0.00     0.065 C 
ATOM     25  C   UNL A   1      32.161  29.585  27.030  1.00  0.00     0.006 C 
ATOM     26  C   UNL A   1      31.503  28.324  27.586  1.00  0.00     0.006 C 
ENDBRANCH  19  22
ENDBRANCH  18  19
ENDBRANCH  17  18
ENDBRANCH   9  17
ENDBRANCH   4   7
ENDBRANCH   2   3
ENDBRANCH   1   2
BRANCH   1  27
ATOM     27  C   UNL A   1      36.625  22.371  24.399  1.00  0.00     0.023 C 
BRANCH  27  28
ATOM     28  C   UNL A   1      37.463  23.037  25.473  1.00  0.00     0.116 C 
BRANCH  28  29
ATOM     29  N   UNL A   1      38.626  22.261  25.896  1.00  0.00    -0.352 N 
ATOM     30  C   UNL A   1      39.721  22.731  26.592  1.00  0.00     0.251 C 
ATOM     31  H   UNL A   1      38.628  21.305  25.660  1.00  0.00     0.163 HD
ATOM     32  O   UNL A   1      40.676  22.001  26.835  1.00  0.00    -0.269 OA
BRANCH  30  33
ATOM     33  C   UNL A   1      39.731  24.159  26.968  1.00  0.00     0.039 A 
ATOM     34  C   UNL A   1      39.417  24.522  28.279  1.00  0.00     0.014 A 
ATOM     35  C   UNL A   1      40.231  25.101  26.067  1.00  0.00     0.014 A 
ATOM     36  C   UNL A   1      39.702  25.817  28.714  1.00  0.00     0.010 A 
ATOM     37  C   UNL A   1      40.618  26.348  26.534  1.00  0.00     0.010 A 
ATOM     38  C   UNL A   1      40.357  26.722  27.862  1.00  0.00    -0.014 A 
BRANCH  38  39
ATOM     39  C   UNL A   1      40.767  28.075  28.321  1.00  0.00     0.031 A 
ATOM     40  C   UNL A   1      42.221  28.456  28.288  1.00  0.00     0.074 A 
ATOM     41  C   UNL A   1      39.855  28.916  28.848  1.00  0.00     0.049 A 
ATOM     42  N   UNL A   1      42.810  29.533  28.739  1.00  0.00    -0.248 NA
ATOM     43  C   UNL A   1      43.143  27.462  27.719  1.00  0.00     0.031 C 
ATOM     44  C   UNL A   1      38.425  28.638  28.996  1.00  0.00     0.029 A 
ATOM     45  N   UNL A   1      39.999  30.179  29.364  1.00  0.00    -0.354 N 
ATOM     46  C   UNL A   1      44.171  29.330  28.537  1.00  0.00     0.074 A 
ATOM     47  C   UNL A   1      44.319  27.990  28.010  1.00  0.00     0.031 C 
ATOM     48  C   UNL A   1      37.818  29.717  29.517  1.00  0.00     0.029 A 
ATOM     49  C   UNL A   1      38.817  30.746  29.781  1.00  0.00     0.049 A 
ATOM     50  H   UNL A   1      40.868  30.638  29.428  1.00  0.00     0.167 HD
ATOM     51  C   UNL A   1      45.200  30.191  28.733  1.00  0.00     0.034 A 
ATOM     52  C   UNL A   1      38.572  31.959  30.312  1.00  0.00     0.034 A 
ATOM     53  C   UNL A   1      45.027  31.534  29.228  1.00  0.00     0.049 A 
ATOM     54  C   UNL A   1      39.725  32.907  30.523  1.00  0.00     0.074 A 
ATOM     55  C   UNL A   1      45.978  32.523  29.402  1.00  0.00     0.029 A 
ATOM     56  N   UNL A   1      43.812  32.078  29.630  1.00  0.00    -0.354 N 
ATOM     57  N   UNL A   1      41.001  32.724  30.274  1.00  0.00    -0.248 NA
ATOM     58  C   UNL A   1      39.401  34.226  31.080  1.00  0.00     0.031 C 
ATOM     59  C   UNL A   1      45.349  33.644  29.958  1.00  0.00     0.029 A 
ATOM     60  C   UNL A   1      43.994  33.378  30.073  1.00  0.00     0.049 A 
ATOM     61  H   UNL A   1      42.948  31.607  29.603  1.00  0.00     0.167 HD
ATOM     62  C   UNL A   1      41.628  33.919  30.614  1.00  0.00     0.074 A 
ATOM     63  C   UNL A   1      40.587  34.815  31.078  1.00  0.00     0.031 C 
ATOM     64  C   UNL A   1      42.943  34.250  30.543  1.00  0.00     0.034 A 
BRANCH  51  65
ATOM     65  C   UNL A   1      46.589  29.679  28.425  1.00  0.00     0.023 A 
ATOM     66  C   UNL A   1      47.371  29.043  29.406  1.00  0.00     0.031 A 
ATOM     67  C   UNL A   1      47.177  29.912  27.170  1.00  0.00     0.131 A 
ATOM     68  C   UNL A   1      48.727  28.780  29.161  1.00  0.00     0.055 A 
ATOM     69  C   UNL A   1      48.498  29.548  26.897  1.00  0.00     0.041 A 
ATOM     70  F   UNL A   1      46.491  30.529  26.196  1.00  0.00    -0.206 F 
ATOM     71  C   UNL A   1      49.290  29.003  27.905  1.00  0.00     0.022 A 
BRANCH  68  72
ATOM     72  S   UNL A   1      49.784  28.344  30.570  1.00  0.00     0.124 S 
ATOM     73  O   UNL A   1      49.083  28.995  31.675  1.00  0.00    -0.237 OA
ATOM     74  O   UNL A   1      49.743  26.887  30.558  1.00  0.00    -0.237 OA
ATOM     75  O   UNL A   1      51.075  28.937  30.226  1.00  0.00    -0.744 OA
ENDBRANCH  68  72
ENDBRANCH  51  65
BRANCH  52  76
ATOM     76  C   UNL A   1      37.181  32.368  30.655  1.00  0.00     0.023 A 
ATOM     77  C   UNL A   1      36.326  32.886  29.669  1.00  0.00     0.031 A 
ATOM     78  C   UNL A   1      36.692  32.270  31.969  1.00  0.00     0.131 A 
ATOM     79  C   UNL A   1      35.039  33.323  30.016  1.00  0.00     0.055 A 
ATOM     80  C   UNL A   1      35.396  32.669  32.302  1.00  0.00     0.041 A 
ATOM     81  F   UNL A   1      37.465  31.771  32.945  1.00  0.00    -0.206 F 
ATOM     82  C   UNL A   1      34.565  33.209  31.325  1.00  0.00     0.022 A 
BRANCH  79  83
ATOM     83  S   UNL A   1      34.010  34.095  28.738  1.00  0.00     0.124 S 
ATOM     84  O   UNL A   1      33.791  32.983  27.820  1.00  0.00    -0.237 OA
ATOM     85  O   UNL A   1      32.849  34.532  29.505  1.00  0.00    -0.237 OA
ATOM     86  O   UNL A   1      34.855  35.171  28.225  1.00  0.00    -0.744 OA
ENDBRANCH  79  83
ENDBRANCH  52  76
BRANCH  64  87
ATOM     87  C   UNL A   1      43.311  35.659  30.935  1.00  0.00     0.023 A 
ATOM     88  C   UNL A   1      43.462  36.036  32.280  1.00  0.00     0.031 A 
ATOM     89  C   UNL A   1      43.500  36.639  29.944  1.00  0.00     0.131 A 
ATOM     90  C   UNL A   1      43.742  37.372  32.602  1.00  0.00     0.055 A 
ATOM     91  C   UNL A   1      43.833  37.954  30.269  1.00  0.00     0.041 A 
ATOM     92  F   UNL A   1      43.367  36.331  28.644  1.00  0.00    -0.206 F 
ATOM     93  C   UNL A   1      43.944  38.330  31.604  1.00  0.00     0.022 A 
BRANCH  90  94
ATOM     94  S   UNL A   1      43.760  37.862  34.348  1.00  0.00     0.124 S 
ATOM     95  O   UNL A   1      44.925  37.144  34.853  1.00  0.00    -0.237 OA
ATOM     96  O   UNL A   1      43.891  39.313  34.264  1.00  0.00    -0.237 OA
ATOM     97  O   UNL A   1      42.472  37.386  34.851  1.00  0.00    -0.744 OA
ENDBRANCH  90  94
ENDBRANCH  64  87
ENDBRANCH  38  39
ENDBRANCH  30  33
ENDBRANCH  28  29
ENDBRANCH  27  28
ENDBRANCH   1  27
TORSDOF 20
ENDMDL
