MODEL 1
REMARK VINA RESULT:     -10.3      0.000      0.000
REMARK SMILES O=C(CSC(=S)N1CCCC1)NCCCCNC(=O)c1ccc(-c2c3nc(c(-c4cc(S(=O)(=O)[O-])ccc4F)c4ccc([nH]4)c(-c4cc(S(=O)(=O)[O-])ccc4F)c4nc(c(-c5cc(S(=O)(=O)[O-])ccc5F)c5ccc2[nH]5)C=C4)C=C3)cc1
REMARK SMILES IDX 14 1 13 2 12 3 1 4 2 5 3 7 4 8 5 9 6 10 7 11 8 12 11 13 9 14
REMARK SMILES IDX 10 15 15 16 16 17 17 18 18 19 19 21 20 22 21 23 82 24 22 25
REMARK SMILES IDX 81 26 23 27 24 28 25 29 75 30 26 31 80 32 74 33 76 34 27 35
REMARK SMILES IDX 79 36 73 37 72 38 28 40 60 41 40 42 59 43 41 44 44 45 58 46
REMARK SMILES IDX 77 47 42 48 43 49 57 51 78 52 45 53 29 54 30 55 38 56 31 57
REMARK SMILES IDX 37 58 39 59 36 60 32 61 33 62 34 63 35 64 61 65 62 66 70 67
REMARK SMILES IDX 63 68 69 69 71 70 68 71 64 72 65 73 66 74 67 75 46 76 47 77
REMARK SMILES IDX 55 78 48 79 54 80 56 81 53 82 49 83 50 84 51 85 52 86
REMARK H PARENT 12 6 17 20 76 39 44 50
REMARK Flexibility Score: inf
ROOT
ATOM      1  C   UNL A   1      31.882  30.336  26.083  1.00  0.00     0.023 C 
ENDROOT
BRANCH   1   2
ATOM      2  C   UNL A   1      33.345  29.900  26.056  1.00  0.00     0.116 C 
BRANCH   2   3
ATOM      3  N   UNL A   1      33.637  28.940  25.012  1.00  0.00    -0.355 N 
ATOM      4  O   UNL A   1      33.281  27.090  26.315  1.00  0.00    -0.274 OA
ATOM      5  C   UNL A   1      33.496  27.581  25.207  1.00  0.00     0.230 C 
ATOM      6  H   UNL A   1      33.946  29.266  24.135  1.00  0.00     0.163 HD
BRANCH   5   7
ATOM      7  C   UNL A   1      33.720  26.696  23.989  1.00  0.00     0.177 C 
BRANCH   7   8
ATOM      8  S   UNL A   1      32.667  27.060  22.566  1.00  0.00    -0.087 SA
BRANCH   8   9
ATOM      9  C   UNL A   1      31.001  26.759  23.076  1.00  0.00     0.136 C 
ATOM     10  S   UNL A   1      30.460  25.360  23.830  1.00  0.00    -0.053 S 
BRANCH   9  11
ATOM     11  N   UNL A   1      30.170  27.858  22.877  1.00  0.00    -0.358 N 
ATOM     12  C   UNL A   1      30.562  29.183  22.402  1.00  0.00     0.118 C 
ATOM     13  C   UNL A   1      28.731  27.834  23.146  1.00  0.00     0.118 C 
ATOM     14  C   UNL A   1      29.497  30.108  22.963  1.00  0.00     0.023 C 
ATOM     15  C   UNL A   1      28.237  29.257  22.910  1.00  0.00     0.023 C 
ENDBRANCH   9  11
ENDBRANCH   8   9
ENDBRANCH   7   8
ENDBRANCH   5   7
ENDBRANCH   2   3
ENDBRANCH   1   2
BRANCH   1  16
ATOM     16  C   UNL A   1      31.603  31.633  26.847  1.00  0.00     0.023 C 
BRANCH  16  17
ATOM     17  C   UNL A   1      32.832  32.434  27.267  1.00  0.00     0.116 C 
BRANCH  17  18
ATOM     18  N   UNL A   1      32.532  33.821  27.588  1.00  0.00    -0.352 N 
ATOM     19  C   UNL A   1      33.103  34.644  28.532  1.00  0.00     0.251 C 
ATOM     20  H   UNL A   1      31.816  34.231  27.051  1.00  0.00     0.163 HD
ATOM     21  O   UNL A   1      32.615  35.752  28.740  1.00  0.00    -0.269 OA
BRANCH  19  22
ATOM     22  C   UNL A   1      34.270  34.186  29.321  1.00  0.00     0.039 A 
ATOM     23  C   UNL A   1      34.051  33.400  30.456  1.00  0.00     0.014 A 
ATOM     24  C   UNL A   1      35.577  34.522  28.954  1.00  0.00     0.014 A 
ATOM     25  C   UNL A   1      35.137  32.887  31.172  1.00  0.00     0.010 A 
ATOM     26  C   UNL A   1      36.658  33.949  29.622  1.00  0.00     0.010 A 
ATOM     27  C   UNL A   1      36.453  33.119  30.735  1.00  0.00    -0.014 A 
BRANCH  27  28
ATOM     28  C   UNL A   1      37.618  32.495  31.422  1.00  0.00     0.031 A 
ATOM     29  C   UNL A   1      38.359  31.355  30.776  1.00  0.00     0.074 A 
ATOM     30  C   UNL A   1      37.971  32.914  32.655  1.00  0.00     0.049 A 
ATOM     31  N   UNL A   1      39.341  30.630  31.251  1.00  0.00    -0.248 NA
ATOM     32  C   UNL A   1      37.920  30.962  29.429  1.00  0.00     0.031 C 
ATOM     33  C   UNL A   1      37.311  33.986  33.404  1.00  0.00     0.029 A 
ATOM     34  N   UNL A   1      38.965  32.485  33.501  1.00  0.00    -0.354 N 
ATOM     35  C   UNL A   1      39.633  29.692  30.266  1.00  0.00     0.074 A 
ATOM     36  C   UNL A   1      38.678  29.901  29.197  1.00  0.00     0.031 C 
ATOM     37  C   UNL A   1      37.931  34.145  34.584  1.00  0.00     0.029 A 
ATOM     38  C   UNL A   1      38.997  33.156  34.704  1.00  0.00     0.049 A 
ATOM     39  H   UNL A   1      39.595  31.765  33.270  1.00  0.00     0.167 HD
ATOM     40  C   UNL A   1      40.620  28.761  30.244  1.00  0.00     0.034 A 
ATOM     41  C   UNL A   1      39.781  32.983  35.788  1.00  0.00     0.034 A 
ATOM     42  C   UNL A   1      41.568  28.568  31.315  1.00  0.00     0.049 A 
ATOM     43  C   UNL A   1      40.843  31.913  35.757  1.00  0.00     0.074 A 
ATOM     44  C   UNL A   1      42.631  27.683  31.375  1.00  0.00     0.029 A 
ATOM     45  N   UNL A   1      41.564  29.261  32.519  1.00  0.00    -0.354 N 
ATOM     46  N   UNL A   1      41.133  31.062  34.798  1.00  0.00    -0.248 NA
ATOM     47  C   UNL A   1      41.691  31.785  36.949  1.00  0.00     0.031 C 
ATOM     48  C   UNL A   1      43.220  27.787  32.640  1.00  0.00     0.029 A 
ATOM     49  C   UNL A   1      42.584  28.800  33.339  1.00  0.00     0.049 A 
ATOM     50  H   UNL A   1      40.930  29.977  32.756  1.00  0.00     0.167 HD
ATOM     51  C   UNL A   1      42.218  30.324  35.262  1.00  0.00     0.074 A 
ATOM     52  C   UNL A   1      42.541  30.839  36.576  1.00  0.00     0.031 C 
ATOM     53  C   UNL A   1      42.892  29.314  34.653  1.00  0.00     0.034 A 
BRANCH  40  54
ATOM     54  C   UNL A   1      40.704  27.865  29.029  1.00  0.00     0.023 A 
ATOM     55  C   UNL A   1      41.635  28.099  28.003  1.00  0.00     0.031 A 
ATOM     56  C   UNL A   1      39.832  26.771  28.887  1.00  0.00     0.131 A 
ATOM     57  C   UNL A   1      41.621  27.303  26.847  1.00  0.00     0.055 A 
ATOM     58  C   UNL A   1      39.883  25.928  27.774  1.00  0.00     0.041 A 
ATOM     59  F   UNL A   1      38.906  26.508  29.822  1.00  0.00    -0.206 F 
ATOM     60  C   UNL A   1      40.771  26.200  26.739  1.00  0.00     0.022 A 
BRANCH  57  61
ATOM     61  S   UNL A   1      42.626  27.818  25.429  1.00  0.00     0.124 S 
ATOM     62  O   UNL A   1      42.586  26.621  24.590  1.00  0.00    -0.237 OA
ATOM     63  O   UNL A   1      41.894  28.974  24.926  1.00  0.00    -0.237 OA
ATOM     64  O   UNL A   1      43.930  28.110  26.021  1.00  0.00    -0.744 OA
ENDBRANCH  57  61
ENDBRANCH  40  54
BRANCH  41  65
ATOM     65  C   UNL A   1      39.585  33.824  37.005  1.00  0.00     0.023 A 
ATOM     66  C   UNL A   1      38.955  33.310  38.150  1.00  0.00     0.031 A 
ATOM     67  C   UNL A   1      39.978  35.176  37.022  1.00  0.00     0.131 A 
ATOM     68  C   UNL A   1      38.689  34.152  39.241  1.00  0.00     0.055 A 
ATOM     69  C   UNL A   1      39.766  35.993  38.135  1.00  0.00     0.041 A 
ATOM     70  F   UNL A   1      40.585  35.720  35.955  1.00  0.00    -0.206 F 
ATOM     71  C   UNL A   1      39.104  35.485  39.248  1.00  0.00     0.022 A 
BRANCH  68  72
ATOM     72  S   UNL A   1      37.697  33.505  40.616  1.00  0.00     0.124 S 
ATOM     73  O   UNL A   1      37.465  34.710  41.405  1.00  0.00    -0.237 OA
ATOM     74  O   UNL A   1      36.537  32.959  39.921  1.00  0.00    -0.237 OA
ATOM     75  O   UNL A   1      38.577  32.515  41.232  1.00  0.00    -0.744 OA
ENDBRANCH  68  72
ENDBRANCH  41  65
BRANCH  53  76
ATOM     76  C   UNL A   1      44.078  28.735  35.388  1.00  0.00     0.023 A 
ATOM     77  C   UNL A   1      43.941  27.689  36.318  1.00  0.00     0.031 A 
ATOM     78  C   UNL A   1      45.369  29.247  35.158  1.00  0.00     0.131 A 
ATOM     79  C   UNL A   1      45.063  27.230  37.025  1.00  0.00     0.055 A 
ATOM     80  C   UNL A   1      46.490  28.741  35.815  1.00  0.00     0.041 A 
ATOM     81  F   UNL A   1      45.562  30.248  34.284  1.00  0.00    -0.206 F 
ATOM     82  C   UNL A   1      46.339  27.735  36.766  1.00  0.00     0.022 A 
BRANCH  79  83
ATOM     83  S   UNL A   1      44.818  26.029  38.363  1.00  0.00     0.124 S 
ATOM     84  O   UNL A   1      43.716  25.222  37.848  1.00  0.00    -0.237 OA
ATOM     85  O   UNL A   1      46.116  25.366  38.429  1.00  0.00    -0.237 OA
ATOM     86  O   UNL A   1      44.489  26.863  39.517  1.00  0.00    -0.744 OA
ENDBRANCH  79  83
ENDBRANCH  53  76
ENDBRANCH  27  28
ENDBRANCH  19  22
ENDBRANCH  17  18
ENDBRANCH  16  17
ENDBRANCH   1  16
TORSDOF 17
ENDMDL
MODEL 2
REMARK VINA RESULT:     -10.2      5.816     11.081
REMARK SMILES O=C(CSC(=S)N1CCCC1)NCCCCNC(=O)c1ccc(-c2c3nc(c(-c4cc(S(=O)(=O)[O-])ccc4F)c4ccc([nH]4)c(-c4cc(S(=O)(=O)[O-])ccc4F)c4nc(c(-c5cc(S(=O)(=O)[O-])ccc5F)c5ccc2[nH]5)C=C4)C=C3)cc1
REMARK SMILES IDX 14 1 13 2 12 3 1 4 2 5 3 7 4 8 5 9 6 10 7 11 8 12 11 13 9 14
REMARK SMILES IDX 10 15 15 16 16 17 17 18 18 19 19 21 20 22 21 23 82 24 22 25
REMARK SMILES IDX 81 26 23 27 24 28 25 29 75 30 26 31 80 32 74 33 76 34 27 35
REMARK SMILES IDX 79 36 73 37 72 38 28 40 60 41 40 42 59 43 41 44 44 45 58 46
REMARK SMILES IDX 77 47 42 48 43 49 57 51 78 52 45 53 29 54 30 55 38 56 31 57
REMARK SMILES IDX 37 58 39 59 36 60 32 61 33 62 34 63 35 64 61 65 62 66 70 67
REMARK SMILES IDX 63 68 69 69 71 70 68 71 64 72 65 73 66 74 67 75 46 76 47 77
REMARK SMILES IDX 55 78 48 79 54 80 56 81 53 82 49 83 50 84 51 85 52 86
REMARK H PARENT 12 6 17 20 76 39 44 50
REMARK Flexibility Score: inf
ROOT
ATOM      1  C   UNL A   1      34.646  22.566  24.075  1.00  0.00     0.023 C 
ENDROOT
BRANCH   1   2
ATOM      2  C   UNL A   1      34.332  23.632  23.028  1.00  0.00     0.116 C 
BRANCH   2   3
ATOM      3  N   UNL A   1      33.875  24.881  23.603  1.00  0.00    -0.355 N 
ATOM      4  O   UNL A   1      33.624  25.961  21.598  1.00  0.00    -0.274 OA
ATOM      5  C   UNL A   1      33.467  25.941  22.819  1.00  0.00     0.230 C 
ATOM      6  H   UNL A   1      33.853  24.976  24.583  1.00  0.00     0.163 HD
BRANCH   5   7
ATOM      7  C   UNL A   1      32.897  27.145  23.554  1.00  0.00     0.177 C 
BRANCH   7   8
ATOM      8  S   UNL A   1      31.171  27.531  23.181  1.00  0.00    -0.087 SA
BRANCH   8   9
ATOM      9  C   UNL A   1      30.780  29.015  24.057  1.00  0.00     0.136 C 
ATOM     10  S   UNL A   1      31.695  29.670  25.305  1.00  0.00    -0.053 S 
BRANCH   9  11
ATOM     11  N   UNL A   1      29.663  29.667  23.543  1.00  0.00    -0.358 N 
ATOM     12  C   UNL A   1      29.296  31.069  23.737  1.00  0.00     0.118 C 
ATOM     13  C   UNL A   1      28.656  29.002  22.715  1.00  0.00     0.118 C 
ATOM     14  C   UNL A   1      27.790  31.086  23.549  1.00  0.00     0.023 C 
ATOM     15  C   UNL A   1      27.563  30.036  22.471  1.00  0.00     0.023 C 
ENDBRANCH   9  11
ENDBRANCH   8   9
ENDBRANCH   7   8
ENDBRANCH   5   7
ENDBRANCH   2   3
ENDBRANCH   1   2
BRANCH   1  16
ATOM     16  C   UNL A   1      36.120  22.167  24.176  1.00  0.00     0.023 C 
BRANCH  16  17
ATOM     17  C   UNL A   1      36.673  22.015  25.590  1.00  0.00     0.116 C 
BRANCH  17  18
ATOM     18  N   UNL A   1      37.668  20.961  25.709  1.00  0.00    -0.352 N 
ATOM     19  C   UNL A   1      38.993  21.045  26.070  1.00  0.00     0.251 C 
ATOM     20  H   UNL A   1      37.346  20.054  25.500  1.00  0.00     0.163 HD
ATOM     21  O   UNL A   1      39.707  20.049  25.981  1.00  0.00    -0.269 OA
BRANCH  19  22
ATOM     22  C   UNL A   1      39.569  22.333  26.523  1.00  0.00     0.039 A 
ATOM     23  C   UNL A   1      40.617  22.314  27.448  1.00  0.00     0.014 A 
ATOM     24  C   UNL A   1      39.088  23.555  26.045  1.00  0.00     0.014 A 
ATOM     25  C   UNL A   1      41.233  23.510  27.830  1.00  0.00     0.010 A 
ATOM     26  C   UNL A   1      39.751  24.739  26.368  1.00  0.00     0.010 A 
ATOM     27  C   UNL A   1      40.835  24.732  27.259  1.00  0.00    -0.014 A 
BRANCH  27  28
ATOM     28  C   UNL A   1      41.548  26.002  27.574  1.00  0.00     0.031 A 
ATOM     29  C   UNL A   1      40.854  27.091  28.346  1.00  0.00     0.074 A 
ATOM     30  C   UNL A   1      42.801  26.198  27.113  1.00  0.00     0.049 A 
ATOM     31  N   UNL A   1      41.277  28.293  28.645  1.00  0.00    -0.248 NA
ATOM     32  C   UNL A   1      39.494  26.798  28.822  1.00  0.00     0.031 C 
ATOM     33  C   UNL A   1      43.570  25.234  26.322  1.00  0.00     0.029 A 
ATOM     34  N   UNL A   1      43.646  27.275  27.231  1.00  0.00    -0.354 N 
ATOM     35  C   UNL A   1      40.236  28.903  29.337  1.00  0.00     0.074 A 
ATOM     36  C   UNL A   1      39.139  27.958  29.353  1.00  0.00     0.031 C 
ATOM     37  C   UNL A   1      44.778  25.753  26.049  1.00  0.00     0.029 A 
ATOM     38  C   UNL A   1      44.854  27.105  26.594  1.00  0.00     0.049 A 
ATOM     39  H   UNL A   1      43.408  28.093  27.725  1.00  0.00     0.167 HD
ATOM     40  C   UNL A   1      40.205  30.126  29.925  1.00  0.00     0.034 A 
ATOM     41  C   UNL A   1      45.899  27.946  26.447  1.00  0.00     0.034 A 
ATOM     42  C   UNL A   1      41.310  31.056  29.904  1.00  0.00     0.049 A 
ATOM     43  C   UNL A   1      45.825  29.316  27.072  1.00  0.00     0.074 A 
ATOM     44  C   UNL A   1      41.398  32.301  30.503  1.00  0.00     0.029 A 
ATOM     45  N   UNL A   1      42.514  30.850  29.243  1.00  0.00    -0.354 N 
ATOM     46  N   UNL A   1      44.847  29.860  27.760  1.00  0.00    -0.248 NA
ATOM     47  C   UNL A   1      47.000  30.183  26.910  1.00  0.00     0.031 C 
ATOM     48  C   UNL A   1      42.620  32.878  30.143  1.00  0.00     0.029 A 
ATOM     49  C   UNL A   1      43.335  31.958  29.393  1.00  0.00     0.049 A 
ATOM     50  H   UNL A   1      42.751  30.037  28.742  1.00  0.00     0.167 HD
ATOM     51  C   UNL A   1      45.306  31.118  28.141  1.00  0.00     0.074 A 
ATOM     52  C   UNL A   1      46.651  31.246  27.620  1.00  0.00     0.031 C 
ATOM     53  C   UNL A   1      44.673  32.081  28.861  1.00  0.00     0.034 A 
BRANCH  40  54
ATOM     54  C   UNL A   1      38.925  30.534  30.617  1.00  0.00     0.023 A 
ATOM     55  C   UNL A   1      37.958  31.326  29.973  1.00  0.00     0.031 A 
ATOM     56  C   UNL A   1      38.673  30.139  31.942  1.00  0.00     0.131 A 
ATOM     57  C   UNL A   1      36.826  31.762  30.678  1.00  0.00     0.055 A 
ATOM     58  C   UNL A   1      37.501  30.504  32.610  1.00  0.00     0.041 A 
ATOM     59  F   UNL A   1      39.567  29.401  32.619  1.00  0.00    -0.206 F 
ATOM     60  C   UNL A   1      36.576  31.333  31.983  1.00  0.00     0.022 A 
BRANCH  57  61
ATOM     61  S   UNL A   1      35.762  33.017  29.915  1.00  0.00     0.124 S 
ATOM     62  O   UNL A   1      34.507  32.283  29.758  1.00  0.00    -0.237 OA
ATOM     63  O   UNL A   1      35.760  34.079  30.913  1.00  0.00    -0.237 OA
ATOM     64  O   UNL A   1      36.449  33.334  28.665  1.00  0.00    -0.744 OA
ENDBRANCH  57  61
ENDBRANCH  40  54
BRANCH  41  65
ATOM     65  C   UNL A   1      47.098  27.533  25.660  1.00  0.00     0.023 A 
ATOM     66  C   UNL A   1      47.238  27.890  24.309  1.00  0.00     0.031 A 
ATOM     67  C   UNL A   1      48.098  26.727  26.234  1.00  0.00     0.131 A 
ATOM     68  C   UNL A   1      48.323  27.400  23.563  1.00  0.00     0.055 A 
ATOM     69  C   UNL A   1      49.207  26.293  25.504  1.00  0.00     0.041 A 
ATOM     70  F   UNL A   1      48.015  26.355  27.521  1.00  0.00    -0.206 F 
ATOM     71  C   UNL A   1      49.316  26.617  24.155  1.00  0.00     0.022 A 
BRANCH  68  72
ATOM     72  S   UNL A   1      48.363  27.717  21.777  1.00  0.00     0.124 S 
ATOM     73  O   UNL A   1      49.444  28.692  21.675  1.00  0.00    -0.237 OA
ATOM     74  O   UNL A   1      48.643  26.390  21.241  1.00  0.00    -0.237 OA
ATOM     75  O   UNL A   1      47.027  28.234  21.494  1.00  0.00    -0.744 OA
ENDBRANCH  68  72
ENDBRANCH  41  65
BRANCH  53  76
ATOM     76  C   UNL A   1      45.454  33.337  29.169  1.00  0.00     0.023 A 
ATOM     77  C   UNL A   1      45.390  34.474  28.345  1.00  0.00     0.031 A 
ATOM     78  C   UNL A   1      46.284  33.391  30.304  1.00  0.00     0.131 A 
ATOM     79  C   UNL A   1      46.185  35.594  28.635  1.00  0.00     0.055 A 
ATOM     80  C   UNL A   1      47.021  34.532  30.624  1.00  0.00     0.041 A 
ATOM     81  F   UNL A   1      46.388  32.335  31.126  1.00  0.00    -0.206 F 
ATOM     82  C   UNL A   1      46.984  35.637  29.779  1.00  0.00     0.022 A 
BRANCH  79  83
ATOM     83  S   UNL A   1      46.236  36.960  27.441  1.00  0.00     0.124 S 
ATOM     84  O   UNL A   1      46.898  36.338  26.298  1.00  0.00    -0.237 OA
ATOM     85  O   UNL A   1      44.822  37.273  27.265  1.00  0.00    -0.237 OA
ATOM     86  O   UNL A   1      47.017  37.987  28.127  1.00  0.00    -0.744 OA
ENDBRANCH  79  83
ENDBRANCH  53  76
ENDBRANCH  27  28
ENDBRANCH  19  22
ENDBRANCH  17  18
ENDBRANCH  16  17
ENDBRANCH   1  16
TORSDOF 17
ENDMDL
MODEL 3
REMARK VINA RESULT:     -10.0      2.102      2.716
REMARK SMILES O=C(CSC(=S)N1CCCC1)NCCCCNC(=O)c1ccc(-c2c3nc(c(-c4cc(S(=O)(=O)[O-])ccc4F)c4ccc([nH]4)c(-c4cc(S(=O)(=O)[O-])ccc4F)c4nc(c(-c5cc(S(=O)(=O)[O-])ccc5F)c5ccc2[nH]5)C=C4)C=C3)cc1
REMARK SMILES IDX 14 1 13 2 12 3 1 4 2 5 3 7 4 8 5 9 6 10 7 11 8 12 11 13 9 14
REMARK SMILES IDX 10 15 15 16 16 17 17 18 18 19 19 21 20 22 21 23 82 24 22 25
REMARK SMILES IDX 81 26 23 27 24 28 25 29 75 30 26 31 80 32 74 33 76 34 27 35
REMARK SMILES IDX 79 36 73 37 72 38 28 40 60 41 40 42 59 43 41 44 44 45 58 46
REMARK SMILES IDX 77 47 42 48 43 49 57 51 78 52 45 53 29 54 30 55 38 56 31 57
REMARK SMILES IDX 37 58 39 59 36 60 32 61 33 62 34 63 35 64 61 65 62 66 70 67
REMARK SMILES IDX 63 68 69 69 71 70 68 71 64 72 65 73 66 74 67 75 46 76 47 77
REMARK SMILES IDX 55 78 48 79 54 80 56 81 53 82 49 83 50 84 51 85 52 86
REMARK H PARENT 12 6 17 20 76 39 44 50
REMARK Flexibility Score: inf
ROOT
ATOM      1  C   UNL A   1      31.948  30.252  26.416  1.00  0.00     0.023 C 
ENDROOT
BRANCH   1   2
ATOM      2  C   UNL A   1      31.333  29.698  25.132  1.00  0.00     0.116 C 
BRANCH   2   3
ATOM      3  N   UNL A   1      31.703  28.323  24.867  1.00  0.00    -0.355 N 
ATOM      4  O   UNL A   1      30.075  27.962  23.297  1.00  0.00    -0.274 OA
ATOM      5  C   UNL A   1      31.084  27.575  23.888  1.00  0.00     0.230 C 
ATOM      6  H   UNL A   1      32.418  27.909  25.403  1.00  0.00     0.163 HD
BRANCH   5   7
ATOM      7  C   UNL A   1      31.653  26.186  23.636  1.00  0.00     0.177 C 
BRANCH   7   8
ATOM      8  S   UNL A   1      30.449  24.838  23.685  1.00  0.00    -0.087 SA
BRANCH   8   9
ATOM      9  C   UNL A   1      31.050  23.662  24.860  1.00  0.00     0.136 C 
ATOM     10  S   UNL A   1      30.780  23.728  26.516  1.00  0.00    -0.053 S 
BRANCH   9  11
ATOM     11  N   UNL A   1      31.707  22.589  24.263  1.00  0.00    -0.358 N 
ATOM     12  C   UNL A   1      32.169  22.502  22.879  1.00  0.00     0.118 C 
ATOM     13  C   UNL A   1      32.021  21.347  24.969  1.00  0.00     0.118 C 
ATOM     14  C   UNL A   1      32.202  21.012  22.593  1.00  0.00     0.023 C 
ATOM     15  C   UNL A   1      32.625  20.413  23.927  1.00  0.00     0.023 C 
ENDBRANCH   9  11
ENDBRANCH   8   9
ENDBRANCH   7   8
ENDBRANCH   5   7
ENDBRANCH   2   3
ENDBRANCH   1   2
BRANCH   1  16
ATOM     16  C   UNL A   1      31.780  31.759  26.621  1.00  0.00     0.023 C 
BRANCH  16  17
ATOM     17  C   UNL A   1      32.929  32.467  27.333  1.00  0.00     0.116 C 
BRANCH  17  18
ATOM     18  N   UNL A   1      32.632  33.850  27.671  1.00  0.00    -0.352 N 
ATOM     19  C   UNL A   1      33.206  34.660  28.624  1.00  0.00     0.251 C 
ATOM     20  H   UNL A   1      31.915  34.267  27.142  1.00  0.00     0.163 HD
ATOM     21  O   UNL A   1      32.720  35.767  28.847  1.00  0.00    -0.269 OA
BRANCH  19  22
ATOM     22  C   UNL A   1      34.375  34.192  29.405  1.00  0.00     0.039 A 
ATOM     23  C   UNL A   1      34.155  33.449  30.568  1.00  0.00     0.014 A 
ATOM     24  C   UNL A   1      35.683  34.475  29.001  1.00  0.00     0.014 A 
ATOM     25  C   UNL A   1      35.239  32.925  31.278  1.00  0.00     0.010 A 
ATOM     26  C   UNL A   1      36.759  33.890  29.666  1.00  0.00     0.010 A 
ATOM     27  C   UNL A   1      36.552  33.103  30.809  1.00  0.00    -0.014 A 
BRANCH  27  28
ATOM     28  C   UNL A   1      37.712  32.464  31.493  1.00  0.00     0.031 A 
ATOM     29  C   UNL A   1      38.444  31.323  30.839  1.00  0.00     0.074 A 
ATOM     30  C   UNL A   1      38.068  32.872  32.728  1.00  0.00     0.049 A 
ATOM     31  N   UNL A   1      39.420  30.587  31.310  1.00  0.00    -0.248 NA
ATOM     32  C   UNL A   1      38.003  30.943  29.490  1.00  0.00     0.031 C 
ATOM     33  C   UNL A   1      37.415  33.944  33.484  1.00  0.00     0.029 A 
ATOM     34  N   UNL A   1      39.057  32.430  33.572  1.00  0.00    -0.354 N 
ATOM     35  C   UNL A   1      39.706  29.654  30.319  1.00  0.00     0.074 A 
ATOM     36  C   UNL A   1      38.753  29.877  29.251  1.00  0.00     0.031 C 
ATOM     37  C   UNL A   1      38.036  34.091  34.665  1.00  0.00     0.029 A 
ATOM     38  C   UNL A   1      39.094  33.091  34.780  1.00  0.00     0.049 A 
ATOM     39  H   UNL A   1      39.682  31.706  33.337  1.00  0.00     0.167 HD
ATOM     40  C   UNL A   1      40.685  28.715  30.291  1.00  0.00     0.034 A 
ATOM     41  C   UNL A   1      39.875  32.906  35.863  1.00  0.00     0.034 A 
ATOM     42  C   UNL A   1      41.630  28.507  31.362  1.00  0.00     0.049 A 
ATOM     43  C   UNL A   1      40.928  31.827  35.826  1.00  0.00     0.074 A 
ATOM     44  C   UNL A   1      42.686  27.612  31.417  1.00  0.00     0.029 A 
ATOM     45  N   UNL A   1      41.631  29.192  32.570  1.00  0.00    -0.354 N 
ATOM     46  N   UNL A   1      41.212  30.980  34.862  1.00  0.00    -0.248 NA
ATOM     47  C   UNL A   1      41.775  31.684  37.018  1.00  0.00     0.031 C 
ATOM     48  C   UNL A   1      43.275  27.704  32.682  1.00  0.00     0.029 A 
ATOM     49  C   UNL A   1      42.646  28.717  33.388  1.00  0.00     0.049 A 
ATOM     50  H   UNL A   1      41.003  29.911  32.812  1.00  0.00     0.167 HD
ATOM     51  C   UNL A   1      42.291  30.230  35.321  1.00  0.00     0.074 A 
ATOM     52  C   UNL A   1      42.617  30.734  36.639  1.00  0.00     0.031 C 
ATOM     53  C   UNL A   1      42.957  29.219  34.706  1.00  0.00     0.034 A 
BRANCH  40  54
ATOM     54  C   UNL A   1      40.762  27.826  29.070  1.00  0.00     0.023 A 
ATOM     55  C   UNL A   1      41.686  28.070  28.039  1.00  0.00     0.031 A 
ATOM     56  C   UNL A   1      39.893  26.731  28.928  1.00  0.00     0.131 A 
ATOM     57  C   UNL A   1      41.666  27.280  26.879  1.00  0.00     0.055 A 
ATOM     58  C   UNL A   1      39.938  25.894  27.810  1.00  0.00     0.041 A 
ATOM     59  F   UNL A   1      38.974  26.459  29.868  1.00  0.00    -0.206 F 
ATOM     60  C   UNL A   1      40.818  26.176  26.769  1.00  0.00     0.022 A 
BRANCH  57  61
ATOM     61  S   UNL A   1      42.659  27.807  25.456  1.00  0.00     0.124 S 
ATOM     62  O   UNL A   1      42.631  26.609  24.618  1.00  0.00    -0.237 OA
ATOM     63  O   UNL A   1      41.912  28.954  24.956  1.00  0.00    -0.237 OA
ATOM     64  O   UNL A   1      43.961  28.116  26.043  1.00  0.00    -0.744 OA
ENDBRANCH  57  61
ENDBRANCH  40  54
BRANCH  41  65
ATOM     65  C   UNL A   1      39.685  33.740  37.086  1.00  0.00     0.023 A 
ATOM     66  C   UNL A   1      40.503  34.852  37.341  1.00  0.00     0.031 A 
ATOM     67  C   UNL A   1      38.714  33.404  38.047  1.00  0.00     0.131 A 
ATOM     68  C   UNL A   1      40.373  35.556  38.549  1.00  0.00     0.055 A 
ATOM     69  C   UNL A   1      38.547  34.145  39.219  1.00  0.00     0.041 A 
ATOM     70  F   UNL A   1      37.904  32.350  37.856  1.00  0.00    -0.206 F 
ATOM     71  C   UNL A   1      39.390  35.220  39.483  1.00  0.00     0.022 A 
BRANCH  68  72
ATOM     72  S   UNL A   1      41.577  36.858  38.930  1.00  0.00     0.124 S 
ATOM     73  O   UNL A   1      40.707  37.948  39.360  1.00  0.00    -0.237 OA
ATOM     74  O   UNL A   1      42.381  36.230  39.973  1.00  0.00    -0.237 OA
ATOM     75  O   UNL A   1      42.262  37.070  37.658  1.00  0.00    -0.744 OA
ENDBRANCH  68  72
ENDBRANCH  41  65
BRANCH  53  76
ATOM     76  C   UNL A   1      44.139  28.626  35.438  1.00  0.00     0.023 A 
ATOM     77  C   UNL A   1      43.994  27.564  36.348  1.00  0.00     0.031 A 
ATOM     78  C   UNL A   1      45.431  29.141  35.226  1.00  0.00     0.131 A 
ATOM     79  C   UNL A   1      45.111  27.091  37.054  1.00  0.00     0.055 A 
ATOM     80  C   UNL A   1      46.548  28.621  35.881  1.00  0.00     0.041 A 
ATOM     81  F   UNL A   1      45.630  30.157  34.371  1.00  0.00    -0.206 F 
ATOM     82  C   UNL A   1      46.389  27.599  36.812  1.00  0.00     0.022 A 
BRANCH  79  83
ATOM     83  S   UNL A   1      44.856  25.865  38.368  1.00  0.00     0.124 S 
ATOM     84  O   UNL A   1      43.929  26.561  39.255  1.00  0.00    -0.237 OA
ATOM     85  O   UNL A   1      44.306  24.731  37.635  1.00  0.00    -0.237 OA
ATOM     86  O   UNL A   1      46.198  25.660  38.911  1.00  0.00    -0.744 OA
ENDBRANCH  79  83
ENDBRANCH  53  76
ENDBRANCH  27  28
ENDBRANCH  19  22
ENDBRANCH  17  18
ENDBRANCH  16  17
ENDBRANCH   1  16
TORSDOF 17
ENDMDL
