MODEL 1
REMARK VINA RESULT:     -13.3      0.000      0.000
REMARK SMILES O=C(N[C@H]1c2ccccc2C[C@H]1C(=O)NCCCCNC(=O)c1ccc(-c2c3nc(c(-c4cc(S(=O)(=O)[O-])ccc4F)c4ccc([nH]4)c(-c4cc(S(=O)(=O)[O-])ccc4F)c4nc(c(-c5cc(S(=O)(=O)[O-])ccc5F)c5ccc2[nH]5)C=C4)C=C3)cc1)OCC1c2ccccc2-c2ccccc21
REMARK SMILES IDX 17 1 16 2 15 3 13 4 14 5 12 7 4 8 5 9 6 10 10 11 11 12 7 13
REMARK SMILES IDX 9 14 8 15 3 16 1 17 2 18 86 20 87 21 88 22 89 23 100 24
REMARK SMILES IDX 90 25 94 26 95 27 99 28 91 29 93 30 96 31 98 32 92 33 97 34
REMARK SMILES IDX 18 35 19 36 20 37 21 38 22 40 23 41 24 42 85 43 25 44 84 45
REMARK SMILES IDX 26 46 27 47 28 48 78 49 29 50 83 51 77 52 79 53 30 54 82 55
REMARK SMILES IDX 76 56 75 57 31 59 63 60 43 61 62 62 44 63 47 64 61 65 80 66
REMARK SMILES IDX 45 67 46 68 60 70 81 71 48 72 32 73 33 74 41 75 34 76 40 77
REMARK SMILES IDX 42 78 39 79 35 80 36 81 37 82 38 83 64 84 65 85 73 86 66 87
REMARK SMILES IDX 72 88 74 89 71 90 67 91 68 92 69 93 70 94 49 95 50 96 58 97
REMARK SMILES IDX 51 98 57 99 59 100 56 101 52 102 53 103 54 104 55 105
REMARK H PARENT 15 6 3 19 20 39 79 58 47 69
REMARK Flexibility Score: inf
ROOT
ATOM      1  C   UNL A   1      31.387  31.239  25.751  1.00  0.00     0.023 C 
ENDROOT
BRANCH   1   2
ATOM      2  C   UNL A   1      31.098  29.952  24.976  1.00  0.00     0.116 C 
BRANCH   2   3
ATOM      3  N   UNL A   1      32.285  29.475  24.304  1.00  0.00    -0.356 N 
ATOM      4  C   UNL A   1      32.979  28.317  24.424  1.00  0.00     0.225 C 
ATOM      5  O   UNL A   1      34.000  28.210  23.737  1.00  0.00    -0.275 OA
ATOM      6  H   UNL A   1      32.658  30.103  23.644  1.00  0.00     0.163 HD
BRANCH   4   7
ATOM      7  C   UNL A   1      32.525  27.131  25.260  1.00  0.00     0.110 C 
ATOM      8  C   UNL A   1      31.452  26.263  24.538  1.00  0.00     0.129 C 
ATOM      9  C   UNL A   1      31.580  24.929  25.220  1.00  0.00    -0.021 A 
ATOM     10  C   UNL A   1      30.759  23.817  25.107  1.00  0.00     0.006 A 
ATOM     11  C   UNL A   1      32.619  24.944  26.148  1.00  0.00    -0.042 A 
ATOM     12  C   UNL A   1      33.470  26.159  25.970  1.00  0.00     0.052 C 
ATOM     13  C   UNL A   1      30.934  22.760  26.002  1.00  0.00     0.000 A 
ATOM     14  C   UNL A   1      32.814  23.897  27.034  1.00  0.00     0.004 A 
ATOM     15  C   UNL A   1      31.942  22.811  26.975  1.00  0.00     0.000 A 
BRANCH   8  16
ATOM     16  N   UNL A   1      31.471  26.190  23.107  1.00  0.00    -0.314 N 
ATOM     17  O   UNL A   1      32.186  25.809  21.040  1.00  0.00    -0.225 OA
ATOM     18  C   UNL A   1      32.362  25.614  22.243  1.00  0.00     0.407 C 
ATOM     19  H   UNL A   1      30.709  26.633  22.669  1.00  0.00     0.167 HD
BRANCH  18  20
ATOM     20  O   UNL A   1      33.464  24.929  22.652  1.00  0.00    -0.449 OA
BRANCH  20  21
ATOM     21  C   UNL A   1      33.880  23.542  22.446  1.00  0.00     0.248 C 
BRANCH  21  22
ATOM     22  C   UNL A   1      33.911  22.817  23.803  1.00  0.00     0.088 C 
ATOM     23  C   UNL A   1      33.580  21.323  23.828  1.00  0.00    -0.029 A 
ATOM     24  C   UNL A   1      35.283  22.837  24.475  1.00  0.00    -0.029 A 
ATOM     25  C   UNL A   1      32.418  20.667  23.443  1.00  0.00     0.005 A 
ATOM     26  C   UNL A   1      34.599  20.614  24.498  1.00  0.00    -0.014 A 
ATOM     27  C   UNL A   1      35.660  21.531  24.851  1.00  0.00    -0.014 A 
ATOM     28  C   UNL A   1      36.079  23.932  24.780  1.00  0.00     0.005 A 
ATOM     29  C   UNL A   1      32.260  19.315  23.754  1.00  0.00     0.000 A 
ATOM     30  C   UNL A   1      34.451  19.266  24.797  1.00  0.00     0.009 A 
ATOM     31  C   UNL A   1      36.870  21.301  25.481  1.00  0.00     0.009 A 
ATOM     32  C   UNL A   1      37.291  23.700  25.433  1.00  0.00     0.000 A 
ATOM     33  C   UNL A   1      33.267  18.621  24.432  1.00  0.00     0.001 A 
ATOM     34  C   UNL A   1      37.690  22.395  25.768  1.00  0.00     0.001 A 
ENDBRANCH  21  22
ENDBRANCH  20  21
ENDBRANCH  18  20
ENDBRANCH   8  16
ENDBRANCH   4   7
ENDBRANCH   2   3
ENDBRANCH   1   2
BRANCH   1  35
ATOM     35  C   UNL A   1      32.195  31.039  27.030  1.00  0.00     0.023 C 
BRANCH  35  36
ATOM     36  C   UNL A   1      33.306  32.058  27.243  1.00  0.00     0.116 C 
BRANCH  36  37
ATOM     37  N   UNL A   1      32.819  33.410  27.481  1.00  0.00    -0.352 N 
ATOM     38  C   UNL A   1      33.258  34.300  28.432  1.00  0.00     0.251 C 
ATOM     39  H   UNL A   1      32.094  33.721  26.893  1.00  0.00     0.163 HD
ATOM     40  O   UNL A   1      32.691  35.377  28.585  1.00  0.00    -0.269 OA
BRANCH  38  41
ATOM     41  C   UNL A   1      34.383  33.900  29.296  1.00  0.00     0.039 A 
ATOM     42  C   UNL A   1      34.132  33.062  30.384  1.00  0.00     0.014 A 
ATOM     43  C   UNL A   1      35.690  34.275  28.968  1.00  0.00     0.014 A 
ATOM     44  C   UNL A   1      35.205  32.541  31.106  1.00  0.00     0.010 A 
ATOM     45  C   UNL A   1      36.757  33.697  29.643  1.00  0.00     0.010 A 
ATOM     46  C   UNL A   1      36.526  32.824  30.717  1.00  0.00    -0.014 A 
BRANCH  46  47
ATOM     47  C   UNL A   1      37.681  32.225  31.431  1.00  0.00     0.031 A 
ATOM     48  C   UNL A   1      38.432  31.085  30.804  1.00  0.00     0.074 A 
ATOM     49  C   UNL A   1      38.008  32.667  32.661  1.00  0.00     0.049 A 
ATOM     50  N   UNL A   1      39.412  30.369  31.292  1.00  0.00    -0.248 NA
ATOM     51  C   UNL A   1      37.999  30.676  29.458  1.00  0.00     0.031 C 
ATOM     52  C   UNL A   1      37.321  33.738  33.387  1.00  0.00     0.029 A 
ATOM     53  N   UNL A   1      38.994  32.263  33.525  1.00  0.00    -0.354 N 
ATOM     54  C   UNL A   1      39.710  29.423  30.318  1.00  0.00     0.074 A 
ATOM     55  C   UNL A   1      38.756  29.611  29.245  1.00  0.00     0.031 C 
ATOM     56  C   UNL A   1      37.920  33.919  34.575  1.00  0.00     0.029 A 
ATOM     57  C   UNL A   1      39.004  32.952  34.716  1.00  0.00     0.049 A 
ATOM     58  H   UNL A   1      39.636  31.547  33.313  1.00  0.00     0.167 HD
ATOM     59  C   UNL A   1      40.706  28.504  30.305  1.00  0.00     0.034 A 
ATOM     60  C   UNL A   1      39.791  32.811  35.801  1.00  0.00     0.034 A 
ATOM     61  C   UNL A   1      41.651  28.336  31.381  1.00  0.00     0.049 A 
ATOM     62  C   UNL A   1      40.877  31.762  35.776  1.00  0.00     0.074 A 
ATOM     63  C   UNL A   1      42.719  27.460  31.466  1.00  0.00     0.029 A 
ATOM     64  N   UNL A   1      41.639  29.062  32.567  1.00  0.00    -0.354 N 
ATOM     65  N   UNL A   1      41.174  30.904  34.827  1.00  0.00    -0.248 NA
ATOM     66  C   UNL A   1      41.739  31.674  36.961  1.00  0.00     0.031 C 
ATOM     67  C   UNL A   1      43.315  27.615  32.722  1.00  0.00     0.029 A 
ATOM     68  C   UNL A   1      42.667  28.638  33.395  1.00  0.00     0.049 A 
ATOM     69  H   UNL A   1      40.995  29.773  32.787  1.00  0.00     0.167 HD
ATOM     70  C   UNL A   1      42.282  30.199  35.289  1.00  0.00     0.074 A 
ATOM     71  C   UNL A   1      42.606  30.742  36.592  1.00  0.00     0.031 C 
ATOM     72  C   UNL A   1      42.971  29.193  34.693  1.00  0.00     0.034 A 
BRANCH  59  73
ATOM     73  C   UNL A   1      40.804  27.610  29.093  1.00  0.00     0.023 A 
ATOM     74  C   UNL A   1      41.762  27.838  28.089  1.00  0.00     0.031 A 
ATOM     75  C   UNL A   1      39.907  26.542  28.915  1.00  0.00     0.131 A 
ATOM     76  C   UNL A   1      41.748  27.067  26.917  1.00  0.00     0.055 A 
ATOM     77  C   UNL A   1      39.955  25.722  27.785  1.00  0.00     0.041 A 
ATOM     78  F   UNL A   1      38.956  26.287  29.827  1.00  0.00    -0.206 F 
ATOM     79  C   UNL A   1      40.869  25.993  26.770  1.00  0.00     0.022 A 
BRANCH  76  80
ATOM     80  S   UNL A   1      42.796  27.585  25.531  1.00  0.00     0.124 S 
ATOM     81  O   UNL A   1      42.060  28.741  25.024  1.00  0.00    -0.237 OA
ATOM     82  O   UNL A   1      44.067  27.872  26.184  1.00  0.00    -0.237 OA
ATOM     83  O   UNL A   1      42.796  26.419  24.648  1.00  0.00    -0.744 OA
ENDBRANCH  76  80
ENDBRANCH  59  73
BRANCH  60  84
ATOM     84  C   UNL A   1      39.589  33.667  37.005  1.00  0.00     0.023 A 
ATOM     85  C   UNL A   1      38.950  33.165  38.150  1.00  0.00     0.031 A 
ATOM     86  C   UNL A   1      39.979  35.018  37.009  1.00  0.00     0.131 A 
ATOM     87  C   UNL A   1      38.667  34.020  39.227  1.00  0.00     0.055 A 
ATOM     88  C   UNL A   1      39.748  35.850  38.106  1.00  0.00     0.041 A 
ATOM     89  F   UNL A   1      40.601  35.548  35.943  1.00  0.00    -0.206 F 
ATOM     90  C   UNL A   1      39.072  35.356  39.217  1.00  0.00     0.022 A 
BRANCH  87  91
ATOM     91  S   UNL A   1      37.668  33.382  40.600  1.00  0.00     0.124 S 
ATOM     92  O   UNL A   1      37.572  34.552  41.466  1.00  0.00    -0.237 OA
ATOM     93  O   UNL A   1      36.441  32.983  39.920  1.00  0.00    -0.237 OA
ATOM     94  O   UNL A   1      38.475  32.282  41.124  1.00  0.00    -0.744 OA
ENDBRANCH  87  91
ENDBRANCH  60  84
BRANCH  72  95
ATOM     95  C   UNL A   1      44.176  28.660  35.429  1.00  0.00     0.023 A 
ATOM     96  C   UNL A   1      44.066  27.634  36.384  1.00  0.00     0.031 A 
ATOM     97  C   UNL A   1      45.451  29.197  35.177  1.00  0.00     0.131 A 
ATOM     98  C   UNL A   1      45.201  27.217  37.093  1.00  0.00     0.055 A 
ATOM     99  C   UNL A   1      46.586  28.736  35.843  1.00  0.00     0.041 A 
ATOM    100  F   UNL A   1      45.612  30.178  34.275  1.00  0.00    -0.206 F 
ATOM    101  C   UNL A   1      46.463  27.750  36.818  1.00  0.00     0.022 A 
BRANCH  98 102
ATOM    102  S   UNL A   1      44.994  26.026  38.446  1.00  0.00     0.124 S 
ATOM    103  O   UNL A   1      43.938  25.162  37.929  1.00  0.00    -0.237 OA
ATOM    104  O   UNL A   1      46.320  25.426  38.540  1.00  0.00    -0.237 OA
ATOM    105  O   UNL A   1      44.610  26.862  39.583  1.00  0.00    -0.744 OA
ENDBRANCH  98 102
ENDBRANCH  72  95
ENDBRANCH  46  47
ENDBRANCH  38  41
ENDBRANCH  36  37
ENDBRANCH  35  36
ENDBRANCH   1  35
TORSDOF 18
ENDMDL
MODEL 2
REMARK VINA RESULT:     -12.8      1.474      7.221
REMARK SMILES O=C(N[C@H]1c2ccccc2C[C@H]1C(=O)NCCCCNC(=O)c1ccc(-c2c3nc(c(-c4cc(S(=O)(=O)[O-])ccc4F)c4ccc([nH]4)c(-c4cc(S(=O)(=O)[O-])ccc4F)c4nc(c(-c5cc(S(=O)(=O)[O-])ccc5F)c5ccc2[nH]5)C=C4)C=C3)cc1)OCC1c2ccccc2-c2ccccc21
REMARK SMILES IDX 17 1 16 2 15 3 13 4 14 5 12 7 4 8 5 9 6 10 10 11 11 12 7 13
REMARK SMILES IDX 9 14 8 15 3 16 1 17 2 18 86 20 87 21 88 22 89 23 100 24
REMARK SMILES IDX 90 25 94 26 95 27 99 28 91 29 93 30 96 31 98 32 92 33 97 34
REMARK SMILES IDX 18 35 19 36 20 37 21 38 22 40 23 41 24 42 85 43 25 44 84 45
REMARK SMILES IDX 26 46 27 47 28 48 78 49 29 50 83 51 77 52 79 53 30 54 82 55
REMARK SMILES IDX 76 56 75 57 31 59 63 60 43 61 62 62 44 63 47 64 61 65 80 66
REMARK SMILES IDX 45 67 46 68 60 70 81 71 48 72 32 73 33 74 41 75 34 76 40 77
REMARK SMILES IDX 42 78 39 79 35 80 36 81 37 82 38 83 64 84 65 85 73 86 66 87
REMARK SMILES IDX 72 88 74 89 71 90 67 91 68 92 69 93 70 94 49 95 50 96 58 97
REMARK SMILES IDX 51 98 57 99 59 100 56 101 52 102 53 103 54 104 55 105
REMARK H PARENT 15 6 3 19 20 39 79 58 47 69
REMARK Flexibility Score: inf
ROOT
ATOM      1  C   UNL A   1      32.191  30.349  26.865  1.00  0.00     0.023 C 
ENDROOT
BRANCH   1   2
ATOM      2  C   UNL A   1      33.634  29.906  26.613  1.00  0.00     0.116 C 
BRANCH   2   3
ATOM      3  N   UNL A   1      33.815  29.493  25.240  1.00  0.00    -0.356 N 
ATOM      4  C   UNL A   1      33.565  28.315  24.618  1.00  0.00     0.225 C 
ATOM      5  O   UNL A   1      33.871  28.245  23.423  1.00  0.00    -0.275 OA
ATOM      6  H   UNL A   1      34.187  30.189  24.652  1.00  0.00     0.163 HD
BRANCH   4   7
ATOM      7  C   UNL A   1      32.853  27.139  25.268  1.00  0.00     0.110 C 
ATOM      8  C   UNL A   1      31.867  26.424  24.296  1.00  0.00     0.129 C 
ATOM      9  C   UNL A   1      31.740  25.050  24.894  1.00  0.00    -0.021 A 
ATOM     10  C   UNL A   1      30.860  24.034  24.550  1.00  0.00     0.006 A 
ATOM     11  C   UNL A   1      32.576  24.910  26.000  1.00  0.00    -0.042 A 
ATOM     12  C   UNL A   1      33.551  26.040  26.072  1.00  0.00     0.052 C 
ATOM     13  C   UNL A   1      30.763  22.920  25.386  1.00  0.00     0.000 A 
ATOM     14  C   UNL A   1      32.500  23.805  26.831  1.00  0.00     0.004 A 
ATOM     15  C   UNL A   1      31.563  22.817  26.532  1.00  0.00     0.000 A 
BRANCH   8  16
ATOM     16  N   UNL A   1      32.158  26.424  22.893  1.00  0.00    -0.314 N 
ATOM     17  O   UNL A   1      33.182  26.008  20.968  1.00  0.00    -0.225 OA
ATOM     18  C   UNL A   1      33.071  25.718  22.159  1.00  0.00     0.407 C 
ATOM     19  H   UNL A   1      31.602  27.041  22.366  1.00  0.00     0.167 HD
BRANCH  18  20
ATOM     20  O   UNL A   1      33.910  24.793  22.699  1.00  0.00    -0.449 OA
BRANCH  20  21
ATOM     21  C   UNL A   1      34.035  23.351  22.490  1.00  0.00     0.248 C 
BRANCH  21  22
ATOM     22  C   UNL A   1      34.105  22.646  23.855  1.00  0.00     0.088 C 
ATOM     23  C   UNL A   1      33.766  21.154  23.913  1.00  0.00    -0.029 A 
ATOM     24  C   UNL A   1      35.497  22.668  24.484  1.00  0.00    -0.029 A 
ATOM     25  C   UNL A   1      32.590  20.499  23.575  1.00  0.00     0.005 A 
ATOM     26  C   UNL A   1      34.803  20.449  24.562  1.00  0.00    -0.014 A 
ATOM     27  C   UNL A   1      35.879  21.366  24.867  1.00  0.00    -0.014 A 
ATOM     28  C   UNL A   1      36.308  23.763  24.747  1.00  0.00     0.005 A 
ATOM     29  C   UNL A   1      32.435  19.153  23.911  1.00  0.00     0.000 A 
ATOM     30  C   UNL A   1      34.658  19.107  24.885  1.00  0.00     0.009 A 
ATOM     31  C   UNL A   1      37.107  21.138  25.463  1.00  0.00     0.009 A 
ATOM     32  C   UNL A   1      37.539  23.534  25.365  1.00  0.00     0.000 A 
ATOM     33  C   UNL A   1      33.459  18.463  24.567  1.00  0.00     0.001 A 
ATOM     34  C   UNL A   1      37.941  22.232  25.707  1.00  0.00     0.001 A 
ENDBRANCH  21  22
ENDBRANCH  20  21
ENDBRANCH  18  20
ENDBRANCH   8  16
ENDBRANCH   4   7
ENDBRANCH   2   3
ENDBRANCH   1   2
BRANCH   1  35
ATOM     35  C   UNL A   1      31.983  31.862  26.854  1.00  0.00     0.023 C 
BRANCH  35  36
ATOM     36  C   UNL A   1      33.124  32.662  27.467  1.00  0.00     0.116 C 
BRANCH  36  37
ATOM     37  N   UNL A   1      32.762  34.032  27.802  1.00  0.00    -0.352 N 
ATOM     38  C   UNL A   1      33.328  34.835  28.764  1.00  0.00     0.251 C 
ATOM     39  H   UNL A   1      32.028  34.428  27.278  1.00  0.00     0.163 HD
ATOM     40  O   UNL A   1      32.859  35.941  29.005  1.00  0.00    -0.269 OA
BRANCH  38  41
ATOM     41  C   UNL A   1      34.469  34.304  29.531  1.00  0.00     0.039 A 
ATOM     42  C   UNL A   1      34.217  33.521  30.658  1.00  0.00     0.014 A 
ATOM     43  C   UNL A   1      35.776  34.504  29.076  1.00  0.00     0.014 A 
ATOM     44  C   UNL A   1      35.278  32.876  31.293  1.00  0.00     0.010 A 
ATOM     45  C   UNL A   1      36.820  33.802  29.666  1.00  0.00     0.010 A 
ATOM     46  C   UNL A   1      36.581  32.980  30.778  1.00  0.00    -0.014 A 
BRANCH  46  47
ATOM     47  C   UNL A   1      37.713  32.248  31.398  1.00  0.00     0.031 A 
ATOM     48  C   UNL A   1      38.245  32.693  32.731  1.00  0.00     0.074 A 
ATOM     49  C   UNL A   1      38.294  31.230  30.734  1.00  0.00     0.049 A 
ATOM     50  N   UNL A   1      39.274  32.247  33.404  1.00  0.00    -0.248 NA
ATOM     51  C   UNL A   1      37.542  33.813  33.377  1.00  0.00     0.031 C 
ATOM     52  C   UNL A   1      37.891  30.740  29.414  1.00  0.00     0.029 A 
ATOM     53  N   UNL A   1      39.357  30.431  31.071  1.00  0.00    -0.354 N 
ATOM     54  C   UNL A   1      39.345  33.032  34.549  1.00  0.00     0.074 A 
ATOM     55  C   UNL A   1      38.302  34.030  34.439  1.00  0.00     0.031 C 
ATOM     56  C   UNL A   1      38.681  29.712  29.065  1.00  0.00     0.029 A 
ATOM     57  C   UNL A   1      39.674  29.496  30.112  1.00  0.00     0.049 A 
ATOM     58  H   UNL A   1      39.847  30.516  31.921  1.00  0.00     0.167 HD
ATOM     59  C   UNL A   1      40.184  32.914  35.607  1.00  0.00     0.034 A 
ATOM     60  C   UNL A   1      40.661  28.578  30.079  1.00  0.00     0.034 A 
ATOM     61  C   UNL A   1      41.214  31.909  35.702  1.00  0.00     0.049 A 
ATOM     62  C   UNL A   1      41.599  28.482  31.257  1.00  0.00     0.074 A 
ATOM     63  C   UNL A   1      42.101  31.674  36.738  1.00  0.00     0.029 A 
ATOM     64  N   UNL A   1      41.497  30.970  34.717  1.00  0.00    -0.354 N 
ATOM     65  N   UNL A   1      41.625  29.204  32.353  1.00  0.00    -0.248 NA
ATOM     66  C   UNL A   1      42.630  27.438  31.198  1.00  0.00     0.031 C 
ATOM     67  C   UNL A   1      42.955  30.634  36.356  1.00  0.00     0.029 A 
ATOM     68  C   UNL A   1      42.557  30.169  35.113  1.00  0.00     0.049 A 
ATOM     69  H   UNL A   1      41.015  30.885  33.862  1.00  0.00     0.167 HD
ATOM     70  C   UNL A   1      42.654  28.677  33.129  1.00  0.00     0.074 A 
ATOM     71  C   UNL A   1      43.211  27.569  32.382  1.00  0.00     0.031 C 
ATOM     72  C   UNL A   1      43.099  29.069  34.350  1.00  0.00     0.034 A 
BRANCH  59  73
ATOM     73  C   UNL A   1      40.018  33.906  36.732  1.00  0.00     0.023 A 
ATOM     74  C   UNL A   1      40.960  34.928  36.954  1.00  0.00     0.031 A 
ATOM     75  C   UNL A   1      38.932  33.811  37.620  1.00  0.00     0.131 A 
ATOM     76  C   UNL A   1      40.845  35.757  38.079  1.00  0.00     0.055 A 
ATOM     77  C   UNL A   1      38.776  34.696  38.689  1.00  0.00     0.041 A 
ATOM     78  F   UNL A   1      38.012  32.845  37.474  1.00  0.00    -0.206 F 
ATOM     79  C   UNL A   1      39.745  35.666  38.933  1.00  0.00     0.022 A 
BRANCH  76  80
ATOM     80  S   UNL A   1      42.230  36.853  38.490  1.00  0.00     0.124 S 
ATOM     81  O   UNL A   1      41.552  37.923  39.218  1.00  0.00    -0.237 OA
ATOM     82  O   UNL A   1      43.094  35.987  39.283  1.00  0.00    -0.237 OA
ATOM     83  O   UNL A   1      42.761  37.237  37.183  1.00  0.00    -0.744 OA
ENDBRANCH  76  80
ENDBRANCH  59  73
BRANCH  60  84
ATOM     84  C   UNL A   1      40.827  27.682  28.899  1.00  0.00     0.023 A 
ATOM     85  C   UNL A   1      41.822  27.928  27.939  1.00  0.00     0.031 A 
ATOM     86  C   UNL A   1      39.956  26.599  28.682  1.00  0.00     0.131 A 
ATOM     87  C   UNL A   1      41.886  27.140  26.779  1.00  0.00     0.055 A 
ATOM     88  C   UNL A   1      40.061  25.782  27.554  1.00  0.00     0.041 A 
ATOM     89  F   UNL A   1      38.992  26.314  29.571  1.00  0.00    -0.206 F 
ATOM     90  C   UNL A   1      41.020  26.062  26.585  1.00  0.00     0.022 A 
BRANCH  87  91
ATOM     91  S   UNL A   1      43.055  27.613  25.474  1.00  0.00     0.124 S 
ATOM     92  O   UNL A   1      44.003  28.441  26.212  1.00  0.00    -0.237 OA
ATOM     93  O   UNL A   1      43.548  26.315  25.027  1.00  0.00    -0.237 OA
ATOM     94  O   UNL A   1      42.219  28.327  24.512  1.00  0.00    -0.744 OA
ENDBRANCH  87  91
ENDBRANCH  60  84
BRANCH  72  95
ATOM     95  C   UNL A   1      44.209  28.255  34.967  1.00  0.00     0.023 A 
ATOM     96  C   UNL A   1      43.952  27.066  35.671  1.00  0.00     0.031 A 
ATOM     97  C   UNL A   1      45.544  28.685  34.857  1.00  0.00     0.131 A 
ATOM     98  C   UNL A   1      45.007  26.378  36.287  1.00  0.00     0.055 A 
ATOM     99  C   UNL A   1      46.596  27.964  35.422  1.00  0.00     0.041 A 
ATOM    100  F   UNL A   1      45.845  29.814  34.196  1.00  0.00    -0.206 F 
ATOM    101  C   UNL A   1      46.329  26.810  36.153  1.00  0.00     0.022 A 
BRANCH  98 102
ATOM    102  S   UNL A   1      44.620  24.953  37.340  1.00  0.00     0.124 S 
ATOM    103  O   UNL A   1      45.589  25.102  38.421  1.00  0.00    -0.237 OA
ATOM    104  O   UNL A   1      43.226  25.196  37.696  1.00  0.00    -0.237 OA
ATOM    105  O   UNL A   1      44.843  23.806  36.461  1.00  0.00    -0.744 OA
ENDBRANCH  98 102
ENDBRANCH  72  95
ENDBRANCH  46  47
ENDBRANCH  38  41
ENDBRANCH  36  37
ENDBRANCH  35  36
ENDBRANCH   1  35
TORSDOF 18
ENDMDL
MODEL 3
REMARK VINA RESULT:     -12.8      1.332      2.559
REMARK SMILES O=C(N[C@H]1c2ccccc2C[C@H]1C(=O)NCCCCNC(=O)c1ccc(-c2c3nc(c(-c4cc(S(=O)(=O)[O-])ccc4F)c4ccc([nH]4)c(-c4cc(S(=O)(=O)[O-])ccc4F)c4nc(c(-c5cc(S(=O)(=O)[O-])ccc5F)c5ccc2[nH]5)C=C4)C=C3)cc1)OCC1c2ccccc2-c2ccccc21
REMARK SMILES IDX 17 1 16 2 15 3 13 4 14 5 12 7 4 8 5 9 6 10 10 11 11 12 7 13
REMARK SMILES IDX 9 14 8 15 3 16 1 17 2 18 86 20 87 21 88 22 89 23 100 24
REMARK SMILES IDX 90 25 94 26 95 27 99 28 91 29 93 30 96 31 98 32 92 33 97 34
REMARK SMILES IDX 18 35 19 36 20 37 21 38 22 40 23 41 24 42 85 43 25 44 84 45
REMARK SMILES IDX 26 46 27 47 28 48 78 49 29 50 83 51 77 52 79 53 30 54 82 55
REMARK SMILES IDX 76 56 75 57 31 59 63 60 43 61 62 62 44 63 47 64 61 65 80 66
REMARK SMILES IDX 45 67 46 68 60 70 81 71 48 72 32 73 33 74 41 75 34 76 40 77
REMARK SMILES IDX 42 78 39 79 35 80 36 81 37 82 38 83 64 84 65 85 73 86 66 87
REMARK SMILES IDX 72 88 74 89 71 90 67 91 68 92 69 93 70 94 49 95 50 96 58 97
REMARK SMILES IDX 51 98 57 99 59 100 56 101 52 102 53 103 54 104 55 105
REMARK H PARENT 15 6 3 19 20 39 79 58 47 69
REMARK Flexibility Score: inf
ROOT
ATOM      1  C   UNL A   1      32.700  30.191  26.213  1.00  0.00     0.023 C 
ENDROOT
BRANCH   1   2
ATOM      2  C   UNL A   1      33.001  29.028  27.161  1.00  0.00     0.116 C 
BRANCH   2   3
ATOM      3  N   UNL A   1      31.847  28.171  27.310  1.00  0.00    -0.356 N 
ATOM      4  C   UNL A   1      31.381  27.154  26.546  1.00  0.00     0.225 C 
ATOM      5  O   UNL A   1      30.325  26.627  26.911  1.00  0.00    -0.275 OA
ATOM      6  H   UNL A   1      31.302  28.360  28.108  1.00  0.00     0.163 HD
BRANCH   4   7
ATOM      7  C   UNL A   1      32.122  26.572  25.352  1.00  0.00     0.110 C 
ATOM      8  C   UNL A   1      32.239  25.020  25.416  1.00  0.00     0.129 C 
ATOM      9  C   UNL A   1      32.446  24.637  23.977  1.00  0.00    -0.021 A 
ATOM     10  C   UNL A   1      32.783  23.398  23.451  1.00  0.00     0.006 A 
ATOM     11  C   UNL A   1      32.379  25.756  23.150  1.00  0.00    -0.042 A 
ATOM     12  C   UNL A   1      31.830  26.930  23.893  1.00  0.00     0.052 C 
ATOM     13  C   UNL A   1      33.146  23.317  22.106  1.00  0.00     0.000 A 
ATOM     14  C   UNL A   1      32.723  25.689  21.810  1.00  0.00     0.004 A 
ATOM     15  C   UNL A   1      33.137  24.461  21.295  1.00  0.00     0.000 A 
BRANCH   8  16
ATOM     16  N   UNL A   1      31.207  24.276  26.075  1.00  0.00    -0.314 N 
ATOM     17  O   UNL A   1      30.213  22.776  27.375  1.00  0.00    -0.225 OA
ATOM     18  C   UNL A   1      31.262  23.348  27.079  1.00  0.00     0.407 C 
ATOM     19  H   UNL A   1      30.299  24.466  25.746  1.00  0.00     0.167 HD
BRANCH  18  20
ATOM     20  O   UNL A   1      32.419  22.972  27.687  1.00  0.00    -0.449 OA
BRANCH  20  21
ATOM     21  C   UNL A   1      33.240  21.768  27.558  1.00  0.00     0.248 C 
BRANCH  21  22
ATOM     22  C   UNL A   1      33.788  21.680  26.123  1.00  0.00     0.088 C 
ATOM     23  C   UNL A   1      35.235  22.114  25.878  1.00  0.00    -0.029 A 
ATOM     24  C   UNL A   1      33.792  20.262  25.557  1.00  0.00    -0.029 A 
ATOM     25  C   UNL A   1      35.839  23.346  26.091  1.00  0.00     0.005 A 
ATOM     26  C   UNL A   1      35.933  21.097  25.192  1.00  0.00    -0.014 A 
ATOM     27  C   UNL A   1      35.066  19.949  25.038  1.00  0.00    -0.014 A 
ATOM     28  C   UNL A   1      32.735  19.369  25.456  1.00  0.00     0.005 A 
ATOM     29  C   UNL A   1      37.123  23.573  25.593  1.00  0.00     0.000 A 
ATOM     30  C   UNL A   1      37.215  21.315  24.707  1.00  0.00     0.009 A 
ATOM     31  C   UNL A   1      35.311  18.712  24.468  1.00  0.00     0.009 A 
ATOM     32  C   UNL A   1      32.978  18.128  24.863  1.00  0.00     0.000 A 
ATOM     33  C   UNL A   1      37.805  22.567  24.901  1.00  0.00     0.001 A 
ATOM     34  C   UNL A   1      34.258  17.797  24.386  1.00  0.00     0.001 A 
ENDBRANCH  21  22
ENDBRANCH  20  21
ENDBRANCH  18  20
ENDBRANCH   8  16
ENDBRANCH   4   7
ENDBRANCH   2   3
ENDBRANCH   1   2
BRANCH   1  35
ATOM     35  C   UNL A   1      32.164  31.445  26.900  1.00  0.00     0.023 C 
BRANCH  35  36
ATOM     36  C   UNL A   1      33.239  32.389  27.420  1.00  0.00     0.116 C 
BRANCH  36  37
ATOM     37  N   UNL A   1      32.754  33.737  27.679  1.00  0.00    -0.352 N 
ATOM     38  C   UNL A   1      33.207  34.619  28.632  1.00  0.00     0.251 C 
ATOM     39  H   UNL A   1      32.018  34.054  27.107  1.00  0.00     0.163 HD
ATOM     40  O   UNL A   1      32.642  35.693  28.805  1.00  0.00    -0.269 OA
BRANCH  38  41
ATOM     41  C   UNL A   1      34.347  34.212  29.473  1.00  0.00     0.039 A 
ATOM     42  C   UNL A   1      34.105  33.428  30.602  1.00  0.00     0.014 A 
ATOM     43  C   UNL A   1      35.654  34.525  29.086  1.00  0.00     0.014 A 
ATOM     44  C   UNL A   1      35.183  32.897  31.309  1.00  0.00     0.010 A 
ATOM     45  C   UNL A   1      36.723  33.935  29.748  1.00  0.00     0.010 A 
ATOM     46  C   UNL A   1      36.498  33.115  30.864  1.00  0.00    -0.014 A 
BRANCH  46  47
ATOM     47  C   UNL A   1      37.656  32.503  31.562  1.00  0.00     0.031 A 
ATOM     48  C   UNL A   1      38.377  31.344  30.932  1.00  0.00     0.074 A 
ATOM     49  C   UNL A   1      38.012  32.949  32.783  1.00  0.00     0.049 A 
ATOM     50  N   UNL A   1      39.352  30.616  31.409  1.00  0.00    -0.248 NA
ATOM     51  C   UNL A   1      37.913  30.932  29.597  1.00  0.00     0.031 C 
ATOM     52  C   UNL A   1      37.357  34.037  33.511  1.00  0.00     0.029 A 
ATOM     53  N   UNL A   1      39.006  32.535  33.633  1.00  0.00    -0.354 N 
ATOM     54  C   UNL A   1      39.617  29.657  30.437  1.00  0.00     0.074 A 
ATOM     55  C   UNL A   1      38.647  29.852  29.380  1.00  0.00     0.031 C 
ATOM     56  C   UNL A   1      37.980  34.218  34.687  1.00  0.00     0.029 A 
ATOM     57  C   UNL A   1      39.050  33.234  34.817  1.00  0.00     0.049 A 
ATOM     58  H   UNL A   1      39.632  31.806  33.416  1.00  0.00     0.167 HD
ATOM     59  C   UNL A   1      40.597  28.721  30.415  1.00  0.00     0.034 A 
ATOM     60  C   UNL A   1      39.853  33.088  35.889  1.00  0.00     0.034 A 
ATOM     61  C   UNL A   1      41.558  28.546  31.476  1.00  0.00     0.049 A 
ATOM     62  C   UNL A   1      40.920  32.021  35.854  1.00  0.00     0.074 A 
ATOM     63  C   UNL A   1      42.612  27.652  31.550  1.00  0.00     0.029 A 
ATOM     64  N   UNL A   1      41.580  29.281  32.655  1.00  0.00    -0.354 N 
ATOM     65  N   UNL A   1      41.187  31.150  34.908  1.00  0.00    -0.248 NA
ATOM     66  C   UNL A   1      41.803  31.928  37.024  1.00  0.00     0.031 C 
ATOM     67  C   UNL A   1      43.234  27.808  32.793  1.00  0.00     0.029 A 
ATOM     68  C   UNL A   1      42.615  28.848  33.469  1.00  0.00     0.049 A 
ATOM     69  H   UNL A   1      40.951  30.005  32.881  1.00  0.00     0.167 HD
ATOM     70  C   UNL A   1      42.290  30.430  35.356  1.00  0.00     0.074 A 
ATOM     71  C   UNL A   1      42.647  30.978  36.648  1.00  0.00     0.031 C 
ATOM     72  C   UNL A   1      42.952  29.408  34.756  1.00  0.00     0.034 A 
BRANCH  59  73
ATOM     73  C   UNL A   1      40.658  27.816  29.209  1.00  0.00     0.023 A 
ATOM     74  C   UNL A   1      41.590  28.030  28.178  1.00  0.00     0.031 A 
ATOM     75  C   UNL A   1      39.752  26.750  29.065  1.00  0.00     0.131 A 
ATOM     76  C   UNL A   1      41.542  27.248  27.014  1.00  0.00     0.055 A 
ATOM     77  C   UNL A   1      39.766  25.920  27.942  1.00  0.00     0.041 A 
ATOM     78  F   UNL A   1      38.825  26.508  30.005  1.00  0.00    -0.206 F 
ATOM     79  C   UNL A   1      40.653  26.177  26.901  1.00  0.00     0.022 A 
BRANCH  76  80
ATOM     80  S   UNL A   1      42.554  27.747  25.595  1.00  0.00     0.124 S 
ATOM     81  O   UNL A   1      43.835  28.037  26.236  1.00  0.00    -0.237 OA
ATOM     82  O   UNL A   1      42.518  26.562  24.747  1.00  0.00    -0.237 OA
ATOM     83  O   UNL A   1      41.851  28.915  25.068  1.00  0.00    -0.744 OA
ENDBRANCH  76  80
ENDBRANCH  59  73
BRANCH  60  84
ATOM     84  C   UNL A   1      39.687  33.957  37.090  1.00  0.00     0.023 A 
ATOM     85  C   UNL A   1      39.062  33.475  38.250  1.00  0.00     0.031 A 
ATOM     86  C   UNL A   1      40.099  35.302  37.074  1.00  0.00     0.131 A 
ATOM     87  C   UNL A   1      38.813  34.344  39.324  1.00  0.00     0.055 A 
ATOM     88  C   UNL A   1      39.901  36.147  38.168  1.00  0.00     0.041 A 
ATOM     89  F   UNL A   1      40.708  35.813  35.992  1.00  0.00    -0.206 F 
ATOM     90  C   UNL A   1      39.238  35.674  39.296  1.00  0.00     0.022 A 
BRANCH  87  91
ATOM     91  S   UNL A   1      37.829  33.733  40.722  1.00  0.00     0.124 S 
ATOM     92  O   UNL A   1      38.815  32.951  41.459  1.00  0.00    -0.237 OA
ATOM     93  O   UNL A   1      37.395  34.976  41.350  1.00  0.00    -0.237 OA
ATOM     94  O   UNL A   1      36.771  32.958  40.078  1.00  0.00    -0.744 OA
ENDBRANCH  87  91
ENDBRANCH  60  84
BRANCH  72  95
ATOM     95  C   UNL A   1      44.160  28.860  35.475  1.00  0.00     0.023 A 
ATOM     96  C   UNL A   1      44.055  27.815  36.410  1.00  0.00     0.031 A 
ATOM     97  C   UNL A   1      45.433  29.403  35.228  1.00  0.00     0.131 A 
ATOM     98  C   UNL A   1      45.194  27.384  37.104  1.00  0.00     0.055 A 
ATOM     99  C   UNL A   1      46.572  28.930  35.880  1.00  0.00     0.041 A 
ATOM    100  F   UNL A   1      45.589  30.403  34.346  1.00  0.00    -0.206 F 
ATOM    101  C   UNL A   1      46.454  27.924  36.834  1.00  0.00     0.022 A 
BRANCH  98 102
ATOM    102  S   UNL A   1      44.994  26.165  38.433  1.00  0.00     0.124 S 
ATOM    103  O   UNL A   1      43.698  26.536  38.992  1.00  0.00    -0.237 OA
ATOM    104  O   UNL A   1      45.036  24.901  37.706  1.00  0.00    -0.237 OA
ATOM    105  O   UNL A   1      46.141  26.416  39.304  1.00  0.00    -0.744 OA
ENDBRANCH  98 102
ENDBRANCH  72  95
ENDBRANCH  46  47
ENDBRANCH  38  41
ENDBRANCH  36  37
ENDBRANCH  35  36
ENDBRANCH   1  35
TORSDOF 18
ENDMDL
