MODEL 1
REMARK VINA RESULT:     -11.9      0.000      0.000
REMARK SMILES O=C(C[C@H](Cc1ccc(Cl)cc1)C(=O)Nc1cc(Cl)ccc1Cl)NCCCCNC(=O)c1ccc(-c2c3nc(c(-c4cc(S(=O)(=O)[O-])ccc4F)c4ccc([nH]4)c(-c4cc(S(=O)(=O)[O-])ccc4F)c4nc(c(-c5cc(S(=O)(=O)[O-])ccc5F)c5ccc2[nH]5)C=C4)C=C3)cc1
REMARK SMILES IDX 26 1 25 2 24 3 1 4 2 5 3 7 4 8 13 9 14 10 15 11 16 13 17 14
REMARK SMILES IDX 22 15 18 16 21 17 23 18 19 19 20 20 5 21 6 22 7 23 12 24
REMARK SMILES IDX 8 25 11 26 9 27 10 28 27 29 28 30 29 31 30 32 31 34 32 35
REMARK SMILES IDX 33 36 94 37 34 38 93 39 35 40 36 41 37 42 87 43 38 44 92 45
REMARK SMILES IDX 86 46 88 47 39 48 91 49 85 50 84 51 40 53 72 54 52 55 71 56
REMARK SMILES IDX 53 57 56 58 70 59 89 60 54 61 55 62 69 64 90 65 57 66 41 67
REMARK SMILES IDX 42 68 50 69 43 70 49 71 51 72 48 73 44 74 45 75 46 76 47 77
REMARK SMILES IDX 73 78 74 79 82 80 75 81 81 82 83 83 80 84 76 85 77 86 78 87
REMARK SMILES IDX 79 88 58 89 59 90 67 91 60 92 66 93 68 94 65 95 61 96 62 97
REMARK SMILES IDX 63 98 64 99
REMARK H PARENT 24 6 15 12 29 33 88 52 56 63
REMARK Flexibility Score: inf
ROOT
ATOM      1  C   UNL A   1      36.941  20.984  24.585  1.00  0.00     0.023 C 
ENDROOT
BRANCH   1   2
ATOM      2  C   UNL A   1      36.993  22.328  25.310  1.00  0.00     0.116 C 
BRANCH   2   3
ATOM      3  N   UNL A   1      35.819  23.136  25.040  1.00  0.00    -0.356 N 
ATOM      4  O   UNL A   1      36.418  23.525  22.877  1.00  0.00    -0.275 OA
ATOM      5  C   UNL A   1      35.628  23.688  23.804  1.00  0.00     0.220 C 
ATOM      6  H   UNL A   1      35.157  23.289  25.752  1.00  0.00     0.163 HD
BRANCH   5   7
ATOM      7  C   UNL A   1      34.433  24.598  23.661  1.00  0.00     0.113 C 
BRANCH   7   8
ATOM      8  C   UNL A   1      33.219  24.133  22.824  1.00  0.00     0.092 C 
BRANCH   8   9
ATOM      9  C   UNL A   1      32.782  25.440  21.980  1.00  0.00     0.228 C 
ATOM     10  O   UNL A   1      33.278  25.614  20.861  1.00  0.00    -0.274 OA
ATOM     11  N   UNL A   1      31.735  26.290  22.371  1.00  0.00    -0.324 N 
ATOM     12  H   UNL A   1      31.136  26.636  21.671  1.00  0.00     0.169 HD
BRANCH  11  13
ATOM     13  C   UNL A   1      31.487  26.681  23.699  1.00  0.00     0.061 A 
ATOM     14  C   UNL A   1      31.930  28.334  23.952  1.00  0.00     0.048 A 
ATOM     15  C   UNL A   1      31.018  25.753  25.100  1.00  0.00     0.064 A 
ATOM     16  C   UNL A   1      32.050  29.161  25.788  1.00  0.00     0.043 A 
ATOM     17  C   UNL A   1      31.046  26.409  26.778  1.00  0.00     0.024 A 
ATOM     18  Cl  UNL A   1      30.651  24.079  24.896  1.00  0.00    -0.082 Cl
ATOM     19  Cl  UNL A   1      32.518  30.748  26.493  1.00  0.00    -0.084 Cl
ATOM     20  C   UNL A   1      31.550  28.082  27.165  1.00  0.00     0.022 A 
ENDBRANCH  11  13
ENDBRANCH   8   9
BRANCH   8  21
ATOM     21  C   UNL A   1      33.132  22.581  22.283  1.00  0.00     0.049 C 
BRANCH  21  22
ATOM     22  C   UNL A   1      32.094  21.475  22.973  1.00  0.00    -0.047 A 
ATOM     23  C   UNL A   1      32.799  21.273  24.554  1.00  0.00     0.005 A 
ATOM     24  C   UNL A   1      31.779  20.092  21.853  1.00  0.00     0.005 A 
ATOM     25  C   UNL A   1      33.571  19.721  24.937  1.00  0.00     0.021 A 
ATOM     26  C   UNL A   1      32.421  18.454  22.145  1.00  0.00     0.021 A 
ATOM     27  C   UNL A   1      33.406  18.167  23.647  1.00  0.00     0.041 A 
ATOM     28  Cl  UNL A   1      33.980  16.447  23.502  1.00  0.00    -0.084 Cl
ENDBRANCH  21  22
ENDBRANCH   8  21
ENDBRANCH   7   8
ENDBRANCH   5   7
ENDBRANCH   2   3
ENDBRANCH   1   2
BRANCH   1  29
ATOM     29  C   UNL A   1      37.852  19.912  25.186  1.00  0.00     0.023 C 
BRANCH  29  30
ATOM     30  C   UNL A   1      39.163  20.437  25.755  1.00  0.00     0.116 C 
BRANCH  30  31
ATOM     31  N   UNL A   1      40.149  19.385  25.944  1.00  0.00    -0.352 N 
ATOM     32  C   UNL A   1      41.500  19.501  26.167  1.00  0.00     0.251 C 
ATOM     33  H   UNL A   1      39.800  18.465  25.908  1.00  0.00     0.163 HD
ATOM     34  O   UNL A   1      42.214  18.504  26.115  1.00  0.00    -0.269 OA
BRANCH  32  35
ATOM     35  C   UNL A   1      42.087  20.834  26.432  1.00  0.00     0.039 A 
ATOM     36  C   UNL A   1      42.215  21.738  25.376  1.00  0.00     0.014 A 
ATOM     37  C   UNL A   1      42.484  21.200  27.722  1.00  0.00     0.014 A 
ATOM     38  C   UNL A   1      42.677  23.031  25.628  1.00  0.00     0.010 A 
ATOM     39  C   UNL A   1      42.854  22.516  27.985  1.00  0.00     0.010 A 
ATOM     40  C   UNL A   1      42.957  23.447  26.941  1.00  0.00    -0.014 A 
BRANCH  40  41
ATOM     41  C   UNL A   1      43.356  24.851  27.233  1.00  0.00     0.031 A 
ATOM     42  C   UNL A   1      42.382  25.798  27.878  1.00  0.00     0.074 A 
ATOM     43  C   UNL A   1      44.584  25.283  26.881  1.00  0.00     0.049 A 
ATOM     44  N   UNL A   1      42.527  27.067  28.161  1.00  0.00    -0.248 NA
ATOM     45  C   UNL A   1      41.060  25.254  28.229  1.00  0.00     0.031 C 
ATOM     46  C   UNL A   1      45.608  24.469  26.221  1.00  0.00     0.029 A 
ATOM     47  N   UNL A   1      45.184  26.511  27.025  1.00  0.00    -0.354 N 
ATOM     48  C   UNL A   1      41.321  27.472  28.724  1.00  0.00     0.074 A 
ATOM     49  C   UNL A   1      40.432  26.331  28.671  1.00  0.00     0.031 C 
ATOM     50  C   UNL A   1      46.717  25.206  26.054  1.00  0.00     0.029 A 
ATOM     51  C   UNL A   1      46.466  26.564  26.528  1.00  0.00     0.049 A 
ATOM     52  H   UNL A   1      44.736  27.282  27.444  1.00  0.00     0.167 HD
ATOM     53  C   UNL A   1      40.996  28.675  29.257  1.00  0.00     0.034 A 
ATOM     54  C   UNL A   1      47.336  27.591  26.443  1.00  0.00     0.034 A 
ATOM     55  C   UNL A   1      41.892  29.805  29.295  1.00  0.00     0.049 A 
ATOM     56  C   UNL A   1      46.924  28.940  26.978  1.00  0.00     0.074 A 
ATOM     57  C   UNL A   1      41.672  31.057  29.842  1.00  0.00     0.029 A 
ATOM     58  N   UNL A   1      43.170  29.830  28.753  1.00  0.00    -0.354 N 
ATOM     59  N   UNL A   1      45.792  29.293  27.544  1.00  0.00    -0.248 NA
ATOM     60  C   UNL A   1      47.906  30.026  26.870  1.00  0.00     0.031 C 
ATOM     61  C   UNL A   1      42.773  31.865  29.545  1.00  0.00     0.029 A 
ATOM     62  C   UNL A   1      43.731  31.088  28.913  1.00  0.00     0.049 A 
ATOM     63  H   UNL A   1      43.614  29.066  28.317  1.00  0.00     0.167 HD
ATOM     64  C   UNL A   1      45.945  30.633  27.892  1.00  0.00     0.074 A 
ATOM     65  C   UNL A   1      47.281  31.017  27.487  1.00  0.00     0.031 C 
ATOM     66  C   UNL A   1      45.062  31.468  28.498  1.00  0.00     0.034 A 
BRANCH  53  67
ATOM     67  C   UNL A   1      39.602  28.837  29.815  1.00  0.00     0.023 A 
ATOM     68  C   UNL A   1      38.535  29.290  29.019  1.00  0.00     0.031 A 
ATOM     69  C   UNL A   1      39.334  28.546  31.165  1.00  0.00     0.131 A 
ATOM     70  C   UNL A   1      37.275  29.513  29.595  1.00  0.00     0.055 A 
ATOM     71  C   UNL A   1      38.055  28.678  31.709  1.00  0.00     0.041 A 
ATOM     72  F   UNL A   1      40.317  28.135  31.984  1.00  0.00    -0.206 F 
ATOM     73  C   UNL A   1      37.020  29.178  30.927  1.00  0.00     0.022 A 
BRANCH  70  74
ATOM     74  S   UNL A   1      36.027  30.398  28.623  1.00  0.00     0.124 S 
ATOM     75  O   UNL A   1      35.404  31.239  29.642  1.00  0.00    -0.237 OA
ATOM     76  O   UNL A   1      36.835  31.091  27.626  1.00  0.00    -0.237 OA
ATOM     77  O   UNL A   1      35.176  29.328  28.105  1.00  0.00    -0.744 OA
ENDBRANCH  70  74
ENDBRANCH  53  67
BRANCH  54  78
ATOM     78  C   UNL A   1      48.670  27.402  25.798  1.00  0.00     0.023 A 
ATOM     79  C   UNL A   1      48.859  27.645  24.428  1.00  0.00     0.031 A 
ATOM     80  C   UNL A   1      49.765  26.915  26.536  1.00  0.00     0.131 A 
ATOM     81  C   UNL A   1      50.094  27.344  23.828  1.00  0.00     0.055 A 
ATOM     82  C   UNL A   1      51.011  26.690  25.949  1.00  0.00     0.041 A 
ATOM     83  F   UNL A   1      49.641  26.657  27.848  1.00  0.00    -0.206 F 
ATOM     84  C   UNL A   1      51.176  26.889  24.583  1.00  0.00     0.022 A 
BRANCH  81  85
ATOM     85  S   UNL A   1      50.226  27.438  22.021  1.00  0.00     0.124 S 
ATOM     86  O   UNL A   1      48.996  26.778  21.601  1.00  0.00    -0.237 OA
ATOM     87  O   UNL A   1      50.292  28.878  21.796  1.00  0.00    -0.237 OA
ATOM     88  O   UNL A   1      51.459  26.708  21.733  1.00  0.00    -0.744 OA
ENDBRANCH  81  85
ENDBRANCH  54  78
BRANCH  66  89
ATOM     89  C   UNL A   1      45.533  32.868  28.814  1.00  0.00     0.023 A 
ATOM     90  C   UNL A   1      45.336  33.940  27.927  1.00  0.00     0.031 A 
ATOM     91  C   UNL A   1      46.199  33.131  30.026  1.00  0.00     0.131 A 
ATOM     92  C   UNL A   1      45.853  35.207  28.234  1.00  0.00     0.055 A 
ATOM     93  C   UNL A   1      46.640  34.412  30.363  1.00  0.00     0.041 A 
ATOM     94  F   UNL A   1      46.427  32.146  30.909  1.00  0.00    -0.206 F 
ATOM     95  C   UNL A   1      46.481  35.456  29.458  1.00  0.00     0.022 A 
BRANCH  92  96
ATOM     96  S   UNL A   1      45.806  36.498  26.962  1.00  0.00     0.124 S 
ATOM     97  O   UNL A   1      46.383  35.809  25.813  1.00  0.00    -0.237 OA
ATOM     98  O   UNL A   1      44.381  36.800  26.875  1.00  0.00    -0.237 OA
ATOM     99  O   UNL A   1      46.632  37.566  27.526  1.00  0.00    -0.744 OA
ENDBRANCH  92  96
ENDBRANCH  66  89
ENDBRANCH  40  41
ENDBRANCH  32  35
ENDBRANCH  30  31
ENDBRANCH  29  30
ENDBRANCH   1  29
TORSDOF 19
ENDMDL
MODEL 2
REMARK VINA RESULT:     -11.7      1.767      7.536
REMARK SMILES O=C(C[C@H](Cc1ccc(Cl)cc1)C(=O)Nc1cc(Cl)ccc1Cl)NCCCCNC(=O)c1ccc(-c2c3nc(c(-c4cc(S(=O)(=O)[O-])ccc4F)c4ccc([nH]4)c(-c4cc(S(=O)(=O)[O-])ccc4F)c4nc(c(-c5cc(S(=O)(=O)[O-])ccc5F)c5ccc2[nH]5)C=C4)C=C3)cc1
REMARK SMILES IDX 26 1 25 2 24 3 1 4 2 5 3 7 4 8 13 9 14 10 15 11 16 13 17 14
REMARK SMILES IDX 22 15 18 16 21 17 23 18 19 19 20 20 5 21 6 22 7 23 12 24
REMARK SMILES IDX 8 25 11 26 9 27 10 28 27 29 28 30 29 31 30 32 31 34 32 35
REMARK SMILES IDX 33 36 94 37 34 38 93 39 35 40 36 41 37 42 87 43 38 44 92 45
REMARK SMILES IDX 86 46 88 47 39 48 91 49 85 50 84 51 40 53 72 54 52 55 71 56
REMARK SMILES IDX 53 57 56 58 70 59 89 60 54 61 55 62 69 64 90 65 57 66 41 67
REMARK SMILES IDX 42 68 50 69 43 70 49 71 51 72 48 73 44 74 45 75 46 76 47 77
REMARK SMILES IDX 73 78 74 79 82 80 75 81 81 82 83 83 80 84 76 85 77 86 78 87
REMARK SMILES IDX 79 88 58 89 59 90 67 91 60 92 66 93 68 94 65 95 61 96 62 97
REMARK SMILES IDX 63 98 64 99
REMARK H PARENT 24 6 15 12 29 33 88 52 56 63
REMARK Flexibility Score: inf
ROOT
ATOM      1  C   UNL A   1      36.008  20.649  25.186  1.00  0.00     0.023 C 
ENDROOT
BRANCH   1   2
ATOM      2  C   UNL A   1      36.025  21.940  26.004  1.00  0.00     0.116 C 
BRANCH   2   3
ATOM      3  N   UNL A   1      35.067  22.910  25.507  1.00  0.00    -0.356 N 
ATOM      4  O   UNL A   1      36.503  23.725  23.939  1.00  0.00    -0.275 OA
ATOM      5  C   UNL A   1      35.402  23.752  24.484  1.00  0.00     0.220 C 
ATOM      6  H   UNL A   1      34.170  22.962  25.911  1.00  0.00     0.163 HD
BRANCH   5   7
ATOM      7  C   UNL A   1      34.373  24.792  24.117  1.00  0.00     0.113 C 
BRANCH   7   8
ATOM      8  C   UNL A   1      33.291  24.454  23.066  1.00  0.00     0.092 C 
BRANCH   8   9
ATOM      9  C   UNL A   1      33.095  25.822  22.228  1.00  0.00     0.228 C 
ATOM     10  O   UNL A   1      33.656  25.928  21.132  1.00  0.00    -0.274 OA
ATOM     11  N   UNL A   1      32.178  26.820  22.594  1.00  0.00    -0.324 N 
ATOM     12  H   UNL A   1      31.667  27.261  21.877  1.00  0.00     0.169 HD
BRANCH  11  13
ATOM     13  C   UNL A   1      31.940  27.230  23.917  1.00  0.00     0.061 A 
ATOM     14  C   UNL A   1      32.824  28.671  24.288  1.00  0.00     0.048 A 
ATOM     15  C   UNL A   1      31.101  26.444  25.230  1.00  0.00     0.064 A 
ATOM     16  C   UNL A   1      33.020  29.375  26.167  1.00  0.00     0.043 A 
ATOM     17  C   UNL A   1      31.174  27.017  26.937  1.00  0.00     0.024 A 
ATOM     18  Cl  UNL A   1      30.280  24.960  24.913  1.00  0.00    -0.082 Cl
ATOM     19  Cl  UNL A   1      33.869  30.734  26.986  1.00  0.00    -0.084 Cl
ATOM     20  C   UNL A   1      32.110  28.455  27.446  1.00  0.00     0.022 A 
ENDBRANCH  11  13
ENDBRANCH   8   9
BRANCH   8  21
ATOM     21  C   UNL A   1      33.191  22.935  22.441  1.00  0.00     0.049 C 
BRANCH  21  22
ATOM     22  C   UNL A   1      31.912  21.928  22.798  1.00  0.00    -0.047 A 
ATOM     23  C   UNL A   1      32.095  21.728  24.520  1.00  0.00     0.005 A 
ATOM     24  C   UNL A   1      31.839  20.535  21.649  1.00  0.00     0.005 A 
ATOM     25  C   UNL A   1      32.595  20.139  25.132  1.00  0.00     0.021 A 
ATOM     26  C   UNL A   1      32.236  18.866  22.137  1.00  0.00     0.021 A 
ATOM     27  C   UNL A   1      32.703  18.559  23.869  1.00  0.00     0.041 A 
ATOM     28  Cl  UNL A   1      33.159  16.799  23.920  1.00  0.00    -0.084 Cl
ENDBRANCH  21  22
ENDBRANCH   8  21
ENDBRANCH   7   8
ENDBRANCH   5   7
ENDBRANCH   2   3
ENDBRANCH   1   2
BRANCH   1  29
ATOM     29  C   UNL A   1      37.396  20.103  24.849  1.00  0.00     0.023 C 
BRANCH  29  30
ATOM     30  C   UNL A   1      38.554  20.891  25.449  1.00  0.00     0.116 C 
BRANCH  30  31
ATOM     31  N   UNL A   1      39.520  20.037  26.119  1.00  0.00    -0.352 N 
ATOM     32  C   UNL A   1      40.646  20.396  26.822  1.00  0.00     0.251 C 
ATOM     33  H   UNL A   1      39.344  19.069  26.064  1.00  0.00     0.163 HD
ATOM     34  O   UNL A   1      41.453  19.536  27.162  1.00  0.00    -0.269 OA
BRANCH  32  35
ATOM     35  C   UNL A   1      40.893  21.823  27.129  1.00  0.00     0.039 A 
ATOM     36  C   UNL A   1      41.598  22.152  28.288  1.00  0.00     0.014 A 
ATOM     37  C   UNL A   1      40.455  22.830  26.263  1.00  0.00     0.014 A 
ATOM     38  C   UNL A   1      41.922  23.486  28.541  1.00  0.00     0.010 A 
ATOM     39  C   UNL A   1      40.860  24.146  26.471  1.00  0.00     0.010 A 
ATOM     40  C   UNL A   1      41.596  24.490  27.613  1.00  0.00    -0.014 A 
BRANCH  40  41
ATOM     41  C   UNL A   1      42.022  25.900  27.827  1.00  0.00     0.031 A 
ATOM     42  C   UNL A   1      43.355  26.376  27.314  1.00  0.00     0.074 A 
ATOM     43  C   UNL A   1      41.226  26.742  28.516  1.00  0.00     0.049 A 
ATOM     44  N   UNL A   1      43.920  27.548  27.449  1.00  0.00    -0.248 NA
ATOM     45  C   UNL A   1      44.169  25.398  26.576  1.00  0.00     0.031 C 
ATOM     46  C   UNL A   1      39.924  26.391  29.090  1.00  0.00     0.029 A 
ATOM     47  N   UNL A   1      41.388  28.063  28.855  1.00  0.00    -0.354 N 
ATOM     48  C   UNL A   1      45.153  27.451  26.811  1.00  0.00     0.074 A 
ATOM     49  C   UNL A   1      45.281  26.082  26.357  1.00  0.00     0.031 C 
ATOM     50  C   UNL A   1      39.393  27.476  29.673  1.00  0.00     0.029 A 
ATOM     51  C   UNL A   1      40.339  28.583  29.579  1.00  0.00     0.049 A 
ATOM     52  H   UNL A   1      42.181  28.589  28.603  1.00  0.00     0.167 HD
ATOM     53  C   UNL A   1      46.078  28.419  26.601  1.00  0.00     0.034 A 
ATOM     54  C   UNL A   1      40.165  29.804  30.125  1.00  0.00     0.034 A 
ATOM     55  C   UNL A   1      45.939  29.777  27.067  1.00  0.00     0.049 A 
ATOM     56  C   UNL A   1      41.243  30.844  29.940  1.00  0.00     0.074 A 
ATOM     57  C   UNL A   1      46.802  30.842  26.879  1.00  0.00     0.029 A 
ATOM     58  N   UNL A   1      44.878  30.256  27.825  1.00  0.00    -0.354 N 
ATOM     59  N   UNL A   1      42.385  30.744  29.298  1.00  0.00    -0.248 NA
ATOM     60  C   UNL A   1      41.007  32.160  30.546  1.00  0.00     0.031 C 
ATOM     61  C   UNL A   1      46.315  31.934  27.603  1.00  0.00     0.029 A 
ATOM     62  C   UNL A   1      45.090  31.588  28.150  1.00  0.00     0.049 A 
ATOM     63  H   UNL A   1      44.092  29.729  28.094  1.00  0.00     0.167 HD
ATOM     64  C   UNL A   1      42.983  31.999  29.393  1.00  0.00     0.074 A 
ATOM     65  C   UNL A   1      42.070  32.838  30.139  1.00  0.00     0.031 C 
ATOM     66  C   UNL A   1      44.177  32.419  28.902  1.00  0.00     0.034 A 
BRANCH  53  67
ATOM     67  C   UNL A   1      47.337  28.033  25.861  1.00  0.00     0.023 A 
ATOM     68  C   UNL A   1      47.446  28.172  24.466  1.00  0.00     0.031 A 
ATOM     69  C   UNL A   1      48.441  27.506  26.555  1.00  0.00     0.131 A 
ATOM     70  C   UNL A   1      48.596  27.719  23.804  1.00  0.00     0.055 A 
ATOM     71  C   UNL A   1      49.621  27.146  25.901  1.00  0.00     0.041 A 
ATOM     72  F   UNL A   1      48.389  27.324  27.885  1.00  0.00    -0.206 F 
ATOM     73  C   UNL A   1      49.698  27.238  24.515  1.00  0.00     0.022 A 
BRANCH  70  74
ATOM     74  S   UNL A   1      48.566  27.616  21.994  1.00  0.00     0.124 S 
ATOM     75  O   UNL A   1      49.676  28.494  21.631  1.00  0.00    -0.237 OA
ATOM     76  O   UNL A   1      48.771  26.192  21.755  1.00  0.00    -0.237 OA
ATOM     77  O   UNL A   1      47.241  28.125  21.645  1.00  0.00    -0.744 OA
ENDBRANCH  70  74
ENDBRANCH  53  67
BRANCH  54  78
ATOM     78  C   UNL A   1      38.942  30.108  30.927  1.00  0.00     0.023 A 
ATOM     79  C   UNL A   1      37.945  30.968  30.439  1.00  0.00     0.031 A 
ATOM     80  C   UNL A   1      38.784  29.589  32.225  1.00  0.00     0.131 A 
ATOM     81  C   UNL A   1      36.866  31.327  31.264  1.00  0.00     0.055 A 
ATOM     82  C   UNL A   1      37.672  29.890  33.012  1.00  0.00     0.041 A 
ATOM     83  F   UNL A   1      39.709  28.768  32.746  1.00  0.00    -0.206 F 
ATOM     84  C   UNL A   1      36.712  30.778  32.538  1.00  0.00     0.022 A 
BRANCH  81  85
ATOM     85  S   UNL A   1      35.733  32.624  30.694  1.00  0.00     0.124 S 
ATOM     86  O   UNL A   1      36.378  33.826  31.208  1.00  0.00    -0.237 OA
ATOM     87  O   UNL A   1      35.768  32.443  29.247  1.00  0.00    -0.237 OA
ATOM     88  O   UNL A   1      34.466  32.271  31.333  1.00  0.00    -0.744 OA
ENDBRANCH  81  85
ENDBRANCH  54  78
BRANCH  66  89
ATOM     89  C   UNL A   1      44.541  33.871  29.106  1.00  0.00     0.023 A 
ATOM     90  C   UNL A   1      45.204  34.320  30.261  1.00  0.00     0.031 A 
ATOM     91  C   UNL A   1      44.210  34.824  28.125  1.00  0.00     0.131 A 
ATOM     92  C   UNL A   1      45.458  35.688  30.434  1.00  0.00     0.055 A 
ATOM     93  C   UNL A   1      44.537  36.174  28.267  1.00  0.00     0.041 A 
ATOM     94  F   UNL A   1      43.566  34.459  27.005  1.00  0.00    -0.206 F 
ATOM     95  C   UNL A   1      45.152  36.615  29.434  1.00  0.00     0.022 A 
BRANCH  92  96
ATOM     96  S   UNL A   1      46.080  36.261  32.039  1.00  0.00     0.124 S 
ATOM     97  O   UNL A   1      46.316  35.002  32.737  1.00  0.00    -0.237 OA
ATOM     98  O   UNL A   1      47.271  37.015  31.661  1.00  0.00    -0.237 OA
ATOM     99  O   UNL A   1      44.979  37.066  32.566  1.00  0.00    -0.744 OA
ENDBRANCH  92  96
ENDBRANCH  66  89
ENDBRANCH  40  41
ENDBRANCH  32  35
ENDBRANCH  30  31
ENDBRANCH  29  30
ENDBRANCH   1  29
TORSDOF 19
ENDMDL
MODEL 3
REMARK VINA RESULT:     -11.6      5.980     11.459
REMARK SMILES O=C(C[C@H](Cc1ccc(Cl)cc1)C(=O)Nc1cc(Cl)ccc1Cl)NCCCCNC(=O)c1ccc(-c2c3nc(c(-c4cc(S(=O)(=O)[O-])ccc4F)c4ccc([nH]4)c(-c4cc(S(=O)(=O)[O-])ccc4F)c4nc(c(-c5cc(S(=O)(=O)[O-])ccc5F)c5ccc2[nH]5)C=C4)C=C3)cc1
REMARK SMILES IDX 26 1 25 2 24 3 1 4 2 5 3 7 4 8 13 9 14 10 15 11 16 13 17 14
REMARK SMILES IDX 22 15 18 16 21 17 23 18 19 19 20 20 5 21 6 22 7 23 12 24
REMARK SMILES IDX 8 25 11 26 9 27 10 28 27 29 28 30 29 31 30 32 31 34 32 35
REMARK SMILES IDX 33 36 94 37 34 38 93 39 35 40 36 41 37 42 87 43 38 44 92 45
REMARK SMILES IDX 86 46 88 47 39 48 91 49 85 50 84 51 40 53 72 54 52 55 71 56
REMARK SMILES IDX 53 57 56 58 70 59 89 60 54 61 55 62 69 64 90 65 57 66 41 67
REMARK SMILES IDX 42 68 50 69 43 70 49 71 51 72 48 73 44 74 45 75 46 76 47 77
REMARK SMILES IDX 73 78 74 79 82 80 75 81 81 82 83 83 80 84 76 85 77 86 78 87
REMARK SMILES IDX 79 88 58 89 59 90 67 91 60 92 66 93 68 94 65 95 61 96 62 97
REMARK SMILES IDX 63 98 64 99
REMARK H PARENT 24 6 15 12 29 33 88 52 56 63
REMARK Flexibility Score: inf
ROOT
ATOM      1  C   UNL A   1      31.426  30.673  25.832  1.00  0.00     0.023 C 
ENDROOT
BRANCH   1   2
ATOM      2  C   UNL A   1      32.309  29.601  26.470  1.00  0.00     0.116 C 
BRANCH   2   3
ATOM      3  N   UNL A   1      31.686  28.291  26.433  1.00  0.00    -0.356 N 
ATOM      4  O   UNL A   1      33.679  27.200  26.270  1.00  0.00    -0.275 OA
ATOM      5  C   UNL A   1      32.452  27.163  26.329  1.00  0.00     0.220 C 
ATOM      6  H   UNL A   1      30.706  28.215  26.483  1.00  0.00     0.163 HD
BRANCH   5   7
ATOM      7  C   UNL A   1      31.701  25.862  26.190  1.00  0.00     0.113 C 
BRANCH   7   8
ATOM      8  C   UNL A   1      32.465  24.584  25.773  1.00  0.00     0.092 C 
BRANCH   8   9
ATOM      9  C   UNL A   1      31.782  23.402  26.638  1.00  0.00     0.228 C 
ATOM     10  O   UNL A   1      31.033  23.711  27.572  1.00  0.00    -0.274 OA
ATOM     11  N   UNL A   1      31.848  22.049  26.271  1.00  0.00    -0.324 N 
ATOM     12  H   UNL A   1      31.039  21.499  26.390  1.00  0.00     0.169 HD
BRANCH  11  13
ATOM     13  C   UNL A   1      32.993  21.426  25.745  1.00  0.00     0.061 A 
ATOM     14  C   UNL A   1      32.576  19.986  24.882  1.00  0.00     0.048 A 
ATOM     15  C   UNL A   1      34.691  21.753  25.986  1.00  0.00     0.064 A 
ATOM     16  C   UNL A   1      33.951  18.639  24.281  1.00  0.00     0.043 A 
ATOM     17  C   UNL A   1      36.000  20.637  25.450  1.00  0.00     0.024 A 
ATOM     18  Cl  UNL A   1      35.140  23.135  26.915  1.00  0.00    -0.082 Cl
ATOM     19  Cl  UNL A   1      33.961  17.040  23.456  1.00  0.00    -0.084 Cl
ATOM     20  C   UNL A   1      35.683  19.090  24.608  1.00  0.00     0.022 A 
ENDBRANCH  11  13
ENDBRANCH   8   9
BRANCH   8  21
ATOM     21  C   UNL A   1      33.042  24.428  24.240  1.00  0.00     0.049 C 
BRANCH  21  22
ATOM     22  C   UNL A   1      32.134  24.882  22.918  1.00  0.00    -0.047 A 
ATOM     23  C   UNL A   1      33.006  26.285  22.360  1.00  0.00     0.005 A 
ATOM     24  C   UNL A   1      30.372  24.915  23.320  1.00  0.00     0.005 A 
ATOM     25  C   UNL A   1      32.240  27.876  22.541  1.00  0.00     0.021 A 
ATOM     26  C   UNL A   1      29.447  26.433  23.458  1.00  0.00     0.021 A 
ATOM     27  C   UNL A   1      30.312  28.005  23.152  1.00  0.00     0.041 A 
ATOM     28  Cl  UNL A   1      29.082  29.291  23.527  1.00  0.00    -0.084 Cl
ENDBRANCH  21  22
ENDBRANCH   8  21
ENDBRANCH   7   8
ENDBRANCH   5   7
ENDBRANCH   2   3
ENDBRANCH   1   2
BRANCH   1  29
ATOM     29  C   UNL A   1      31.361  31.981  26.621  1.00  0.00     0.023 C 
BRANCH  29  30
ATOM     30  C   UNL A   1      32.690  32.438  27.208  1.00  0.00     0.116 C 
BRANCH  30  31
ATOM     31  N   UNL A   1      32.646  33.813  27.679  1.00  0.00    -0.352 N 
ATOM     32  C   UNL A   1      33.411  34.414  28.651  1.00  0.00     0.251 C 
ATOM     33  H   UNL A   1      31.979  34.392  27.244  1.00  0.00     0.163 HD
ATOM     34  O   UNL A   1      33.113  35.534  29.055  1.00  0.00    -0.269 OA
BRANCH  32  35
ATOM     35  C   UNL A   1      34.567  33.690  29.225  1.00  0.00     0.039 A 
ATOM     36  C   UNL A   1      35.856  34.143  28.942  1.00  0.00     0.014 A 
ATOM     37  C   UNL A   1      34.378  32.587  30.063  1.00  0.00     0.014 A 
ATOM     38  C   UNL A   1      36.952  33.530  29.554  1.00  0.00     0.010 A 
ATOM     39  C   UNL A   1      35.464  32.040  30.743  1.00  0.00     0.010 A 
ATOM     40  C   UNL A   1      36.763  32.503  30.495  1.00  0.00    -0.014 A 
BRANCH  40  41
ATOM     41  C   UNL A   1      37.917  31.910  31.225  1.00  0.00     0.031 A 
ATOM     42  C   UNL A   1      38.731  30.813  30.594  1.00  0.00     0.074 A 
ATOM     43  C   UNL A   1      38.206  32.332  32.472  1.00  0.00     0.049 A 
ATOM     44  N   UNL A   1      39.736  30.139  31.093  1.00  0.00    -0.248 NA
ATOM     45  C   UNL A   1      38.351  30.403  29.233  1.00  0.00     0.031 C 
ATOM     46  C   UNL A   1      37.473  33.368  33.204  1.00  0.00     0.029 A 
ATOM     47  N   UNL A   1      39.192  31.948  33.349  1.00  0.00    -0.354 N 
ATOM     48  C   UNL A   1      40.108  29.229  30.110  1.00  0.00     0.074 A 
ATOM     49  C   UNL A   1      39.173  29.388  29.017  1.00  0.00     0.031 C 
ATOM     50  C   UNL A   1      38.054  33.561  34.397  1.00  0.00     0.029 A 
ATOM     51  C   UNL A   1      39.160  32.620  34.549  1.00  0.00     0.049 A 
ATOM     52  H   UNL A   1      39.859  31.255  33.137  1.00  0.00     0.167 HD
ATOM     53  C   UNL A   1      41.149  28.360  30.108  1.00  0.00     0.034 A 
ATOM     54  C   UNL A   1      39.918  32.483  35.657  1.00  0.00     0.034 A 
ATOM     55  C   UNL A   1      42.069  28.208  31.209  1.00  0.00     0.049 A 
ATOM     56  C   UNL A   1      41.025  31.457  35.658  1.00  0.00     0.074 A 
ATOM     57  C   UNL A   1      43.175  27.381  31.296  1.00  0.00     0.029 A 
ATOM     58  N   UNL A   1      41.983  28.882  32.420  1.00  0.00    -0.354 N 
ATOM     59  N   UNL A   1      41.387  30.633  34.701  1.00  0.00    -0.248 NA
ATOM     60  C   UNL A   1      41.828  31.348  36.882  1.00  0.00     0.031 C 
ATOM     61  C   UNL A   1      43.698  27.482  32.588  1.00  0.00     0.029 A 
ATOM     62  C   UNL A   1      42.990  28.456  33.274  1.00  0.00     0.049 A 
ATOM     63  H   UNL A   1      41.307  29.562  32.642  1.00  0.00     0.167 HD
ATOM     64  C   UNL A   1      42.486  29.936  35.199  1.00  0.00     0.074 A 
ATOM     65  C   UNL A   1      42.732  30.447  36.531  1.00  0.00     0.031 C 
ATOM     66  C   UNL A   1      43.226  28.965  34.606  1.00  0.00     0.034 A 
BRANCH  53  67
ATOM     67  C   UNL A   1      41.328  27.487  28.889  1.00  0.00     0.023 A 
ATOM     68  C   UNL A   1      42.338  27.737  27.942  1.00  0.00     0.031 A 
ATOM     69  C   UNL A   1      40.471  26.395  28.660  1.00  0.00     0.131 A 
ATOM     70  C   UNL A   1      42.416  26.959  26.778  1.00  0.00     0.055 A 
ATOM     71  C   UNL A   1      40.615  25.565  27.546  1.00  0.00     0.041 A 
ATOM     72  F   UNL A   1      39.471  26.121  29.513  1.00  0.00    -0.206 F 
ATOM     73  C   UNL A   1      41.582  25.854  26.589  1.00  0.00     0.022 A 
BRANCH  70  74
ATOM     74  S   UNL A   1      43.510  27.512  25.443  1.00  0.00     0.124 S 
ATOM     75  O   UNL A   1      42.548  27.851  24.397  1.00  0.00    -0.237 OA
ATOM     76  O   UNL A   1      44.214  28.633  26.054  1.00  0.00    -0.237 OA
ATOM     77  O   UNL A   1      44.331  26.335  25.164  1.00  0.00    -0.744 OA
ENDBRANCH  70  74
ENDBRANCH  53  67
BRANCH  54  78
ATOM     78  C   UNL A   1      39.642  33.307  36.871  1.00  0.00     0.023 A 
ATOM     79  C   UNL A   1      39.026  32.753  38.005  1.00  0.00     0.031 A 
ATOM     80  C   UNL A   1      39.936  34.683  36.890  1.00  0.00     0.131 A 
ATOM     81  C   UNL A   1      38.673  33.580  39.084  1.00  0.00     0.055 A 
ATOM     82  C   UNL A   1      39.650  35.486  37.995  1.00  0.00     0.041 A 
ATOM     83  F   UNL A   1      40.517  35.269  35.831  1.00  0.00    -0.206 F 
ATOM     84  C   UNL A   1      38.999  34.938  39.095  1.00  0.00     0.022 A 
BRANCH  81  85
ATOM     85  S   UNL A   1      37.665  32.880  40.420  1.00  0.00     0.124 S 
ATOM     86  O   UNL A   1      37.999  31.464  40.330  1.00  0.00    -0.237 OA
ATOM     87  O   UNL A   1      38.176  33.589  41.588  1.00  0.00    -0.237 OA
ATOM     88  O   UNL A   1      36.299  33.227  40.032  1.00  0.00    -0.744 OA
ENDBRANCH  81  85
ENDBRANCH  54  78
BRANCH  66  89
ATOM     89  C   UNL A   1      44.414  28.430  35.371  1.00  0.00     0.023 A 
ATOM     90  C   UNL A   1      44.321  27.297  36.198  1.00  0.00     0.031 A 
ATOM     91  C   UNL A   1      45.662  29.072  35.274  1.00  0.00     0.131 A 
ATOM     92  C   UNL A   1      45.434  26.881  36.942  1.00  0.00     0.055 A 
ATOM     93  C   UNL A   1      46.788  28.605  35.954  1.00  0.00     0.041 A 
ATOM     94  F   UNL A   1      45.812  30.165  34.508  1.00  0.00    -0.206 F 
ATOM     95  C   UNL A   1      46.674  27.512  36.806  1.00  0.00     0.022 A 
BRANCH  92  96
ATOM     96  S   UNL A   1      45.212  25.581  38.187  1.00  0.00     0.124 S 
ATOM     97  O   UNL A   1      43.998  24.921  37.720  1.00  0.00    -0.237 OA
ATOM     98  O   UNL A   1      46.446  24.812  38.059  1.00  0.00    -0.237 OA
ATOM     99  O   UNL A   1      45.073  26.324  39.439  1.00  0.00    -0.744 OA
ENDBRANCH  92  96
ENDBRANCH  66  89
ENDBRANCH  40  41
ENDBRANCH  32  35
ENDBRANCH  30  31
ENDBRANCH  29  30
ENDBRANCH   1  29
TORSDOF 19
ENDMDL
