MODEL 1
REMARK VINA RESULT:     -10.9      0.000      0.000
REMARK SMILES CC[N@@H+](C[C@@H](C)C(=O)NCCCCNC(=O)c1ccc(-c2c3nc(c(-c4cc(S(=O)(=O)[O-])ccc4F)c4ccc([nH]4)c(-c4cc(S(=O)(=O)[O-])ccc4F)c4nc(c(-c5cc(S(=O)(=O)[O-])ccc5F)c5ccc2[nH]5)C=C4)C=C3)cc1)[C@@H](C)c1ccoc1
REMARK SMILES IDX 11 1 10 2 9 3 7 4 8 5 5 7 6 8 4 9 3 10 2 12 1 13 80 14 81 15
REMARK SMILES IDX 82 16 83 17 86 18 84 19 85 20 12 21 13 22 14 23 15 24 16 26
REMARK SMILES IDX 17 27 18 28 79 29 19 30 78 31 20 32 21 33 22 34 72 35 23 36
REMARK SMILES IDX 77 37 71 38 73 39 24 40 76 41 70 42 69 43 25 45 57 46 37 47
REMARK SMILES IDX 56 48 38 49 41 50 55 51 74 52 39 53 40 54 54 56 75 57 42 58
REMARK SMILES IDX 26 59 27 60 35 61 28 62 34 63 36 64 33 65 29 66 30 67 31 68
REMARK SMILES IDX 32 69 58 70 59 71 67 72 60 73 66 74 68 75 65 76 61 77 62 78
REMARK SMILES IDX 63 79 64 80 43 81 44 82 52 83 45 84 51 85 53 86 50 87 46 88
REMARK SMILES IDX 47 89 48 90 49 91
REMARK H PARENT 9 6 3 11 14 25 73 44 41 55
REMARK Flexibility Score: inf
ROOT
ATOM      1  C   UNL A   1      31.846  30.407  25.865  1.00  0.00     0.023 C 
ENDROOT
BRANCH   1   2
ATOM      2  C   UNL A   1      32.768  29.214  25.649  1.00  0.00     0.116 C 
BRANCH   2   3
ATOM      3  N   UNL A   1      33.493  29.332  24.398  1.00  0.00    -0.356 N 
ATOM      4  C   UNL A   1      33.314  28.688  23.214  1.00  0.00     0.228 C 
ATOM      5  O   UNL A   1      34.095  28.941  22.292  1.00  0.00    -0.275 OA
ATOM      6  H   UNL A   1      34.232  29.983  24.407  1.00  0.00     0.163 HD
BRANCH   4   7
ATOM      7  C   UNL A   1      32.169  27.702  23.006  1.00  0.00     0.130 C 
ATOM      8  C   UNL A   1      32.668  26.533  22.149  1.00  0.00     0.024 C 
BRANCH   7   9
ATOM      9  C   UNL A   1      30.867  28.436  22.572  1.00  0.00     0.275 C 
BRANCH   9  10
ATOM     10  N   UNL A   1      29.612  28.214  23.357  1.00  0.00    -0.328 N 
ATOM     11  H   UNL A   1      29.656  28.662  24.272  1.00  0.00     0.348 HD
BRANCH  10  12
ATOM     12  C   UNL A   1      29.479  26.781  23.670  1.00  0.00     0.259 C 
ATOM     13  C   UNL A   1      29.851  26.362  25.082  1.00  0.00     0.071 C 
ENDBRANCH  10  12
BRANCH  10  14
ATOM     14  C   UNL A   1      28.458  28.914  22.757  1.00  0.00     0.215 C 
ATOM     15  C   UNL A   1      27.072  28.585  23.326  1.00  0.00     0.081 C 
BRANCH  14  16
ATOM     16  C   UNL A   1      28.657  30.413  22.665  1.00  0.00     0.047 A 
ATOM     17  C   UNL A   1      28.894  31.389  23.675  1.00  0.00     0.052 A 
ATOM     18  C   UNL A   1      28.513  31.156  21.502  1.00  0.00     0.204 A 
ATOM     19  C   UNL A   1      28.834  32.622  23.071  1.00  0.00     0.195 A 
ATOM     20  O   UNL A   1      28.608  32.486  21.743  1.00  0.00    -0.472 OA
ENDBRANCH  14  16
ENDBRANCH  10  14
ENDBRANCH   9  10
ENDBRANCH   7   9
ENDBRANCH   4   7
ENDBRANCH   2   3
ENDBRANCH   1   2
BRANCH   1  21
ATOM     21  C   UNL A   1      32.059  31.116  27.201  1.00  0.00     0.023 C 
BRANCH  21  22
ATOM     22  C   UNL A   1      33.205  32.124  27.214  1.00  0.00     0.116 C 
BRANCH  22  23
ATOM     23  N   UNL A   1      32.758  33.488  27.455  1.00  0.00    -0.352 N 
ATOM     24  C   UNL A   1      33.196  34.361  28.423  1.00  0.00     0.251 C 
ATOM     25  H   UNL A   1      32.056  33.827  26.852  1.00  0.00     0.163 HD
ATOM     26  O   UNL A   1      32.640  35.435  28.593  1.00  0.00    -0.269 OA
BRANCH  24  27
ATOM     27  C   UNL A   1      34.333  33.947  29.268  1.00  0.00     0.039 A 
ATOM     28  C   UNL A   1      34.099  33.108  30.359  1.00  0.00     0.014 A 
ATOM     29  C   UNL A   1      35.632  34.321  28.917  1.00  0.00     0.014 A 
ATOM     30  C   UNL A   1      35.184  32.591  31.068  1.00  0.00     0.010 A 
ATOM     31  C   UNL A   1      36.711  33.748  29.579  1.00  0.00     0.010 A 
ATOM     32  C   UNL A   1      36.497  32.880  30.663  1.00  0.00    -0.014 A 
BRANCH  32  33
ATOM     33  C   UNL A   1      37.672  32.318  31.374  1.00  0.00     0.031 A 
ATOM     34  C   UNL A   1      38.437  31.184  30.747  1.00  0.00     0.074 A 
ATOM     35  C   UNL A   1      38.000  32.767  32.601  1.00  0.00     0.049 A 
ATOM     36  N   UNL A   1      39.405  30.461  31.246  1.00  0.00    -0.248 NA
ATOM     37  C   UNL A   1      38.027  30.791  29.391  1.00  0.00     0.031 C 
ATOM     38  C   UNL A   1      37.310  33.840  33.322  1.00  0.00     0.029 A 
ATOM     39  N   UNL A   1      38.985  32.367  33.468  1.00  0.00    -0.354 N 
ATOM     40  C   UNL A   1      39.705  29.513  30.274  1.00  0.00     0.074 A 
ATOM     41  C   UNL A   1      38.771  29.716  29.186  1.00  0.00     0.031 C 
ATOM     42  C   UNL A   1      37.907  34.024  34.511  1.00  0.00     0.029 A 
ATOM     43  C   UNL A   1      38.987  33.054  34.661  1.00  0.00     0.049 A 
ATOM     44  H   UNL A   1      39.632  31.656  33.255  1.00  0.00     0.167 HD
ATOM     45  C   UNL A   1      40.684  28.575  30.279  1.00  0.00     0.034 A 
ATOM     46  C   UNL A   1      39.762  32.905  35.754  1.00  0.00     0.034 A 
ATOM     47  C   UNL A   1      41.616  28.402  31.364  1.00  0.00     0.049 A 
ATOM     48  C   UNL A   1      40.836  31.844  35.744  1.00  0.00     0.074 A 
ATOM     49  C   UNL A   1      42.676  27.518  31.459  1.00  0.00     0.029 A 
ATOM     50  N   UNL A   1      41.602  29.132  32.546  1.00  0.00    -0.354 N 
ATOM     51  N   UNL A   1      41.131  30.977  34.803  1.00  0.00    -0.248 NA
ATOM     52  C   UNL A   1      41.689  31.752  36.936  1.00  0.00     0.031 C 
ATOM     53  C   UNL A   1      43.262  27.669  32.721  1.00  0.00     0.029 A 
ATOM     54  C   UNL A   1      42.619  28.702  33.384  1.00  0.00     0.049 A 
ATOM     55  H   UNL A   1      40.961  29.849  32.759  1.00  0.00     0.167 HD
ATOM     56  C   UNL A   1      42.230  30.265  35.275  1.00  0.00     0.074 A 
ATOM     57  C   UNL A   1      42.546  30.806  36.581  1.00  0.00     0.031 C 
ATOM     58  C   UNL A   1      42.922  29.260  34.680  1.00  0.00     0.034 A 
BRANCH  45  59
ATOM     59  C   UNL A   1      40.769  27.657  29.082  1.00  0.00     0.023 A 
ATOM     60  C   UNL A   1      41.715  27.861  28.062  1.00  0.00     0.031 A 
ATOM     61  C   UNL A   1      39.868  26.588  28.937  1.00  0.00     0.131 A 
ATOM     62  C   UNL A   1      41.682  27.067  26.906  1.00  0.00     0.055 A 
ATOM     63  C   UNL A   1      39.898  25.745  27.825  1.00  0.00     0.041 A 
ATOM     64  F   UNL A   1      38.927  26.356  29.867  1.00  0.00    -0.206 F 
ATOM     65  C   UNL A   1      40.798  25.992  26.792  1.00  0.00     0.022 A 
BRANCH  62  66
ATOM     66  S   UNL A   1      42.706  27.557  25.492  1.00  0.00     0.124 S 
ATOM     67  O   UNL A   1      41.974  28.717  24.988  1.00  0.00    -0.237 OA
ATOM     68  O   UNL A   1      43.994  27.838  26.116  1.00  0.00    -0.237 OA
ATOM     69  O   UNL A   1      42.674  26.384  24.623  1.00  0.00    -0.744 OA
ENDBRANCH  62  66
ENDBRANCH  45  59
BRANCH  46  70
ATOM     70  C   UNL A   1      39.556  33.768  36.952  1.00  0.00     0.023 A 
ATOM     71  C   UNL A   1      38.950  33.260  38.112  1.00  0.00     0.031 A 
ATOM     72  C   UNL A   1      39.922  35.125  36.941  1.00  0.00     0.131 A 
ATOM     73  C   UNL A   1      38.681  34.115  39.194  1.00  0.00     0.055 A 
ATOM     74  C   UNL A   1      39.701  35.959  38.040  1.00  0.00     0.041 A 
ATOM     75  F   UNL A   1      40.512  35.661  35.860  1.00  0.00    -0.206 F 
ATOM     76  C   UNL A   1      39.063  35.457  39.169  1.00  0.00     0.022 A 
BRANCH  73  77
ATOM     77  S   UNL A   1      37.741  33.463  40.601  1.00  0.00     0.124 S 
ATOM     78  O   UNL A   1      38.632  32.418  41.095  1.00  0.00    -0.237 OA
ATOM     79  O   UNL A   1      37.604  34.644  41.446  1.00  0.00    -0.237 OA
ATOM     80  O   UNL A   1      36.501  32.988  39.990  1.00  0.00    -0.744 OA
ENDBRANCH  73  77
ENDBRANCH  46  70
BRANCH  58  81
ATOM     81  C   UNL A   1      44.134  28.732  35.407  1.00  0.00     0.023 A 
ATOM     82  C   UNL A   1      44.040  27.713  36.371  1.00  0.00     0.031 A 
ATOM     83  C   UNL A   1      45.407  29.257  35.117  1.00  0.00     0.131 A 
ATOM     84  C   UNL A   1      45.195  27.281  37.042  1.00  0.00     0.055 A 
ATOM     85  C   UNL A   1      46.557  28.785  35.748  1.00  0.00     0.041 A 
ATOM     86  F   UNL A   1      45.552  30.232  34.206  1.00  0.00    -0.206 F 
ATOM     87  C   UNL A   1      46.454  27.799  36.724  1.00  0.00     0.022 A 
BRANCH  84  88
ATOM     88  S   UNL A   1      45.022  26.082  38.391  1.00  0.00     0.124 S 
ATOM     89  O   UNL A   1      44.092  26.763  39.286  1.00  0.00    -0.237 OA
ATOM     90  O   UNL A   1      44.497  24.908  37.700  1.00  0.00    -0.237 OA
ATOM     91  O   UNL A   1      46.384  25.941  38.903  1.00  0.00    -0.744 OA
ENDBRANCH  84  88
ENDBRANCH  58  81
ENDBRANCH  32  33
ENDBRANCH  24  27
ENDBRANCH  22  23
ENDBRANCH  21  22
ENDBRANCH   1  21
TORSDOF 19
ENDMDL
MODEL 2
REMARK VINA RESULT:     -10.6      6.250     11.041
REMARK SMILES CC[N@@H+](C[C@@H](C)C(=O)NCCCCNC(=O)c1ccc(-c2c3nc(c(-c4cc(S(=O)(=O)[O-])ccc4F)c4ccc([nH]4)c(-c4cc(S(=O)(=O)[O-])ccc4F)c4nc(c(-c5cc(S(=O)(=O)[O-])ccc5F)c5ccc2[nH]5)C=C4)C=C3)cc1)[C@@H](C)c1ccoc1
REMARK SMILES IDX 11 1 10 2 9 3 7 4 8 5 5 7 6 8 4 9 3 10 2 12 1 13 80 14 81 15
REMARK SMILES IDX 82 16 83 17 86 18 84 19 85 20 12 21 13 22 14 23 15 24 16 26
REMARK SMILES IDX 17 27 18 28 79 29 19 30 78 31 20 32 21 33 22 34 72 35 23 36
REMARK SMILES IDX 77 37 71 38 73 39 24 40 76 41 70 42 69 43 25 45 57 46 37 47
REMARK SMILES IDX 56 48 38 49 41 50 55 51 74 52 39 53 40 54 54 56 75 57 42 58
REMARK SMILES IDX 26 59 27 60 35 61 28 62 34 63 36 64 33 65 29 66 30 67 31 68
REMARK SMILES IDX 32 69 58 70 59 71 67 72 60 73 66 74 68 75 65 76 61 77 62 78
REMARK SMILES IDX 63 79 64 80 43 81 44 82 52 83 45 84 51 85 53 86 50 87 46 88
REMARK SMILES IDX 47 89 48 90 49 91
REMARK H PARENT 9 6 3 11 14 25 73 44 41 55
REMARK Flexibility Score: inf
ROOT
ATOM      1  C   UNL A   1      42.523  19.785  26.907  1.00  0.00     0.023 C 
ENDROOT
BRANCH   1   2
ATOM      2  C   UNL A   1      42.728  18.447  26.207  1.00  0.00     0.116 C 
BRANCH   2   3
ATOM      3  N   UNL A   1      44.133  18.090  26.160  1.00  0.00    -0.356 N 
ATOM      4  C   UNL A   1      45.152  18.622  25.434  1.00  0.00     0.228 C 
ATOM      5  O   UNL A   1      46.270  18.113  25.544  1.00  0.00    -0.275 OA
ATOM      6  H   UNL A   1      44.390  17.343  26.748  1.00  0.00     0.163 HD
BRANCH   4   7
ATOM      7  C   UNL A   1      44.941  19.832  24.529  1.00  0.00     0.130 C 
ATOM      8  C   UNL A   1      45.057  19.386  23.066  1.00  0.00     0.024 C 
BRANCH   7   9
ATOM      9  C   UNL A   1      45.792  21.045  25.004  1.00  0.00     0.275 C 
BRANCH   9  10
ATOM     10  N   UNL A   1      45.094  22.281  25.478  1.00  0.00    -0.328 N 
ATOM     11  H   UNL A   1      44.257  22.058  26.017  1.00  0.00     0.348 HD
BRANCH  10  12
ATOM     12  C   UNL A   1      44.579  23.027  24.317  1.00  0.00     0.259 C 
ATOM     13  C   UNL A   1      43.346  23.882  24.558  1.00  0.00     0.071 C 
ENDBRANCH  10  12
BRANCH  10  14
ATOM     14  C   UNL A   1      45.890  23.010  26.487  1.00  0.00     0.215 C 
ATOM     15  C   UNL A   1      46.696  24.219  25.996  1.00  0.00     0.081 C 
BRANCH  14  16
ATOM     16  C   UNL A   1      45.095  23.363  27.726  1.00  0.00     0.047 A 
ATOM     17  C   UNL A   1      43.725  23.150  28.052  1.00  0.00     0.052 A 
ATOM     18  C   UNL A   1      45.582  24.117  28.785  1.00  0.00     0.204 A 
ATOM     19  C   UNL A   1      43.479  23.811  29.232  1.00  0.00     0.195 A 
ATOM     20  O   UNL A   1      44.610  24.398  29.688  1.00  0.00    -0.472 OA
ENDBRANCH  14  16
ENDBRANCH  10  14
ENDBRANCH   9  10
ENDBRANCH   7   9
ENDBRANCH   4   7
ENDBRANCH   2   3
ENDBRANCH   1   2
BRANCH   1  21
ATOM     21  C   UNL A   1      41.110  19.985  27.451  1.00  0.00     0.023 C 
BRANCH  21  22
ATOM     22  C   UNL A   1      40.624  21.431  27.453  1.00  0.00     0.116 C 
BRANCH  22  23
ATOM     23  N   UNL A   1      39.476  21.645  26.585  1.00  0.00    -0.352 N 
ATOM     24  C   UNL A   1      38.848  22.834  26.293  1.00  0.00     0.251 C 
ATOM     25  H   UNL A   1      39.103  20.842  26.154  1.00  0.00     0.163 HD
ATOM     26  O   UNL A   1      37.811  22.851  25.648  1.00  0.00    -0.269 OA
BRANCH  24  27
ATOM     27  C   UNL A   1      39.447  24.080  26.811  1.00  0.00     0.039 A 
ATOM     28  C   UNL A   1      40.113  24.932  25.930  1.00  0.00     0.014 A 
ATOM     29  C   UNL A   1      39.263  24.433  28.151  1.00  0.00     0.014 A 
ATOM     30  C   UNL A   1      40.546  26.179  26.382  1.00  0.00     0.010 A 
ATOM     31  C   UNL A   1      39.632  25.703  28.578  1.00  0.00     0.010 A 
ATOM     32  C   UNL A   1      40.280  26.587  27.699  1.00  0.00    -0.014 A 
BRANCH  32  33
ATOM     33  C   UNL A   1      40.696  27.920  28.200  1.00  0.00     0.031 A 
ATOM     34  C   UNL A   1      42.162  28.222  28.354  1.00  0.00     0.074 A 
ATOM     35  C   UNL A   1      39.770  28.818  28.585  1.00  0.00     0.049 A 
ATOM     36  N   UNL A   1      42.742  29.263  28.892  1.00  0.00    -0.248 NA
ATOM     37  C   UNL A   1      43.095  27.194  27.870  1.00  0.00     0.031 C 
ATOM     38  C   UNL A   1      38.319  28.623  28.512  1.00  0.00     0.029 A 
ATOM     39  N   UNL A   1      39.907  30.070  29.131  1.00  0.00    -0.354 N 
ATOM     40  C   UNL A   1      44.107  29.005  28.831  1.00  0.00     0.074 A 
ATOM     41  C   UNL A   1      44.260  27.682  28.263  1.00  0.00     0.031 C 
ATOM     42  C   UNL A   1      37.704  29.723  28.977  1.00  0.00     0.029 A 
ATOM     43  C   UNL A   1      38.710  30.681  29.427  1.00  0.00     0.049 A 
ATOM     44  H   UNL A   1      40.781  30.491  29.295  1.00  0.00     0.167 HD
ATOM     45  C   UNL A   1      45.138  29.807  29.194  1.00  0.00     0.034 A 
ATOM     46  C   UNL A   1      38.455  31.871  30.008  1.00  0.00     0.034 A 
ATOM     47  C   UNL A   1      44.964  31.130  29.739  1.00  0.00     0.049 A 
ATOM     48  C   UNL A   1      39.618  32.742  30.418  1.00  0.00     0.074 A 
ATOM     49  C   UNL A   1      45.933  32.050  30.100  1.00  0.00     0.029 A 
ATOM     50  N   UNL A   1      43.736  31.724  30.003  1.00  0.00    -0.354 N 
ATOM     51  N   UNL A   1      40.906  32.499  30.323  1.00  0.00    -0.248 NA
ATOM     52  C   UNL A   1      39.293  34.051  31.000  1.00  0.00     0.031 C 
ATOM     53  C   UNL A   1      45.294  33.173  30.637  1.00  0.00     0.029 A 
ATOM     54  C   UNL A   1      43.925  32.988  30.541  1.00  0.00     0.049 A 
ATOM     55  H   UNL A   1      42.860  31.309  29.833  1.00  0.00     0.167 HD
ATOM     56  C   UNL A   1      41.542  33.643  30.797  1.00  0.00     0.074 A 
ATOM     57  C   UNL A   1      40.498  34.575  31.172  1.00  0.00     0.031 C 
ATOM     58  C   UNL A   1      42.869  33.905  30.902  1.00  0.00     0.034 A 
BRANCH  45  59
ATOM     59  C   UNL A   1      46.535  29.256  29.031  1.00  0.00     0.023 A 
ATOM     60  C   UNL A   1      47.162  29.194  27.774  1.00  0.00     0.031 A 
ATOM     61  C   UNL A   1      47.236  28.749  30.140  1.00  0.00     0.131 A 
ATOM     62  C   UNL A   1      48.406  28.561  27.642  1.00  0.00     0.055 A 
ATOM     63  C   UNL A   1      48.513  28.201  30.016  1.00  0.00     0.041 A 
ATOM     64  F   UNL A   1      46.681  28.761  31.363  1.00  0.00    -0.206 F 
ATOM     65  C   UNL A   1      49.099  28.087  28.758  1.00  0.00     0.022 A 
BRANCH  62  66
ATOM     66  S   UNL A   1      49.032  28.226  25.973  1.00  0.00     0.124 S 
ATOM     67  O   UNL A   1      49.429  26.824  26.084  1.00  0.00    -0.237 OA
ATOM     68  O   UNL A   1      47.867  28.496  25.138  1.00  0.00    -0.237 OA
ATOM     69  O   UNL A   1      50.138  29.169  25.826  1.00  0.00    -0.744 OA
ENDBRANCH  62  66
ENDBRANCH  45  59
BRANCH  46  70
ATOM     70  C   UNL A   1      37.052  32.313  30.245  1.00  0.00     0.023 A 
ATOM     71  C   UNL A   1      36.317  32.956  29.236  1.00  0.00     0.031 A 
ATOM     72  C   UNL A   1      36.438  32.141  31.498  1.00  0.00     0.131 A 
ATOM     73  C   UNL A   1      35.031  33.448  29.511  1.00  0.00     0.055 A 
ATOM     74  C   UNL A   1      35.137  32.584  31.751  1.00  0.00     0.041 A 
ATOM     75  F   UNL A   1      37.092  31.527  32.496  1.00  0.00    -0.206 F 
ATOM     76  C   UNL A   1      34.432  33.256  30.757  1.00  0.00     0.022 A 
BRANCH  73  77
ATOM     77  S   UNL A   1      34.185  34.424  28.237  1.00  0.00     0.124 S 
ATOM     78  O   UNL A   1      33.898  35.662  28.953  1.00  0.00    -0.237 OA
ATOM     79  O   UNL A   1      35.203  34.506  27.194  1.00  0.00    -0.237 OA
ATOM     80  O   UNL A   1      33.018  33.610  27.904  1.00  0.00    -0.744 OA
ENDBRANCH  73  77
ENDBRANCH  46  70
BRANCH  58  81
ATOM     81  C   UNL A   1      43.266  35.280  31.379  1.00  0.00     0.023 A 
ATOM     82  C   UNL A   1      43.344  35.602  32.745  1.00  0.00     0.031 A 
ATOM     83  C   UNL A   1      43.580  36.280  30.441  1.00  0.00     0.131 A 
ATOM     84  C   UNL A   1      43.686  36.907  33.134  1.00  0.00     0.055 A 
ATOM     85  C   UNL A   1      43.972  37.560  30.835  1.00  0.00     0.041 A 
ATOM     86  F   UNL A   1      43.520  36.026  29.125  1.00  0.00    -0.206 F 
ATOM     87  C   UNL A   1      44.016  37.882  32.188  1.00  0.00     0.022 A 
BRANCH  84  88
ATOM     88  S   UNL A   1      43.622  37.337  34.894  1.00  0.00     0.124 S 
ATOM     89  O   UNL A   1      42.191  37.269  35.172  1.00  0.00    -0.237 OA
ATOM     90  O   UNL A   1      44.439  36.290  35.502  1.00  0.00    -0.237 OA
ATOM     91  O   UNL A   1      44.201  38.679  34.942  1.00  0.00    -0.744 OA
ENDBRANCH  84  88
ENDBRANCH  58  81
ENDBRANCH  32  33
ENDBRANCH  24  27
ENDBRANCH  22  23
ENDBRANCH  21  22
ENDBRANCH   1  21
TORSDOF 19
ENDMDL
MODEL 3
REMARK VINA RESULT:     -10.6      6.618     11.391
REMARK SMILES CC[N@@H+](C[C@@H](C)C(=O)NCCCCNC(=O)c1ccc(-c2c3nc(c(-c4cc(S(=O)(=O)[O-])ccc4F)c4ccc([nH]4)c(-c4cc(S(=O)(=O)[O-])ccc4F)c4nc(c(-c5cc(S(=O)(=O)[O-])ccc5F)c5ccc2[nH]5)C=C4)C=C3)cc1)[C@@H](C)c1ccoc1
REMARK SMILES IDX 11 1 10 2 9 3 7 4 8 5 5 7 6 8 4 9 3 10 2 12 1 13 80 14 81 15
REMARK SMILES IDX 82 16 83 17 86 18 84 19 85 20 12 21 13 22 14 23 15 24 16 26
REMARK SMILES IDX 17 27 18 28 79 29 19 30 78 31 20 32 21 33 22 34 72 35 23 36
REMARK SMILES IDX 77 37 71 38 73 39 24 40 76 41 70 42 69 43 25 45 57 46 37 47
REMARK SMILES IDX 56 48 38 49 41 50 55 51 74 52 39 53 40 54 54 56 75 57 42 58
REMARK SMILES IDX 26 59 27 60 35 61 28 62 34 63 36 64 33 65 29 66 30 67 31 68
REMARK SMILES IDX 32 69 58 70 59 71 67 72 60 73 66 74 68 75 65 76 61 77 62 78
REMARK SMILES IDX 63 79 64 80 43 81 44 82 52 83 45 84 51 85 53 86 50 87 46 88
REMARK SMILES IDX 47 89 48 90 49 91
REMARK H PARENT 9 6 3 11 14 25 73 44 41 55
REMARK Flexibility Score: inf
ROOT
ATOM      1  C   UNL A   1      42.693  19.801  26.544  1.00  0.00     0.023 C 
ENDROOT
BRANCH   1   2
ATOM      2  C   UNL A   1      43.123  18.388  26.170  1.00  0.00     0.116 C 
BRANCH   2   3
ATOM      3  N   UNL A   1      44.566  18.250  26.216  1.00  0.00    -0.356 N 
ATOM      4  C   UNL A   1      45.531  18.851  25.471  1.00  0.00     0.228 C 
ATOM      5  O   UNL A   1      46.706  18.537  25.680  1.00  0.00    -0.275 OA
ATOM      6  H   UNL A   1      44.901  17.622  26.896  1.00  0.00     0.163 HD
BRANCH   4   7
ATOM      7  C   UNL A   1      45.190  19.906  24.423  1.00  0.00     0.130 C 
ATOM      8  C   UNL A   1      45.177  19.248  23.039  1.00  0.00     0.024 C 
BRANCH   7   9
ATOM      9  C   UNL A   1      46.041  21.194  24.625  1.00  0.00     0.275 C 
BRANCH   9  10
ATOM     10  N   UNL A   1      45.405  22.395  25.251  1.00  0.00    -0.328 N 
ATOM     11  H   UNL A   1      44.933  22.159  26.124  1.00  0.00     0.348 HD
BRANCH  10  12
ATOM     12  C   UNL A   1      44.319  22.882  24.382  1.00  0.00     0.259 C 
ATOM     13  C   UNL A   1      43.081  23.412  25.084  1.00  0.00     0.071 C 
ENDBRANCH  10  12
BRANCH  10  14
ATOM     14  C   UNL A   1      46.412  23.364  25.729  1.00  0.00     0.215 C 
ATOM     15  C   UNL A   1      46.712  24.563  24.821  1.00  0.00     0.081 C 
BRANCH  14  16
ATOM     16  C   UNL A   1      46.166  23.819  27.153  1.00  0.00     0.047 A 
ATOM     17  C   UNL A   1      45.099  23.540  28.053  1.00  0.00     0.052 A 
ATOM     18  C   UNL A   1      46.943  24.752  27.826  1.00  0.00     0.204 A 
ATOM     19  C   UNL A   1      45.280  24.337  29.159  1.00  0.00     0.195 A 
ATOM     20  O   UNL A   1      46.408  25.074  29.029  1.00  0.00    -0.472 OA
ENDBRANCH  14  16
ENDBRANCH  10  14
ENDBRANCH   9  10
ENDBRANCH   7   9
ENDBRANCH   4   7
ENDBRANCH   2   3
ENDBRANCH   1   2
BRANCH   1  21
ATOM     21  C   UNL A   1      41.227  19.909  26.960  1.00  0.00     0.023 C 
BRANCH  21  22
ATOM     22  C   UNL A   1      40.705  21.335  27.102  1.00  0.00     0.116 C 
BRANCH  22  23
ATOM     23  N   UNL A   1      39.427  21.540  26.435  1.00  0.00    -0.352 N 
ATOM     24  C   UNL A   1      38.729  22.717  26.292  1.00  0.00     0.251 C 
ATOM     25  H   UNL A   1      39.012  20.739  26.038  1.00  0.00     0.163 HD
ATOM     26  O   UNL A   1      37.602  22.721  25.820  1.00  0.00    -0.269 OA
BRANCH  24  27
ATOM     27  C   UNL A   1      39.368  23.963  26.757  1.00  0.00     0.039 A 
ATOM     28  C   UNL A   1      39.836  24.879  25.814  1.00  0.00     0.014 A 
ATOM     29  C   UNL A   1      39.416  24.251  28.123  1.00  0.00     0.014 A 
ATOM     30  C   UNL A   1      40.301  26.123  26.243  1.00  0.00     0.010 A 
ATOM     31  C   UNL A   1      39.812  25.516  28.540  1.00  0.00     0.010 A 
ATOM     32  C   UNL A   1      40.262  26.463  27.605  1.00  0.00    -0.014 A 
BRANCH  32  33
ATOM     33  C   UNL A   1      40.716  27.790  28.089  1.00  0.00     0.031 A 
ATOM     34  C   UNL A   1      42.185  28.111  28.083  1.00  0.00     0.074 A 
ATOM     35  C   UNL A   1      39.827  28.665  28.599  1.00  0.00     0.049 A 
ATOM     36  N   UNL A   1      42.810  29.147  28.578  1.00  0.00    -0.248 NA
ATOM     37  C   UNL A   1      43.070  27.109  27.470  1.00  0.00     0.031 C 
ATOM     38  C   UNL A   1      38.381  28.449  28.687  1.00  0.00     0.029 A 
ATOM     39  N   UNL A   1      40.011  29.905  29.158  1.00  0.00    -0.354 N 
ATOM     40  C   UNL A   1      44.163  28.911  28.357  1.00  0.00     0.074 A 
ATOM     41  C   UNL A   1      44.266  27.605  27.742  1.00  0.00     0.031 C 
ATOM     42  C   UNL A   1      37.809  29.528  29.246  1.00  0.00     0.029 A 
ATOM     43  C   UNL A   1      38.847  30.490  29.603  1.00  0.00     0.049 A 
ATOM     44  H   UNL A   1      40.892  30.336  29.232  1.00  0.00     0.167 HD
ATOM     45  C   UNL A   1      45.218  29.720  28.621  1.00  0.00     0.034 A 
ATOM     46  C   UNL A   1      38.646  31.662  30.239  1.00  0.00     0.034 A 
ATOM     47  C   UNL A   1      45.091  31.027  29.216  1.00  0.00     0.049 A 
ATOM     48  C   UNL A   1      39.837  32.540  30.536  1.00  0.00     0.074 A 
ATOM     49  C   UNL A   1      46.083  31.953  29.487  1.00  0.00     0.029 A 
ATOM     50  N   UNL A   1      43.893  31.596  29.632  1.00  0.00    -0.354 N 
ATOM     51  N   UNL A   1      41.108  32.320  30.290  1.00  0.00    -0.248 NA
ATOM     52  C   UNL A   1      39.564  33.830  31.185  1.00  0.00     0.031 C 
ATOM     53  C   UNL A   1      45.495  33.052  30.122  1.00  0.00     0.029 A 
ATOM     54  C   UNL A   1      44.126  32.849  30.177  1.00  0.00     0.049 A 
ATOM     55  H   UNL A   1      43.008  31.171  29.552  1.00  0.00     0.167 HD
ATOM     56  C   UNL A   1      41.780  33.462  30.718  1.00  0.00     0.074 A 
ATOM     57  C   UNL A   1      40.774  34.368  31.232  1.00  0.00     0.031 C 
ATOM     58  C   UNL A   1      43.107  33.741  30.679  1.00  0.00     0.034 A 
BRANCH  45  59
ATOM     59  C   UNL A   1      46.594  29.195  28.287  1.00  0.00     0.023 A 
ATOM     60  C   UNL A   1      47.356  28.472  29.222  1.00  0.00     0.031 A 
ATOM     61  C   UNL A   1      47.170  29.454  27.031  1.00  0.00     0.131 A 
ATOM     62  C   UNL A   1      48.677  28.111  28.921  1.00  0.00     0.055 A 
ATOM     63  C   UNL A   1      48.454  29.014  26.704  1.00  0.00     0.041 A 
ATOM     64  F   UNL A   1      46.501  30.159  26.104  1.00  0.00    -0.206 F 
ATOM     65  C   UNL A   1      49.223  28.353  27.659  1.00  0.00     0.022 A 
BRANCH  62  66
ATOM     66  S   UNL A   1      49.720  27.461  30.255  1.00  0.00     0.124 S 
ATOM     67  O   UNL A   1      50.168  26.193  29.684  1.00  0.00    -0.237 OA
ATOM     68  O   UNL A   1      50.739  28.496  30.391  1.00  0.00    -0.237 OA
ATOM     69  O   UNL A   1      48.798  27.338  31.381  1.00  0.00    -0.744 OA
ENDBRANCH  62  66
ENDBRANCH  45  59
BRANCH  46  70
ATOM     70  C   UNL A   1      37.273  32.077  30.645  1.00  0.00     0.023 A 
ATOM     71  C   UNL A   1      36.392  32.661  29.721  1.00  0.00     0.031 A 
ATOM     72  C   UNL A   1      36.835  31.938  31.974  1.00  0.00     0.131 A 
ATOM     73  C   UNL A   1      35.139  33.130  30.147  1.00  0.00     0.055 A 
ATOM     74  C   UNL A   1      35.567  32.358  32.381  1.00  0.00     0.041 A 
ATOM     75  F   UNL A   1      37.634  31.380  32.897  1.00  0.00    -0.206 F 
ATOM     76  C   UNL A   1      34.716  32.971  31.467  1.00  0.00     0.022 A 
BRANCH  73  77
ATOM     77  S   UNL A   1      34.104  34.034  28.963  1.00  0.00     0.124 S 
ATOM     78  O   UNL A   1      33.040  34.539  29.824  1.00  0.00    -0.237 OA
ATOM     79  O   UNL A   1      35.036  35.028  28.443  1.00  0.00    -0.237 OA
ATOM     80  O   UNL A   1      33.698  33.003  28.010  1.00  0.00    -0.744 OA
ENDBRANCH  73  77
ENDBRANCH  46  70
BRANCH  58  81
ATOM     81  C   UNL A   1      43.538  35.111  31.142  1.00  0.00     0.023 A 
ATOM     82  C   UNL A   1      43.599  36.208  30.266  1.00  0.00     0.031 A 
ATOM     83  C   UNL A   1      43.882  35.316  32.490  1.00  0.00     0.131 A 
ATOM     84  C   UNL A   1      44.039  37.454  30.741  1.00  0.00     0.055 A 
ATOM     85  C   UNL A   1      44.265  36.569  32.968  1.00  0.00     0.041 A 
ATOM     86  F   UNL A   1      43.842  34.301  33.368  1.00  0.00    -0.206 F 
ATOM     87  C   UNL A   1      44.356  37.645  32.089  1.00  0.00     0.022 A 
BRANCH  84  88
ATOM     88  S   UNL A   1      44.261  38.810  29.558  1.00  0.00     0.124 S 
ATOM     89  O   UNL A   1      45.428  38.365  28.802  1.00  0.00    -0.237 OA
ATOM     90  O   UNL A   1      42.993  38.804  28.833  1.00  0.00    -0.237 OA
ATOM     91  O   UNL A   1      44.482  39.977  30.409  1.00  0.00    -0.744 OA
ENDBRANCH  84  88
ENDBRANCH  58  81
ENDBRANCH  32  33
ENDBRANCH  24  27
ENDBRANCH  22  23
ENDBRANCH  21  22
ENDBRANCH   1  21
TORSDOF 19
ENDMDL
