MODEL 1
REMARK VINA RESULT:     -12.7      0.000      0.000
REMARK SMILES O=C(COc1ccc(NC(=O)c2ccc(Br)cc2)cc1-c1nc2ccccc2o1)NCCCCNC(=O)c1ccc(-c2c3nc(c(-c4cc(S(=O)(=O)[O-])ccc4F)c4ccc([nH]4)c(-c4cc(S(=O)(=O)[O-])ccc4F)c4nc(c(-c5cc(S(=O)(=O)[O-])ccc5F)c5ccc2[nH]5)C=C4)C=C3)cc1
REMARK SMILES IDX 32 1 31 2 30 3 1 4 2 5 3 7 4 8 5 9 6 10 20 11 7 12 19 13
REMARK SMILES IDX 8 14 21 15 22 16 29 17 23 18 28 19 24 20 27 21 25 22 26 23
REMARK SMILES IDX 9 24 10 25 11 27 12 28 13 29 18 30 14 31 17 32 15 33 16 34
REMARK SMILES IDX 33 35 34 36 35 37 36 38 37 40 38 41 39 42 100 43 40 44 99 45
REMARK SMILES IDX 41 46 42 47 43 48 93 49 44 50 98 51 92 52 94 53 45 54 97 55
REMARK SMILES IDX 91 56 90 57 46 59 78 60 58 61 77 62 59 63 62 64 76 65 95 66
REMARK SMILES IDX 60 67 61 68 75 70 96 71 63 72 47 73 48 74 56 75 49 76 55 77
REMARK SMILES IDX 57 78 54 79 50 80 51 81 52 82 53 83 79 84 80 85 88 86 81 87
REMARK SMILES IDX 87 88 89 89 86 90 82 91 83 92 84 93 85 94 64 95 65 96 73 97
REMARK SMILES IDX 66 98 72 99 74 100 71 101 67 102 68 103 69 104 70 105
REMARK H PARENT 30 6 9 26 35 39 94 58 62 69
REMARK Flexibility Score: inf
ROOT
ATOM      1  C   UNL A   1      39.393  23.175  26.684  1.00  0.00     0.023 C 
ENDROOT
BRANCH   1   2
ATOM      2  C   UNL A   1      38.017  23.779  26.457  1.00  0.00     0.116 C 
BRANCH   2   3
ATOM      3  N   UNL A   1      36.982  22.822  26.100  1.00  0.00    -0.353 N 
ATOM      4  O   UNL A   1      34.822  23.546  26.429  1.00  0.00    -0.271 OA
ATOM      5  C   UNL A   1      35.749  23.301  25.663  1.00  0.00     0.257 C 
ATOM      6  H   UNL A   1      37.149  21.855  26.167  1.00  0.00     0.163 HD
BRANCH   5   7
ATOM      7  C   UNL A   1      35.652  23.439  24.136  1.00  0.00     0.329 C 
BRANCH   7   8
ATOM      8  O   UNL A   1      34.655  22.497  23.744  1.00  0.00    -0.483 OA
BRANCH   8   9
ATOM      9  C   UNL A   1      33.450  22.951  23.295  1.00  0.00     0.132 A 
ATOM     10  C   UNL A   1      33.491  24.311  23.015  1.00  0.00     0.049 A 
ATOM     11  C   UNL A   1      32.224  22.277  23.498  1.00  0.00     0.081 A 
ATOM     12  C   UNL A   1      32.320  25.045  22.989  1.00  0.00     0.030 A 
ATOM     13  C   UNL A   1      31.041  23.047  23.468  1.00  0.00     0.043 A 
ATOM     14  C   UNL A   1      31.084  24.431  23.199  1.00  0.00     0.042 A 
BRANCH  11  15
ATOM     15  C   UNL A   1      32.210  20.827  23.732  1.00  0.00     0.231 A 
ATOM     16  N   UNL A   1      32.318  19.885  22.818  1.00  0.00    -0.209 NA
ATOM     17  O   UNL A   1      32.231  20.354  25.028  1.00  0.00    -0.436 OA
ATOM     18  C   UNL A   1      32.605  18.753  23.521  1.00  0.00     0.110 A 
ATOM     19  C   UNL A   1      32.517  19.013  24.879  1.00  0.00     0.155 A 
ATOM     20  C   UNL A   1      33.020  17.491  23.077  1.00  0.00     0.032 A 
ATOM     21  C   UNL A   1      32.763  18.057  25.861  1.00  0.00     0.049 A 
ATOM     22  C   UNL A   1      33.339  16.525  24.037  1.00  0.00     0.003 A 
ATOM     23  C   UNL A   1      33.194  16.799  25.402  1.00  0.00     0.004 A 
ENDBRANCH  11  15
BRANCH  14  24
ATOM     24  N   UNL A   1      29.888  25.178  23.219  1.00  0.00    -0.322 N 
ATOM     25  C   UNL A   1      29.470  26.172  24.091  1.00  0.00     0.255 C 
ATOM     26  H   UNL A   1      29.249  24.959  22.502  1.00  0.00     0.170 HD
ATOM     27  O   UNL A   1      28.278  26.461  24.182  1.00  0.00    -0.269 OA
BRANCH  25  28
ATOM     28  C   UNL A   1      30.455  26.968  24.870  1.00  0.00     0.040 A 
ATOM     29  C   UNL A   1      30.883  26.502  26.119  1.00  0.00     0.015 A 
ATOM     30  C   UNL A   1      30.976  28.162  24.351  1.00  0.00     0.015 A 
ATOM     31  C   UNL A   1      31.881  27.193  26.815  1.00  0.00     0.016 A 
ATOM     32  C   UNL A   1      31.980  28.844  25.042  1.00  0.00     0.016 A 
ATOM     33  C   UNL A   1      32.434  28.351  26.265  1.00  0.00     0.018 A 
ATOM     34  Br  UNL A   1      33.818  29.258  27.179  1.00  0.00    -0.051 Br
ENDBRANCH  25  28
ENDBRANCH  14  24
ENDBRANCH   8   9
ENDBRANCH   7   8
ENDBRANCH   5   7
ENDBRANCH   2   3
ENDBRANCH   1   2
BRANCH   1  35
ATOM     35  C   UNL A   1      39.532  21.749  26.173  1.00  0.00     0.023 C 
BRANCH  35  36
ATOM     36  C   UNL A   1      40.293  20.826  27.106  1.00  0.00     0.116 C 
BRANCH  36  37
ATOM     37  N   UNL A   1      40.987  19.742  26.417  1.00  0.00    -0.352 N 
ATOM     38  C   UNL A   1      42.240  19.821  25.849  1.00  0.00     0.251 C 
ATOM     39  H   UNL A   1      40.519  18.878  26.352  1.00  0.00     0.163 HD
ATOM     40  O   UNL A   1      42.700  18.904  25.179  1.00  0.00    -0.269 OA
BRANCH  38  41
ATOM     41  C   UNL A   1      42.988  21.080  26.046  1.00  0.00     0.039 A 
ATOM     42  C   UNL A   1      43.078  21.996  24.997  1.00  0.00     0.014 A 
ATOM     43  C   UNL A   1      43.418  21.417  27.334  1.00  0.00     0.014 A 
ATOM     44  C   UNL A   1      43.541  23.286  25.260  1.00  0.00     0.010 A 
ATOM     45  C   UNL A   1      43.787  22.727  27.606  1.00  0.00     0.010 A 
ATOM     46  C   UNL A   1      43.859  23.675  26.572  1.00  0.00    -0.014 A 
BRANCH  46  47
ATOM     47  C   UNL A   1      44.304  25.059  26.886  1.00  0.00     0.031 A 
ATOM     48  C   UNL A   1      43.310  26.041  27.446  1.00  0.00     0.074 A 
ATOM     49  C   UNL A   1      45.565  25.449  26.609  1.00  0.00     0.049 A 
ATOM     50  N   UNL A   1      43.454  27.314  27.704  1.00  0.00    -0.248 NA
ATOM     51  C   UNL A   1      41.956  25.526  27.706  1.00  0.00     0.031 C 
ATOM     52  C   UNL A   1      46.602  24.606  26.008  1.00  0.00     0.029 A 
ATOM     53  N   UNL A   1      46.190  26.659  26.788  1.00  0.00    -0.354 N 
ATOM     54  C   UNL A   1      42.206  27.753  28.137  1.00  0.00     0.074 A 
ATOM     55  C   UNL A   1      41.303  26.630  28.022  1.00  0.00     0.031 C 
ATOM     56  C   UNL A   1      47.738  25.314  25.898  1.00  0.00     0.029 A 
ATOM     57  C   UNL A   1      47.505  26.671  26.381  1.00  0.00     0.049 A 
ATOM     58  H   UNL A   1      45.738  27.445  27.172  1.00  0.00     0.167 HD
ATOM     59  C   UNL A   1      41.855  28.970  28.621  1.00  0.00     0.034 A 
ATOM     60  C   UNL A   1      48.415  27.666  26.395  1.00  0.00     0.034 A 
ATOM     61  C   UNL A   1      42.779  30.068  28.755  1.00  0.00     0.049 A 
ATOM     62  C   UNL A   1      48.007  29.011  26.946  1.00  0.00     0.074 A 
ATOM     63  C   UNL A   1      42.552  31.328  29.278  1.00  0.00     0.029 A 
ATOM     64  N   UNL A   1      44.112  30.034  28.362  1.00  0.00    -0.354 N 
ATOM     65  N   UNL A   1      46.836  29.396  27.401  1.00  0.00    -0.248 NA
ATOM     66  C   UNL A   1      49.045  30.049  26.999  1.00  0.00     0.031 C 
ATOM     67  C   UNL A   1      43.731  32.072  29.150  1.00  0.00     0.029 A 
ATOM     68  C   UNL A   1      44.714  31.257  28.612  1.00  0.00     0.049 A 
ATOM     69  H   UNL A   1      44.562  29.255  27.964  1.00  0.00     0.167 HD
ATOM     70  C   UNL A   1      47.007  30.713  27.822  1.00  0.00     0.074 A 
ATOM     71  C   UNL A   1      48.396  31.046  27.583  1.00  0.00     0.031 C 
ATOM     72  C   UNL A   1      46.101  31.568  28.361  1.00  0.00     0.034 A 
BRANCH  59  73
ATOM     73  C   UNL A   1      40.412  29.162  29.024  1.00  0.00     0.023 A 
ATOM     74  C   UNL A   1      40.016  29.138  30.375  1.00  0.00     0.031 A 
ATOM     75  C   UNL A   1      39.410  29.316  28.051  1.00  0.00     0.131 A 
ATOM     76  C   UNL A   1      38.655  29.168  30.708  1.00  0.00     0.055 A 
ATOM     77  C   UNL A   1      38.062  29.439  28.395  1.00  0.00     0.041 A 
ATOM     78  F   UNL A   1      39.721  29.325  26.745  1.00  0.00    -0.206 F 
ATOM     79  C   UNL A   1      37.675  29.346  29.729  1.00  0.00     0.022 A 
BRANCH  76  80
ATOM     80  S   UNL A   1      38.177  28.806  32.420  1.00  0.00     0.124 S 
ATOM     81  O   UNL A   1      38.462  27.376  32.507  1.00  0.00    -0.237 OA
ATOM     82  O   UNL A   1      39.056  29.681  33.185  1.00  0.00    -0.237 OA
ATOM     83  O   UNL A   1      36.759  29.155  32.461  1.00  0.00    -0.744 OA
ENDBRANCH  76  80
ENDBRANCH  59  73
BRANCH  60  84
ATOM     84  C   UNL A   1      49.797  27.443  25.877  1.00  0.00     0.023 A 
ATOM     85  C   UNL A   1      50.089  27.564  24.508  1.00  0.00     0.031 A 
ATOM     86  C   UNL A   1      50.840  27.061  26.739  1.00  0.00     0.131 A 
ATOM     87  C   UNL A   1      51.376  27.261  24.035  1.00  0.00     0.055 A 
ATOM     88  C   UNL A   1      52.133  26.811  26.270  1.00  0.00     0.041 A 
ATOM     89  F   UNL A   1      50.620  26.934  28.058  1.00  0.00    -0.206 F 
ATOM     90  C   UNL A   1      52.402  26.897  24.908  1.00  0.00     0.022 A 
BRANCH  87  91
ATOM     91  S   UNL A   1      51.667  27.265  22.244  1.00  0.00     0.124 S 
ATOM     92  O   UNL A   1      52.052  28.652  22.008  1.00  0.00    -0.237 OA
ATOM     93  O   UNL A   1      52.729  26.273  22.108  1.00  0.00    -0.237 OA
ATOM     94  O   UNL A   1      50.374  26.873  21.687  1.00  0.00    -0.744 OA
ENDBRANCH  87  91
ENDBRANCH  60  84
BRANCH  72  95
ATOM     95  C   UNL A   1      46.604  32.931  28.767  1.00  0.00     0.023 A 
ATOM     96  C   UNL A   1      46.555  34.028  27.892  1.00  0.00     0.031 A 
ATOM     97  C   UNL A   1      47.142  33.128  30.052  1.00  0.00     0.131 A 
ATOM     98  C   UNL A   1      47.085  35.264  28.293  1.00  0.00     0.055 A 
ATOM     99  C   UNL A   1      47.613  34.375  30.465  1.00  0.00     0.041 A 
ATOM    100  F   UNL A   1      47.213  32.113  30.927  1.00  0.00    -0.206 F 
ATOM    101  C   UNL A   1      47.598  35.449  29.579  1.00  0.00     0.022 A 
BRANCH  98 102
ATOM    102  S   UNL A   1      47.173  36.607  27.078  1.00  0.00     0.124 S 
ATOM    103  O   UNL A   1      45.763  36.840  26.781  1.00  0.00    -0.237 OA
ATOM    104  O   UNL A   1      47.851  37.661  27.824  1.00  0.00    -0.237 OA
ATOM    105  O   UNL A   1      47.949  36.027  25.982  1.00  0.00    -0.744 OA
ENDBRANCH  98 102
ENDBRANCH  72  95
ENDBRANCH  46  47
ENDBRANCH  38  41
ENDBRANCH  36  37
ENDBRANCH  35  36
ENDBRANCH   1  35
TORSDOF 19
ENDMDL
MODEL 2
REMARK VINA RESULT:     -12.7      0.761      7.373
REMARK SMILES O=C(COc1ccc(NC(=O)c2ccc(Br)cc2)cc1-c1nc2ccccc2o1)NCCCCNC(=O)c1ccc(-c2c3nc(c(-c4cc(S(=O)(=O)[O-])ccc4F)c4ccc([nH]4)c(-c4cc(S(=O)(=O)[O-])ccc4F)c4nc(c(-c5cc(S(=O)(=O)[O-])ccc5F)c5ccc2[nH]5)C=C4)C=C3)cc1
REMARK SMILES IDX 32 1 31 2 30 3 1 4 2 5 3 7 4 8 5 9 6 10 20 11 7 12 19 13
REMARK SMILES IDX 8 14 21 15 22 16 29 17 23 18 28 19 24 20 27 21 25 22 26 23
REMARK SMILES IDX 9 24 10 25 11 27 12 28 13 29 18 30 14 31 17 32 15 33 16 34
REMARK SMILES IDX 33 35 34 36 35 37 36 38 37 40 38 41 39 42 100 43 40 44 99 45
REMARK SMILES IDX 41 46 42 47 43 48 93 49 44 50 98 51 92 52 94 53 45 54 97 55
REMARK SMILES IDX 91 56 90 57 46 59 78 60 58 61 77 62 59 63 62 64 76 65 95 66
REMARK SMILES IDX 60 67 61 68 75 70 96 71 63 72 47 73 48 74 56 75 49 76 55 77
REMARK SMILES IDX 57 78 54 79 50 80 51 81 52 82 53 83 79 84 80 85 88 86 81 87
REMARK SMILES IDX 87 88 89 89 86 90 82 91 83 92 84 93 85 94 64 95 65 96 73 97
REMARK SMILES IDX 66 98 72 99 74 100 71 101 67 102 68 103 69 104 70 105
REMARK H PARENT 30 6 9 26 35 39 94 58 62 69
REMARK Flexibility Score: inf
ROOT
ATOM      1  C   UNL A   1      39.432  22.998  26.650  1.00  0.00     0.023 C 
ENDROOT
BRANCH   1   2
ATOM      2  C   UNL A   1      38.123  23.613  26.184  1.00  0.00     0.116 C 
BRANCH   2   3
ATOM      3  N   UNL A   1      37.700  23.210  24.853  1.00  0.00    -0.353 N 
ATOM      4  O   UNL A   1      36.584  21.201  24.745  1.00  0.00    -0.271 OA
ATOM      5  C   UNL A   1      36.555  22.427  24.723  1.00  0.00     0.257 C 
ATOM      6  H   UNL A   1      38.213  23.485  24.060  1.00  0.00     0.163 HD
BRANCH   5   7
ATOM      7  C   UNL A   1      35.275  23.245  24.497  1.00  0.00     0.329 C 
BRANCH   7   8
ATOM      8  O   UNL A   1      34.571  22.551  23.468  1.00  0.00    -0.483 OA
BRANCH   8   9
ATOM      9  C   UNL A   1      33.334  22.989  23.098  1.00  0.00     0.132 A 
ATOM     10  C   UNL A   1      33.341  24.345  22.799  1.00  0.00     0.049 A 
ATOM     11  C   UNL A   1      32.131  22.306  23.393  1.00  0.00     0.081 A 
ATOM     12  C   UNL A   1      32.164  25.069  22.845  1.00  0.00     0.030 A 
ATOM     13  C   UNL A   1      30.941  23.065  23.435  1.00  0.00     0.043 A 
ATOM     14  C   UNL A   1      30.952  24.446  23.146  1.00  0.00     0.042 A 
BRANCH  11  15
ATOM     15  C   UNL A   1      32.147  20.860  23.646  1.00  0.00     0.231 A 
ATOM     16  N   UNL A   1      32.290  19.909  22.744  1.00  0.00    -0.209 NA
ATOM     17  O   UNL A   1      32.162  20.403  24.947  1.00  0.00    -0.436 OA
ATOM     18  C   UNL A   1      32.594  18.792  23.466  1.00  0.00     0.110 A 
ATOM     19  C   UNL A   1      32.481  19.068  24.819  1.00  0.00     0.155 A 
ATOM     20  C   UNL A   1      33.044  17.536  23.044  1.00  0.00     0.032 A 
ATOM     21  C   UNL A   1      32.736  18.130  25.816  1.00  0.00     0.049 A 
ATOM     22  C   UNL A   1      33.372  16.589  24.020  1.00  0.00     0.003 A 
ATOM     23  C   UNL A   1      33.202  16.877  25.379  1.00  0.00     0.004 A 
ENDBRANCH  11  15
BRANCH  14  24
ATOM     24  N   UNL A   1      29.752  25.182  23.240  1.00  0.00    -0.322 N 
ATOM     25  C   UNL A   1      29.388  26.188  24.121  1.00  0.00     0.255 C 
ATOM     26  H   UNL A   1      29.065  24.944  22.576  1.00  0.00     0.170 HD
ATOM     27  O   UNL A   1      28.203  26.469  24.294  1.00  0.00    -0.269 OA
BRANCH  25  28
ATOM     28  C   UNL A   1      30.418  27.008  24.812  1.00  0.00     0.040 A 
ATOM     29  C   UNL A   1      30.856  28.202  24.225  1.00  0.00     0.015 A 
ATOM     30  C   UNL A   1      30.932  26.609  26.055  1.00  0.00     0.015 A 
ATOM     31  C   UNL A   1      31.751  29.028  24.913  1.00  0.00     0.016 A 
ATOM     32  C   UNL A   1      31.817  27.441  26.745  1.00  0.00     0.016 A 
ATOM     33  C   UNL A   1      32.215  28.650  26.174  1.00  0.00     0.018 A 
ATOM     34  Br  UNL A   1      33.385  29.788  27.127  1.00  0.00    -0.051 Br
ENDBRANCH  25  28
ENDBRANCH  14  24
ENDBRANCH   8   9
ENDBRANCH   7   8
ENDBRANCH   5   7
ENDBRANCH   2   3
ENDBRANCH   1   2
BRANCH   1  35
ATOM     35  C   UNL A   1      39.607  21.542  26.245  1.00  0.00     0.023 C 
BRANCH  35  36
ATOM     36  C   UNL A   1      40.635  20.787  27.069  1.00  0.00     0.116 C 
BRANCH  36  37
ATOM     37  N   UNL A   1      41.427  19.841  26.289  1.00  0.00    -0.352 N 
ATOM     38  C   UNL A   1      42.620  20.116  25.660  1.00  0.00     0.251 C 
ATOM     39  H   UNL A   1      41.077  18.924  26.205  1.00  0.00     0.163 HD
ATOM     40  O   UNL A   1      43.159  19.302  24.919  1.00  0.00    -0.269 OA
BRANCH  38  41
ATOM     41  C   UNL A   1      43.202  21.457  25.880  1.00  0.00     0.039 A 
ATOM     42  C   UNL A   1      43.012  22.453  24.921  1.00  0.00     0.014 A 
ATOM     43  C   UNL A   1      43.756  21.757  27.129  1.00  0.00     0.014 A 
ATOM     44  C   UNL A   1      43.318  23.776  25.245  1.00  0.00     0.010 A 
ATOM     45  C   UNL A   1      43.968  23.085  27.477  1.00  0.00     0.010 A 
ATOM     46  C   UNL A   1      43.758  24.109  26.538  1.00  0.00    -0.014 A 
BRANCH  46  47
ATOM     47  C   UNL A   1      44.041  25.516  26.924  1.00  0.00     0.031 A 
ATOM     48  C   UNL A   1      45.436  26.056  26.763  1.00  0.00     0.074 A 
ATOM     49  C   UNL A   1      43.076  26.279  27.477  1.00  0.00     0.049 A 
ATOM     50  N   UNL A   1      45.927  27.214  27.119  1.00  0.00    -0.248 NA
ATOM     51  C   UNL A   1      46.425  25.146  26.161  1.00  0.00     0.031 C 
ATOM     52  C   UNL A   1      41.700  25.847  27.741  1.00  0.00     0.029 A 
ATOM     53  N   UNL A   1      43.103  27.577  27.924  1.00  0.00    -0.354 N 
ATOM     54  C   UNL A   1      47.281  27.163  26.802  1.00  0.00     0.074 A 
ATOM     55  C   UNL A   1      47.546  25.830  26.307  1.00  0.00     0.031 C 
ATOM     56  C   UNL A   1      41.011  26.870  28.274  1.00  0.00     0.029 A 
ATOM     57  C   UNL A   1      41.899  28.017  28.427  1.00  0.00     0.049 A 
ATOM     58  H   UNL A   1      43.909  28.140  27.888  1.00  0.00     0.167 HD
ATOM     59  C   UNL A   1      48.209  28.148  26.880  1.00  0.00     0.034 A 
ATOM     60  C   UNL A   1      41.557  29.210  28.955  1.00  0.00     0.034 A 
ATOM     61  C   UNL A   1      47.917  29.479  27.348  1.00  0.00     0.049 A 
ATOM     62  C   UNL A   1      42.602  30.297  29.026  1.00  0.00     0.074 A 
ATOM     63  C   UNL A   1      48.761  30.573  27.424  1.00  0.00     0.029 A 
ATOM     64  N   UNL A   1      46.679  29.898  27.821  1.00  0.00    -0.354 N 
ATOM     65  N   UNL A   1      43.867  30.250  28.672  1.00  0.00    -0.248 NA
ATOM     66  C   UNL A   1      42.172  31.599  29.550  1.00  0.00     0.031 C 
ATOM     67  C   UNL A   1      48.048  31.635  27.993  1.00  0.00     0.029 A 
ATOM     68  C   UNL A   1      46.741  31.228  28.208  1.00  0.00     0.049 A 
ATOM     69  H   UNL A   1      45.874  29.333  27.872  1.00  0.00     0.167 HD
ATOM     70  C   UNL A   1      44.374  31.526  28.905  1.00  0.00     0.074 A 
ATOM     71  C   UNL A   1      43.274  32.321  29.410  1.00  0.00     0.031 C 
ATOM     72  C   UNL A   1      45.632  31.999  28.714  1.00  0.00     0.034 A 
BRANCH  59  73
ATOM     73  C   UNL A   1      49.618  27.803  26.457  1.00  0.00     0.023 A 
ATOM     74  C   UNL A   1      50.043  27.951  25.124  1.00  0.00     0.031 A 
ATOM     75  C   UNL A   1      50.533  27.270  27.381  1.00  0.00     0.131 A 
ATOM     76  C   UNL A   1      51.305  27.482  24.734  1.00  0.00     0.055 A 
ATOM     77  C   UNL A   1      51.823  26.892  27.004  1.00  0.00     0.041 A 
ATOM     78  F   UNL A   1      50.181  27.085  28.663  1.00  0.00    -0.206 F 
ATOM     79  C   UNL A   1      52.210  26.978  25.669  1.00  0.00     0.022 A 
BRANCH  76  80
ATOM     80  S   UNL A   1      51.681  27.390  22.961  1.00  0.00     0.124 S 
ATOM     81  O   UNL A   1      52.084  28.765  22.676  1.00  0.00    -0.237 OA
ATOM     82  O   UNL A   1      52.741  26.390  22.914  1.00  0.00    -0.237 OA
ATOM     83  O   UNL A   1      50.412  26.983  22.362  1.00  0.00    -0.744 OA
ENDBRANCH  76  80
ENDBRANCH  59  73
BRANCH  60  84
ATOM     84  C   UNL A   1      40.173  29.451  29.459  1.00  0.00     0.023 A 
ATOM     85  C   UNL A   1      39.892  29.464  30.835  1.00  0.00     0.031 A 
ATOM     86  C   UNL A   1      39.099  29.630  28.568  1.00  0.00     0.131 A 
ATOM     87  C   UNL A   1      38.567  29.604  31.280  1.00  0.00     0.055 A 
ATOM     88  C   UNL A   1      37.790  29.821  29.017  1.00  0.00     0.041 A 
ATOM     89  F   UNL A   1      39.309  29.632  27.242  1.00  0.00    -0.206 F 
ATOM     90  C   UNL A   1      37.517  29.794  30.381  1.00  0.00     0.022 A 
BRANCH  87  91
ATOM     91  S   UNL A   1      38.225  29.446  33.055  1.00  0.00     0.124 S 
ATOM     92  O   UNL A   1      39.558  29.204  33.595  1.00  0.00    -0.237 OA
ATOM     93  O   UNL A   1      37.632  30.743  33.365  1.00  0.00    -0.237 OA
ATOM     94  O   UNL A   1      37.308  28.310  33.126  1.00  0.00    -0.744 OA
ENDBRANCH  87  91
ENDBRANCH  60  84
BRANCH  72  95
ATOM     95  C   UNL A   1      45.866  33.459  29.016  1.00  0.00     0.023 A 
ATOM     96  C   UNL A   1      45.711  34.451  28.034  1.00  0.00     0.031 A 
ATOM     97  C   UNL A   1      46.252  33.858  30.308  1.00  0.00     0.131 A 
ATOM     98  C   UNL A   1      45.992  35.790  28.345  1.00  0.00     0.055 A 
ATOM     99  C   UNL A   1      46.472  35.198  30.626  1.00  0.00     0.041 A 
ATOM    100  F   UNL A   1      46.415  32.950  31.284  1.00  0.00    -0.206 F 
ATOM    101  C   UNL A   1      46.356  36.172  29.638  1.00  0.00     0.022 A 
BRANCH  98 102
ATOM    102  S   UNL A   1      45.960  37.017  27.010  1.00  0.00     0.124 S 
ATOM    103  O   UNL A   1      46.472  36.249  25.880  1.00  0.00    -0.237 OA
ATOM    104  O   UNL A   1      44.548  37.377  26.949  1.00  0.00    -0.237 OA
ATOM    105  O   UNL A   1      46.848  38.073  27.494  1.00  0.00    -0.744 OA
ENDBRANCH  98 102
ENDBRANCH  72  95
ENDBRANCH  46  47
ENDBRANCH  38  41
ENDBRANCH  36  37
ENDBRANCH  35  36
ENDBRANCH   1  35
TORSDOF 19
ENDMDL
MODEL 3
REMARK VINA RESULT:     -12.4      5.803     11.520
REMARK SMILES O=C(COc1ccc(NC(=O)c2ccc(Br)cc2)cc1-c1nc2ccccc2o1)NCCCCNC(=O)c1ccc(-c2c3nc(c(-c4cc(S(=O)(=O)[O-])ccc4F)c4ccc([nH]4)c(-c4cc(S(=O)(=O)[O-])ccc4F)c4nc(c(-c5cc(S(=O)(=O)[O-])ccc5F)c5ccc2[nH]5)C=C4)C=C3)cc1
REMARK SMILES IDX 32 1 31 2 30 3 1 4 2 5 3 7 4 8 5 9 6 10 20 11 7 12 19 13
REMARK SMILES IDX 8 14 21 15 22 16 29 17 23 18 28 19 24 20 27 21 25 22 26 23
REMARK SMILES IDX 9 24 10 25 11 27 12 28 13 29 18 30 14 31 17 32 15 33 16 34
REMARK SMILES IDX 33 35 34 36 35 37 36 38 37 40 38 41 39 42 100 43 40 44 99 45
REMARK SMILES IDX 41 46 42 47 43 48 93 49 44 50 98 51 92 52 94 53 45 54 97 55
REMARK SMILES IDX 91 56 90 57 46 59 78 60 58 61 77 62 59 63 62 64 76 65 95 66
REMARK SMILES IDX 60 67 61 68 75 70 96 71 63 72 47 73 48 74 56 75 49 76 55 77
REMARK SMILES IDX 57 78 54 79 50 80 51 81 52 82 53 83 79 84 80 85 88 86 81 87
REMARK SMILES IDX 87 88 89 89 86 90 82 91 83 92 84 93 85 94 64 95 65 96 73 97
REMARK SMILES IDX 66 98 72 99 74 100 71 101 67 102 68 103 69 104 70 105
REMARK H PARENT 30 6 9 26 35 39 94 58 62 69
REMARK Flexibility Score: inf
ROOT
ATOM      1  C   UNL A   1      35.420  30.863  27.664  1.00  0.00     0.023 C 
ENDROOT
BRANCH   1   2
ATOM      2  C   UNL A   1      35.036  29.396  27.572  1.00  0.00     0.116 C 
BRANCH   2   3
ATOM      3  N   UNL A   1      33.619  29.123  27.746  1.00  0.00    -0.353 N 
ATOM      4  O   UNL A   1      32.315  29.489  25.884  1.00  0.00    -0.271 OA
ATOM      5  C   UNL A   1      32.877  28.705  26.643  1.00  0.00     0.257 C 
ATOM      6  H   UNL A   1      33.191  29.234  28.625  1.00  0.00     0.163 HD
BRANCH   5   7
ATOM      7  C   UNL A   1      32.792  27.177  26.505  1.00  0.00     0.329 C 
BRANCH   7   8
ATOM      8  O   UNL A   1      31.411  26.906  26.269  1.00  0.00    -0.483 OA
BRANCH   8   9
ATOM      9  C   UNL A   1      31.042  25.666  25.837  1.00  0.00     0.132 A 
ATOM     10  C   UNL A   1      31.597  24.666  26.625  1.00  0.00     0.049 A 
ATOM     11  C   UNL A   1      30.549  25.393  24.540  1.00  0.00     0.081 A 
ATOM     12  C   UNL A   1      31.730  23.385  26.122  1.00  0.00     0.030 A 
ATOM     13  C   UNL A   1      30.696  24.078  24.047  1.00  0.00     0.043 A 
ATOM     14  C   UNL A   1      31.273  23.067  24.842  1.00  0.00     0.042 A 
BRANCH  11  15
ATOM     15  C   UNL A   1      29.913  26.459  23.754  1.00  0.00     0.231 A 
ATOM     16  N   UNL A   1      28.630  26.757  23.732  1.00  0.00    -0.209 NA
ATOM     17  O   UNL A   1      30.707  27.353  23.066  1.00  0.00    -0.436 OA
ATOM     18  C   UNL A   1      28.573  27.995  23.164  1.00  0.00     0.110 A 
ATOM     19  C   UNL A   1      29.832  28.359  22.714  1.00  0.00     0.155 A 
ATOM     20  C   UNL A   1      27.507  28.896  23.061  1.00  0.00     0.032 A 
ATOM     21  C   UNL A   1      30.102  29.576  22.092  1.00  0.00     0.049 A 
ATOM     22  C   UNL A   1      27.756  30.154  22.502  1.00  0.00     0.003 A 
ATOM     23  C   UNL A   1      29.025  30.477  22.010  1.00  0.00     0.004 A 
ENDBRANCH  11  15
BRANCH  14  24
ATOM     24  N   UNL A   1      31.444  21.775  24.302  1.00  0.00    -0.322 N 
ATOM     25  C   UNL A   1      32.587  21.147  23.832  1.00  0.00     0.255 C 
ATOM     26  H   UNL A   1      30.623  21.233  24.251  1.00  0.00     0.170 HD
ATOM     27  O   UNL A   1      32.503  20.178  23.080  1.00  0.00    -0.269 OA
BRANCH  25  28
ATOM     28  C   UNL A   1      33.936  21.574  24.290  1.00  0.00     0.040 A 
ATOM     29  C   UNL A   1      34.605  22.596  23.604  1.00  0.00     0.015 A 
ATOM     30  C   UNL A   1      34.527  20.982  25.415  1.00  0.00     0.015 A 
ATOM     31  C   UNL A   1      35.830  23.070  24.086  1.00  0.00     0.016 A 
ATOM     32  C   UNL A   1      35.744  21.465  25.901  1.00  0.00     0.016 A 
ATOM     33  C   UNL A   1      36.385  22.512  25.239  1.00  0.00     0.018 A 
ATOM     34  Br  UNL A   1      38.015  23.186  25.921  1.00  0.00    -0.051 Br
ENDBRANCH  25  28
ENDBRANCH  14  24
ENDBRANCH   8   9
ENDBRANCH   7   8
ENDBRANCH   5   7
ENDBRANCH   2   3
ENDBRANCH   1   2
BRANCH   1  35
ATOM     35  C   UNL A   1      34.288  31.768  28.127  1.00  0.00     0.023 C 
BRANCH  35  36
ATOM     36  C   UNL A   1      34.469  33.229  27.757  1.00  0.00     0.116 C 
BRANCH  36  37
ATOM     37  N   UNL A   1      33.495  34.115  28.388  1.00  0.00    -0.352 N 
ATOM     38  C   UNL A   1      33.497  34.502  29.709  1.00  0.00     0.251 C 
ATOM     39  H   UNL A   1      32.774  34.468  27.818  1.00  0.00     0.163 HD
ATOM     40  O   UNL A   1      32.573  35.147  30.191  1.00  0.00    -0.269 OA
BRANCH  38  41
ATOM     41  C   UNL A   1      34.642  34.065  30.536  1.00  0.00     0.039 A 
ATOM     42  C   UNL A   1      34.458  33.060  31.486  1.00  0.00     0.014 A 
ATOM     43  C   UNL A   1      35.923  34.525  30.213  1.00  0.00     0.014 A 
ATOM     44  C   UNL A   1      35.578  32.462  32.067  1.00  0.00     0.010 A 
ATOM     45  C   UNL A   1      37.031  33.862  30.724  1.00  0.00     0.010 A 
ATOM     46  C   UNL A   1      36.872  32.828  31.660  1.00  0.00    -0.014 A 
BRANCH  46  47
ATOM     47  C   UNL A   1      38.079  32.169  32.226  1.00  0.00     0.031 A 
ATOM     48  C   UNL A   1      38.752  31.073  31.444  1.00  0.00     0.074 A 
ATOM     49  C   UNL A   1      38.526  32.501  33.454  1.00  0.00     0.049 A 
ATOM     50  N   UNL A   1      39.754  30.304  31.782  1.00  0.00    -0.248 NA
ATOM     51  C   UNL A   1      38.187  30.773  30.118  1.00  0.00     0.031 C 
ATOM     52  C   UNL A   1      37.921  33.506  34.334  1.00  0.00     0.029 A 
ATOM     53  N   UNL A   1      39.590  32.027  34.181  1.00  0.00    -0.354 N 
ATOM     54  C   UNL A   1      39.924  29.419  30.721  1.00  0.00     0.074 A 
ATOM     55  C   UNL A   1      38.868  29.694  29.772  1.00  0.00     0.031 C 
ATOM     56  C   UNL A   1      38.640  33.591  35.465  1.00  0.00     0.029 A 
ATOM     57  C   UNL A   1      39.732  32.625  35.414  1.00  0.00     0.049 A 
ATOM     58  H   UNL A   1      40.194  31.323  33.852  1.00  0.00     0.167 HD
ATOM     59  C   UNL A   1      40.893  28.489  30.538  1.00  0.00     0.034 A 
ATOM     60  C   UNL A   1      40.639  32.413  36.388  1.00  0.00     0.034 A 
ATOM     61  C   UNL A   1      41.955  28.252  31.483  1.00  0.00     0.049 A 
ATOM     62  C   UNL A   1      41.716  31.380  36.162  1.00  0.00     0.074 A 
ATOM     63  C   UNL A   1      43.020  27.375  31.384  1.00  0.00     0.029 A 
ATOM     64  N   UNL A   1      42.085  28.899  32.707  1.00  0.00    -0.354 N 
ATOM     65  N   UNL A   1      41.895  30.587  35.129  1.00  0.00    -0.248 NA
ATOM     66  C   UNL A   1      42.720  31.223  37.222  1.00  0.00     0.031 C 
ATOM     67  C   UNL A   1      43.761  27.452  32.569  1.00  0.00     0.029 A 
ATOM     68  C   UNL A   1      43.201  28.427  33.379  1.00  0.00     0.049 A 
ATOM     69  H   UNL A   1      41.474  29.592  33.045  1.00  0.00     0.167 HD
ATOM     70  C   UNL A   1      43.050  29.859  35.405  1.00  0.00     0.074 A 
ATOM     71  C   UNL A   1      43.532  30.322  36.690  1.00  0.00     0.031 C 
ATOM     72  C   UNL A   1      43.660  28.900  34.663  1.00  0.00     0.034 A 
BRANCH  59  73
ATOM     73  C   UNL A   1      40.829  27.666  29.273  1.00  0.00     0.023 A 
ATOM     74  C   UNL A   1      41.732  27.873  28.214  1.00  0.00     0.031 A 
ATOM     75  C   UNL A   1      39.823  26.701  29.097  1.00  0.00     0.131 A 
ATOM     76  C   UNL A   1      41.554  27.200  26.997  1.00  0.00     0.055 A 
ATOM     77  C   UNL A   1      39.708  25.965  27.915  1.00  0.00     0.041 A 
ATOM     78  F   UNL A   1      38.918  26.471  30.061  1.00  0.00    -0.206 F 
ATOM     79  C   UNL A   1      40.564  26.226  26.849  1.00  0.00     0.022 A 
BRANCH  76  80
ATOM     80  S   UNL A   1      42.529  27.734  25.564  1.00  0.00     0.124 S 
ATOM     81  O   UNL A   1      43.854  27.896  26.156  1.00  0.00    -0.237 OA
ATOM     82  O   UNL A   1      42.372  26.617  24.640  1.00  0.00    -0.237 OA
ATOM     83  O   UNL A   1      41.881  28.978  25.154  1.00  0.00    -0.744 OA
ENDBRANCH  76  80
ENDBRANCH  59  73
BRANCH  60  84
ATOM     84  C   UNL A   1      40.581  33.185  37.665  1.00  0.00     0.023 A 
ATOM     85  C   UNL A   1      39.860  32.706  38.771  1.00  0.00     0.031 A 
ATOM     86  C   UNL A   1      41.211  34.436  37.784  1.00  0.00     0.131 A 
ATOM     87  C   UNL A   1      39.745  33.492  39.929  1.00  0.00     0.055 A 
ATOM     88  C   UNL A   1      41.138  35.192  38.957  1.00  0.00     0.041 A 
ATOM     89  F   UNL A   1      41.918  34.941  36.760  1.00  0.00    -0.206 F 
ATOM     90  C   UNL A   1      40.390  34.726  40.033  1.00  0.00     0.022 A 
BRANCH  87  91
ATOM     91  S   UNL A   1      38.668  32.915  41.270  1.00  0.00     0.124 S 
ATOM     92  O   UNL A   1      39.082  31.523  41.407  1.00  0.00    -0.237 OA
ATOM     93  O   UNL A   1      39.042  33.807  42.363  1.00  0.00    -0.237 OA
ATOM     94  O   UNL A   1      37.322  33.116  40.736  1.00  0.00    -0.744 OA
ENDBRANCH  87  91
ENDBRANCH  60  84
BRANCH  72  95
ATOM     95  C   UNL A   1      44.941  28.322  35.212  1.00  0.00     0.023 A 
ATOM     96  C   UNL A   1      44.942  27.213  36.074  1.00  0.00     0.031 A 
ATOM     97  C   UNL A   1      46.177  28.896  34.865  1.00  0.00     0.131 A 
ATOM     98  C   UNL A   1      46.154  26.744  36.604  1.00  0.00     0.055 A 
ATOM     99  C   UNL A   1      47.382  28.387  35.349  1.00  0.00     0.041 A 
ATOM    100  F   UNL A   1      46.232  29.958  34.045  1.00  0.00    -0.206 F 
ATOM    101  C   UNL A   1      47.375  27.313  36.234  1.00  0.00     0.022 A 
BRANCH  98 102
ATOM    102  S   UNL A   1      46.105  25.431  37.854  1.00  0.00     0.124 S 
ATOM    103  O   UNL A   1      44.703  25.027  37.814  1.00  0.00    -0.237 OA
ATOM    104  O   UNL A   1      47.063  24.464  37.331  1.00  0.00    -0.237 OA
ATOM    105  O   UNL A   1      46.518  26.111  39.081  1.00  0.00    -0.744 OA
ENDBRANCH  98 102
ENDBRANCH  72  95
ENDBRANCH  46  47
ENDBRANCH  38  41
ENDBRANCH  36  37
ENDBRANCH  35  36
ENDBRANCH   1  35
TORSDOF 19
ENDMDL
