MODEL 1
REMARK VINA RESULT:     -11.1      0.000      0.000
REMARK SMILES CC(C)OC[C@H](O)CC1(C(=O)NCCCCNC(=O)c2ccc(-c3c4nc(c(-c5cc(S(=O)(=O)[O-])ccc5F)c5ccc([nH]5)c(-c5cc(S(=O)(=O)[O-])ccc5F)c5nc(c(-c6cc(S(=O)(=O)[O-])ccc6F)c6ccc3[nH]6)C=C5)C=C4)cc2)CCCCC1
REMARK SMILES IDX 13 1 12 2 10 3 11 4 9 6 83 7 87 8 84 9 86 10 85 11 8 12 6 13
REMARK SMILES IDX 5 14 4 15 2 16 1 17 3 18 7 19 14 21 15 22 16 23 17 24 18 25
REMARK SMILES IDX 19 27 20 28 21 29 82 30 22 31 81 32 23 33 24 34 25 35 75 36
REMARK SMILES IDX 26 37 80 38 74 39 76 40 27 41 79 42 73 43 72 44 28 46 60 47
REMARK SMILES IDX 40 48 59 49 41 50 44 51 58 52 77 53 42 54 43 55 57 57 78 58
REMARK SMILES IDX 45 59 29 60 30 61 38 62 31 63 37 64 39 65 36 66 32 67 33 68
REMARK SMILES IDX 34 69 35 70 61 71 62 72 70 73 63 74 69 75 71 76 68 77 64 78
REMARK SMILES IDX 65 79 66 80 67 81 46 82 47 83 55 84 48 85 54 86 56 87 53 88
REMARK SMILES IDX 49 89 50 90 51 91 52 92
REMARK H PARENT 12 5 7 20 17 26 76 45 44 56
REMARK Flexibility Score: inf
ROOT
ATOM      1  C   UNL A   1      34.597  23.885  25.405  1.00  0.00     0.116 C 
ENDROOT
BRANCH   1   2
ATOM      2  N   UNL A   1      33.393  23.859  26.191  1.00  0.00    -0.356 N 
ATOM      3  C   UNL A   1      32.371  24.720  26.373  1.00  0.00     0.226 C 
ATOM      4  O   UNL A   1      31.573  24.333  27.241  1.00  0.00    -0.274 OA
ATOM      5  H   UNL A   1      33.293  23.029  26.711  1.00  0.00     0.163 HD
BRANCH   3   6
ATOM      6  C   UNL A   1      32.157  26.109  25.658  1.00  0.00     0.052 C 
ATOM      7  C   UNL A   1      33.436  26.941  25.408  1.00  0.00     0.017 C 
ATOM      8  C   UNL A   1      31.080  26.939  26.388  1.00  0.00     0.017 C 
ATOM      9  C   UNL A   1      33.859  28.008  26.420  1.00  0.00     0.001 C 
ATOM     10  C   UNL A   1      31.549  27.833  27.525  1.00  0.00     0.001 C 
ATOM     11  C   UNL A   1      32.709  28.727  27.115  1.00  0.00     0.000 C 
BRANCH   6  12
ATOM     12  C   UNL A   1      31.532  25.652  24.246  1.00  0.00     0.051 C 
BRANCH  12  13
ATOM     13  C   UNL A   1      32.367  25.708  22.947  1.00  0.00     0.141 C 
BRANCH  13  14
ATOM     14  C   UNL A   1      32.146  27.052  22.204  1.00  0.00     0.192 C 
BRANCH  14  15
ATOM     15  O   UNL A   1      30.779  27.318  21.886  1.00  0.00    -0.376 OA
BRANCH  15  16
ATOM     16  C   UNL A   1      30.106  28.401  22.527  1.00  0.00     0.112 C 
ATOM     17  C   UNL A   1      28.807  28.025  23.235  1.00  0.00     0.038 C 
ATOM     18  C   UNL A   1      31.034  29.180  23.442  1.00  0.00     0.038 C 
ENDBRANCH  15  16
ENDBRANCH  14  15
ENDBRANCH  13  14
BRANCH  13  19
ATOM     19  O   UNL A   1      31.917  24.690  22.033  1.00  0.00    -0.391 OA
ATOM     20  H   UNL A   1      32.495  23.914  22.103  1.00  0.00     0.211 HD
ENDBRANCH  13  19
ENDBRANCH  12  13
ENDBRANCH   6  12
ENDBRANCH   3   6
ENDBRANCH   1   2
BRANCH   1  21
ATOM     21  C   UNL A   1      34.665  22.722  24.420  1.00  0.00     0.023 C 
BRANCH  21  22
ATOM     22  C   UNL A   1      36.038  22.075  24.296  1.00  0.00     0.023 C 
BRANCH  22  23
ATOM     23  C   UNL A   1      36.720  21.742  25.618  1.00  0.00     0.116 C 
BRANCH  23  24
ATOM     24  N   UNL A   1      37.755  20.719  25.523  1.00  0.00    -0.352 N 
ATOM     25  C   UNL A   1      39.067  20.819  25.929  1.00  0.00     0.251 C 
ATOM     26  H   UNL A   1      37.484  19.859  25.124  1.00  0.00     0.163 HD
ATOM     27  O   UNL A   1      39.857  19.899  25.746  1.00  0.00    -0.269 OA
BRANCH  25  28
ATOM     28  C   UNL A   1      39.501  22.090  26.540  1.00  0.00     0.039 A 
ATOM     29  C   UNL A   1      40.518  22.068  27.494  1.00  0.00     0.014 A 
ATOM     30  C   UNL A   1      39.010  23.298  26.037  1.00  0.00     0.014 A 
ATOM     31  C   UNL A   1      41.115  23.269  27.879  1.00  0.00     0.010 A 
ATOM     32  C   UNL A   1      39.664  24.480  26.359  1.00  0.00     0.010 A 
ATOM     33  C   UNL A   1      40.730  24.477  27.273  1.00  0.00    -0.014 A 
BRANCH  33  34
ATOM     34  C   UNL A   1      41.426  25.753  27.576  1.00  0.00     0.031 A 
ATOM     35  C   UNL A   1      40.721  26.809  28.381  1.00  0.00     0.074 A 
ATOM     36  C   UNL A   1      42.647  25.992  27.059  1.00  0.00     0.049 A 
ATOM     37  N   UNL A   1      41.098  28.029  28.660  1.00  0.00    -0.248 NA
ATOM     38  C   UNL A   1      39.393  26.455  28.903  1.00  0.00     0.031 C 
ATOM     39  C   UNL A   1      43.409  25.066  26.216  1.00  0.00     0.029 A 
ATOM     40  N   UNL A   1      43.462  27.092  27.157  1.00  0.00    -0.354 N 
ATOM     41  C   UNL A   1      40.046  28.595  29.370  1.00  0.00     0.074 A 
ATOM     42  C   UNL A   1      38.990  27.607  29.414  1.00  0.00     0.031 C 
ATOM     43  C   UNL A   1      44.590  25.626  25.902  1.00  0.00     0.029 A 
ATOM     44  C   UNL A   1      44.655  26.961  26.483  1.00  0.00     0.049 A 
ATOM     45  H   UNL A   1      43.216  27.900  27.664  1.00  0.00     0.167 HD
ATOM     46  C   UNL A   1      39.978  29.815  29.957  1.00  0.00     0.034 A 
ATOM     47  C   UNL A   1      45.680  27.825  26.346  1.00  0.00     0.034 A 
ATOM     48  C   UNL A   1      41.050  30.777  29.927  1.00  0.00     0.049 A 
ATOM     49  C   UNL A   1      45.587  29.174  27.015  1.00  0.00     0.074 A 
ATOM     50  C   UNL A   1      41.113  32.022  30.529  1.00  0.00     0.029 A 
ATOM     51  N   UNL A   1      42.255  30.598  29.258  1.00  0.00    -0.354 N 
ATOM     52  N   UNL A   1      44.601  29.680  27.719  1.00  0.00    -0.248 NA
ATOM     53  C   UNL A   1      46.749  30.061  26.880  1.00  0.00     0.031 C 
ATOM     54  C   UNL A   1      42.334  32.615  30.183  1.00  0.00     0.029 A 
ATOM     55  C   UNL A   1      43.059  31.716  29.418  1.00  0.00     0.049 A 
ATOM     56  H   UNL A   1      42.501  29.796  28.744  1.00  0.00     0.167 HD
ATOM     57  C   UNL A   1      45.037  30.934  28.135  1.00  0.00     0.074 A 
ATOM     58  C   UNL A   1      46.379  31.100  27.614  1.00  0.00     0.031 C 
ATOM     59  C   UNL A   1      44.392  31.863  28.885  1.00  0.00     0.034 A 
BRANCH  46  60
ATOM     60  C   UNL A   1      38.690  30.167  30.663  1.00  0.00     0.023 A 
ATOM     61  C   UNL A   1      37.643  30.823  29.992  1.00  0.00     0.031 A 
ATOM     62  C   UNL A   1      38.526  29.896  32.031  1.00  0.00     0.131 A 
ATOM     63  C   UNL A   1      36.522  31.269  30.708  1.00  0.00     0.055 A 
ATOM     64  C   UNL A   1      37.368  30.264  32.721  1.00  0.00     0.041 A 
ATOM     65  F   UNL A   1      39.500  29.291  32.730  1.00  0.00    -0.206 F 
ATOM     66  C   UNL A   1      36.365  30.971  32.063  1.00  0.00     0.022 A 
BRANCH  63  67
ATOM     67  S   UNL A   1      35.353  32.380  29.877  1.00  0.00     0.124 S 
ATOM     68  O   UNL A   1      34.386  32.636  30.942  1.00  0.00    -0.237 OA
ATOM     69  O   UNL A   1      36.200  33.505  29.498  1.00  0.00    -0.237 OA
ATOM     70  O   UNL A   1      34.848  31.575  28.767  1.00  0.00    -0.744 OA
ENDBRANCH  63  67
ENDBRANCH  46  60
BRANCH  47  71
ATOM     71  C   UNL A   1      46.887  27.453  25.556  1.00  0.00     0.023 A 
ATOM     72  C   UNL A   1      47.025  27.859  24.219  1.00  0.00     0.031 A 
ATOM     73  C   UNL A   1      47.900  26.652  26.110  1.00  0.00     0.131 A 
ATOM     74  C   UNL A   1      48.127  27.426  23.465  1.00  0.00     0.055 A 
ATOM     75  C   UNL A   1      49.019  26.261  25.370  1.00  0.00     0.041 A 
ATOM     76  F   UNL A   1      47.821  26.244  27.387  1.00  0.00    -0.206 F 
ATOM     77  C   UNL A   1      49.129  26.638  24.035  1.00  0.00     0.022 A 
BRANCH  74  78
ATOM     78  S   UNL A   1      48.192  27.848  21.703  1.00  0.00     0.124 S 
ATOM     79  O   UNL A   1      46.876  28.436  21.488  1.00  0.00    -0.237 OA
ATOM     80  O   UNL A   1      49.323  28.768  21.655  1.00  0.00    -0.237 OA
ATOM     81  O   UNL A   1      48.415  26.558  21.053  1.00  0.00    -0.744 OA
ENDBRANCH  74  78
ENDBRANCH  47  71
BRANCH  59  82
ATOM     82  C   UNL A   1      45.157  33.118  29.221  1.00  0.00     0.023 A 
ATOM     83  C   UNL A   1      45.074  34.270  28.422  1.00  0.00     0.031 A 
ATOM     84  C   UNL A   1      45.987  33.153  30.356  1.00  0.00     0.131 A 
ATOM     85  C   UNL A   1      45.849  35.395  28.739  1.00  0.00     0.055 A 
ATOM     86  C   UNL A   1      46.714  34.293  30.696  1.00  0.00     0.041 A 
ATOM     87  F   UNL A   1      46.101  32.078  31.152  1.00  0.00    -0.206 F 
ATOM     88  C   UNL A   1      46.657  35.420  29.880  1.00  0.00     0.022 A 
BRANCH  85  89
ATOM     89  S   UNL A   1      45.849  36.803  27.596  1.00  0.00     0.124 S 
ATOM     90  O   UNL A   1      46.993  36.502  26.742  1.00  0.00    -0.237 OA
ATOM     91  O   UNL A   1      44.537  36.694  26.966  1.00  0.00    -0.237 OA
ATOM     92  O   UNL A   1      46.018  37.958  28.475  1.00  0.00    -0.744 OA
ENDBRANCH  85  89
ENDBRANCH  59  82
ENDBRANCH  33  34
ENDBRANCH  25  28
ENDBRANCH  23  24
ENDBRANCH  22  23
ENDBRANCH  21  22
ENDBRANCH   1  21
TORSDOF 20
ENDMDL
MODEL 2
REMARK VINA RESULT:     -11.0      5.129      7.895
REMARK SMILES CC(C)OC[C@H](O)CC1(C(=O)NCCCCNC(=O)c2ccc(-c3c4nc(c(-c5cc(S(=O)(=O)[O-])ccc5F)c5ccc([nH]5)c(-c5cc(S(=O)(=O)[O-])ccc5F)c5nc(c(-c6cc(S(=O)(=O)[O-])ccc6F)c6ccc3[nH]6)C=C5)C=C4)cc2)CCCCC1
REMARK SMILES IDX 13 1 12 2 10 3 11 4 9 6 83 7 87 8 84 9 86 10 85 11 8 12 6 13
REMARK SMILES IDX 5 14 4 15 2 16 1 17 3 18 7 19 14 21 15 22 16 23 17 24 18 25
REMARK SMILES IDX 19 27 20 28 21 29 82 30 22 31 81 32 23 33 24 34 25 35 75 36
REMARK SMILES IDX 26 37 80 38 74 39 76 40 27 41 79 42 73 43 72 44 28 46 60 47
REMARK SMILES IDX 40 48 59 49 41 50 44 51 58 52 77 53 42 54 43 55 57 57 78 58
REMARK SMILES IDX 45 59 29 60 30 61 38 62 31 63 37 64 39 65 36 66 32 67 33 68
REMARK SMILES IDX 34 69 35 70 61 71 62 72 70 73 63 74 69 75 71 76 68 77 64 78
REMARK SMILES IDX 65 79 66 80 67 81 46 82 47 83 55 84 48 85 54 86 56 87 53 88
REMARK SMILES IDX 49 89 50 90 51 91 52 92
REMARK H PARENT 12 5 7 20 17 26 76 45 44 56
REMARK Flexibility Score: inf
ROOT
ATOM      1  C   UNL A   1      31.199  26.650  26.084  1.00  0.00     0.116 C 
ENDROOT
BRANCH   1   2
ATOM      2  N   UNL A   1      30.943  25.422  26.787  1.00  0.00    -0.356 N 
ATOM      3  C   UNL A   1      31.213  24.124  26.541  1.00  0.00     0.226 C 
ATOM      4  O   UNL A   1      30.707  23.366  27.384  1.00  0.00    -0.274 OA
ATOM      5  H   UNL A   1      30.464  25.560  27.637  1.00  0.00     0.163 HD
BRANCH   3   6
ATOM      6  C   UNL A   1      32.019  23.534  25.321  1.00  0.00     0.052 C 
ATOM      7  C   UNL A   1      33.528  23.869  25.288  1.00  0.00     0.017 C 
ATOM      8  C   UNL A   1      31.333  23.895  23.988  1.00  0.00     0.017 C 
ATOM      9  C   UNL A   1      34.021  25.074  24.483  1.00  0.00     0.001 C 
ATOM     10  C   UNL A   1      31.727  25.213  23.341  1.00  0.00     0.001 C 
ATOM     11  C   UNL A   1      33.235  25.363  23.210  1.00  0.00     0.000 C 
BRANCH   6  12
ATOM     12  C   UNL A   1      31.829  21.950  25.544  1.00  0.00     0.051 C 
BRANCH  12  13
ATOM     13  C   UNL A   1      33.010  20.970  25.367  1.00  0.00     0.141 C 
BRANCH  13  14
ATOM     14  C   UNL A   1      32.620  19.796  24.430  1.00  0.00     0.192 C 
BRANCH  14  15
ATOM     15  O   UNL A   1      32.342  18.577  25.118  1.00  0.00    -0.376 OA
BRANCH  15  16
ATOM     16  C   UNL A   1      32.871  17.349  24.617  1.00  0.00     0.112 C 
ATOM     17  C   UNL A   1      34.334  17.404  24.188  1.00  0.00     0.038 C 
ATOM     18  C   UNL A   1      32.611  16.193  25.566  1.00  0.00     0.038 C 
ENDBRANCH  15  16
ENDBRANCH  14  15
ENDBRANCH  13  14
BRANCH  13  19
ATOM     19  O   UNL A   1      33.331  20.357  26.631  1.00  0.00    -0.391 OA
ATOM     20  H   UNL A   1      32.523  19.999  27.030  1.00  0.00     0.211 HD
ENDBRANCH  13  19
ENDBRANCH  12  13
ENDBRANCH   6  12
ENDBRANCH   3   6
ENDBRANCH   1   2
BRANCH   1  21
ATOM     21  C   UNL A   1      32.262  27.498  26.775  1.00  0.00     0.023 C 
BRANCH  21  22
ATOM     22  C   UNL A   1      31.908  28.973  26.912  1.00  0.00     0.023 C 
BRANCH  22  23
ATOM     23  C   UNL A   1      32.989  29.944  26.453  1.00  0.00     0.116 C 
BRANCH  23  24
ATOM     24  N   UNL A   1      32.853  31.295  26.984  1.00  0.00    -0.352 N 
ATOM     25  C   UNL A   1      33.785  32.005  27.709  1.00  0.00     0.251 C 
ATOM     26  H   UNL A   1      31.999  31.752  26.803  1.00  0.00     0.163 HD
ATOM     27  O   UNL A   1      33.528  33.121  28.146  1.00  0.00    -0.269 OA
BRANCH  25  28
ATOM     28  C   UNL A   1      35.079  31.353  27.988  1.00  0.00     0.039 A 
ATOM     29  C   UNL A   1      36.236  32.132  28.014  1.00  0.00     0.014 A 
ATOM     30  C   UNL A   1      35.104  30.014  28.382  1.00  0.00     0.014 A 
ATOM     31  C   UNL A   1      37.411  31.587  28.531  1.00  0.00     0.010 A 
ATOM     32  C   UNL A   1      36.251  29.503  28.974  1.00  0.00     0.010 A 
ATOM     33  C   UNL A   1      37.412  30.288  29.066  1.00  0.00    -0.014 A 
BRANCH  33  34
ATOM     34  C   UNL A   1      38.616  29.724  29.728  1.00  0.00     0.031 A 
ATOM     35  C   UNL A   1      39.014  30.221  31.090  1.00  0.00     0.074 A 
ATOM     36  C   UNL A   1      39.392  28.837  29.074  1.00  0.00     0.049 A 
ATOM     37  N   UNL A   1      40.082  29.951  31.793  1.00  0.00    -0.248 NA
ATOM     38  C   UNL A   1      38.104  31.188  31.724  1.00  0.00     0.031 C 
ATOM     39  C   UNL A   1      39.139  28.322  27.725  1.00  0.00     0.029 A 
ATOM     40  N   UNL A   1      40.556  28.217  29.449  1.00  0.00    -0.354 N 
ATOM     41  C   UNL A   1      39.984  30.730  32.941  1.00  0.00     0.074 A 
ATOM     42  C   UNL A   1      38.789  31.534  32.801  1.00  0.00     0.031 C 
ATOM     43  C   UNL A   1      40.103  27.442  27.402  1.00  0.00     0.029 A 
ATOM     44  C   UNL A   1      41.061  27.360  28.498  1.00  0.00     0.049 A 
ATOM     45  H   UNL A   1      40.990  28.370  30.321  1.00  0.00     0.167 HD
ATOM     46  C   UNL A   1      40.800  30.751  34.023  1.00  0.00     0.034 A 
ATOM     47  C   UNL A   1      42.175  26.602  28.509  1.00  0.00     0.034 A 
ATOM     48  C   UNL A   1      41.972  29.923  34.157  1.00  0.00     0.049 A 
ATOM     49  C   UNL A   1      43.063  26.633  29.727  1.00  0.00     0.074 A 
ATOM     50  C   UNL A   1      42.843  29.822  35.228  1.00  0.00     0.029 A 
ATOM     51  N   UNL A   1      42.437  29.046  33.183  1.00  0.00    -0.354 N 
ATOM     52  N   UNL A   1      42.936  27.345  30.823  1.00  0.00    -0.248 NA
ATOM     53  C   UNL A   1      44.237  25.752  29.713  1.00  0.00     0.031 C 
ATOM     54  C   UNL A   1      43.860  28.923  34.883  1.00  0.00     0.029 A 
ATOM     55  C   UNL A   1      43.590  28.415  33.623  1.00  0.00     0.049 A 
ATOM     56  H   UNL A   1      42.010  28.896  32.310  1.00  0.00     0.167 HD
ATOM     57  C   UNL A   1      43.999  26.974  31.641  1.00  0.00     0.074 A 
ATOM     58  C   UNL A   1      44.748  25.967  30.917  1.00  0.00     0.031 C 
ATOM     59  C   UNL A   1      44.324  27.418  32.882  1.00  0.00     0.034 A 
BRANCH  46  60
ATOM     60  C   UNL A   1      40.447  31.715  35.131  1.00  0.00     0.023 A 
ATOM     61  C   UNL A   1      39.492  31.389  36.110  1.00  0.00     0.031 A 
ATOM     62  C   UNL A   1      41.029  32.993  35.179  1.00  0.00     0.131 A 
ATOM     63  C   UNL A   1      39.078  32.358  37.035  1.00  0.00     0.055 A 
ATOM     64  C   UNL A   1      40.677  33.925  36.159  1.00  0.00     0.041 A 
ATOM     65  F   UNL A   1      41.931  33.370  34.259  1.00  0.00    -0.206 F 
ATOM     66  C   UNL A   1      39.683  33.616  37.083  1.00  0.00     0.022 A 
BRANCH  63  67
ATOM     67  S   UNL A   1      37.629  32.002  38.067  1.00  0.00     0.124 S 
ATOM     68  O   UNL A   1      36.659  32.964  37.551  1.00  0.00    -0.237 OA
ATOM     69  O   UNL A   1      37.363  30.600  37.766  1.00  0.00    -0.237 OA
ATOM     70  O   UNL A   1      38.102  32.272  39.424  1.00  0.00    -0.744 OA
ENDBRANCH  63  67
ENDBRANCH  46  60
BRANCH  47  71
ATOM     71  C   UNL A   1      42.518  25.740  27.342  1.00  0.00     0.023 A 
ATOM     72  C   UNL A   1      42.114  24.397  27.296  1.00  0.00     0.031 A 
ATOM     73  C   UNL A   1      43.290  26.235  26.276  1.00  0.00     0.131 A 
ATOM     74  C   UNL A   1      42.521  23.579  26.230  1.00  0.00     0.055 A 
ATOM     75  C   UNL A   1      43.654  25.429  25.194  1.00  0.00     0.041 A 
ATOM     76  F   UNL A   1      43.694  27.515  26.267  1.00  0.00    -0.206 F 
ATOM     77  C   UNL A   1      43.279  24.090  25.174  1.00  0.00     0.022 A 
BRANCH  74  78
ATOM     78  S   UNL A   1      42.104  21.815  26.282  1.00  0.00     0.124 S 
ATOM     79  O   UNL A   1      42.461  21.465  27.651  1.00  0.00    -0.237 OA
ATOM     80  O   UNL A   1      40.678  21.832  25.974  1.00  0.00    -0.237 OA
ATOM     81  O   UNL A   1      42.956  21.234  25.246  1.00  0.00    -0.744 OA
ENDBRANCH  74  78
ENDBRANCH  47  71
BRANCH  59  82
ATOM     82  C   UNL A   1      45.517  26.777  33.544  1.00  0.00     0.023 A 
ATOM     83  C   UNL A   1      45.398  25.604  34.307  1.00  0.00     0.031 A 
ATOM     84  C   UNL A   1      46.791  27.359  33.413  1.00  0.00     0.131 A 
ATOM     85  C   UNL A   1      46.524  25.076  34.954  1.00  0.00     0.055 A 
ATOM     86  C   UNL A   1      47.917  26.800  34.015  1.00  0.00     0.041 A 
ATOM     87  F   UNL A   1      46.959  28.481  32.695  1.00  0.00    -0.206 F 
ATOM     88  C   UNL A   1      47.786  25.658  34.801  1.00  0.00     0.022 A 
BRANCH  85  89
ATOM     89  S   UNL A   1      46.306  23.659  36.066  1.00  0.00     0.124 S 
ATOM     90  O   UNL A   1      46.763  24.202  37.341  1.00  0.00    -0.237 OA
ATOM     91  O   UNL A   1      44.874  23.398  35.961  1.00  0.00    -0.237 OA
ATOM     92  O   UNL A   1      47.166  22.631  35.484  1.00  0.00    -0.744 OA
ENDBRANCH  85  89
ENDBRANCH  59  82
ENDBRANCH  33  34
ENDBRANCH  25  28
ENDBRANCH  23  24
ENDBRANCH  22  23
ENDBRANCH  21  22
ENDBRANCH   1  21
TORSDOF 20
ENDMDL
MODEL 3
REMARK VINA RESULT:     -10.8      1.217      2.105
REMARK SMILES CC(C)OC[C@H](O)CC1(C(=O)NCCCCNC(=O)c2ccc(-c3c4nc(c(-c5cc(S(=O)(=O)[O-])ccc5F)c5ccc([nH]5)c(-c5cc(S(=O)(=O)[O-])ccc5F)c5nc(c(-c6cc(S(=O)(=O)[O-])ccc6F)c6ccc3[nH]6)C=C5)C=C4)cc2)CCCCC1
REMARK SMILES IDX 13 1 12 2 10 3 11 4 9 6 83 7 87 8 84 9 86 10 85 11 8 12 6 13
REMARK SMILES IDX 5 14 4 15 2 16 1 17 3 18 7 19 14 21 15 22 16 23 17 24 18 25
REMARK SMILES IDX 19 27 20 28 21 29 82 30 22 31 81 32 23 33 24 34 25 35 75 36
REMARK SMILES IDX 26 37 80 38 74 39 76 40 27 41 79 42 73 43 72 44 28 46 60 47
REMARK SMILES IDX 40 48 59 49 41 50 44 51 58 52 77 53 42 54 43 55 57 57 78 58
REMARK SMILES IDX 45 59 29 60 30 61 38 62 31 63 37 64 39 65 36 66 32 67 33 68
REMARK SMILES IDX 34 69 35 70 61 71 62 72 70 73 63 74 69 75 71 76 68 77 64 78
REMARK SMILES IDX 65 79 66 80 67 81 46 82 47 83 55 84 48 85 54 86 56 87 53 88
REMARK SMILES IDX 49 89 50 90 51 91 52 92
REMARK H PARENT 12 5 7 20 17 26 76 45 44 56
REMARK Flexibility Score: inf
ROOT
ATOM      1  C   UNL A   1      34.286  20.161  25.107  1.00  0.00     0.116 C 
ENDROOT
BRANCH   1   2
ATOM      2  N   UNL A   1      33.876  20.810  26.323  1.00  0.00    -0.356 N 
ATOM      3  C   UNL A   1      33.247  21.970  26.604  1.00  0.00     0.226 C 
ATOM      4  O   UNL A   1      33.186  22.194  27.823  1.00  0.00    -0.274 OA
ATOM      5  H   UNL A   1      34.106  20.293  27.130  1.00  0.00     0.163 HD
BRANCH   3   6
ATOM      6  C   UNL A   1      32.673  23.016  25.573  1.00  0.00     0.052 C 
ATOM      7  C   UNL A   1      31.820  22.429  24.425  1.00  0.00     0.017 C 
ATOM      8  C   UNL A   1      33.799  23.922  25.031  1.00  0.00     0.017 C 
ATOM      9  C   UNL A   1      32.475  22.102  23.081  1.00  0.00     0.001 C 
ATOM     10  C   UNL A   1      34.548  23.434  23.801  1.00  0.00     0.001 C 
ATOM     11  C   UNL A   1      33.608  23.037  22.673  1.00  0.00     0.000 C 
BRANCH   6  12
ATOM     12  C   UNL A   1      31.742  23.926  26.520  1.00  0.00     0.051 C 
BRANCH  12  13
ATOM     13  C   UNL A   1      30.420  24.532  25.997  1.00  0.00     0.141 C 
BRANCH  13  14
ATOM     14  C   UNL A   1      30.500  26.081  25.955  1.00  0.00     0.192 C 
BRANCH  14  15
ATOM     15  O   UNL A   1      31.449  26.585  25.015  1.00  0.00    -0.376 OA
BRANCH  15  16
ATOM     16  C   UNL A   1      31.027  26.897  23.687  1.00  0.00     0.112 C 
ATOM     17  C   UNL A   1      31.284  25.803  22.654  1.00  0.00     0.038 C 
ATOM     18  C   UNL A   1      29.584  27.370  23.651  1.00  0.00     0.038 C 
ENDBRANCH  15  16
ENDBRANCH  14  15
ENDBRANCH  13  14
BRANCH  13  19
ATOM     19  O   UNL A   1      29.349  24.231  26.912  1.00  0.00    -0.391 OA
ATOM     20  H   UNL A   1      28.760  24.999  26.984  1.00  0.00     0.211 HD
ENDBRANCH  13  19
ENDBRANCH  12  13
ENDBRANCH   6  12
ENDBRANCH   3   6
ENDBRANCH   1   2
BRANCH   1  21
ATOM     21  C   UNL A   1      35.804  20.112  24.965  1.00  0.00     0.023 C 
BRANCH  21  22
ATOM     22  C   UNL A   1      36.543  21.263  25.635  1.00  0.00     0.023 C 
BRANCH  22  23
ATOM     23  C   UNL A   1      37.979  21.470  25.168  1.00  0.00     0.116 C 
BRANCH  23  24
ATOM     24  N   UNL A   1      38.903  20.418  25.572  1.00  0.00    -0.352 N 
ATOM     25  C   UNL A   1      40.005  20.543  26.389  1.00  0.00     0.251 C 
ATOM     26  H   UNL A   1      38.719  19.515  25.222  1.00  0.00     0.163 HD
ATOM     27  O   UNL A   1      40.737  19.585  26.613  1.00  0.00    -0.269 OA
BRANCH  25  28
ATOM     28  C   UNL A   1      40.303  21.880  26.938  1.00  0.00     0.039 A 
ATOM     29  C   UNL A   1      41.264  21.998  27.943  1.00  0.00     0.014 A 
ATOM     30  C   UNL A   1      39.748  23.011  26.336  1.00  0.00     0.014 A 
ATOM     31  C   UNL A   1      41.743  23.264  28.279  1.00  0.00     0.010 A 
ATOM     32  C   UNL A   1      40.287  24.260  26.614  1.00  0.00     0.010 A 
ATOM     33  C   UNL A   1      41.298  24.398  27.579  1.00  0.00    -0.014 A 
BRANCH  33  34
ATOM     34  C   UNL A   1      41.875  25.743  27.835  1.00  0.00     0.031 A 
ATOM     35  C   UNL A   1      41.057  26.774  28.562  1.00  0.00     0.074 A 
ATOM     36  C   UNL A   1      43.088  26.060  27.342  1.00  0.00     0.049 A 
ATOM     37  N   UNL A   1      41.320  28.034  28.787  1.00  0.00    -0.248 NA
ATOM     38  C   UNL A   1      39.746  26.333  29.063  1.00  0.00     0.031 C 
ATOM     39  C   UNL A   1      43.953  25.161  26.571  1.00  0.00     0.029 A 
ATOM     40  N   UNL A   1      43.804  27.228  27.406  1.00  0.00    -0.354 N 
ATOM     41  C   UNL A   1      40.200  28.543  29.435  1.00  0.00     0.074 A 
ATOM     42  C   UNL A   1      39.230  27.471  29.500  1.00  0.00     0.031 C 
ATOM     43  C   UNL A   1      45.093  25.803  26.264  1.00  0.00     0.029 A 
ATOM     44  C   UNL A   1      45.026  27.167  26.775  1.00  0.00     0.049 A 
ATOM     45  H   UNL A   1      43.474  28.037  27.862  1.00  0.00     0.167 HD
ATOM     46  C   UNL A   1      40.010  29.780  29.955  1.00  0.00     0.034 A 
ATOM     47  C   UNL A   1      45.978  28.107  26.623  1.00  0.00     0.034 A 
ATOM     48  C   UNL A   1      40.999  30.827  29.906  1.00  0.00     0.049 A 
ATOM     49  C   UNL A   1      45.750  29.475  27.217  1.00  0.00     0.074 A 
ATOM     50  C   UNL A   1      40.936  32.102  30.442  1.00  0.00     0.029 A 
ATOM     51  N   UNL A   1      42.236  30.719  29.282  1.00  0.00    -0.354 N 
ATOM     52  N   UNL A   1      44.701  29.929  27.864  1.00  0.00    -0.248 NA
ATOM     53  C   UNL A   1      46.837  30.450  27.069  1.00  0.00     0.031 C 
ATOM     54  C   UNL A   1      42.114  32.779  30.102  1.00  0.00     0.029 A 
ATOM     55  C   UNL A   1      42.938  31.908  29.407  1.00  0.00     0.049 A 
ATOM     56  H   UNL A   1      42.566  29.916  28.819  1.00  0.00     0.167 HD
ATOM     57  C   UNL A   1      45.017  31.235  28.226  1.00  0.00     0.074 A 
ATOM     58  C   UNL A   1      46.357  31.489  27.736  1.00  0.00     0.031 C 
ATOM     59  C   UNL A   1      44.271  32.142  28.907  1.00  0.00     0.034 A 
BRANCH  46  60
ATOM     60  C   UNL A   1      38.674  30.056  30.603  1.00  0.00     0.023 A 
ATOM     61  C   UNL A   1      37.655  30.741  29.918  1.00  0.00     0.031 A 
ATOM     62  C   UNL A   1      38.434  29.681  31.935  1.00  0.00     0.131 A 
ATOM     63  C   UNL A   1      36.484  31.112  30.593  1.00  0.00     0.055 A 
ATOM     64  C   UNL A   1      37.228  29.975  32.576  1.00  0.00     0.041 A 
ATOM     65  F   UNL A   1      39.377  29.043  32.647  1.00  0.00    -0.206 F 
ATOM     66  C   UNL A   1      36.251  30.711  31.910  1.00  0.00     0.022 A 
BRANCH  63  67
ATOM     67  S   UNL A   1      35.342  32.260  29.774  1.00  0.00     0.124 S 
ATOM     68  O   UNL A   1      34.394  32.545  30.848  1.00  0.00    -0.237 OA
ATOM     69  O   UNL A   1      36.221  33.357  29.388  1.00  0.00    -0.237 OA
ATOM     70  O   UNL A   1      34.801  31.473  28.668  1.00  0.00    -0.744 OA
ENDBRANCH  63  67
ENDBRANCH  46  60
BRANCH  47  71
ATOM     71  C   UNL A   1      47.238  27.800  25.889  1.00  0.00     0.023 A 
ATOM     72  C   UNL A   1      47.316  27.959  24.496  1.00  0.00     0.031 A 
ATOM     73  C   UNL A   1      48.369  27.305  26.562  1.00  0.00     0.131 A 
ATOM     74  C   UNL A   1      48.483  27.583  23.813  1.00  0.00     0.055 A 
ATOM     75  C   UNL A   1      49.545  26.975  25.883  1.00  0.00     0.041 A 
ATOM     76  F   UNL A   1      48.350  27.144  27.894  1.00  0.00    -0.206 F 
ATOM     77  C   UNL A   1      49.601  27.102  24.498  1.00  0.00     0.022 A 
BRANCH  74  78
ATOM     78  S   UNL A   1      48.491  27.664  22.001  1.00  0.00     0.124 S 
ATOM     79  O   UNL A   1      47.176  28.227  21.722  1.00  0.00    -0.237 OA
ATOM     80  O   UNL A   1      49.632  28.536  21.743  1.00  0.00    -0.237 OA
ATOM     81  O   UNL A   1      48.673  26.270  21.600  1.00  0.00    -0.744 OA
ENDBRANCH  74  78
ENDBRANCH  47  71
BRANCH  59  82
ATOM     82  C   UNL A   1      44.916  33.473  29.198  1.00  0.00     0.023 A 
ATOM     83  C   UNL A   1      44.842  34.544  28.292  1.00  0.00     0.031 A 
ATOM     84  C   UNL A   1      45.621  33.664  30.400  1.00  0.00     0.131 A 
ATOM     85  C   UNL A   1      45.507  35.745  28.578  1.00  0.00     0.055 A 
ATOM     86  C   UNL A   1      46.236  34.879  30.703  1.00  0.00     0.041 A 
ATOM     87  F   UNL A   1      45.721  32.672  31.299  1.00  0.00    -0.206 F 
ATOM     88  C   UNL A   1      46.191  35.925  29.785  1.00  0.00     0.022 A 
BRANCH  85  89
ATOM     89  S   UNL A   1      45.535  37.048  27.316  1.00  0.00     0.124 S 
ATOM     90  O   UNL A   1      46.289  38.102  27.985  1.00  0.00    -0.237 OA
ATOM     91  O   UNL A   1      46.210  36.389  26.203  1.00  0.00    -0.237 OA
ATOM     92  O   UNL A   1      44.120  37.341  27.096  1.00  0.00    -0.744 OA
ENDBRANCH  85  89
ENDBRANCH  59  82
ENDBRANCH  33  34
ENDBRANCH  25  28
ENDBRANCH  23  24
ENDBRANCH  22  23
ENDBRANCH  21  22
ENDBRANCH   1  21
TORSDOF 20
ENDMDL
