MODEL 1
REMARK VINA RESULT:     -12.5      0.000      0.000
REMARK SMILES O=C(NCCCCNC(=O)c1ccc(-c2c3nc(c(-c4cc(S(=O)(=O)[O-])ccc4F)c4ccc([nH]4)c(-c4cc(S(=O)(=O)[O-])ccc4F)c4nc(c(-c5cc(S(=O)(=O)[O-])ccc5F)c5ccc2[nH]5)C=C4)C=C3)cc1)C1=Cc2cc(OC(F)(F)F)ccc2O[C@@H]1C(F)(F)F
REMARK SMILES IDX 6 1 5 2 4 3 3 4 1 5 2 6 74 8 75 9 88 10 76 11 87 12 77 13
REMARK SMILES IDX 86 14 78 15 85 16 84 17 89 18 90 19 91 20 92 21 79 22 80 23
REMARK SMILES IDX 81 24 82 25 83 26 7 27 8 28 9 29 10 31 11 32 12 33 73 34
REMARK SMILES IDX 13 35 72 36 14 37 15 38 16 39 66 40 17 41 71 42 65 43 67 44
REMARK SMILES IDX 18 45 70 46 64 47 63 48 19 50 51 51 31 52 50 53 32 54 35 55
REMARK SMILES IDX 49 56 68 57 33 58 34 59 48 61 69 62 36 63 20 64 21 65 29 66
REMARK SMILES IDX 22 67 28 68 30 69 27 70 23 71 24 72 25 73 26 74 52 75 53 76
REMARK SMILES IDX 61 77 54 78 60 79 62 80 59 81 55 82 56 83 57 84 58 85 37 86
REMARK SMILES IDX 38 87 46 88 39 89 45 90 47 91 44 92 40 93 41 94 42 95 43 96
REMARK H PARENT 3 7 8 30 67 49 35 60
REMARK Flexibility Score: inf
ROOT
ATOM      1  C   UNL A   1      31.523  30.328  26.830  1.00  0.00     0.023 C 
ENDROOT
BRANCH   1   2
ATOM      2  C   UNL A   1      31.317  29.117  25.918  1.00  0.00     0.023 C 
BRANCH   2   3
ATOM      3  C   UNL A   1      32.267  27.953  26.202  1.00  0.00     0.116 C 
BRANCH   3   4
ATOM      4  N   UNL A   1      31.610  26.802  26.832  1.00  0.00    -0.352 N 
ATOM      5  O   UNL A   1      30.686  24.725  26.897  1.00  0.00    -0.270 OA
ATOM      6  C   UNL A   1      30.972  25.728  26.256  1.00  0.00     0.251 C 
ATOM      7  H   UNL A   1      31.627  26.798  27.816  1.00  0.00     0.163 HD
BRANCH   6   8
ATOM      8  C   UNL A   1      30.710  25.797  24.807  1.00  0.00     0.067 C 
ATOM      9  C   UNL A   1      29.546  26.333  24.418  1.00  0.00     0.025 C 
ATOM     10  C   UNL A   1      31.878  25.631  23.884  1.00  0.00     0.314 C 
ATOM     11  C   UNL A   1      29.693  27.301  23.323  1.00  0.00     0.021 A 
ATOM     12  O   UNL A   1      32.083  26.805  23.059  1.00  0.00    -0.475 OA
ATOM     13  C   UNL A   1      28.657  28.220  23.128  1.00  0.00     0.058 A 
ATOM     14  C   UNL A   1      30.976  27.579  22.815  1.00  0.00     0.128 A 
ATOM     15  C   UNL A   1      28.932  29.460  22.551  1.00  0.00     0.130 A 
ATOM     16  C   UNL A   1      31.226  28.793  22.177  1.00  0.00     0.051 A 
ATOM     17  C   UNL A   1      30.211  29.744  22.067  1.00  0.00     0.050 A 
BRANCH  10  18
ATOM     18  C   UNL A   1      31.749  24.368  23.015  1.00  0.00     0.429 C 
ATOM     19  F   UNL A   1      32.287  23.289  23.638  1.00  0.00    -0.167 F 
ATOM     20  F   UNL A   1      30.457  24.059  22.756  1.00  0.00    -0.167 F 
ATOM     21  F   UNL A   1      32.379  24.490  21.822  1.00  0.00    -0.167 F 
ENDBRANCH  10  18
BRANCH  15  22
ATOM     22  O   UNL A   1      27.895  30.350  22.515  1.00  0.00    -0.406 OA
BRANCH  22  23
ATOM     23  C   UNL A   1      28.012  31.399  23.477  1.00  0.00     0.573 C 
ATOM     24  F   UNL A   1      26.904  31.459  24.250  1.00  0.00    -0.132 F 
ATOM     25  F   UNL A   1      29.110  31.222  24.235  1.00  0.00    -0.132 F 
ATOM     26  F   UNL A   1      28.131  32.569  22.812  1.00  0.00    -0.132 F 
ENDBRANCH  22  23
ENDBRANCH  15  22
ENDBRANCH   6   8
ENDBRANCH   3   4
ENDBRANCH   2   3
ENDBRANCH   1   2
BRANCH   1  27
ATOM     27  C   UNL A   1      32.399  31.456  26.286  1.00  0.00     0.116 C 
BRANCH  27  28
ATOM     28  N   UNL A   1      32.238  32.736  26.957  1.00  0.00    -0.352 N 
ATOM     29  C   UNL A   1      33.124  33.376  27.801  1.00  0.00     0.251 C 
ATOM     30  H   UNL A   1      31.389  33.205  26.790  1.00  0.00     0.163 HD
ATOM     31  O   UNL A   1      32.837  34.464  28.295  1.00  0.00    -0.269 OA
BRANCH  29  32
ATOM     32  C   UNL A   1      34.392  32.703  28.158  1.00  0.00     0.039 A 
ATOM     33  C   UNL A   1      35.565  33.462  28.192  1.00  0.00     0.014 A 
ATOM     34  C   UNL A   1      34.400  31.369  28.571  1.00  0.00     0.014 A 
ATOM     35  C   UNL A   1      36.723  32.916  28.751  1.00  0.00     0.010 A 
ATOM     36  C   UNL A   1      35.534  30.851  29.193  1.00  0.00     0.010 A 
ATOM     37  C   UNL A   1      36.698  31.629  29.314  1.00  0.00    -0.014 A 
BRANCH  37  38
ATOM     38  C   UNL A   1      37.863  31.094  30.068  1.00  0.00     0.031 A 
ATOM     39  C   UNL A   1      38.785  30.098  29.421  1.00  0.00     0.074 A 
ATOM     40  C   UNL A   1      38.037  31.439  31.360  1.00  0.00     0.049 A 
ATOM     41  N   UNL A   1      39.789  29.439  29.940  1.00  0.00    -0.248 NA
ATOM     42  C   UNL A   1      38.516  29.777  28.012  1.00  0.00     0.031 C 
ATOM     43  C   UNL A   1      37.177  32.355  32.115  1.00  0.00     0.029 A 
ATOM     44  N   UNL A   1      38.986  31.052  32.274  1.00  0.00    -0.354 N 
ATOM     45  C   UNL A   1      40.261  28.612  28.927  1.00  0.00     0.074 A 
ATOM     46  C   UNL A   1      39.391  28.810  27.786  1.00  0.00     0.031 C 
ATOM     47  C   UNL A   1      37.649  32.475  33.366  1.00  0.00     0.029 A 
ATOM     48  C   UNL A   1      38.819  31.615  33.519  1.00  0.00     0.049 A 
ATOM     49  H   UNL A   1      39.717  30.431  32.059  1.00  0.00     0.167 HD
ATOM     50  C   UNL A   1      41.333  27.780  28.941  1.00  0.00     0.034 A 
ATOM     51  C   UNL A   1      39.521  31.450  34.659  1.00  0.00     0.034 A 
ATOM     52  C   UNL A   1      42.198  27.606  30.083  1.00  0.00     0.049 A 
ATOM     53  C   UNL A   1      40.710  30.523  34.650  1.00  0.00     0.074 A 
ATOM     54  C   UNL A   1      43.340  26.833  30.191  1.00  0.00     0.029 A 
ATOM     55  N   UNL A   1      42.013  28.214  31.318  1.00  0.00    -0.354 N 
ATOM     56  N   UNL A   1      41.173  29.784  33.668  1.00  0.00    -0.248 NA
ATOM     57  C   UNL A   1      41.477  30.418  35.898  1.00  0.00     0.031 C 
ATOM     58  C   UNL A   1      43.814  26.929  31.505  1.00  0.00     0.029 A 
ATOM     59  C   UNL A   1      43.007  27.816  32.200  1.00  0.00     0.049 A 
ATOM     60  H   UNL A   1      41.283  28.838  31.536  1.00  0.00     0.167 HD
ATOM     61  C   UNL A   1      42.303  29.147  34.174  1.00  0.00     0.074 A 
ATOM     62  C   UNL A   1      42.457  29.601  35.542  1.00  0.00     0.031 C 
ATOM     63  C   UNL A   1      43.139  28.271  33.563  1.00  0.00     0.034 A 
BRANCH  50  64
ATOM     64  C   UNL A   1      41.603  26.984  27.686  1.00  0.00     0.023 A 
ATOM     65  C   UNL A   1      41.290  25.615  27.603  1.00  0.00     0.031 A 
ATOM     66  C   UNL A   1      42.224  27.584  26.578  1.00  0.00     0.131 A 
ATOM     67  C   UNL A   1      41.678  24.874  26.478  1.00  0.00     0.055 A 
ATOM     68  C   UNL A   1      42.531  26.860  25.424  1.00  0.00     0.041 A 
ATOM     69  F   UNL A   1      42.564  28.882  26.605  1.00  0.00    -0.206 F 
ATOM     70  C   UNL A   1      42.273  25.492  25.376  1.00  0.00     0.022 A 
BRANCH  67  71
ATOM     71  S   UNL A   1      41.535  23.068  26.541  1.00  0.00     0.124 S 
ATOM     72  O   UNL A   1      42.277  22.673  25.346  1.00  0.00    -0.237 OA
ATOM     73  O   UNL A   1      42.161  22.746  27.817  1.00  0.00    -0.237 OA
ATOM     74  O   UNL A   1      40.093  22.836  26.476  1.00  0.00    -0.744 OA
ENDBRANCH  67  71
ENDBRANCH  50  64
BRANCH  51  75
ATOM     75  C   UNL A   1      39.125  32.166  35.905  1.00  0.00     0.023 A 
ATOM     76  C   UNL A   1      38.347  31.533  36.886  1.00  0.00     0.031 A 
ATOM     77  C   UNL A   1      39.486  33.509  36.114  1.00  0.00     0.131 A 
ATOM     78  C   UNL A   1      37.916  32.254  38.012  1.00  0.00     0.055 A 
ATOM     79  C   UNL A   1      39.094  34.208  37.257  1.00  0.00     0.041 A 
ATOM     80  F   UNL A   1      40.236  34.159  35.210  1.00  0.00    -0.206 F 
ATOM     81  C   UNL A   1      38.293  33.583  38.209  1.00  0.00     0.022 A 
BRANCH  78  82
ATOM     82  S   UNL A   1      36.788  31.446  39.181  1.00  0.00     0.124 S 
ATOM     83  O   UNL A   1      36.609  30.136  38.566  1.00  0.00    -0.237 OA
ATOM     84  O   UNL A   1      37.562  31.476  40.417  1.00  0.00    -0.237 OA
ATOM     85  O   UNL A   1      35.609  32.310  39.166  1.00  0.00    -0.744 OA
ENDBRANCH  78  82
ENDBRANCH  51  75
BRANCH  63  86
ATOM     86  C   UNL A   1      44.321  27.785  34.365  1.00  0.00     0.023 A 
ATOM     87  C   UNL A   1      44.242  26.641  35.177  1.00  0.00     0.031 A 
ATOM     88  C   UNL A   1      45.538  28.487  34.321  1.00  0.00     0.131 A 
ATOM     89  C   UNL A   1      45.347  26.261  35.954  1.00  0.00     0.055 A 
ATOM     90  C   UNL A   1      46.650  28.072  35.054  1.00  0.00     0.041 A 
ATOM     91  F   UNL A   1      45.666  29.587  33.562  1.00  0.00    -0.206 F 
ATOM     92  C   UNL A   1      46.555  26.959  35.886  1.00  0.00     0.022 A 
BRANCH  89  93
ATOM     93  S   UNL A   1      45.159  24.883  37.118  1.00  0.00     0.124 S 
ATOM     94  O   UNL A   1      43.885  25.196  37.757  1.00  0.00    -0.237 OA
ATOM     95  O   UNL A   1      45.161  23.723  36.234  1.00  0.00    -0.237 OA
ATOM     96  O   UNL A   1      46.332  25.003  37.984  1.00  0.00    -0.744 OA
ENDBRANCH  89  93
ENDBRANCH  63  86
ENDBRANCH  37  38
ENDBRANCH  29  32
ENDBRANCH  27  28
ENDBRANCH   1  27
TORSDOF 17
ENDMDL
MODEL 2
REMARK VINA RESULT:     -12.5      2.243      2.699
REMARK SMILES O=C(NCCCCNC(=O)c1ccc(-c2c3nc(c(-c4cc(S(=O)(=O)[O-])ccc4F)c4ccc([nH]4)c(-c4cc(S(=O)(=O)[O-])ccc4F)c4nc(c(-c5cc(S(=O)(=O)[O-])ccc5F)c5ccc2[nH]5)C=C4)C=C3)cc1)C1=Cc2cc(OC(F)(F)F)ccc2O[C@@H]1C(F)(F)F
REMARK SMILES IDX 6 1 5 2 4 3 3 4 1 5 2 6 74 8 75 9 88 10 76 11 87 12 77 13
REMARK SMILES IDX 86 14 78 15 85 16 84 17 89 18 90 19 91 20 92 21 79 22 80 23
REMARK SMILES IDX 81 24 82 25 83 26 7 27 8 28 9 29 10 31 11 32 12 33 73 34
REMARK SMILES IDX 13 35 72 36 14 37 15 38 16 39 66 40 17 41 71 42 65 43 67 44
REMARK SMILES IDX 18 45 70 46 64 47 63 48 19 50 51 51 31 52 50 53 32 54 35 55
REMARK SMILES IDX 49 56 68 57 33 58 34 59 48 61 69 62 36 63 20 64 21 65 29 66
REMARK SMILES IDX 22 67 28 68 30 69 27 70 23 71 24 72 25 73 26 74 52 75 53 76
REMARK SMILES IDX 61 77 54 78 60 79 62 80 59 81 55 82 56 83 57 84 58 85 37 86
REMARK SMILES IDX 38 87 46 88 39 89 45 90 47 91 44 92 40 93 41 94 42 95 43 96
REMARK H PARENT 3 7 8 30 67 49 35 60
REMARK Flexibility Score: inf
ROOT
ATOM      1  C   UNL A   1      32.517  30.725  26.605  1.00  0.00     0.023 C 
ENDROOT
BRANCH   1   2
ATOM      2  C   UNL A   1      31.995  29.440  27.252  1.00  0.00     0.023 C 
BRANCH   2   3
ATOM      3  C   UNL A   1      31.837  28.271  26.279  1.00  0.00     0.116 C 
BRANCH   3   4
ATOM      4  N   UNL A   1      31.417  27.024  26.926  1.00  0.00    -0.352 N 
ATOM      5  O   UNL A   1      30.892  24.813  27.019  1.00  0.00    -0.270 OA
ATOM      6  C   UNL A   1      30.976  25.847  26.368  1.00  0.00     0.251 C 
ATOM      7  H   UNL A   1      31.455  27.030  27.910  1.00  0.00     0.163 HD
BRANCH   6   8
ATOM      8  C   UNL A   1      30.675  25.856  24.925  1.00  0.00     0.067 C 
ATOM      9  C   UNL A   1      29.522  26.418  24.542  1.00  0.00     0.025 C 
ATOM     10  C   UNL A   1      31.809  25.599  23.980  1.00  0.00     0.314 C 
ATOM     11  C   UNL A   1      29.674  27.325  23.396  1.00  0.00     0.021 A 
ATOM     12  O   UNL A   1      32.035  26.723  23.094  1.00  0.00    -0.475 OA
ATOM     13  C   UNL A   1      28.669  28.273  23.183  1.00  0.00     0.058 A 
ATOM     14  C   UNL A   1      30.952  27.528  22.841  1.00  0.00     0.128 A 
ATOM     15  C   UNL A   1      28.975  29.473  22.539  1.00  0.00     0.130 A 
ATOM     16  C   UNL A   1      31.230  28.698  22.137  1.00  0.00     0.051 A 
ATOM     17  C   UNL A   1      30.248  29.682  22.008  1.00  0.00     0.050 A 
BRANCH  10  18
ATOM     18  C   UNL A   1      31.607  24.301  23.179  1.00  0.00     0.429 C 
ATOM     19  F   UNL A   1      32.323  24.322  22.027  1.00  0.00    -0.167 F 
ATOM     20  F   UNL A   1      32.013  23.210  23.869  1.00  0.00    -0.167 F 
ATOM     21  F   UNL A   1      30.312  24.098  22.835  1.00  0.00    -0.167 F 
ENDBRANCH  10  18
BRANCH  15  22
ATOM     22  O   UNL A   1      27.972  30.400  22.487  1.00  0.00    -0.406 OA
BRANCH  22  23
ATOM     23  C   UNL A   1      28.096  31.429  23.469  1.00  0.00     0.573 C 
ATOM     24  F   UNL A   1      29.193  31.226  24.233  1.00  0.00    -0.132 F 
ATOM     25  F   UNL A   1      28.145  32.639  22.880  1.00  0.00    -0.132 F 
ATOM     26  F   UNL A   1      27.007  31.383  24.267  1.00  0.00    -0.132 F 
ENDBRANCH  22  23
ENDBRANCH  15  22
ENDBRANCH   6   8
ENDBRANCH   3   4
ENDBRANCH   2   3
ENDBRANCH   1   2
BRANCH   1  27
ATOM     27  C   UNL A   1      33.330  31.662  27.498  1.00  0.00     0.116 C 
BRANCH  27  28
ATOM     28  N   UNL A   1      32.802  33.012  27.612  1.00  0.00    -0.352 N 
ATOM     29  C   UNL A   1      33.261  34.045  28.405  1.00  0.00     0.251 C 
ATOM     30  H   UNL A   1      32.016  33.214  27.054  1.00  0.00     0.163 HD
ATOM     31  O   UNL A   1      32.699  35.138  28.390  1.00  0.00    -0.269 OA
BRANCH  29  32
ATOM     32  C   UNL A   1      34.393  33.799  29.325  1.00  0.00     0.039 A 
ATOM     33  C   UNL A   1      34.172  33.018  30.462  1.00  0.00     0.014 A 
ATOM     34  C   UNL A   1      35.682  34.232  29.004  1.00  0.00     0.014 A 
ATOM     35  C   UNL A   1      35.261  32.573  31.215  1.00  0.00     0.010 A 
ATOM     36  C   UNL A   1      36.770  33.729  29.712  1.00  0.00     0.010 A 
ATOM     37  C   UNL A   1      36.572  32.872  30.808  1.00  0.00    -0.014 A 
BRANCH  37  38
ATOM     38  C   UNL A   1      37.748  32.268  31.489  1.00  0.00     0.031 A 
ATOM     39  C   UNL A   1      38.502  31.145  30.834  1.00  0.00     0.074 A 
ATOM     40  C   UNL A   1      38.079  32.673  32.732  1.00  0.00     0.049 A 
ATOM     41  N   UNL A   1      39.485  30.420  31.305  1.00  0.00    -0.248 NA
ATOM     42  C   UNL A   1      38.068  30.766  29.482  1.00  0.00     0.031 C 
ATOM     43  C   UNL A   1      37.389  33.717  33.495  1.00  0.00     0.029 A 
ATOM     44  N   UNL A   1      39.072  32.248  33.582  1.00  0.00    -0.354 N 
ATOM     45  C   UNL A   1      39.774  29.487  30.316  1.00  0.00     0.074 A 
ATOM     46  C   UNL A   1      38.821  29.703  29.247  1.00  0.00     0.031 C 
ATOM     47  C   UNL A   1      37.990  33.865  34.686  1.00  0.00     0.029 A 
ATOM     48  C   UNL A   1      39.081  32.901  34.794  1.00  0.00     0.049 A 
ATOM     49  H   UNL A   1      39.715  31.543  33.346  1.00  0.00     0.167 HD
ATOM     50  C   UNL A   1      40.757  28.553  30.291  1.00  0.00     0.034 A 
ATOM     51  C   UNL A   1      39.872  32.736  35.874  1.00  0.00     0.034 A 
ATOM     52  C   UNL A   1      41.709  28.363  31.359  1.00  0.00     0.049 A 
ATOM     53  C   UNL A   1      40.960  31.694  35.823  1.00  0.00     0.074 A 
ATOM     54  C   UNL A   1      42.776  27.485  31.418  1.00  0.00     0.029 A 
ATOM     55  N   UNL A   1      41.705  29.062  32.560  1.00  0.00    -0.354 N 
ATOM     56  N   UNL A   1      41.252  30.852  34.859  1.00  0.00    -0.248 NA
ATOM     57  C   UNL A   1      41.831  31.588  37.001  1.00  0.00     0.031 C 
ATOM     58  C   UNL A   1      43.383  27.613  32.674  1.00  0.00     0.029 A 
ATOM     59  C   UNL A   1      42.736  28.619  33.374  1.00  0.00     0.049 A 
ATOM     60  H   UNL A   1      41.063  29.769  32.798  1.00  0.00     0.167 HD
ATOM     61  C   UNL A   1      42.359  30.135  35.304  1.00  0.00     0.074 A 
ATOM     62  C   UNL A   1      42.689  30.654  36.616  1.00  0.00     0.031 C 
ATOM     63  C   UNL A   1      43.044  29.141  34.684  1.00  0.00     0.034 A 
BRANCH  50  64
ATOM     64  C   UNL A   1      40.826  27.657  29.078  1.00  0.00     0.023 A 
ATOM     65  C   UNL A   1      41.771  27.872  28.058  1.00  0.00     0.031 A 
ATOM     66  C   UNL A   1      39.908  26.606  28.911  1.00  0.00     0.131 A 
ATOM     67  C   UNL A   1      41.720  27.109  26.883  1.00  0.00     0.055 A 
ATOM     68  C   UNL A   1      39.917  25.794  27.775  1.00  0.00     0.041 A 
ATOM     69  F   UNL A   1      38.970  26.365  29.840  1.00  0.00    -0.206 F 
ATOM     70  C   UNL A   1      40.816  26.054  26.745  1.00  0.00     0.022 A 
BRANCH  67  71
ATOM     71  S   UNL A   1      42.747  27.617  25.478  1.00  0.00     0.124 S 
ATOM     72  O   UNL A   1      42.687  26.431  24.626  1.00  0.00    -0.237 OA
ATOM     73  O   UNL A   1      42.045  28.795  24.983  1.00  0.00    -0.237 OA
ATOM     74  O   UNL A   1      44.052  27.877  26.082  1.00  0.00    -0.744 OA
ENDBRANCH  67  71
ENDBRANCH  50  64
BRANCH  51  75
ATOM     75  C   UNL A   1      39.670  33.565  37.096  1.00  0.00     0.023 A 
ATOM     76  C   UNL A   1      40.452  34.706  37.334  1.00  0.00     0.031 A 
ATOM     77  C   UNL A   1      38.716  33.205  38.065  1.00  0.00     0.131 A 
ATOM     78  C   UNL A   1      40.299  35.422  38.533  1.00  0.00     0.055 A 
ATOM     79  C   UNL A   1      38.536  33.947  39.234  1.00  0.00     0.041 A 
ATOM     80  F   UNL A   1      37.936  32.127  37.883  1.00  0.00    -0.206 F 
ATOM     81  C   UNL A   1      39.340  35.057  39.478  1.00  0.00     0.022 A 
BRANCH  78  82
ATOM     82  S   UNL A   1      41.432  36.799  38.871  1.00  0.00     0.124 S 
ATOM     83  O   UNL A   1      40.506  37.861  39.245  1.00  0.00    -0.237 OA
ATOM     84  O   UNL A   1      42.256  36.255  39.945  1.00  0.00    -0.237 OA
ATOM     85  O   UNL A   1      42.121  36.992  37.596  1.00  0.00    -0.744 OA
ENDBRANCH  78  82
ENDBRANCH  51  75
BRANCH  63  86
ATOM     86  C   UNL A   1      44.246  28.588  35.408  1.00  0.00     0.023 A 
ATOM     87  C   UNL A   1      44.119  27.613  36.412  1.00  0.00     0.031 A 
ATOM     88  C   UNL A   1      45.535  29.054  35.092  1.00  0.00     0.131 A 
ATOM     89  C   UNL A   1      45.258  27.172  37.102  1.00  0.00     0.055 A 
ATOM     90  C   UNL A   1      46.669  28.571  35.745  1.00  0.00     0.041 A 
ATOM     91  F   UNL A   1      45.711  29.986  34.142  1.00  0.00    -0.206 F 
ATOM     92  C   UNL A   1      46.533  27.632  36.764  1.00  0.00     0.022 A 
BRANCH  89  93
ATOM     93  S   UNL A   1      45.043  26.043  38.505  1.00  0.00     0.124 S 
ATOM     94  O   UNL A   1      43.711  26.403  38.983  1.00  0.00    -0.237 OA
ATOM     95  O   UNL A   1      45.160  24.733  37.873  1.00  0.00    -0.237 OA
ATOM     96  O   UNL A   1      46.141  26.397  39.403  1.00  0.00    -0.744 OA
ENDBRANCH  89  93
ENDBRANCH  63  86
ENDBRANCH  37  38
ENDBRANCH  29  32
ENDBRANCH  27  28
ENDBRANCH   1  27
TORSDOF 17
ENDMDL
MODEL 3
REMARK VINA RESULT:     -12.4      2.412      4.657
REMARK SMILES O=C(NCCCCNC(=O)c1ccc(-c2c3nc(c(-c4cc(S(=O)(=O)[O-])ccc4F)c4ccc([nH]4)c(-c4cc(S(=O)(=O)[O-])ccc4F)c4nc(c(-c5cc(S(=O)(=O)[O-])ccc5F)c5ccc2[nH]5)C=C4)C=C3)cc1)C1=Cc2cc(OC(F)(F)F)ccc2O[C@@H]1C(F)(F)F
REMARK SMILES IDX 6 1 5 2 4 3 3 4 1 5 2 6 74 8 75 9 88 10 76 11 87 12 77 13
REMARK SMILES IDX 86 14 78 15 85 16 84 17 89 18 90 19 91 20 92 21 79 22 80 23
REMARK SMILES IDX 81 24 82 25 83 26 7 27 8 28 9 29 10 31 11 32 12 33 73 34
REMARK SMILES IDX 13 35 72 36 14 37 15 38 16 39 66 40 17 41 71 42 65 43 67 44
REMARK SMILES IDX 18 45 70 46 64 47 63 48 19 50 51 51 31 52 50 53 32 54 35 55
REMARK SMILES IDX 49 56 68 57 33 58 34 59 48 61 69 62 36 63 20 64 21 65 29 66
REMARK SMILES IDX 22 67 28 68 30 69 27 70 23 71 24 72 25 73 26 74 52 75 53 76
REMARK SMILES IDX 61 77 54 78 60 79 62 80 59 81 55 82 56 83 57 84 58 85 37 86
REMARK SMILES IDX 38 87 46 88 39 89 45 90 47 91 44 92 40 93 41 94 42 95 43 96
REMARK H PARENT 3 7 8 30 67 49 35 60
REMARK Flexibility Score: inf
ROOT
ATOM      1  C   UNL A   1      31.771  28.498  25.734  1.00  0.00     0.023 C 
ENDROOT
BRANCH   1   2
ATOM      2  C   UNL A   1      31.789  27.504  26.896  1.00  0.00     0.023 C 
BRANCH   2   3
ATOM      3  C   UNL A   1      32.188  26.083  26.496  1.00  0.00     0.116 C 
BRANCH   3   4
ATOM      4  N   UNL A   1      31.108  25.104  26.658  1.00  0.00    -0.352 N 
ATOM      5  O   UNL A   1      30.178  23.029  26.672  1.00  0.00    -0.270 OA
ATOM      6  C   UNL A   1      31.041  23.791  26.255  1.00  0.00     0.251 C 
ATOM      7  H   UNL A   1      30.309  25.438  27.127  1.00  0.00     0.163 HD
BRANCH   6   8
ATOM      8  C   UNL A   1      32.100  23.309  25.350  1.00  0.00     0.067 C 
ATOM      9  C   UNL A   1      32.868  22.302  25.784  1.00  0.00     0.025 C 
ATOM     10  C   UNL A   1      32.003  23.694  23.905  1.00  0.00     0.314 C 
ATOM     11  C   UNL A   1      33.055  21.245  24.782  1.00  0.00     0.021 A 
ATOM     12  O   UNL A   1      31.893  22.533  23.045  1.00  0.00    -0.475 OA
ATOM     13  C   UNL A   1      33.455  19.984  25.238  1.00  0.00     0.058 A 
ATOM     14  C   UNL A   1      32.431  21.365  23.526  1.00  0.00     0.128 A 
ATOM     15  C   UNL A   1      33.114  18.844  24.508  1.00  0.00     0.130 A 
ATOM     16  C   UNL A   1      32.157  20.227  22.770  1.00  0.00     0.051 A 
ATOM     17  C   UNL A   1      32.476  18.964  23.273  1.00  0.00     0.050 A 
BRANCH  10  18
ATOM     18  C   UNL A   1      33.176  24.589  23.470  1.00  0.00     0.429 C 
ATOM     19  F   UNL A   1      34.173  24.570  24.390  1.00  0.00    -0.167 F 
ATOM     20  F   UNL A   1      33.721  24.180  22.300  1.00  0.00    -0.167 F 
ATOM     21  F   UNL A   1      32.811  25.884  23.309  1.00  0.00    -0.167 F 
ENDBRANCH  10  18
BRANCH  15  22
ATOM     22  O   UNL A   1      33.426  17.645  25.085  1.00  0.00    -0.406 OA
BRANCH  22  23
ATOM     23  C   UNL A   1      34.594  17.035  24.534  1.00  0.00     0.573 C 
ATOM     24  F   UNL A   1      35.525  17.971  24.241  1.00  0.00    -0.132 F 
ATOM     25  F   UNL A   1      35.093  16.120  25.386  1.00  0.00    -0.132 F 
ATOM     26  F   UNL A   1      34.242  16.411  23.389  1.00  0.00    -0.132 F 
ENDBRANCH  22  23
ENDBRANCH  15  22
ENDBRANCH   6   8
ENDBRANCH   3   4
ENDBRANCH   2   3
ENDBRANCH   1   2
BRANCH   1  27
ATOM     27  C   UNL A   1      32.850  29.580  25.740  1.00  0.00     0.116 C 
BRANCH  27  28
ATOM     28  N   UNL A   1      32.450  30.842  26.343  1.00  0.00    -0.352 N 
ATOM     29  C   UNL A   1      33.174  31.647  27.201  1.00  0.00     0.251 C 
ATOM     30  H   UNL A   1      31.548  31.162  26.112  1.00  0.00     0.163 HD
ATOM     31  O   UNL A   1      32.689  32.692  27.631  1.00  0.00    -0.269 OA
BRANCH  29  32
ATOM     32  C   UNL A   1      34.509  31.200  27.652  1.00  0.00     0.039 A 
ATOM     33  C   UNL A   1      35.513  32.157  27.820  1.00  0.00     0.014 A 
ATOM     34  C   UNL A   1      34.731  29.870  28.020  1.00  0.00     0.014 A 
ATOM     35  C   UNL A   1      36.700  31.804  28.466  1.00  0.00     0.010 A 
ATOM     36  C   UNL A   1      35.884  29.539  28.727  1.00  0.00     0.010 A 
ATOM     37  C   UNL A   1      36.867  30.509  28.982  1.00  0.00    -0.014 A 
BRANCH  37  38
ATOM     38  C   UNL A   1      38.043  30.159  29.823  1.00  0.00     0.031 A 
ATOM     39  C   UNL A   1      39.085  29.209  29.301  1.00  0.00     0.074 A 
ATOM     40  C   UNL A   1      38.125  30.629  31.084  1.00  0.00     0.049 A 
ATOM     41  N   UNL A   1      40.124  28.700  29.914  1.00  0.00    -0.248 NA
ATOM     42  C   UNL A   1      38.912  28.743  27.918  1.00  0.00     0.031 C 
ATOM     43  C   UNL A   1      37.147  31.515  31.722  1.00  0.00     0.029 A 
ATOM     44  N   UNL A   1      39.064  30.418  32.064  1.00  0.00    -0.354 N 
ATOM     45  C   UNL A   1      40.718  27.840  28.997  1.00  0.00     0.074 A 
ATOM     46  C   UNL A   1      39.886  27.852  27.812  1.00  0.00     0.031 C 
ATOM     47  C   UNL A   1      37.549  31.788  32.974  1.00  0.00     0.029 A 
ATOM     48  C   UNL A   1      38.787  31.066  33.246  1.00  0.00     0.049 A 
ATOM     49  H   UNL A   1      39.861  29.856  31.932  1.00  0.00     0.167 HD
ATOM     50  C   UNL A   1      41.863  27.123  29.124  1.00  0.00     0.034 A 
ATOM     51  C   UNL A   1      39.450  31.069  34.421  1.00  0.00     0.034 A 
ATOM     52  C   UNL A   1      42.688  27.135  30.308  1.00  0.00     0.049 A 
ATOM     53  C   UNL A   1      40.722  30.268  34.539  1.00  0.00     0.074 A 
ATOM     54  C   UNL A   1      43.894  26.491  30.527  1.00  0.00     0.029 A 
ATOM     55  N   UNL A   1      42.390  27.825  31.477  1.00  0.00    -0.354 N 
ATOM     56  N   UNL A   1      41.298  29.498  33.645  1.00  0.00    -0.248 NA
ATOM     57  C   UNL A   1      41.438  30.347  35.819  1.00  0.00     0.031 C 
ATOM     58  C   UNL A   1      44.296  26.747  31.844  1.00  0.00     0.029 A 
ATOM     59  C   UNL A   1      43.377  27.604  32.427  1.00  0.00     0.049 A 
ATOM     60  H   UNL A   1      41.595  28.389  31.612  1.00  0.00     0.167 HD
ATOM     61  C   UNL A   1      42.459  29.022  34.247  1.00  0.00     0.074 A 
ATOM     62  C   UNL A   1      42.507  29.604  35.573  1.00  0.00     0.031 C 
ATOM     63  C   UNL A   1      43.403  28.185  33.748  1.00  0.00     0.034 A 
BRANCH  50  64
ATOM     64  C   UNL A   1      42.265  26.254  27.957  1.00  0.00     0.023 A 
ATOM     65  C   UNL A   1      41.868  24.907  27.873  1.00  0.00     0.031 A 
ATOM     66  C   UNL A   1      43.094  26.760  26.941  1.00  0.00     0.131 A 
ATOM     67  C   UNL A   1      42.370  24.091  26.849  1.00  0.00     0.055 A 
ATOM     68  C   UNL A   1      43.522  25.964  25.876  1.00  0.00     0.041 A 
ATOM     69  F   UNL A   1      43.522  28.031  26.977  1.00  0.00    -0.206 F 
ATOM     70  C   UNL A   1      43.174  24.616  25.835  1.00  0.00     0.022 A 
BRANCH  67  71
ATOM     71  S   UNL A   1      42.084  22.304  26.951  1.00  0.00     0.124 S 
ATOM     72  O   UNL A   1      40.840  22.162  26.198  1.00  0.00    -0.237 OA
ATOM     73  O   UNL A   1      43.279  21.757  26.319  1.00  0.00    -0.237 OA
ATOM     74  O   UNL A   1      41.968  22.056  28.386  1.00  0.00    -0.744 OA
ENDBRANCH  67  71
ENDBRANCH  50  64
BRANCH  51  75
ATOM     75  C   UNL A   1      38.931  31.846  35.583  1.00  0.00     0.023 A 
ATOM     76  C   UNL A   1      38.317  31.201  36.667  1.00  0.00     0.031 A 
ATOM     77  C   UNL A   1      39.006  33.250  35.606  1.00  0.00     0.131 A 
ATOM     78  C   UNL A   1      37.761  31.960  37.710  1.00  0.00     0.055 A 
ATOM     79  C   UNL A   1      38.493  33.998  36.669  1.00  0.00     0.041 A 
ATOM     80  F   UNL A   1      39.591  33.916  34.598  1.00  0.00    -0.206 F 
ATOM     81  C   UNL A   1      37.854  33.352  37.723  1.00  0.00     0.022 A 
BRANCH  78  82
ATOM     82  S   UNL A   1      36.844  31.098  39.018  1.00  0.00     0.124 S 
ATOM     83  O   UNL A   1      37.764  31.199  40.144  1.00  0.00    -0.237 OA
ATOM     84  O   UNL A   1      35.626  31.896  39.108  1.00  0.00    -0.237 OA
ATOM     85  O   UNL A   1      36.664  29.752  38.475  1.00  0.00    -0.744 OA
ENDBRANCH  78  82
ENDBRANCH  51  75
BRANCH  63  86
ATOM     86  C   UNL A   1      44.588  27.889  34.633  1.00  0.00     0.023 A 
ATOM     87  C   UNL A   1      44.604  26.785  35.501  1.00  0.00     0.031 A 
ATOM     88  C   UNL A   1      45.712  28.735  34.610  1.00  0.00     0.131 A 
ATOM     89  C   UNL A   1      45.702  26.584  36.352  1.00  0.00     0.055 A 
ATOM     90  C   UNL A   1      46.823  28.498  35.419  1.00  0.00     0.041 A 
ATOM     91  F   UNL A   1      45.746  29.804  33.799  1.00  0.00    -0.206 F 
ATOM     92  C   UNL A   1      46.818  27.424  36.305  1.00  0.00     0.022 A 
BRANCH  89  93
ATOM     93  S   UNL A   1      45.619  25.252  37.580  1.00  0.00     0.124 S 
ATOM     94  O   UNL A   1      46.115  25.916  38.782  1.00  0.00    -0.237 OA
ATOM     95  O   UNL A   1      44.200  24.913  37.579  1.00  0.00    -0.237 OA
ATOM     96  O   UNL A   1      46.501  24.223  37.031  1.00  0.00    -0.744 OA
ENDBRANCH  89  93
ENDBRANCH  63  86
ENDBRANCH  37  38
ENDBRANCH  29  32
ENDBRANCH  27  28
ENDBRANCH   1  27
TORSDOF 17
ENDMDL
