MODEL 1
REMARK VINA RESULT:     -11.6      0.000      0.000
REMARK SMILES CC(C)Cc1ccc([C@@H](C)C(=O)NCCCCNC(=O)c2ccc(-c3c4nc(c(-c5cc(S(=O)(=O)[O-])ccc5F)c5ccc([nH]5)c(-c5cc(S(=O)(=O)[O-])ccc5F)c5nc(c(-c6cc(S(=O)(=O)[O-])ccc6F)c6ccc3[nH]6)C=C5)C=C4)cc2)cc1
REMARK SMILES IDX 15 1 14 2 13 3 11 4 12 5 9 7 10 8 8 9 5 10 6 11 85 12 7 13
REMARK SMILES IDX 84 14 4 15 2 16 1 17 3 18 16 19 17 20 18 21 19 22 20 24
REMARK SMILES IDX 21 25 22 26 83 27 23 28 82 29 24 30 25 31 26 32 76 33 27 34
REMARK SMILES IDX 81 35 75 36 77 37 28 38 80 39 74 40 73 41 29 43 61 44 41 45
REMARK SMILES IDX 60 46 42 47 45 48 59 49 78 50 43 51 44 52 58 54 79 55 46 56
REMARK SMILES IDX 30 57 31 58 39 59 32 60 38 61 40 62 37 63 33 64 34 65 35 66
REMARK SMILES IDX 36 67 62 68 63 69 71 70 64 71 70 72 72 73 69 74 65 75 66 76
REMARK SMILES IDX 67 77 68 78 47 79 48 80 56 81 49 82 55 83 57 84 54 85 50 86
REMARK SMILES IDX 51 87 52 88 53 89
REMARK H PARENT 13 6 18 23 77 42 45 53
REMARK Flexibility Score: inf
ROOT
ATOM      1  C   UNL A   1      32.267  28.236  27.285  1.00  0.00     0.023 C 
ENDROOT
BRANCH   1   2
ATOM      2  C   UNL A   1      32.385  27.047  26.331  1.00  0.00     0.116 C 
BRANCH   2   3
ATOM      3  N   UNL A   1      31.415  26.011  26.620  1.00  0.00    -0.356 N 
ATOM      4  C   UNL A   1      30.524  25.360  25.823  1.00  0.00     0.227 C 
ATOM      5  O   UNL A   1      29.777  24.545  26.380  1.00  0.00    -0.274 OA
ATOM      6  H   UNL A   1      31.395  25.728  27.563  1.00  0.00     0.163 HD
BRANCH   4   7
ATOM      7  C   UNL A   1      30.423  25.565  24.305  1.00  0.00     0.105 C 
ATOM      8  C   UNL A   1      31.726  25.292  23.550  1.00  0.00     0.023 C 
BRANCH   7   9
ATOM      9  C   UNL A   1      29.688  26.833  23.904  1.00  0.00    -0.036 A 
ATOM     10  C   UNL A   1      28.376  29.207  23.087  1.00  0.00    -0.048 A 
ATOM     11  C   UNL A   1      27.648  28.063  23.425  1.00  0.00     0.004 A 
ATOM     12  C   UNL A   1      29.772  29.147  23.129  1.00  0.00     0.004 A 
ATOM     13  C   UNL A   1      28.293  26.914  23.877  1.00  0.00     0.005 A 
ATOM     14  C   UNL A   1      30.420  27.968  23.517  1.00  0.00     0.005 A 
BRANCH  10  15
ATOM     15  C   UNL A   1      27.662  30.482  22.700  1.00  0.00     0.038 C 
BRANCH  15  16
ATOM     16  C   UNL A   1      28.579  31.507  21.994  1.00  0.00    -0.013 C 
ATOM     17  C   UNL A   1      28.027  31.920  20.627  1.00  0.00     0.008 C 
ATOM     18  C   UNL A   1      28.784  32.740  22.873  1.00  0.00     0.008 C 
ENDBRANCH  15  16
ENDBRANCH  10  15
ENDBRANCH   7   9
ENDBRANCH   4   7
ENDBRANCH   2   3
ENDBRANCH   1   2
BRANCH   1  19
ATOM     19  C   UNL A   1      31.578  29.469  26.706  1.00  0.00     0.023 C 
BRANCH  19  20
ATOM     20  C   UNL A   1      32.512  30.546  26.168  1.00  0.00     0.116 C 
BRANCH  20  21
ATOM     21  N   UNL A   1      32.229  31.884  26.667  1.00  0.00    -0.352 N 
ATOM     22  C   UNL A   1      32.996  32.659  27.512  1.00  0.00     0.251 C 
ATOM     23  H   UNL A   1      31.383  32.287  26.362  1.00  0.00     0.163 HD
ATOM     24  O   UNL A   1      32.585  33.741  27.903  1.00  0.00    -0.269 OA
BRANCH  22  25
ATOM     25  C   UNL A   1      34.297  32.128  27.978  1.00  0.00     0.039 A 
ATOM     26  C   UNL A   1      35.376  33.005  28.108  1.00  0.00     0.014 A 
ATOM     27  C   UNL A   1      34.420  30.793  28.367  1.00  0.00     0.014 A 
ATOM     28  C   UNL A   1      36.552  32.564  28.717  1.00  0.00     0.010 A 
ATOM     29  C   UNL A   1      35.561  30.378  29.046  1.00  0.00     0.010 A 
ATOM     30  C   UNL A   1      36.634  31.261  29.237  1.00  0.00    -0.014 A 
BRANCH  30  31
ATOM     31  C   UNL A   1      37.821  30.807  30.006  1.00  0.00     0.031 A 
ATOM     32  C   UNL A   1      38.781  29.824  29.395  1.00  0.00     0.074 A 
ATOM     33  C   UNL A   1      37.976  31.199  31.286  1.00  0.00     0.049 A 
ATOM     34  N   UNL A   1      39.813  29.228  29.934  1.00  0.00    -0.248 NA
ATOM     35  C   UNL A   1      38.514  29.425  28.005  1.00  0.00     0.031 C 
ATOM     36  C   UNL A   1      37.069  32.092  32.012  1.00  0.00     0.029 A 
ATOM     37  N   UNL A   1      38.938  30.884  32.212  1.00  0.00    -0.354 N 
ATOM     38  C   UNL A   1      40.304  28.367  28.959  1.00  0.00     0.074 A 
ATOM     39  C   UNL A   1      39.416  28.475  27.821  1.00  0.00     0.031 C 
ATOM     40  C   UNL A   1      37.524  32.259  33.265  1.00  0.00     0.029 A 
ATOM     41  C   UNL A   1      38.730  31.459  33.445  1.00  0.00     0.049 A 
ATOM     42  H   UNL A   1      39.705  30.300  32.013  1.00  0.00     0.167 HD
ATOM     43  C   UNL A   1      41.406  27.577  29.002  1.00  0.00     0.034 A 
ATOM     44  C   UNL A   1      39.424  31.345  34.594  1.00  0.00     0.034 A 
ATOM     45  C   UNL A   1      42.293  27.504  30.139  1.00  0.00     0.049 A 
ATOM     46  C   UNL A   1      40.659  30.481  34.615  1.00  0.00     0.074 A 
ATOM     47  C   UNL A   1      43.487  26.816  30.258  1.00  0.00     0.029 A 
ATOM     48  N   UNL A   1      42.073  28.131  31.359  1.00  0.00    -0.354 N 
ATOM     49  N   UNL A   1      41.161  29.738  33.656  1.00  0.00    -0.248 NA
ATOM     50  C   UNL A   1      41.426  30.453  35.865  1.00  0.00     0.031 C 
ATOM     51  C   UNL A   1      43.957  26.975  31.568  1.00  0.00     0.029 A 
ATOM     52  C   UNL A   1      43.091  27.819  32.248  1.00  0.00     0.049 A 
ATOM     53  H   UNL A   1      41.306  28.713  31.563  1.00  0.00     0.167 HD
ATOM     54  C   UNL A   1      42.314  29.167  34.184  1.00  0.00     0.074 A 
ATOM     55  C   UNL A   1      42.442  29.668  35.538  1.00  0.00     0.031 C 
ATOM     56  C   UNL A   1      43.192  28.308  33.603  1.00  0.00     0.034 A 
BRANCH  43  57
ATOM     57  C   UNL A   1      41.690  26.717  27.792  1.00  0.00     0.023 A 
ATOM     58  C   UNL A   1      41.339  25.356  27.752  1.00  0.00     0.031 A 
ATOM     59  C   UNL A   1      42.366  27.253  26.682  1.00  0.00     0.131 A 
ATOM     60  C   UNL A   1      41.746  24.558  26.674  1.00  0.00     0.055 A 
ATOM     61  C   UNL A   1      42.692  26.472  25.570  1.00  0.00     0.041 A 
ATOM     62  F   UNL A   1      42.746  28.541  26.667  1.00  0.00    -0.206 F 
ATOM     63  C   UNL A   1      42.398  25.111  25.570  1.00  0.00     0.022 A 
BRANCH  60  64
ATOM     64  S   UNL A   1      41.558  22.759  26.812  1.00  0.00     0.124 S 
ATOM     65  O   UNL A   1      42.497  22.446  27.887  1.00  0.00    -0.237 OA
ATOM     66  O   UNL A   1      40.144  22.614  27.137  1.00  0.00    -0.237 OA
ATOM     67  O   UNL A   1      41.949  22.271  25.491  1.00  0.00    -0.744 OA
ENDBRANCH  60  64
ENDBRANCH  43  57
BRANCH  44  68
ATOM     68  C   UNL A   1      38.962  32.052  35.821  1.00  0.00     0.023 A 
ATOM     69  C   UNL A   1      38.237  31.379  36.817  1.00  0.00     0.031 A 
ATOM     70  C   UNL A   1      39.229  33.420  36.006  1.00  0.00     0.131 A 
ATOM     71  C   UNL A   1      37.774  32.085  37.939  1.00  0.00     0.055 A 
ATOM     72  C   UNL A   1      38.803  34.107  37.145  1.00  0.00     0.041 A 
ATOM     73  F   UNL A   1      39.929  34.104  35.088  1.00  0.00    -0.206 F 
ATOM     74  C   UNL A   1      38.062  33.440  38.115  1.00  0.00     0.022 A 
BRANCH  71  75
ATOM     75  S   UNL A   1      36.738  31.213  39.147  1.00  0.00     0.124 S 
ATOM     76  O   UNL A   1      37.619  31.156  40.309  1.00  0.00    -0.237 OA
ATOM     77  O   UNL A   1      35.587  32.104  39.258  1.00  0.00    -0.237 OA
ATOM     78  O   UNL A   1      36.470  29.929  38.503  1.00  0.00    -0.744 OA
ENDBRANCH  71  75
ENDBRANCH  44  68
BRANCH  56  79
ATOM     79  C   UNL A   1      44.378  27.883  34.429  1.00  0.00     0.023 A 
ATOM     80  C   UNL A   1      44.330  26.753  35.263  1.00  0.00     0.031 A 
ATOM     81  C   UNL A   1      45.572  28.627  34.389  1.00  0.00     0.131 A 
ATOM     82  C   UNL A   1      45.435  26.426  36.062  1.00  0.00     0.055 A 
ATOM     83  C   UNL A   1      46.688  28.264  35.144  1.00  0.00     0.041 A 
ATOM     84  F   UNL A   1      45.672  29.717  33.612  1.00  0.00    -0.206 F 
ATOM     85  C   UNL A   1      46.620  27.166  35.995  1.00  0.00     0.022 A 
BRANCH  82  86
ATOM     86  S   UNL A   1      45.279  25.069  37.255  1.00  0.00     0.124 S 
ATOM     87  O   UNL A   1      44.428  25.663  38.281  1.00  0.00    -0.237 OA
ATOM     88  O   UNL A   1      44.669  24.015  36.451  1.00  0.00    -0.237 OA
ATOM     89  O   UNL A   1      46.659  24.813  37.665  1.00  0.00    -0.744 OA
ENDBRANCH  82  86
ENDBRANCH  56  79
ENDBRANCH  30  31
ENDBRANCH  22  25
ENDBRANCH  20  21
ENDBRANCH  19  20
ENDBRANCH   1  19
TORSDOF 17
ENDMDL
MODEL 2
REMARK VINA RESULT:     -11.2      2.172      7.926
REMARK SMILES CC(C)Cc1ccc([C@@H](C)C(=O)NCCCCNC(=O)c2ccc(-c3c4nc(c(-c5cc(S(=O)(=O)[O-])ccc5F)c5ccc([nH]5)c(-c5cc(S(=O)(=O)[O-])ccc5F)c5nc(c(-c6cc(S(=O)(=O)[O-])ccc6F)c6ccc3[nH]6)C=C5)C=C4)cc2)cc1
REMARK SMILES IDX 15 1 14 2 13 3 11 4 12 5 9 7 10 8 8 9 5 10 6 11 85 12 7 13
REMARK SMILES IDX 84 14 4 15 2 16 1 17 3 18 16 19 17 20 18 21 19 22 20 24
REMARK SMILES IDX 21 25 22 26 83 27 23 28 82 29 24 30 25 31 26 32 76 33 27 34
REMARK SMILES IDX 81 35 75 36 77 37 28 38 80 39 74 40 73 41 29 43 61 44 41 45
REMARK SMILES IDX 60 46 42 47 45 48 59 49 78 50 43 51 44 52 58 54 79 55 46 56
REMARK SMILES IDX 30 57 31 58 39 59 32 60 38 61 40 62 37 63 33 64 34 65 35 66
REMARK SMILES IDX 36 67 62 68 63 69 71 70 64 71 70 72 72 73 69 74 65 75 66 76
REMARK SMILES IDX 67 77 68 78 47 79 48 80 56 81 49 82 55 83 57 84 54 85 50 86
REMARK SMILES IDX 51 87 52 88 53 89
REMARK H PARENT 13 6 18 23 77 42 45 53
REMARK Flexibility Score: inf
ROOT
ATOM      1  C   UNL A   1      32.433  27.801  27.038  1.00  0.00     0.023 C 
ENDROOT
BRANCH   1   2
ATOM      2  C   UNL A   1      31.034  27.475  26.513  1.00  0.00     0.116 C 
BRANCH   2   3
ATOM      3  N   UNL A   1      30.835  26.052  26.328  1.00  0.00    -0.356 N 
ATOM      4  C   UNL A   1      30.749  25.290  25.202  1.00  0.00     0.227 C 
ATOM      5  O   UNL A   1      30.518  24.086  25.367  1.00  0.00    -0.274 OA
ATOM      6  H   UNL A   1      30.743  25.544  27.167  1.00  0.00     0.163 HD
BRANCH   4   7
ATOM      7  C   UNL A   1      30.944  25.837  23.781  1.00  0.00     0.105 C 
ATOM      8  C   UNL A   1      32.405  25.903  23.333  1.00  0.00     0.023 C 
BRANCH   7   9
ATOM      9  C   UNL A   1      30.110  27.071  23.477  1.00  0.00    -0.036 A 
ATOM     10  C   UNL A   1      28.605  29.383  22.835  1.00  0.00    -0.048 A 
ATOM     11  C   UNL A   1      27.976  28.211  23.263  1.00  0.00     0.004 A 
ATOM     12  C   UNL A   1      29.996  29.382  22.698  1.00  0.00     0.004 A 
ATOM     13  C   UNL A   1      28.721  27.093  23.629  1.00  0.00     0.005 A 
ATOM     14  C   UNL A   1      30.738  28.234  23.001  1.00  0.00     0.005 A 
BRANCH  10  15
ATOM     15  C   UNL A   1      27.793  30.624  22.543  1.00  0.00     0.038 C 
BRANCH  15  16
ATOM     16  C   UNL A   1      28.612  31.744  21.859  1.00  0.00    -0.013 C 
ATOM     17  C   UNL A   1      27.951  32.224  20.563  1.00  0.00     0.008 C 
ATOM     18  C   UNL A   1      28.816  32.919  22.812  1.00  0.00     0.008 C 
ENDBRANCH  15  16
ENDBRANCH  10  15
ENDBRANCH   7   9
ENDBRANCH   4   7
ENDBRANCH   2   3
ENDBRANCH   1   2
BRANCH   1  19
ATOM     19  C   UNL A   1      33.486  28.063  25.964  1.00  0.00     0.023 C 
BRANCH  19  20
ATOM     20  C   UNL A   1      34.571  29.064  26.344  1.00  0.00     0.116 C 
BRANCH  20  21
ATOM     21  N   UNL A   1      34.065  30.373  26.730  1.00  0.00    -0.352 N 
ATOM     22  C   UNL A   1      34.557  31.227  27.694  1.00  0.00     0.251 C 
ATOM     23  H   UNL A   1      33.271  30.689  26.240  1.00  0.00     0.163 HD
ATOM     24  O   UNL A   1      33.974  32.268  27.955  1.00  0.00    -0.269 OA
BRANCH  22  25
ATOM     25  C   UNL A   1      35.771  30.829  28.443  1.00  0.00     0.039 A 
ATOM     26  C   UNL A   1      35.668  29.832  29.415  1.00  0.00     0.014 A 
ATOM     27  C   UNL A   1      37.015  31.377  28.120  1.00  0.00     0.014 A 
ATOM     28  C   UNL A   1      36.827  29.316  29.997  1.00  0.00     0.010 A 
ATOM     29  C   UNL A   1      38.171  30.807  28.642  1.00  0.00     0.010 A 
ATOM     30  C   UNL A   1      38.090  29.764  29.577  1.00  0.00    -0.014 A 
BRANCH  30  31
ATOM     31  C   UNL A   1      39.341  29.142  30.083  1.00  0.00     0.031 A 
ATOM     32  C   UNL A   1      40.058  29.746  31.259  1.00  0.00     0.074 A 
ATOM     33  C   UNL A   1      39.882  28.101  29.420  1.00  0.00     0.049 A 
ATOM     34  N   UNL A   1      41.210  29.418  31.785  1.00  0.00    -0.248 NA
ATOM     35  C   UNL A   1      39.411  30.901  31.898  1.00  0.00     0.031 C 
ATOM     36  C   UNL A   1      39.317  27.476  28.221  1.00  0.00     0.029 A 
ATOM     37  N   UNL A   1      41.037  27.395  29.646  1.00  0.00    -0.354 N 
ATOM     38  C   UNL A   1      41.438  30.341  32.800  1.00  0.00     0.074 A 
ATOM     39  C   UNL A   1      40.333  31.276  32.770  1.00  0.00     0.031 C 
ATOM     40  C   UNL A   1      40.121  26.476  27.824  1.00  0.00     0.029 A 
ATOM     41  C   UNL A   1      41.275  26.411  28.714  1.00  0.00     0.049 A 
ATOM     42  H   UNL A   1      41.639  27.577  30.403  1.00  0.00     0.167 HD
ATOM     43  C   UNL A   1      42.462  30.389  33.688  1.00  0.00     0.034 A 
ATOM     44  C   UNL A   1      42.312  25.561  28.583  1.00  0.00     0.034 A 
ATOM     45  C   UNL A   1      43.541  29.430  33.716  1.00  0.00     0.049 A 
ATOM     46  C   UNL A   1      43.429  25.614  29.593  1.00  0.00     0.074 A 
ATOM     47  C   UNL A   1      44.576  29.323  34.628  1.00  0.00     0.029 A 
ATOM     48  N   UNL A   1      43.731  28.421  32.780  1.00  0.00    -0.354 N 
ATOM     49  N   UNL A   1      43.588  26.439  30.602  1.00  0.00    -0.248 NA
ATOM     50  C   UNL A   1      44.494  24.615  29.456  1.00  0.00     0.031 C 
ATOM     51  C   UNL A   1      45.425  28.291  34.209  1.00  0.00     0.029 A 
ATOM     52  C   UNL A   1      44.884  27.708  33.073  1.00  0.00     0.049 A 
ATOM     53  H   UNL A   1      43.133  28.237  32.020  1.00  0.00     0.167 HD
ATOM     54  C   UNL A   1      44.766  26.046  31.231  1.00  0.00     0.074 A 
ATOM     55  C   UNL A   1      45.263  24.898  30.498  1.00  0.00     0.031 C 
ATOM     56  C   UNL A   1      45.380  26.581  32.318  1.00  0.00     0.034 A 
BRANCH  43  57
ATOM     57  C   UNL A   1      42.467  31.530  34.679  1.00  0.00     0.023 A 
ATOM     58  C   UNL A   1      41.589  31.560  35.778  1.00  0.00     0.031 A 
ATOM     59  C   UNL A   1      43.325  32.628  34.496  1.00  0.00     0.131 A 
ATOM     60  C   UNL A   1      41.522  32.699  36.592  1.00  0.00     0.055 A 
ATOM     61  C   UNL A   1      43.316  33.723  35.363  1.00  0.00     0.041 A 
ATOM     62  F   UNL A   1      44.173  32.668  33.456  1.00  0.00    -0.206 F 
ATOM     63  C   UNL A   1      42.397  33.771  36.407  1.00  0.00     0.022 A 
BRANCH  60  64
ATOM     64  S   UNL A   1      40.164  32.828  37.787  1.00  0.00     0.124 S 
ATOM     65  O   UNL A   1      40.839  32.492  39.039  1.00  0.00    -0.237 OA
ATOM     66  O   UNL A   1      39.746  34.216  37.639  1.00  0.00    -0.237 OA
ATOM     67  O   UNL A   1      39.202  31.831  37.321  1.00  0.00    -0.744 OA
ENDBRANCH  60  64
ENDBRANCH  43  57
BRANCH  44  68
ATOM     68  C   UNL A   1      42.353  24.599  27.446  1.00  0.00     0.023 A 
ATOM     69  C   UNL A   1      41.603  23.413  27.471  1.00  0.00     0.031 A 
ATOM     70  C   UNL A   1      43.159  24.849  26.322  1.00  0.00     0.131 A 
ATOM     71  C   UNL A   1      41.701  22.503  26.406  1.00  0.00     0.055 A 
ATOM     72  C   UNL A   1      43.218  23.962  25.245  1.00  0.00     0.041 A 
ATOM     73  F   UNL A   1      43.885  25.975  26.245  1.00  0.00    -0.206 F 
ATOM     74  C   UNL A   1      42.494  22.775  25.289  1.00  0.00     0.022 A 
BRANCH  71  75
ATOM     75  S   UNL A   1      40.812  20.926  26.525  1.00  0.00     0.124 S 
ATOM     76  O   UNL A   1      41.655  20.048  25.720  1.00  0.00    -0.237 OA
ATOM     77  O   UNL A   1      40.821  20.681  27.964  1.00  0.00    -0.237 OA
ATOM     78  O   UNL A   1      39.501  21.228  25.955  1.00  0.00    -0.744 OA
ENDBRANCH  71  75
ENDBRANCH  44  68
BRANCH  56  79
ATOM     79  C   UNL A   1      46.643  25.907  32.787  1.00  0.00     0.023 A 
ATOM     80  C   UNL A   1      46.626  24.925  33.793  1.00  0.00     0.031 A 
ATOM     81  C   UNL A   1      47.884  26.261  32.227  1.00  0.00     0.131 A 
ATOM     82  C   UNL A   1      47.831  24.366  34.244  1.00  0.00     0.055 A 
ATOM     83  C   UNL A   1      49.074  25.660  32.641  1.00  0.00     0.041 A 
ATOM     84  F   UNL A   1      47.959  27.195  31.266  1.00  0.00    -0.206 F 
ATOM     85  C   UNL A   1      49.053  24.716  33.663  1.00  0.00     0.022 A 
BRANCH  82  86
ATOM     86  S   UNL A   1      47.791  23.233  35.660  1.00  0.00     0.124 S 
ATOM     87  O   UNL A   1      46.358  23.106  35.906  1.00  0.00    -0.237 OA
ATOM     88  O   UNL A   1      48.455  22.047  35.130  1.00  0.00    -0.237 OA
ATOM     89  O   UNL A   1      48.536  23.950  36.693  1.00  0.00    -0.744 OA
ENDBRANCH  82  86
ENDBRANCH  56  79
ENDBRANCH  30  31
ENDBRANCH  22  25
ENDBRANCH  20  21
ENDBRANCH  19  20
ENDBRANCH   1  19
TORSDOF 17
ENDMDL
MODEL 3
REMARK VINA RESULT:     -10.9      6.312     11.570
REMARK SMILES CC(C)Cc1ccc([C@@H](C)C(=O)NCCCCNC(=O)c2ccc(-c3c4nc(c(-c5cc(S(=O)(=O)[O-])ccc5F)c5ccc([nH]5)c(-c5cc(S(=O)(=O)[O-])ccc5F)c5nc(c(-c6cc(S(=O)(=O)[O-])ccc6F)c6ccc3[nH]6)C=C5)C=C4)cc2)cc1
REMARK SMILES IDX 15 1 14 2 13 3 11 4 12 5 9 7 10 8 8 9 5 10 6 11 85 12 7 13
REMARK SMILES IDX 84 14 4 15 2 16 1 17 3 18 16 19 17 20 18 21 19 22 20 24
REMARK SMILES IDX 21 25 22 26 83 27 23 28 82 29 24 30 25 31 26 32 76 33 27 34
REMARK SMILES IDX 81 35 75 36 77 37 28 38 80 39 74 40 73 41 29 43 61 44 41 45
REMARK SMILES IDX 60 46 42 47 45 48 59 49 78 50 43 51 44 52 58 54 79 55 46 56
REMARK SMILES IDX 30 57 31 58 39 59 32 60 38 61 40 62 37 63 33 64 34 65 35 66
REMARK SMILES IDX 36 67 62 68 63 69 71 70 64 71 70 72 72 73 69 74 65 75 66 76
REMARK SMILES IDX 67 77 68 78 47 79 48 80 56 81 49 82 55 83 57 84 54 85 50 86
REMARK SMILES IDX 51 87 52 88 53 89
REMARK H PARENT 13 6 18 23 77 42 45 53
REMARK Flexibility Score: inf
ROOT
ATOM      1  C   UNL A   1      36.696  20.342  24.840  1.00  0.00     0.023 C 
ENDROOT
BRANCH   1   2
ATOM      2  C   UNL A   1      36.539  21.785  24.359  1.00  0.00     0.116 C 
BRANCH   2   3
ATOM      3  N   UNL A   1      36.015  22.655  25.392  1.00  0.00    -0.356 N 
ATOM      4  C   UNL A   1      34.770  23.168  25.595  1.00  0.00     0.227 C 
ATOM      5  O   UNL A   1      34.640  23.938  26.555  1.00  0.00    -0.274 OA
ATOM      6  H   UNL A   1      36.678  22.926  26.068  1.00  0.00     0.163 HD
BRANCH   4   7
ATOM      7  C   UNL A   1      33.550  22.825  24.727  1.00  0.00     0.105 C 
ATOM      8  C   UNL A   1      32.374  23.789  24.896  1.00  0.00     0.023 C 
BRANCH   7   9
ATOM      9  C   UNL A   1      33.191  21.349  24.727  1.00  0.00    -0.036 A 
ATOM     10  C   UNL A   1      32.563  18.587  24.646  1.00  0.00    -0.048 A 
ATOM     11  C   UNL A   1      33.065  19.178  25.810  1.00  0.00     0.004 A 
ATOM     12  C   UNL A   1      32.407  19.384  23.508  1.00  0.00     0.004 A 
ATOM     13  C   UNL A   1      33.322  20.545  25.863  1.00  0.00     0.005 A 
ATOM     14  C   UNL A   1      32.733  20.745  23.544  1.00  0.00     0.005 A 
BRANCH  10  15
ATOM     15  C   UNL A   1      32.186  17.124  24.632  1.00  0.00     0.038 C 
BRANCH  15  16
ATOM     16  C   UNL A   1      33.361  16.193  24.255  1.00  0.00    -0.013 C 
ATOM     17  C   UNL A   1      34.188  16.758  23.096  1.00  0.00     0.008 C 
ATOM     18  C   UNL A   1      34.257  15.941  25.466  1.00  0.00     0.008 C 
ENDBRANCH  15  16
ENDBRANCH  10  15
ENDBRANCH   7   9
ENDBRANCH   4   7
ENDBRANCH   2   3
ENDBRANCH   1   2
BRANCH   1  19
ATOM     19  C   UNL A   1      38.114  19.781  24.762  1.00  0.00     0.023 C 
BRANCH  19  20
ATOM     20  C   UNL A   1      39.007  20.094  25.956  1.00  0.00     0.116 C 
BRANCH  20  21
ATOM     21  N   UNL A   1      40.253  19.343  25.983  1.00  0.00    -0.352 N 
ATOM     22  C   UNL A   1      41.517  19.798  26.294  1.00  0.00     0.251 C 
ATOM     23  H   UNL A   1      40.185  18.388  25.749  1.00  0.00     0.163 HD
ATOM     24  O   UNL A   1      42.483  19.057  26.199  1.00  0.00    -0.269 OA
BRANCH  22  25
ATOM     25  C   UNL A   1      41.684  21.215  26.690  1.00  0.00     0.039 A 
ATOM     26  C   UNL A   1      42.078  21.508  27.997  1.00  0.00     0.014 A 
ATOM     27  C   UNL A   1      41.538  22.237  25.749  1.00  0.00     0.014 A 
ATOM     28  C   UNL A   1      42.419  22.819  28.335  1.00  0.00     0.010 A 
ATOM     29  C   UNL A   1      41.953  23.526  26.065  1.00  0.00     0.010 A 
ATOM     30  C   UNL A   1      42.408  23.828  27.358  1.00  0.00    -0.014 A 
BRANCH  30  31
ATOM     31  C   UNL A   1      42.890  25.202  27.656  1.00  0.00     0.031 A 
ATOM     32  C   UNL A   1      41.957  26.208  28.273  1.00  0.00     0.074 A 
ATOM     33  C   UNL A   1      44.129  25.570  27.277  1.00  0.00     0.049 A 
ATOM     34  N   UNL A   1      42.151  27.478  28.514  1.00  0.00    -0.248 NA
ATOM     35  C   UNL A   1      40.613  25.726  28.622  1.00  0.00     0.031 C 
ATOM     36  C   UNL A   1      45.099  24.703  26.602  1.00  0.00     0.029 A 
ATOM     37  N   UNL A   1      44.782  26.772  27.384  1.00  0.00    -0.354 N 
ATOM     38  C   UNL A   1      40.947  27.955  29.021  1.00  0.00     0.074 A 
ATOM     39  C   UNL A   1      40.014  26.848  28.990  1.00  0.00     0.031 C 
ATOM     40  C   UNL A   1      46.223  25.399  26.365  1.00  0.00     0.029 A 
ATOM     41  C   UNL A   1      46.044  26.768  26.836  1.00  0.00     0.049 A 
ATOM     42  H   UNL A   1      44.384  27.563  27.812  1.00  0.00     0.167 HD
ATOM     43  C   UNL A   1      40.654  29.195  29.487  1.00  0.00     0.034 A 
ATOM     44  C   UNL A   1      46.949  27.758  26.713  1.00  0.00     0.034 A 
ATOM     45  C   UNL A   1      41.607  30.277  29.532  1.00  0.00     0.049 A 
ATOM     46  C   UNL A   1      46.615  29.121  27.259  1.00  0.00     0.074 A 
ATOM     47  C   UNL A   1      41.452  31.541  30.072  1.00  0.00     0.029 A 
ATOM     48  N   UNL A   1      42.891  30.227  29.003  1.00  0.00    -0.354 N 
ATOM     49  N   UNL A   1      45.500  29.535  27.815  1.00  0.00    -0.248 NA
ATOM     50  C   UNL A   1      47.663  30.144  27.175  1.00  0.00     0.031 C 
ATOM     51  C   UNL A   1      42.617  32.275  29.814  1.00  0.00     0.029 A 
ATOM     52  C   UNL A   1      43.527  31.448  29.173  1.00  0.00     0.049 A 
ATOM     53  H   UNL A   1      43.292  29.439  28.571  1.00  0.00     0.167 HD
ATOM     54  C   UNL A   1      45.720  30.865  28.163  1.00  0.00     0.074 A 
ATOM     55  C   UNL A   1      47.081  31.175  27.771  1.00  0.00     0.031 C 
ATOM     56  C   UNL A   1      44.877  31.749  28.756  1.00  0.00     0.034 A 
BRANCH  43  57
ATOM     57  C   UNL A   1      39.240  29.440  29.961  1.00  0.00     0.023 A 
ATOM     58  C   UNL A   1      38.307  30.138  29.174  1.00  0.00     0.031 A 
ATOM     59  C   UNL A   1      38.834  29.015  31.238  1.00  0.00     0.131 A 
ATOM     60  C   UNL A   1      37.052  30.471  29.704  1.00  0.00     0.055 A 
ATOM     61  C   UNL A   1      37.551  29.273  31.727  1.00  0.00     0.041 A 
ATOM     62  F   UNL A   1      39.684  28.361  32.045  1.00  0.00    -0.206 F 
ATOM     63  C   UNL A   1      36.658  30.022  30.966  1.00  0.00     0.022 A 
BRANCH  60  64
ATOM     64  S   UNL A   1      36.011  31.640  28.787  1.00  0.00     0.124 S 
ATOM     65  O   UNL A   1      36.941  32.741  28.549  1.00  0.00    -0.237 OA
ATOM     66  O   UNL A   1      35.625  30.864  27.615  1.00  0.00    -0.237 OA
ATOM     67  O   UNL A   1      34.928  31.941  29.722  1.00  0.00    -0.744 OA
ENDBRANCH  60  64
ENDBRANCH  43  57
BRANCH  44  68
ATOM     68  C   UNL A   1      48.251  27.503  26.033  1.00  0.00     0.023 A 
ATOM     69  C   UNL A   1      48.366  27.574  24.637  1.00  0.00     0.031 A 
ATOM     70  C   UNL A   1      49.396  27.169  26.777  1.00  0.00     0.131 A 
ATOM     71  C   UNL A   1      49.594  27.280  24.023  1.00  0.00     0.055 A 
ATOM     72  C   UNL A   1      50.626  26.920  26.164  1.00  0.00     0.041 A 
ATOM     73  F   UNL A   1      49.339  27.100  28.116  1.00  0.00    -0.206 F 
ATOM     74  C   UNL A   1      50.727  26.966  24.777  1.00  0.00     0.022 A 
BRANCH  71  75
ATOM     75  S   UNL A   1      49.678  27.264  22.210  1.00  0.00     0.124 S 
ATOM     76  O   UNL A   1      49.319  28.639  21.883  1.00  0.00    -0.237 OA
ATOM     77  O   UNL A   1      51.070  26.890  21.975  1.00  0.00    -0.237 OA
ATOM     78  O   UNL A   1      48.693  26.253  21.832  1.00  0.00    -0.744 OA
ENDBRANCH  71  75
ENDBRANCH  44  68
BRANCH  56  79
ATOM     79  C   UNL A   1      45.420  33.126  29.036  1.00  0.00     0.023 A 
ATOM     80  C   UNL A   1      45.272  34.179  28.116  1.00  0.00     0.031 A 
ATOM     81  C   UNL A   1      46.105  33.386  30.237  1.00  0.00     0.131 A 
ATOM     82  C   UNL A   1      45.846  35.430  28.388  1.00  0.00     0.055 A 
ATOM     83  C   UNL A   1      46.625  34.648  30.526  1.00  0.00     0.041 A 
ATOM     84  F   UNL A   1      46.278  32.416  31.148  1.00  0.00    -0.206 F 
ATOM     85  C   UNL A   1      46.508  35.675  29.595  1.00  0.00     0.022 A 
BRANCH  82  86
ATOM     86  S   UNL A   1      45.789  36.713  27.107  1.00  0.00     0.124 S 
ATOM     87  O   UNL A   1      46.238  35.983  25.927  1.00  0.00    -0.237 OA
ATOM     88  O   UNL A   1      44.383  37.104  27.119  1.00  0.00    -0.237 OA
ATOM     89  O   UNL A   1      46.718  37.729  27.599  1.00  0.00    -0.744 OA
ENDBRANCH  82  86
ENDBRANCH  56  79
ENDBRANCH  30  31
ENDBRANCH  22  25
ENDBRANCH  20  21
ENDBRANCH  19  20
ENDBRANCH   1  19
TORSDOF 17
ENDMDL
