MODEL 1
REMARK VINA RESULT:     -12.5      0.000      0.000
REMARK SMILES O=CN1CCN(C(=O)Cc2ccccc2C(=O)NCCCCNC(=O)c2ccc(-c3c4nc(c(-c5cc(S(=O)(=O)[O-])ccc5F)c5ccc([nH]5)c(-c5cc(S(=O)(=O)[O-])ccc5F)c5nc(c(-c6cc(S(=O)(=O)[O-])ccc6F)c6ccc3[nH]6)C=C5)C=C4)cc2)CC1
REMARK SMILES IDX 21 1 20 2 19 3 18 4 16 5 17 6 15 8 10 9 11 10 12 11 14 12
REMARK SMILES IDX 13 13 9 14 7 15 1 16 2 17 3 18 4 19 90 20 5 21 89 22 6 23
REMARK SMILES IDX 8 24 22 25 23 26 24 27 25 29 26 30 27 31 88 32 28 33 87 34
REMARK SMILES IDX 29 35 30 36 31 37 81 38 32 39 86 40 80 41 82 42 33 43 85 44
REMARK SMILES IDX 79 45 78 46 34 48 66 49 46 50 65 51 47 52 50 53 64 54 83 55
REMARK SMILES IDX 48 56 49 57 63 59 84 60 51 61 35 62 36 63 44 64 37 65 43 66
REMARK SMILES IDX 45 67 42 68 38 69 39 70 40 71 41 72 67 73 68 74 76 75 69 76
REMARK SMILES IDX 75 77 77 78 74 79 70 80 71 81 72 82 73 83 52 84 53 85 61 86
REMARK SMILES IDX 54 87 60 88 62 89 59 90 55 91 56 92 57 93 58 94
REMARK H PARENT 18 7 23 28 82 47 50 58
REMARK Flexibility Score: inf
ROOT
ATOM      1  C   UNL A   1      31.328  31.626  26.687  1.00  0.00     0.023 C 
ENDROOT
BRANCH   1   2
ATOM      2  C   UNL A   1      31.802  30.182  26.823  1.00  0.00     0.023 C 
BRANCH   2   3
ATOM      3  C   UNL A   1      33.294  29.951  26.547  1.00  0.00     0.116 C 
BRANCH   3   4
ATOM      4  N   UNL A   1      33.498  29.707  25.136  1.00  0.00    -0.352 N 
ATOM      5  C   UNL A   1      33.422  28.631  24.298  1.00  0.00     0.251 C 
ATOM      6  O   UNL A   1      33.714  28.877  23.120  1.00  0.00    -0.269 OA
ATOM      7  H   UNL A   1      33.758  30.527  24.657  1.00  0.00     0.163 HD
BRANCH   5   8
ATOM      8  C   UNL A   1      32.972  27.228  24.606  1.00  0.00     0.043 A 
ATOM      9  C   UNL A   1      31.661  26.703  24.735  1.00  0.00    -0.026 A 
ATOM     10  C   UNL A   1      31.504  25.417  25.309  1.00  0.00     0.005 A 
ATOM     11  C   UNL A   1      32.590  24.650  25.720  1.00  0.00     0.000 A 
ATOM     12  C   UNL A   1      34.056  26.412  25.016  1.00  0.00     0.014 A 
ATOM     13  C   UNL A   1      33.872  25.142  25.563  1.00  0.00     0.001 A 
BRANCH   9  14
ATOM     14  C   UNL A   1      30.428  27.458  24.319  1.00  0.00     0.136 C 
BRANCH  14  15
ATOM     15  C   UNL A   1      30.344  28.070  22.929  1.00  0.00     0.227 C 
ATOM     16  O   UNL A   1      28.455  33.897  22.719  1.00  0.00    -0.279 OA
ATOM     17  C   UNL A   1      28.251  32.970  21.946  1.00  0.00     0.340 C 
ATOM     18  N   UNL A   1      28.151  31.644  22.292  1.00  0.00    -0.342 N 
ATOM     19  C   UNL A   1      28.117  30.579  21.300  1.00  0.00     0.140 C 
ATOM     20  C   UNL A   1      28.298  31.199  23.673  1.00  0.00     0.140 C 
ATOM     21  C   UNL A   1      29.391  29.726  21.400  1.00  0.00     0.141 C 
ATOM     22  C   UNL A   1      29.543  30.309  23.827  1.00  0.00     0.141 C 
ATOM     23  N   UNL A   1      29.663  29.276  22.774  1.00  0.00    -0.339 N 
ATOM     24  O   UNL A   1      30.802  27.460  21.960  1.00  0.00    -0.275 OA
ENDBRANCH  14  15
ENDBRANCH   9  14
ENDBRANCH   5   8
ENDBRANCH   3   4
ENDBRANCH   2   3
ENDBRANCH   1   2
BRANCH   1  25
ATOM     25  C   UNL A   1      32.446  32.645  26.537  1.00  0.00     0.116 C 
BRANCH  25  26
ATOM     26  N   UNL A   1      32.250  33.849  27.336  1.00  0.00    -0.352 N 
ATOM     27  C   UNL A   1      33.043  34.339  28.352  1.00  0.00     0.251 C 
ATOM     28  H   UNL A   1      31.449  34.380  27.122  1.00  0.00     0.163 HD
ATOM     29  O   UNL A   1      32.703  35.334  28.975  1.00  0.00    -0.269 OA
BRANCH  27  30
ATOM     30  C   UNL A   1      34.272  33.598  28.706  1.00  0.00     0.039 A 
ATOM     31  C   UNL A   1      35.503  34.248  28.600  1.00  0.00     0.014 A 
ATOM     32  C   UNL A   1      34.191  32.313  29.247  1.00  0.00     0.014 A 
ATOM     33  C   UNL A   1      36.644  33.645  29.133  1.00  0.00     0.010 A 
ATOM     34  C   UNL A   1      35.311  31.751  29.847  1.00  0.00     0.010 A 
ATOM     35  C   UNL A   1      36.545  32.419  29.811  1.00  0.00    -0.014 A 
BRANCH  35  36
ATOM     36  C   UNL A   1      37.712  31.828  30.514  1.00  0.00     0.031 A 
ATOM     37  C   UNL A   1      38.542  30.775  29.834  1.00  0.00     0.074 A 
ATOM     38  C   UNL A   1      37.963  32.172  31.793  1.00  0.00     0.049 A 
ATOM     39  N   UNL A   1      39.531  30.064  30.312  1.00  0.00    -0.248 NA
ATOM     40  C   UNL A   1      38.185  30.455  28.443  1.00  0.00     0.031 C 
ATOM     41  C   UNL A   1      37.189  33.137  32.578  1.00  0.00     0.029 A 
ATOM     42  N   UNL A   1      38.930  31.740  32.665  1.00  0.00    -0.354 N 
ATOM     43  C   UNL A   1      39.904  29.201  29.288  1.00  0.00     0.074 A 
ATOM     44  C   UNL A   1      38.992  29.436  28.189  1.00  0.00     0.031 C 
ATOM     45  C   UNL A   1      37.726  33.239  33.805  1.00  0.00     0.029 A 
ATOM     46  C   UNL A   1      38.853  32.319  33.910  1.00  0.00     0.049 A 
ATOM     47  H   UNL A   1      39.616  31.076  32.422  1.00  0.00     0.167 HD
ATOM     48  C   UNL A   1      40.926  28.311  29.259  1.00  0.00     0.034 A 
ATOM     49  C   UNL A   1      39.599  32.122  35.016  1.00  0.00     0.034 A 
ATOM     50  C   UNL A   1      41.839  28.106  30.356  1.00  0.00     0.049 A 
ATOM     51  C   UNL A   1      40.731  31.129  34.959  1.00  0.00     0.074 A 
ATOM     52  C   UNL A   1      42.952  27.284  30.411  1.00  0.00     0.029 A 
ATOM     53  N   UNL A   1      41.742  28.724  31.597  1.00  0.00    -0.354 N 
ATOM     54  N   UNL A   1      41.107  30.362  33.963  1.00  0.00    -0.248 NA
ATOM     55  C   UNL A   1      41.543  30.984  36.174  1.00  0.00     0.031 C 
ATOM     56  C   UNL A   1      43.494  27.364  31.700  1.00  0.00     0.029 A 
ATOM     57  C   UNL A   1      42.758  28.282  32.431  1.00  0.00     0.049 A 
ATOM     58  H   UNL A   1      41.053  29.380  31.847  1.00  0.00     0.167 HD
ATOM     59  C   UNL A   1      42.215  29.659  34.426  1.00  0.00     0.074 A 
ATOM     60  C   UNL A   1      42.455  30.106  35.782  1.00  0.00     0.031 C 
ATOM     61  C   UNL A   1      42.970  28.728  33.787  1.00  0.00     0.034 A 
BRANCH  48  62
ATOM     62  C   UNL A   1      41.091  27.490  28.004  1.00  0.00     0.023 A 
ATOM     63  C   UNL A   1      40.762  26.124  27.971  1.00  0.00     0.031 A 
ATOM     64  C   UNL A   1      41.623  28.068  26.838  1.00  0.00     0.131 A 
ATOM     65  C   UNL A   1      41.042  25.362  26.826  1.00  0.00     0.055 A 
ATOM     66  C   UNL A   1      41.824  27.322  25.674  1.00  0.00     0.041 A 
ATOM     67  F   UNL A   1      41.976  29.363  26.816  1.00  0.00    -0.206 F 
ATOM     68  C   UNL A   1      41.548  25.958  25.669  1.00  0.00     0.022 A 
BRANCH  65  69
ATOM     69  S   UNL A   1      40.873  23.560  26.924  1.00  0.00     0.124 S 
ATOM     70  O   UNL A   1      41.696  23.126  25.797  1.00  0.00    -0.237 OA
ATOM     71  O   UNL A   1      41.401  23.265  28.251  1.00  0.00    -0.237 OA
ATOM     72  O   UNL A   1      39.438  23.341  26.760  1.00  0.00    -0.744 OA
ENDBRANCH  65  69
ENDBRANCH  48  62
BRANCH  49  73
ATOM     73  C   UNL A   1      39.304  32.868  36.271  1.00  0.00     0.023 A 
ATOM     74  C   UNL A   1      38.457  32.326  37.250  1.00  0.00     0.031 A 
ATOM     75  C   UNL A   1      39.831  34.153  36.492  1.00  0.00     0.131 A 
ATOM     76  C   UNL A   1      38.126  33.082  38.385  1.00  0.00     0.055 A 
ATOM     77  C   UNL A   1      39.535  34.882  37.644  1.00  0.00     0.041 A 
ATOM     78  F   UNL A   1      40.653  34.713  35.590  1.00  0.00    -0.206 F 
ATOM     79  C   UNL A   1      38.666  34.353  38.594  1.00  0.00     0.022 A 
BRANCH  76  80
ATOM     80  S   UNL A   1      36.912  32.408  39.553  1.00  0.00     0.124 S 
ATOM     81  O   UNL A   1      37.307  31.004  39.616  1.00  0.00    -0.237 OA
ATOM     82  O   UNL A   1      37.171  33.201  40.749  1.00  0.00    -0.237 OA
ATOM     83  O   UNL A   1      35.630  32.667  38.900  1.00  0.00    -0.744 OA
ENDBRANCH  76  80
ENDBRANCH  49  73
BRANCH  61  84
ATOM     84  C   UNL A   1      44.142  28.166  34.549  1.00  0.00     0.023 A 
ATOM     85  C   UNL A   1      44.013  27.026  35.361  1.00  0.00     0.031 A 
ATOM     86  C   UNL A   1      45.400  28.789  34.472  1.00  0.00     0.131 A 
ATOM     87  C   UNL A   1      45.112  26.574  36.105  1.00  0.00     0.055 A 
ATOM     88  C   UNL A   1      46.503  28.302  35.173  1.00  0.00     0.041 A 
ATOM     89  F   UNL A   1      45.575  29.882  33.711  1.00  0.00    -0.206 F 
ATOM     90  C   UNL A   1      46.360  27.196  36.005  1.00  0.00     0.022 A 
BRANCH  87  91
ATOM     91  S   UNL A   1      44.871  25.205  37.270  1.00  0.00     0.124 S 
ATOM     92  O   UNL A   1      44.183  24.220  36.442  1.00  0.00    -0.237 OA
ATOM     93  O   UNL A   1      46.240  24.873  37.651  1.00  0.00    -0.237 OA
ATOM     94  O   UNL A   1      44.060  25.796  38.333  1.00  0.00    -0.744 OA
ENDBRANCH  87  91
ENDBRANCH  61  84
ENDBRANCH  35  36
ENDBRANCH  27  30
ENDBRANCH  25  26
ENDBRANCH   1  25
TORSDOF 16
ENDMDL
MODEL 2
REMARK VINA RESULT:     -12.4      1.360      1.630
REMARK SMILES O=CN1CCN(C(=O)Cc2ccccc2C(=O)NCCCCNC(=O)c2ccc(-c3c4nc(c(-c5cc(S(=O)(=O)[O-])ccc5F)c5ccc([nH]5)c(-c5cc(S(=O)(=O)[O-])ccc5F)c5nc(c(-c6cc(S(=O)(=O)[O-])ccc6F)c6ccc3[nH]6)C=C5)C=C4)cc2)CC1
REMARK SMILES IDX 21 1 20 2 19 3 18 4 16 5 17 6 15 8 10 9 11 10 12 11 14 12
REMARK SMILES IDX 13 13 9 14 7 15 1 16 2 17 3 18 4 19 90 20 5 21 89 22 6 23
REMARK SMILES IDX 8 24 22 25 23 26 24 27 25 29 26 30 27 31 88 32 28 33 87 34
REMARK SMILES IDX 29 35 30 36 31 37 81 38 32 39 86 40 80 41 82 42 33 43 85 44
REMARK SMILES IDX 79 45 78 46 34 48 66 49 46 50 65 51 47 52 50 53 64 54 83 55
REMARK SMILES IDX 48 56 49 57 63 59 84 60 51 61 35 62 36 63 44 64 37 65 43 66
REMARK SMILES IDX 45 67 42 68 38 69 39 70 40 71 41 72 67 73 68 74 76 75 69 76
REMARK SMILES IDX 75 77 77 78 74 79 70 80 71 81 72 82 73 83 52 84 53 85 61 86
REMARK SMILES IDX 54 87 60 88 62 89 59 90 55 91 56 92 57 93 58 94
REMARK H PARENT 18 7 23 28 82 47 50 58
REMARK Flexibility Score: inf
ROOT
ATOM      1  C   UNL A   1      31.465  31.916  26.888  1.00  0.00     0.023 C 
ENDROOT
BRANCH   1   2
ATOM      2  C   UNL A   1      31.765  30.446  26.610  1.00  0.00     0.023 C 
BRANCH   2   3
ATOM      3  C   UNL A   1      33.251  30.064  26.622  1.00  0.00     0.116 C 
BRANCH   3   4
ATOM      4  N   UNL A   1      33.666  29.669  25.294  1.00  0.00    -0.352 N 
ATOM      5  C   UNL A   1      33.657  28.519  24.557  1.00  0.00     0.251 C 
ATOM      6  O   UNL A   1      34.153  28.631  23.428  1.00  0.00    -0.269 OA
ATOM      7  H   UNL A   1      34.054  30.423  24.793  1.00  0.00     0.163 HD
BRANCH   5   8
ATOM      8  C   UNL A   1      33.072  27.178  24.912  1.00  0.00     0.043 A 
ATOM      9  C   UNL A   1      31.717  26.789  25.058  1.00  0.00    -0.026 A 
ATOM     10  C   UNL A   1      31.435  25.546  25.674  1.00  0.00     0.005 A 
ATOM     11  C   UNL A   1      32.442  24.690  26.112  1.00  0.00     0.000 A 
ATOM     12  C   UNL A   1      34.072  26.274  25.350  1.00  0.00     0.014 A 
ATOM     13  C   UNL A   1      33.766  25.048  25.940  1.00  0.00     0.001 A 
BRANCH   9  14
ATOM     14  C   UNL A   1      30.563  27.648  24.616  1.00  0.00     0.136 C 
BRANCH  14  15
ATOM     15  C   UNL A   1      30.491  28.145  23.180  1.00  0.00     0.227 C 
ATOM     16  O   UNL A   1      28.231  33.794  22.449  1.00  0.00    -0.279 OA
ATOM     17  C   UNL A   1      28.117  32.799  21.746  1.00  0.00     0.340 C 
ATOM     18  N   UNL A   1      28.092  31.500  22.193  1.00  0.00    -0.342 N 
ATOM     19  C   UNL A   1      28.166  30.362  21.287  1.00  0.00     0.140 C 
ATOM     20  C   UNL A   1      28.216  31.173  23.608  1.00  0.00     0.140 C 
ATOM     21  C   UNL A   1      29.489  29.609  21.495  1.00  0.00     0.141 C 
ATOM     22  C   UNL A   1      29.511  30.385  23.872  1.00  0.00     0.141 C 
ATOM     23  N   UNL A   1      29.738  29.285  22.909  1.00  0.00    -0.339 N 
ATOM     24  O   UNL A   1      31.024  27.495  22.278  1.00  0.00    -0.275 OA
ENDBRANCH  14  15
ENDBRANCH   9  14
ENDBRANCH   5   8
ENDBRANCH   3   4
ENDBRANCH   2   3
ENDBRANCH   1   2
BRANCH   1  25
ATOM     25  C   UNL A   1      32.693  32.810  26.949  1.00  0.00     0.116 C 
BRANCH  25  26
ATOM     26  N   UNL A   1      32.493  34.023  27.733  1.00  0.00    -0.352 N 
ATOM     27  C   UNL A   1      33.254  34.499  28.780  1.00  0.00     0.251 C 
ATOM     28  H   UNL A   1      31.717  34.573  27.482  1.00  0.00     0.163 HD
ATOM     29  O   UNL A   1      32.912  35.506  29.383  1.00  0.00    -0.269 OA
BRANCH  27  30
ATOM     30  C   UNL A   1      34.447  33.729  29.193  1.00  0.00     0.039 A 
ATOM     31  C   UNL A   1      35.711  34.233  28.885  1.00  0.00     0.014 A 
ATOM     32  C   UNL A   1      34.310  32.581  29.976  1.00  0.00     0.014 A 
ATOM     33  C   UNL A   1      36.841  33.640  29.450  1.00  0.00     0.010 A 
ATOM     34  C   UNL A   1      35.428  32.042  30.601  1.00  0.00     0.010 A 
ATOM     35  C   UNL A   1      36.703  32.577  30.357  1.00  0.00    -0.014 A 
BRANCH  35  36
ATOM     36  C   UNL A   1      37.873  32.024  31.086  1.00  0.00     0.031 A 
ATOM     37  C   UNL A   1      38.679  30.912  30.476  1.00  0.00     0.074 A 
ATOM     38  C   UNL A   1      38.148  32.460  32.332  1.00  0.00     0.049 A 
ATOM     39  N   UNL A   1      39.667  30.226  30.991  1.00  0.00    -0.248 NA
ATOM     40  C   UNL A   1      38.297  30.493  29.119  1.00  0.00     0.031 C 
ATOM     41  C   UNL A   1      37.399  33.493  33.053  1.00  0.00     0.029 A 
ATOM     42  N   UNL A   1      39.123  32.082  33.220  1.00  0.00    -0.354 N 
ATOM     43  C   UNL A   1      40.012  29.283  30.031  1.00  0.00     0.074 A 
ATOM     44  C   UNL A   1      39.087  29.447  28.930  1.00  0.00     0.031 C 
ATOM     45  C   UNL A   1      37.956  33.680  34.260  1.00  0.00     0.029 A 
ATOM     46  C   UNL A   1      39.073  32.755  34.418  1.00  0.00     0.049 A 
ATOM     47  H   UNL A   1      39.797  31.393  33.017  1.00  0.00     0.167 HD
ATOM     48  C   UNL A   1      41.023  28.380  30.054  1.00  0.00     0.034 A 
ATOM     49  C   UNL A   1      39.834  32.632  35.524  1.00  0.00     0.034 A 
ATOM     50  C   UNL A   1      41.950  28.245  31.149  1.00  0.00     0.049 A 
ATOM     51  C   UNL A   1      40.952  31.622  35.527  1.00  0.00     0.074 A 
ATOM     52  C   UNL A   1      43.053  27.414  31.250  1.00  0.00     0.029 A 
ATOM     53  N   UNL A   1      41.880  28.956  32.341  1.00  0.00    -0.354 N 
ATOM     54  N   UNL A   1      41.303  30.777  34.586  1.00  0.00    -0.248 NA
ATOM     55  C   UNL A   1      41.782  31.557  36.737  1.00  0.00     0.031 C 
ATOM     56  C   UNL A   1      43.617  27.584  32.521  1.00  0.00     0.029 A 
ATOM     57  C   UNL A   1      42.904  28.565  33.191  1.00  0.00     0.049 A 
ATOM     58  H   UNL A   1      41.203  29.639  32.551  1.00  0.00     0.167 HD
ATOM     59  C   UNL A   1      42.410  30.095  35.084  1.00  0.00     0.074 A 
ATOM     60  C   UNL A   1      42.677  30.640  36.399  1.00  0.00     0.031 C 
ATOM     61  C   UNL A   1      43.142  29.109  34.507  1.00  0.00     0.034 A 
BRANCH  48  62
ATOM     62  C   UNL A   1      41.158  27.463  28.862  1.00  0.00     0.023 A 
ATOM     63  C   UNL A   1      42.167  27.650  27.902  1.00  0.00     0.031 A 
ATOM     64  C   UNL A   1      40.243  26.416  28.661  1.00  0.00     0.131 A 
ATOM     65  C   UNL A   1      42.189  26.857  26.744  1.00  0.00     0.055 A 
ATOM     66  C   UNL A   1      40.319  25.577  27.547  1.00  0.00     0.041 A 
ATOM     67  F   UNL A   1      39.245  26.202  29.534  1.00  0.00    -0.206 F 
ATOM     68  C   UNL A   1      41.286  25.805  26.572  1.00  0.00     0.022 A 
BRANCH  65  69
ATOM     69  S   UNL A   1      43.320  27.315  25.404  1.00  0.00     0.124 S 
ATOM     70  O   UNL A   1      43.776  26.005  24.944  1.00  0.00    -0.237 OA
ATOM     71  O   UNL A   1      42.448  28.044  24.490  1.00  0.00    -0.237 OA
ATOM     72  O   UNL A   1      44.337  28.122  26.074  1.00  0.00    -0.744 OA
ENDBRANCH  65  69
ENDBRANCH  48  62
BRANCH  49  73
ATOM     73  C   UNL A   1      39.568  33.474  36.724  1.00  0.00     0.023 A 
ATOM     74  C   UNL A   1      38.911  32.944  37.846  1.00  0.00     0.031 A 
ATOM     75  C   UNL A   1      39.929  34.833  36.750  1.00  0.00     0.131 A 
ATOM     76  C   UNL A   1      38.596  33.778  38.930  1.00  0.00     0.055 A 
ATOM     77  C   UNL A   1      39.653  35.647  37.850  1.00  0.00     0.041 A 
ATOM     78  F   UNL A   1      40.567  35.386  35.706  1.00  0.00    -0.206 F 
ATOM     79  C   UNL A   1      38.971  35.124  38.944  1.00  0.00     0.022 A 
BRANCH  76  80
ATOM     80  S   UNL A   1      37.616  33.094  40.295  1.00  0.00     0.124 S 
ATOM     81  O   UNL A   1      38.441  31.966  40.717  1.00  0.00    -0.237 OA
ATOM     82  O   UNL A   1      37.553  34.222  41.217  1.00  0.00    -0.237 OA
ATOM     83  O   UNL A   1      36.349  32.738  39.659  1.00  0.00    -0.744 OA
ENDBRANCH  76  80
ENDBRANCH  49  73
BRANCH  61  84
ATOM     84  C   UNL A   1      44.319  28.589  35.291  1.00  0.00     0.023 A 
ATOM     85  C   UNL A   1      44.168  27.593  36.270  1.00  0.00     0.031 A 
ATOM     86  C   UNL A   1      45.605  29.112  35.066  1.00  0.00     0.131 A 
ATOM     87  C   UNL A   1      45.278  27.183  37.025  1.00  0.00     0.055 A 
ATOM     88  C   UNL A   1      46.714  28.663  35.783  1.00  0.00     0.041 A 
ATOM     89  F   UNL A   1      45.802  30.067  34.144  1.00  0.00    -0.206 F 
ATOM     90  C   UNL A   1      46.552  27.702  36.777  1.00  0.00     0.022 A 
BRANCH  87  91
ATOM     91  S   UNL A   1      45.020  26.019  38.390  1.00  0.00     0.124 S 
ATOM     92  O   UNL A   1      44.686  26.914  39.493  1.00  0.00    -0.237 OA
ATOM     93  O   UNL A   1      43.930  25.187  37.892  1.00  0.00    -0.237 OA
ATOM     94  O   UNL A   1      46.309  25.340  38.512  1.00  0.00    -0.744 OA
ENDBRANCH  87  91
ENDBRANCH  61  84
ENDBRANCH  35  36
ENDBRANCH  27  30
ENDBRANCH  25  26
ENDBRANCH   1  25
TORSDOF 16
ENDMDL
MODEL 3
REMARK VINA RESULT:     -12.2      0.608      7.465
REMARK SMILES O=CN1CCN(C(=O)Cc2ccccc2C(=O)NCCCCNC(=O)c2ccc(-c3c4nc(c(-c5cc(S(=O)(=O)[O-])ccc5F)c5ccc([nH]5)c(-c5cc(S(=O)(=O)[O-])ccc5F)c5nc(c(-c6cc(S(=O)(=O)[O-])ccc6F)c6ccc3[nH]6)C=C5)C=C4)cc2)CC1
REMARK SMILES IDX 21 1 20 2 19 3 18 4 16 5 17 6 15 8 10 9 11 10 12 11 14 12
REMARK SMILES IDX 13 13 9 14 7 15 1 16 2 17 3 18 4 19 90 20 5 21 89 22 6 23
REMARK SMILES IDX 8 24 22 25 23 26 24 27 25 29 26 30 27 31 88 32 28 33 87 34
REMARK SMILES IDX 29 35 30 36 31 37 81 38 32 39 86 40 80 41 82 42 33 43 85 44
REMARK SMILES IDX 79 45 78 46 34 48 66 49 46 50 65 51 47 52 50 53 64 54 83 55
REMARK SMILES IDX 48 56 49 57 63 59 84 60 51 61 35 62 36 63 44 64 37 65 43 66
REMARK SMILES IDX 45 67 42 68 38 69 39 70 40 71 41 72 67 73 68 74 76 75 69 76
REMARK SMILES IDX 75 77 77 78 74 79 70 80 71 81 72 82 73 83 52 84 53 85 61 86
REMARK SMILES IDX 54 87 60 88 62 89 59 90 55 91 56 92 57 93 58 94
REMARK H PARENT 18 7 23 28 82 47 50 58
REMARK Flexibility Score: inf
ROOT
ATOM      1  C   UNL A   1      31.439  31.911  27.026  1.00  0.00     0.023 C 
ENDROOT
BRANCH   1   2
ATOM      2  C   UNL A   1      31.684  30.510  26.474  1.00  0.00     0.023 C 
BRANCH   2   3
ATOM      3  C   UNL A   1      33.158  30.128  26.280  1.00  0.00     0.116 C 
BRANCH   3   4
ATOM      4  N   UNL A   1      33.398  29.793  24.893  1.00  0.00    -0.352 N 
ATOM      5  C   UNL A   1      33.364  28.661  24.130  1.00  0.00     0.251 C 
ATOM      6  O   UNL A   1      33.677  28.834  22.944  1.00  0.00    -0.269 OA
ATOM      7  H   UNL A   1      33.649  30.585  24.364  1.00  0.00     0.163 HD
BRANCH   5   8
ATOM      8  C   UNL A   1      32.940  27.272  24.525  1.00  0.00     0.043 A 
ATOM      9  C   UNL A   1      31.640  26.739  24.713  1.00  0.00    -0.026 A 
ATOM     10  C   UNL A   1      31.513  25.485  25.359  1.00  0.00     0.005 A 
ATOM     11  C   UNL A   1      32.618  24.755  25.787  1.00  0.00     0.000 A 
ATOM     12  C   UNL A   1      34.044  26.493  24.954  1.00  0.00     0.014 A 
ATOM     13  C   UNL A   1      33.890  25.253  25.574  1.00  0.00     0.001 A 
BRANCH   9  14
ATOM     14  C   UNL A   1      30.388  27.456  24.284  1.00  0.00     0.136 C 
BRANCH  14  15
ATOM     15  C   UNL A   1      30.302  28.073  22.898  1.00  0.00     0.227 C 
ATOM     16  O   UNL A   1      28.384  33.891  22.709  1.00  0.00    -0.279 OA
ATOM     17  C   UNL A   1      28.185  32.966  21.933  1.00  0.00     0.340 C 
ATOM     18  N   UNL A   1      28.092  31.638  22.274  1.00  0.00    -0.342 N 
ATOM     19  C   UNL A   1      28.063  30.577  21.277  1.00  0.00     0.140 C 
ATOM     20  C   UNL A   1      28.240  31.188  23.652  1.00  0.00     0.140 C 
ATOM     21  C   UNL A   1      29.341  29.730  21.374  1.00  0.00     0.141 C 
ATOM     22  C   UNL A   1      29.489  30.304  23.804  1.00  0.00     0.141 C 
ATOM     23  N   UNL A   1      29.615  29.276  22.747  1.00  0.00    -0.339 N 
ATOM     24  O   UNL A   1      30.763  27.469  21.926  1.00  0.00    -0.275 OA
ENDBRANCH  14  15
ENDBRANCH   9  14
ENDBRANCH   5   8
ENDBRANCH   3   4
ENDBRANCH   2   3
ENDBRANCH   1   2
BRANCH   1  25
ATOM     25  C   UNL A   1      32.569  32.895  26.774  1.00  0.00     0.116 C 
BRANCH  25  26
ATOM     26  N   UNL A   1      32.517  34.075  27.630  1.00  0.00    -0.352 N 
ATOM     27  C   UNL A   1      33.385  34.438  28.638  1.00  0.00     0.251 C 
ATOM     28  H   UNL A   1      31.768  34.691  27.466  1.00  0.00     0.163 HD
ATOM     29  O   UNL A   1      33.163  35.432  29.314  1.00  0.00    -0.269 OA
BRANCH  27  30
ATOM     30  C   UNL A   1      34.544  33.564  28.920  1.00  0.00     0.039 A 
ATOM     31  C   UNL A   1      35.829  34.099  28.819  1.00  0.00     0.014 A 
ATOM     32  C   UNL A   1      34.350  32.263  29.391  1.00  0.00     0.014 A 
ATOM     33  C   UNL A   1      36.917  33.361  29.288  1.00  0.00     0.010 A 
ATOM     34  C   UNL A   1      35.422  31.564  29.930  1.00  0.00     0.010 A 
ATOM     35  C   UNL A   1      36.714  32.113  29.899  1.00  0.00    -0.014 A 
BRANCH  35  36
ATOM     36  C   UNL A   1      37.833  31.373  30.539  1.00  0.00     0.031 A 
ATOM     37  C   UNL A   1      38.236  31.698  31.949  1.00  0.00     0.074 A 
ATOM     38  C   UNL A   1      38.538  30.480  29.817  1.00  0.00     0.049 A 
ATOM     39  N   UNL A   1      39.245  31.244  32.647  1.00  0.00    -0.248 NA
ATOM     40  C   UNL A   1      37.416  32.696  32.654  1.00  0.00     0.031 C 
ATOM     41  C   UNL A   1      38.279  30.126  28.419  1.00  0.00     0.029 A 
ATOM     42  N   UNL A   1      39.628  29.716  30.152  1.00  0.00    -0.354 N 
ATOM     43  C   UNL A   1      39.192  31.912  33.865  1.00  0.00     0.074 A 
ATOM     44  C   UNL A   1      38.089  32.846  33.784  1.00  0.00     0.031 C 
ATOM     45  C   UNL A   1      39.169  29.200  28.026  1.00  0.00     0.029 A 
ATOM     46  C   UNL A   1      40.087  28.924  29.126  1.00  0.00     0.049 A 
ATOM     47  H   UNL A   1      40.042  29.734  31.045  1.00  0.00     0.167 HD
ATOM     48  C   UNL A   1      39.975  31.744  34.959  1.00  0.00     0.034 A 
ATOM     49  C   UNL A   1      41.136  28.079  29.073  1.00  0.00     0.034 A 
ATOM     50  C   UNL A   1      41.056  30.793  35.031  1.00  0.00     0.049 A 
ATOM     51  C   UNL A   1      41.992  27.908  30.302  1.00  0.00     0.074 A 
ATOM     52  C   UNL A   1      41.868  30.488  36.110  1.00  0.00     0.029 A 
ATOM     53  N   UNL A   1      41.481  29.993  33.977  1.00  0.00    -0.354 N 
ATOM     54  N   UNL A   1      41.893  28.506  31.466  1.00  0.00    -0.248 NA
ATOM     55  C   UNL A   1      43.095  26.944  30.210  1.00  0.00     0.031 C 
ATOM     56  C   UNL A   1      42.817  29.546  35.694  1.00  0.00     0.029 A 
ATOM     57  C   UNL A   1      42.559  29.216  34.373  1.00  0.00     0.049 A 
ATOM     58  H   UNL A   1      41.076  29.979  33.081  1.00  0.00     0.167 HD
ATOM     59  C   UNL A   1      42.908  27.970  32.253  1.00  0.00     0.074 A 
ATOM     60  C   UNL A   1      43.595  26.991  31.436  1.00  0.00     0.031 C 
ATOM     61  C   UNL A   1      43.242  28.258  33.537  1.00  0.00     0.034 A 
BRANCH  48  62
ATOM     62  C   UNL A   1      39.693  32.624  36.152  1.00  0.00     0.023 A 
ATOM     63  C   UNL A   1      38.840  32.207  37.188  1.00  0.00     0.031 A 
ATOM     64  C   UNL A   1      40.249  33.913  36.235  1.00  0.00     0.131 A 
ATOM     65  C   UNL A   1      38.503  33.096  38.220  1.00  0.00     0.055 A 
ATOM     66  C   UNL A   1      39.973  34.764  37.308  1.00  0.00     0.041 A 
ATOM     67  F   UNL A   1      41.054  34.374  35.265  1.00  0.00    -0.206 F 
ATOM     68  C   UNL A   1      39.083  34.364  38.300  1.00  0.00     0.022 A 
BRANCH  65  69
ATOM     69  S   UNL A   1      37.184  32.623  39.371  1.00  0.00     0.124 S 
ATOM     70  O   UNL A   1      37.530  31.232  39.659  1.00  0.00    -0.237 OA
ATOM     71  O   UNL A   1      37.370  33.566  40.468  1.00  0.00    -0.237 OA
ATOM     72  O   UNL A   1      35.964  32.806  38.590  1.00  0.00    -0.744 OA
ENDBRANCH  65  69
ENDBRANCH  48  62
BRANCH  49  73
ATOM     73  C   UNL A   1      41.447  27.335  27.821  1.00  0.00     0.023 A 
ATOM     74  C   UNL A   1      41.264  25.945  27.744  1.00  0.00     0.031 A 
ATOM     75  C   UNL A   1      41.972  27.995  26.696  1.00  0.00     0.131 A 
ATOM     76  C   UNL A   1      41.643  25.253  26.584  1.00  0.00     0.055 A 
ATOM     77  C   UNL A   1      42.305  27.308  25.528  1.00  0.00     0.041 A 
ATOM     78  F   UNL A   1      42.158  29.325  26.716  1.00  0.00    -0.206 F 
ATOM     79  C   UNL A   1      42.154  25.926  25.471  1.00  0.00     0.022 A 
BRANCH  76  80
ATOM     80  S   UNL A   1      41.531  23.442  26.577  1.00  0.00     0.124 S 
ATOM     81  O   UNL A   1      42.451  23.091  25.501  1.00  0.00    -0.237 OA
ATOM     82  O   UNL A   1      41.967  23.108  27.929  1.00  0.00    -0.237 OA
ATOM     83  O   UNL A   1      40.118  23.190  26.299  1.00  0.00    -0.744 OA
ENDBRANCH  76  80
ENDBRANCH  49  73
BRANCH  61  84
ATOM     84  C   UNL A   1      44.382  27.474  34.134  1.00  0.00     0.023 A 
ATOM     85  C   UNL A   1      44.178  26.220  34.734  1.00  0.00     0.031 A 
ATOM     86  C   UNL A   1      45.687  27.997  34.114  1.00  0.00     0.131 A 
ATOM     87  C   UNL A   1      45.254  25.552  35.336  1.00  0.00     0.055 A 
ATOM     88  C   UNL A   1      46.763  27.304  34.668  1.00  0.00     0.041 A 
ATOM     89  F   UNL A   1      45.935  29.192  33.555  1.00  0.00    -0.206 F 
ATOM     90  C   UNL A   1      46.548  26.079  35.294  1.00  0.00     0.022 A 
BRANCH  87  91
ATOM     91  S   UNL A   1      44.928  24.018  36.246  1.00  0.00     0.124 S 
ATOM     92  O   UNL A   1      46.148  23.256  36.002  1.00  0.00    -0.237 OA
ATOM     93  O   UNL A   1      44.737  24.498  37.611  1.00  0.00    -0.237 OA
ATOM     94  O   UNL A   1      43.726  23.486  35.605  1.00  0.00    -0.744 OA
ENDBRANCH  87  91
ENDBRANCH  61  84
ENDBRANCH  35  36
ENDBRANCH  27  30
ENDBRANCH  25  26
ENDBRANCH   1  25
TORSDOF 16
ENDMDL
