MODEL 1
REMARK VINA RESULT:     -12.6      0.000      0.000
REMARK SMILES O=C(CN1C(=O)/C(=C\c2cccs2)SC1=S)Nc1ccccc1C(=O)NCCCCNC(=O)c1ccc(-c2c3nc(c(-c4cc(S(=O)(=O)[O-])ccc4F)c4ccc([nH]4)c(-c4cc(S(=O)(=O)[O-])ccc4F)c4nc(c(-c5cc(S(=O)(=O)[O-])ccc5F)c5ccc2[nH]5)C=C4)C=C3)cc1
REMARK SMILES IDX 28 1 27 2 26 3 24 4 25 5 23 7 18 8 19 9 20 10 22 11 21 12
REMARK SMILES IDX 17 13 1 14 2 15 3 17 4 18 5 19 15 20 6 21 7 22 14 23 16 24
REMARK SMILES IDX 8 25 9 26 10 27 13 28 11 29 12 30 29 31 30 32 31 33 32 34
REMARK SMILES IDX 33 36 34 37 35 38 96 39 36 40 95 41 37 42 38 43 39 44 89 45
REMARK SMILES IDX 40 46 94 47 88 48 90 49 41 50 93 51 87 52 86 53 42 55 74 56
REMARK SMILES IDX 54 57 73 58 55 59 58 60 72 61 91 62 56 63 57 64 71 66 92 67
REMARK SMILES IDX 59 68 43 69 44 70 52 71 45 72 51 73 53 74 50 75 46 76 47 77
REMARK SMILES IDX 48 78 49 79 75 80 76 81 84 82 77 83 83 84 85 85 82 86 78 87
REMARK SMILES IDX 79 88 80 89 81 90 60 91 61 92 69 93 62 94 68 95 70 96 67 97
REMARK SMILES IDX 63 98 64 99 65 100 66 101
REMARK H PARENT 26 6 17 16 31 35 90 54 58 65
REMARK Flexibility Score: inf
ROOT
ATOM      1  C   UNL A   1      37.303  22.022  24.429  1.00  0.00     0.023 C 
ENDROOT
BRANCH   1   2
ATOM      2  C   UNL A   1      35.805  22.269  24.334  1.00  0.00     0.116 C 
BRANCH   2   3
ATOM      3  N   UNL A   1      35.000  21.995  25.493  1.00  0.00    -0.352 N 
ATOM      4  C   UNL A   1      34.239  20.874  25.769  1.00  0.00     0.253 C 
ATOM      5  O   UNL A   1      33.802  20.758  26.917  1.00  0.00    -0.269 OA
ATOM      6  H   UNL A   1      34.989  22.699  26.180  1.00  0.00     0.163 HD
BRANCH   4   7
ATOM      7  C   UNL A   1      33.752  19.913  24.720  1.00  0.00     0.063 A 
ATOM      8  C   UNL A   1      32.596  19.959  23.908  1.00  0.00     0.054 A 
ATOM      9  C   UNL A   1      32.244  18.804  23.171  1.00  0.00     0.027 A 
ATOM     10  C   UNL A   1      33.067  17.675  23.131  1.00  0.00     0.002 A 
ATOM     11  C   UNL A   1      34.580  18.764  24.640  1.00  0.00     0.016 A 
ATOM     12  C   UNL A   1      34.252  17.664  23.846  1.00  0.00     0.001 A 
BRANCH   8  13
ATOM     13  N   UNL A   1      31.715  21.057  23.708  1.00  0.00    -0.324 N 
ATOM     14  O   UNL A   1      33.070  22.371  22.390  1.00  0.00    -0.273 OA
ATOM     15  C   UNL A   1      32.027  22.216  23.017  1.00  0.00     0.244 C 
ATOM     16  H   UNL A   1      30.811  20.987  24.091  1.00  0.00     0.170 HD
BRANCH  15  17
ATOM     17  C   UNL A   1      31.088  23.406  23.301  1.00  0.00     0.227 C 
BRANCH  17  18
ATOM     18  N   UNL A   1      31.580  24.395  24.241  1.00  0.00    -0.283 N 
ATOM     19  C   UNL A   1      32.062  25.559  23.697  1.00  0.00     0.266 C 
ATOM     20  C   UNL A   1      31.747  24.244  25.602  1.00  0.00     0.148 C 
ATOM     21  O   UNL A   1      32.197  25.789  22.503  1.00  0.00    -0.268 OA
ATOM     22  C   UNL A   1      32.362  26.513  24.789  1.00  0.00     0.081 C 
ATOM     23  S   UNL A   1      32.655  25.628  26.238  1.00  0.00    -0.054 SA
ATOM     24  S   UNL A   1      31.104  23.055  26.580  1.00  0.00    -0.052 S 
ATOM     25  C   UNL A   1      32.033  27.813  24.758  1.00  0.00     0.040 C 
BRANCH  25  26
ATOM     26  C   UNL A   1      31.137  28.252  23.741  1.00  0.00     0.028 A 
ATOM     27  C   UNL A   1      31.426  29.147  22.721  1.00  0.00     0.020 A 
ATOM     28  S   UNL A   1      29.495  27.780  23.701  1.00  0.00    -0.144 S 
ATOM     29  C   UNL A   1      30.270  29.547  21.998  1.00  0.00     0.012 A 
ATOM     30  C   UNL A   1      29.144  28.893  22.445  1.00  0.00     0.065 A 
ENDBRANCH  25  26
ENDBRANCH  17  18
ENDBRANCH  15  17
ENDBRANCH   8  13
ENDBRANCH   4   7
ENDBRANCH   2   3
ENDBRANCH   1   2
BRANCH   1  31
ATOM     31  C   UNL A   1      37.762  20.566  24.573  1.00  0.00     0.023 C 
BRANCH  31  32
ATOM     32  C   UNL A   1      38.337  20.099  25.913  1.00  0.00     0.116 C 
BRANCH  32  33
ATOM     33  N   UNL A   1      39.690  19.556  25.874  1.00  0.00    -0.352 N 
ATOM     34  C   UNL A   1      40.810  20.051  26.518  1.00  0.00     0.251 C 
ATOM     35  H   UNL A   1      39.821  18.747  25.329  1.00  0.00     0.163 HD
ATOM     36  O   UNL A   1      41.832  19.379  26.606  1.00  0.00    -0.269 OA
BRANCH  34  37
ATOM     37  C   UNL A   1      40.776  21.444  27.010  1.00  0.00     0.039 A 
ATOM     38  C   UNL A   1      41.622  21.782  28.070  1.00  0.00     0.014 A 
ATOM     39  C   UNL A   1      40.069  22.428  26.317  1.00  0.00     0.014 A 
ATOM     40  C   UNL A   1      41.868  23.126  28.351  1.00  0.00     0.010 A 
ATOM     41  C   UNL A   1      40.359  23.767  26.565  1.00  0.00     0.010 A 
ATOM     42  C   UNL A   1      41.297  24.127  27.551  1.00  0.00    -0.014 A 
BRANCH  42  43
ATOM     43  C   UNL A   1      41.695  25.554  27.683  1.00  0.00     0.031 A 
ATOM     44  C   UNL A   1      43.040  25.996  27.184  1.00  0.00     0.074 A 
ATOM     45  C   UNL A   1      40.893  26.423  28.334  1.00  0.00     0.049 A 
ATOM     46  N   UNL A   1      43.672  27.122  27.385  1.00  0.00    -0.248 NA
ATOM     47  C   UNL A   1      43.782  25.021  26.371  1.00  0.00     0.031 C 
ATOM     48  C   UNL A   1      39.562  26.115  28.864  1.00  0.00     0.029 A 
ATOM     49  N   UNL A   1      41.087  27.738  28.681  1.00  0.00    -0.354 N 
ATOM     50  C   UNL A   1      44.895  26.989  26.738  1.00  0.00     0.074 A 
ATOM     51  C   UNL A   1      44.930  25.652  26.181  1.00  0.00     0.031 C 
ATOM     52  C   UNL A   1      39.060  27.209  29.461  1.00  0.00     0.029 A 
ATOM     53  C   UNL A   1      40.051  28.279  29.413  1.00  0.00     0.049 A 
ATOM     54  H   UNL A   1      41.892  28.248  28.432  1.00  0.00     0.167 HD
ATOM     55  C   UNL A   1      45.888  27.902  26.609  1.00  0.00     0.034 A 
ATOM     56  C   UNL A   1      39.930  29.487  30.001  1.00  0.00     0.034 A 
ATOM     57  C   UNL A   1      45.836  29.228  27.171  1.00  0.00     0.049 A 
ATOM     58  C   UNL A   1      41.072  30.470  29.885  1.00  0.00     0.074 A 
ATOM     59  C   UNL A   1      46.794  30.228  27.123  1.00  0.00     0.029 A 
ATOM     60  N   UNL A   1      44.759  29.747  27.878  1.00  0.00    -0.354 N 
ATOM     61  N   UNL A   1      42.230  30.321  29.285  1.00  0.00    -0.248 NA
ATOM     62  C   UNL A   1      40.891  31.784  30.519  1.00  0.00     0.031 C 
ATOM     63  C   UNL A   1      46.312  31.333  27.833  1.00  0.00     0.029 A 
ATOM     64  C   UNL A   1      45.029  31.048  28.269  1.00  0.00     0.049 A 
ATOM     65  H   UNL A   1      43.925  29.261  28.072  1.00  0.00     0.167 HD
ATOM     66  C   UNL A   1      42.890  31.539  29.428  1.00  0.00     0.074 A 
ATOM     67  C   UNL A   1      42.005  32.410  30.170  1.00  0.00     0.031 C 
ATOM     68  C   UNL A   1      44.117  31.908  28.981  1.00  0.00     0.034 A 
BRANCH  55  69
ATOM     69  C   UNL A   1      47.118  27.475  25.850  1.00  0.00     0.023 A 
ATOM     70  C   UNL A   1      47.304  27.834  24.504  1.00  0.00     0.031 A 
ATOM     71  C   UNL A   1      48.096  26.671  26.460  1.00  0.00     0.131 A 
ATOM     72  C   UNL A   1      48.399  27.327  23.790  1.00  0.00     0.055 A 
ATOM     73  C   UNL A   1      49.227  26.237  25.766  1.00  0.00     0.041 A 
ATOM     74  F   UNL A   1      47.961  26.281  27.738  1.00  0.00    -0.206 F 
ATOM     75  C   UNL A   1      49.377  26.552  24.418  1.00  0.00     0.022 A 
BRANCH  72  76
ATOM     76  S   UNL A   1      48.456  27.588  21.997  1.00  0.00     0.124 S 
ATOM     77  O   UNL A   1      47.146  28.184  21.746  1.00  0.00    -0.237 OA
ATOM     78  O   UNL A   1      49.602  28.477  21.841  1.00  0.00    -0.237 OA
ATOM     79  O   UNL A   1      48.635  26.240  21.459  1.00  0.00    -0.744 OA
ENDBRANCH  72  76
ENDBRANCH  55  69
BRANCH  56  80
ATOM     80  C   UNL A   1      38.707  29.847  30.780  1.00  0.00     0.023 A 
ATOM     81  C   UNL A   1      37.683  30.612  30.197  1.00  0.00     0.031 A 
ATOM     82  C   UNL A   1      38.579  29.507  32.138  1.00  0.00     0.131 A 
ATOM     83  C   UNL A   1      36.613  31.070  30.984  1.00  0.00     0.055 A 
ATOM     84  C   UNL A   1      37.482  29.913  32.902  1.00  0.00     0.041 A 
ATOM     85  F   UNL A   1      39.525  28.776  32.748  1.00  0.00    -0.206 F 
ATOM     86  C   UNL A   1      36.500  30.716  32.329  1.00  0.00     0.022 A 
BRANCH  83  87
ATOM     87  S   UNL A   1      35.437  32.240  30.251  1.00  0.00     0.124 S 
ATOM     88  O   UNL A   1      35.015  31.525  29.051  1.00  0.00    -0.237 OA
ATOM     89  O   UNL A   1      34.439  32.366  31.307  1.00  0.00    -0.237 OA
ATOM     90  O   UNL A   1      36.247  33.432  30.013  1.00  0.00    -0.744 OA
ENDBRANCH  83  87
ENDBRANCH  56  80
BRANCH  68  91
ATOM     91  C   UNL A   1      44.526  33.341  29.197  1.00  0.00     0.023 A 
ATOM     92  C   UNL A   1      44.132  34.370  28.326  1.00  0.00     0.031 A 
ATOM     93  C   UNL A   1      45.315  33.678  30.312  1.00  0.00     0.131 A 
ATOM     94  C   UNL A   1      44.560  35.685  28.563  1.00  0.00     0.055 A 
ATOM     95  C   UNL A   1      45.699  34.993  30.569  1.00  0.00     0.041 A 
ATOM     96  F   UNL A   1      45.716  32.730  31.175  1.00  0.00    -0.206 F 
ATOM     97  C   UNL A   1      45.328  36.005  29.687  1.00  0.00     0.022 A 
BRANCH  94  98
ATOM     98  S   UNL A   1      44.143  36.972  27.357  1.00  0.00     0.124 S 
ATOM     99  O   UNL A   1      43.236  36.264  26.459  1.00  0.00    -0.237 OA
ATOM    100  O   UNL A   1      43.535  38.001  28.193  1.00  0.00    -0.237 OA
ATOM    101  O   UNL A   1      45.435  37.332  26.776  1.00  0.00    -0.744 OA
ENDBRANCH  94  98
ENDBRANCH  68  91
ENDBRANCH  42  43
ENDBRANCH  34  37
ENDBRANCH  32  33
ENDBRANCH  31  32
ENDBRANCH   1  31
TORSDOF 18
ENDMDL
MODEL 2
REMARK VINA RESULT:     -12.5      0.647      7.223
REMARK SMILES O=C(CN1C(=O)/C(=C\c2cccs2)SC1=S)Nc1ccccc1C(=O)NCCCCNC(=O)c1ccc(-c2c3nc(c(-c4cc(S(=O)(=O)[O-])ccc4F)c4ccc([nH]4)c(-c4cc(S(=O)(=O)[O-])ccc4F)c4nc(c(-c5cc(S(=O)(=O)[O-])ccc5F)c5ccc2[nH]5)C=C4)C=C3)cc1
REMARK SMILES IDX 28 1 27 2 26 3 24 4 25 5 23 7 18 8 19 9 20 10 22 11 21 12
REMARK SMILES IDX 17 13 1 14 2 15 3 17 4 18 5 19 15 20 6 21 7 22 14 23 16 24
REMARK SMILES IDX 8 25 9 26 10 27 13 28 11 29 12 30 29 31 30 32 31 33 32 34
REMARK SMILES IDX 33 36 34 37 35 38 96 39 36 40 95 41 37 42 38 43 39 44 89 45
REMARK SMILES IDX 40 46 94 47 88 48 90 49 41 50 93 51 87 52 86 53 42 55 74 56
REMARK SMILES IDX 54 57 73 58 55 59 58 60 72 61 91 62 56 63 57 64 71 66 92 67
REMARK SMILES IDX 59 68 43 69 44 70 52 71 45 72 51 73 53 74 50 75 46 76 47 77
REMARK SMILES IDX 48 78 49 79 75 80 76 81 84 82 77 83 83 84 85 85 82 86 78 87
REMARK SMILES IDX 79 88 80 89 81 90 60 91 61 92 69 93 62 94 68 95 70 96 67 97
REMARK SMILES IDX 63 98 64 99 65 100 66 101
REMARK H PARENT 26 6 17 16 31 35 90 54 58 65
REMARK Flexibility Score: inf
ROOT
ATOM      1  C   UNL A   1      36.418  23.294  24.238  1.00  0.00     0.023 C 
ENDROOT
BRANCH   1   2
ATOM      2  C   UNL A   1      34.919  23.291  24.499  1.00  0.00     0.116 C 
BRANCH   2   3
ATOM      3  N   UNL A   1      34.453  22.767  25.753  1.00  0.00    -0.352 N 
ATOM      4  C   UNL A   1      34.087  21.471  26.064  1.00  0.00     0.253 C 
ATOM      5  O   UNL A   1      33.924  21.202  27.257  1.00  0.00    -0.269 OA
ATOM      6  H   UNL A   1      34.384  23.418  26.488  1.00  0.00     0.163 HD
BRANCH   4   7
ATOM      7  C   UNL A   1      33.685  20.445  25.040  1.00  0.00     0.063 A 
ATOM      8  C   UNL A   1      32.540  20.383  24.213  1.00  0.00     0.054 A 
ATOM      9  C   UNL A   1      32.283  19.184  23.509  1.00  0.00     0.027 A 
ATOM     10  C   UNL A   1      33.185  18.116  23.514  1.00  0.00     0.002 A 
ATOM     11  C   UNL A   1      34.594  19.356  25.006  1.00  0.00     0.016 A 
ATOM     12  C   UNL A   1      34.357  18.213  24.243  1.00  0.00     0.001 A 
BRANCH   8  13
ATOM     13  N   UNL A   1      31.587  21.408  23.967  1.00  0.00    -0.324 N 
ATOM     14  O   UNL A   1      32.683  22.527  22.281  1.00  0.00    -0.273 OA
ATOM     15  C   UNL A   1      31.743  22.447  23.065  1.00  0.00     0.244 C 
ATOM     16  H   UNL A   1      30.747  21.376  24.479  1.00  0.00     0.170 HD
BRANCH  15  17
ATOM     17  C   UNL A   1      30.793  23.640  23.286  1.00  0.00     0.227 C 
BRANCH  17  18
ATOM     18  N   UNL A   1      31.239  24.644  24.233  1.00  0.00    -0.283 N 
ATOM     19  C   UNL A   1      31.739  25.803  23.695  1.00  0.00     0.266 C 
ATOM     20  C   UNL A   1      31.349  24.511  25.601  1.00  0.00     0.148 C 
ATOM     21  O   UNL A   1      31.923  26.019  22.505  1.00  0.00    -0.268 OA
ATOM     22  C   UNL A   1      31.988  26.773  24.787  1.00  0.00     0.081 C 
ATOM     23  S   UNL A   1      32.223  25.908  26.257  1.00  0.00    -0.054 SA
ATOM     24  S   UNL A   1      30.671  23.332  26.567  1.00  0.00    -0.052 S 
ATOM     25  C   UNL A   1      31.654  28.071  24.725  1.00  0.00     0.040 C 
BRANCH  25  26
ATOM     26  C   UNL A   1      30.800  28.492  23.665  1.00  0.00     0.028 A 
ATOM     27  C   UNL A   1      31.138  29.349  22.628  1.00  0.00     0.020 A 
ATOM     28  S   UNL A   1      29.152  28.046  23.585  1.00  0.00    -0.144 S 
ATOM     29  C   UNL A   1      30.014  29.745  21.855  1.00  0.00     0.012 A 
ATOM     30  C   UNL A   1      28.862  29.125  22.284  1.00  0.00     0.065 A 
ENDBRANCH  25  26
ENDBRANCH  17  18
ENDBRANCH  15  17
ENDBRANCH   8  13
ENDBRANCH   4   7
ENDBRANCH   2   3
ENDBRANCH   1   2
BRANCH   1  31
ATOM     31  C   UNL A   1      37.124  21.933  24.218  1.00  0.00     0.023 C 
BRANCH  31  32
ATOM     32  C   UNL A   1      37.626  21.339  25.537  1.00  0.00     0.116 C 
BRANCH  32  33
ATOM     33  N   UNL A   1      38.854  20.557  25.460  1.00  0.00    -0.352 N 
ATOM     34  C   UNL A   1      40.010  20.735  26.200  1.00  0.00     0.251 C 
ATOM     35  H   UNL A   1      38.862  19.819  24.808  1.00  0.00     0.163 HD
ATOM     36  O   UNL A   1      40.881  19.874  26.220  1.00  0.00    -0.269 OA
BRANCH  34  37
ATOM     37  C   UNL A   1      40.208  22.029  26.885  1.00  0.00     0.039 A 
ATOM     38  C   UNL A   1      41.077  22.061  27.979  1.00  0.00     0.014 A 
ATOM     39  C   UNL A   1      39.698  23.209  26.342  1.00  0.00     0.014 A 
ATOM     40  C   UNL A   1      41.547  23.288  28.448  1.00  0.00     0.010 A 
ATOM     41  C   UNL A   1      40.213  24.429  26.776  1.00  0.00     0.010 A 
ATOM     42  C   UNL A   1      41.177  24.476  27.800  1.00  0.00    -0.014 A 
BRANCH  42  43
ATOM     43  C   UNL A   1      41.815  25.778  28.131  1.00  0.00     0.031 A 
ATOM     44  C   UNL A   1      41.012  26.842  28.821  1.00  0.00     0.074 A 
ATOM     45  C   UNL A   1      43.077  26.035  27.727  1.00  0.00     0.049 A 
ATOM     46  N   UNL A   1      41.293  28.104  29.009  1.00  0.00    -0.248 NA
ATOM     47  C   UNL A   1      39.701  26.428  29.343  1.00  0.00     0.031 C 
ATOM     48  C   UNL A   1      43.961  25.083  27.049  1.00  0.00     0.029 A 
ATOM     49  N   UNL A   1      43.831  27.181  27.807  1.00  0.00    -0.354 N 
ATOM     50  C   UNL A   1      40.189  28.643  29.658  1.00  0.00     0.074 A 
ATOM     51  C   UNL A   1      39.216  27.578  29.786  1.00  0.00     0.031 C 
ATOM     52  C   UNL A   1      45.135  25.682  26.782  1.00  0.00     0.029 A 
ATOM     53  C   UNL A   1      45.070  27.074  27.212  1.00  0.00     0.049 A 
ATOM     54  H   UNL A   1      43.516  28.003  28.247  1.00  0.00     0.167 HD
ATOM     55  C   UNL A   1      40.010  29.906  30.118  1.00  0.00     0.034 A 
ATOM     56  C   UNL A   1      46.030  28.001  27.012  1.00  0.00     0.034 A 
ATOM     57  C   UNL A   1      40.989  30.955  29.983  1.00  0.00     0.049 A 
ATOM     58  C   UNL A   1      45.786  29.414  27.489  1.00  0.00     0.074 A 
ATOM     59  C   UNL A   1      40.905  32.277  30.389  1.00  0.00     0.029 A 
ATOM     60  N   UNL A   1      42.241  30.799  29.402  1.00  0.00    -0.354 N 
ATOM     61  N   UNL A   1      44.728  29.913  28.085  1.00  0.00    -0.248 NA
ATOM     62  C   UNL A   1      46.866  30.389  27.273  1.00  0.00     0.031 C 
ATOM     63  C   UNL A   1      42.088  32.926  30.020  1.00  0.00     0.029 A 
ATOM     64  C   UNL A   1      42.936  31.997  29.441  1.00  0.00     0.049 A 
ATOM     65  H   UNL A   1      42.585  29.959  29.020  1.00  0.00     0.167 HD
ATOM     66  C   UNL A   1      45.038  31.242  28.358  1.00  0.00     0.074 A 
ATOM     67  C   UNL A   1      46.377  31.470  27.863  1.00  0.00     0.031 C 
ATOM     68  C   UNL A   1      44.284  32.191  28.969  1.00  0.00     0.034 A 
BRANCH  55  69
ATOM     69  C   UNL A   1      38.694  30.213  30.786  1.00  0.00     0.023 A 
ATOM     70  C   UNL A   1      37.669  30.886  30.100  1.00  0.00     0.031 A 
ATOM     71  C   UNL A   1      38.473  29.868  32.130  1.00  0.00     0.131 A 
ATOM     72  C   UNL A   1      36.502  31.261  30.779  1.00  0.00     0.055 A 
ATOM     73  C   UNL A   1      37.274  30.172  32.779  1.00  0.00     0.041 A 
ATOM     74  F   UNL A   1      39.424  29.242  32.842  1.00  0.00    -0.206 F 
ATOM     75  C   UNL A   1      36.285  30.887  32.107  1.00  0.00     0.022 A 
BRANCH  72  76
ATOM     76  S   UNL A   1      35.328  32.360  29.940  1.00  0.00     0.124 S 
ATOM     77  O   UNL A   1      34.850  31.504  28.856  1.00  0.00    -0.237 OA
ATOM     78  O   UNL A   1      34.363  32.657  30.991  1.00  0.00    -0.237 OA
ATOM     79  O   UNL A   1      36.157  33.487  29.515  1.00  0.00    -0.744 OA
ENDBRANCH  72  76
ENDBRANCH  55  69
BRANCH  56  80
ATOM     80  C   UNL A   1      47.301  27.657  26.306  1.00  0.00     0.023 A 
ATOM     81  C   UNL A   1      47.449  27.902  24.930  1.00  0.00     0.031 A 
ATOM     82  C   UNL A   1      48.352  27.003  26.971  1.00  0.00     0.131 A 
ATOM     83  C   UNL A   1      48.587  27.437  24.252  1.00  0.00     0.055 A 
ATOM     84  C   UNL A   1      49.510  26.596  26.304  1.00  0.00     0.041 A 
ATOM     85  F   UNL A   1      48.269  26.744  28.286  1.00  0.00    -0.206 F 
ATOM     86  C   UNL A   1      49.623  26.795  24.931  1.00  0.00     0.022 A 
BRANCH  83  87
ATOM     87  S   UNL A   1      48.633  27.572  22.444  1.00  0.00     0.124 S 
ATOM     88  O   UNL A   1      48.651  26.170  22.041  1.00  0.00    -0.237 OA
ATOM     89  O   UNL A   1      47.403  28.304  22.165  1.00  0.00    -0.237 OA
ATOM     90  O   UNL A   1      49.869  28.309  22.189  1.00  0.00    -0.744 OA
ENDBRANCH  83  87
ENDBRANCH  56  80
BRANCH  68  91
ATOM     91  C   UNL A   1      44.932  33.526  29.223  1.00  0.00     0.023 A 
ATOM     92  C   UNL A   1      44.822  34.595  28.317  1.00  0.00     0.031 A 
ATOM     93  C   UNL A   1      45.660  33.731  30.409  1.00  0.00     0.131 A 
ATOM     94  C   UNL A   1      45.464  35.811  28.594  1.00  0.00     0.055 A 
ATOM     95  C   UNL A   1      46.257  34.957  30.701  1.00  0.00     0.041 A 
ATOM     96  F   UNL A   1      45.793  32.742  31.307  1.00  0.00    -0.206 F 
ATOM     97  C   UNL A   1      46.167  36.003  29.787  1.00  0.00     0.022 A 
BRANCH  94  98
ATOM     98  S   UNL A   1      45.412  37.131  27.352  1.00  0.00     0.124 S 
ATOM     99  O   UNL A   1      46.315  36.618  26.326  1.00  0.00    -0.237 OA
ATOM    100  O   UNL A   1      43.998  37.168  26.993  1.00  0.00    -0.237 OA
ATOM    101  O   UNL A   1      45.897  38.304  28.076  1.00  0.00    -0.744 OA
ENDBRANCH  94  98
ENDBRANCH  68  91
ENDBRANCH  42  43
ENDBRANCH  34  37
ENDBRANCH  32  33
ENDBRANCH  31  32
ENDBRANCH   1  31
TORSDOF 18
ENDMDL
MODEL 3
REMARK VINA RESULT:     -12.2      5.549      9.383
REMARK SMILES O=C(CN1C(=O)/C(=C\c2cccs2)SC1=S)Nc1ccccc1C(=O)NCCCCNC(=O)c1ccc(-c2c3nc(c(-c4cc(S(=O)(=O)[O-])ccc4F)c4ccc([nH]4)c(-c4cc(S(=O)(=O)[O-])ccc4F)c4nc(c(-c5cc(S(=O)(=O)[O-])ccc5F)c5ccc2[nH]5)C=C4)C=C3)cc1
REMARK SMILES IDX 28 1 27 2 26 3 24 4 25 5 23 7 18 8 19 9 20 10 22 11 21 12
REMARK SMILES IDX 17 13 1 14 2 15 3 17 4 18 5 19 15 20 6 21 7 22 14 23 16 24
REMARK SMILES IDX 8 25 9 26 10 27 13 28 11 29 12 30 29 31 30 32 31 33 32 34
REMARK SMILES IDX 33 36 34 37 35 38 96 39 36 40 95 41 37 42 38 43 39 44 89 45
REMARK SMILES IDX 40 46 94 47 88 48 90 49 41 50 93 51 87 52 86 53 42 55 74 56
REMARK SMILES IDX 54 57 73 58 55 59 58 60 72 61 91 62 56 63 57 64 71 66 92 67
REMARK SMILES IDX 59 68 43 69 44 70 52 71 45 72 51 73 53 74 50 75 46 76 47 77
REMARK SMILES IDX 48 78 49 79 75 80 76 81 84 82 77 83 83 84 85 85 82 86 78 87
REMARK SMILES IDX 79 88 80 89 81 90 60 91 61 92 69 93 62 94 68 95 70 96 67 97
REMARK SMILES IDX 63 98 64 99 65 100 66 101
REMARK H PARENT 26 6 17 16 31 35 90 54 58 65
REMARK Flexibility Score: inf
ROOT
ATOM      1  C   UNL A   1      31.995  30.045  27.056  1.00  0.00     0.023 C 
ENDROOT
BRANCH   1   2
ATOM      2  C   UNL A   1      31.836  28.728  26.312  1.00  0.00     0.116 C 
BRANCH   2   3
ATOM      3  N   UNL A   1      32.354  28.641  24.974  1.00  0.00    -0.352 N 
ATOM      4  C   UNL A   1      31.742  28.995  23.787  1.00  0.00     0.253 C 
ATOM      5  O   UNL A   1      32.451  29.038  22.777  1.00  0.00    -0.269 OA
ATOM      6  H   UNL A   1      33.267  28.280  24.894  1.00  0.00     0.163 HD
BRANCH   4   7
ATOM      7  C   UNL A   1      30.254  29.129  23.618  1.00  0.00     0.063 A 
ATOM      8  C   UNL A   1      29.293  28.175  23.214  1.00  0.00     0.054 A 
ATOM      9  C   UNL A   1      27.988  28.623  22.902  1.00  0.00     0.027 A 
ATOM     10  C   UNL A   1      27.597  29.951  23.099  1.00  0.00     0.002 A 
ATOM     11  C   UNL A   1      29.822  30.463  23.833  1.00  0.00     0.016 A 
ATOM     12  C   UNL A   1      28.509  30.868  23.592  1.00  0.00     0.001 A 
BRANCH   8  13
ATOM     13  N   UNL A   1      29.459  26.769  23.092  1.00  0.00    -0.324 N 
ATOM     14  O   UNL A   1      30.039  26.283  25.266  1.00  0.00    -0.273 OA
ATOM     15  C   UNL A   1      29.881  25.922  24.104  1.00  0.00     0.244 C 
ATOM     16  H   UNL A   1      29.259  26.364  22.218  1.00  0.00     0.170 HD
BRANCH  15  17
ATOM     17  C   UNL A   1      30.389  24.548  23.625  1.00  0.00     0.227 C 
BRANCH  17  18
ATOM     18  N   UNL A   1      31.828  24.367  23.624  1.00  0.00    -0.283 N 
ATOM     19  C   UNL A   1      32.339  23.587  24.631  1.00  0.00     0.266 C 
ATOM     20  C   UNL A   1      32.749  24.999  22.816  1.00  0.00     0.148 C 
ATOM     21  O   UNL A   1      31.705  23.119  25.566  1.00  0.00    -0.268 OA
ATOM     22  C   UNL A   1      33.784  23.370  24.386  1.00  0.00     0.081 C 
ATOM     23  S   UNL A   1      34.384  24.659  23.414  1.00  0.00    -0.054 SA
ATOM     24  S   UNL A   1      32.458  25.840  21.405  1.00  0.00    -0.052 S 
ATOM     25  C   UNL A   1      34.395  22.183  24.518  1.00  0.00     0.040 C 
BRANCH  25  26
ATOM     26  C   UNL A   1      33.580  21.024  24.663  1.00  0.00     0.028 A 
ATOM     27  C   UNL A   1      33.517  20.195  25.774  1.00  0.00     0.020 A 
ATOM     28  S   UNL A   1      32.602  20.429  23.393  1.00  0.00    -0.144 S 
ATOM     29  C   UNL A   1      32.777  19.007  25.531  1.00  0.00     0.012 A 
ATOM     30  C   UNL A   1      32.241  18.996  24.263  1.00  0.00     0.065 A 
ENDBRANCH  25  26
ENDBRANCH  17  18
ENDBRANCH  15  17
ENDBRANCH   8  13
ENDBRANCH   4   7
ENDBRANCH   2   3
ENDBRANCH   1   2
BRANCH   1  31
ATOM     31  C   UNL A   1      33.400  30.394  27.562  1.00  0.00     0.023 C 
BRANCH  31  32
ATOM     32  C   UNL A   1      33.938  31.810  27.338  1.00  0.00     0.116 C 
BRANCH  32  33
ATOM     33  N   UNL A   1      33.027  32.900  27.670  1.00  0.00    -0.352 N 
ATOM     34  C   UNL A   1      33.289  33.994  28.476  1.00  0.00     0.251 C 
ATOM     35  H   UNL A   1      32.127  32.852  27.276  1.00  0.00     0.163 HD
ATOM     36  O   UNL A   1      32.534  34.960  28.486  1.00  0.00    -0.269 OA
BRANCH  34  37
ATOM     37  C   UNL A   1      34.444  33.926  29.394  1.00  0.00     0.039 A 
ATOM     38  C   UNL A   1      34.282  33.229  30.595  1.00  0.00     0.014 A 
ATOM     39  C   UNL A   1      35.703  34.373  28.991  1.00  0.00     0.014 A 
ATOM     40  C   UNL A   1      35.407  32.859  31.332  1.00  0.00     0.010 A 
ATOM     41  C   UNL A   1      36.826  33.954  29.700  1.00  0.00     0.010 A 
ATOM     42  C   UNL A   1      36.691  33.153  30.849  1.00  0.00    -0.014 A 
BRANCH  42  43
ATOM     43  C   UNL A   1      37.913  32.597  31.490  1.00  0.00     0.031 A 
ATOM     44  C   UNL A   1      38.621  31.437  30.853  1.00  0.00     0.074 A 
ATOM     45  C   UNL A   1      38.323  33.070  32.686  1.00  0.00     0.049 A 
ATOM     46  N   UNL A   1      39.560  30.669  31.338  1.00  0.00    -0.248 NA
ATOM     47  C   UNL A   1      38.189  31.082  29.493  1.00  0.00     0.031 C 
ATOM     48  C   UNL A   1      37.719  34.194  33.407  1.00  0.00     0.029 A 
ATOM     49  N   UNL A   1      39.333  32.651  33.520  1.00  0.00    -0.354 N 
ATOM     50  C   UNL A   1      39.822  29.726  30.351  1.00  0.00     0.074 A 
ATOM     51  C   UNL A   1      38.907  29.995  29.261  1.00  0.00     0.031 C 
ATOM     52  C   UNL A   1      38.372  34.378  34.567  1.00  0.00     0.029 A 
ATOM     53  C   UNL A   1      39.401  33.352  34.705  1.00  0.00     0.049 A 
ATOM     54  H   UNL A   1      39.949  31.919  33.292  1.00  0.00     0.167 HD
ATOM     55  C   UNL A   1      40.751  28.739  30.350  1.00  0.00     0.034 A 
ATOM     56  C   UNL A   1      40.183  33.167  35.789  1.00  0.00     0.034 A 
ATOM     57  C   UNL A   1      41.654  28.485  31.444  1.00  0.00     0.049 A 
ATOM     58  C   UNL A   1      41.176  32.029  35.783  1.00  0.00     0.074 A 
ATOM     59  C   UNL A   1      42.618  27.497  31.561  1.00  0.00     0.029 A 
ATOM     60  N   UNL A   1      41.712  29.234  32.613  1.00  0.00    -0.354 N 
ATOM     61  N   UNL A   1      41.400  31.133  34.848  1.00  0.00    -0.248 NA
ATOM     62  C   UNL A   1      42.026  31.876  36.973  1.00  0.00     0.031 C 
ATOM     63  C   UNL A   1      43.230  27.627  32.813  1.00  0.00     0.029 A 
ATOM     64  C   UNL A   1      42.693  28.732  33.451  1.00  0.00     0.049 A 
ATOM     65  H   UNL A   1      41.140  30.010  32.814  1.00  0.00     0.167 HD
ATOM     66  C   UNL A   1      42.448  30.348  35.319  1.00  0.00     0.074 A 
ATOM     67  C   UNL A   1      42.812  30.870  36.618  1.00  0.00     0.031 C 
ATOM     68  C   UNL A   1      43.060  29.291  34.729  1.00  0.00     0.034 A 
BRANCH  55  69
ATOM     69  C   UNL A   1      40.808  27.853  29.132  1.00  0.00     0.023 A 
ATOM     70  C   UNL A   1      41.723  28.099  28.094  1.00  0.00     0.031 A 
ATOM     71  C   UNL A   1      39.918  26.775  28.985  1.00  0.00     0.131 A 
ATOM     72  C   UNL A   1      41.676  27.329  26.923  1.00  0.00     0.055 A 
ATOM     73  C   UNL A   1      39.931  25.961  27.851  1.00  0.00     0.041 A 
ATOM     74  F   UNL A   1      39.008  26.504  29.936  1.00  0.00    -0.206 F 
ATOM     75  C   UNL A   1      40.804  26.245  26.804  1.00  0.00     0.022 A 
BRANCH  72  76
ATOM     76  S   UNL A   1      42.681  27.850  25.507  1.00  0.00     0.124 S 
ATOM     77  O   UNL A   1      41.909  28.983  25.001  1.00  0.00    -0.237 OA
ATOM     78  O   UNL A   1      43.960  28.175  26.127  1.00  0.00    -0.237 OA
ATOM     79  O   UNL A   1      42.689  26.672  24.641  1.00  0.00    -0.744 OA
ENDBRANCH  72  76
ENDBRANCH  55  69
BRANCH  56  80
ATOM     80  C   UNL A   1      40.058  34.047  36.990  1.00  0.00     0.023 A 
ATOM     81  C   UNL A   1      39.441  33.580  38.162  1.00  0.00     0.031 A 
ATOM     82  C   UNL A   1      40.476  35.389  36.959  1.00  0.00     0.131 A 
ATOM     83  C   UNL A   1      39.196  34.463  39.227  1.00  0.00     0.055 A 
ATOM     84  C   UNL A   1      40.285  36.248  38.045  1.00  0.00     0.041 A 
ATOM     85  F   UNL A   1      41.074  35.891  35.867  1.00  0.00    -0.206 F 
ATOM     86  C   UNL A   1      39.624  35.790  39.181  1.00  0.00     0.022 A 
BRANCH  83  87
ATOM     87  S   UNL A   1      38.196  33.879  40.624  1.00  0.00     0.124 S 
ATOM     88  O   UNL A   1      37.845  35.133  41.281  1.00  0.00    -0.237 OA
ATOM     89  O   UNL A   1      37.109  33.183  39.946  1.00  0.00    -0.237 OA
ATOM     90  O   UNL A   1      39.118  33.023  41.367  1.00  0.00    -0.744 OA
ENDBRANCH  83  87
ENDBRANCH  56  80
BRANCH  68  91
ATOM     91  C   UNL A   1      44.248  28.698  35.439  1.00  0.00     0.023 A 
ATOM     92  C   UNL A   1      44.114  27.690  36.408  1.00  0.00     0.031 A 
ATOM     93  C   UNL A   1      45.543  29.148  35.122  1.00  0.00     0.131 A 
ATOM     94  C   UNL A   1      45.254  27.188  37.054  1.00  0.00     0.055 A 
ATOM     95  C   UNL A   1      46.676  28.614  35.733  1.00  0.00     0.041 A 
ATOM     96  F   UNL A   1      45.724  30.109  34.202  1.00  0.00    -0.206 F 
ATOM     97  C   UNL A   1      46.534  27.633  36.712  1.00  0.00     0.022 A 
BRANCH  94  98
ATOM     98  S   UNL A   1      45.043  25.979  38.388  1.00  0.00     0.124 S 
ATOM     99  O   UNL A   1      44.676  24.773  37.650  1.00  0.00    -0.237 OA
ATOM    100  O   UNL A   1      46.362  25.965  39.011  1.00  0.00    -0.237 OA
ATOM    101  O   UNL A   1      43.978  26.552  39.208  1.00  0.00    -0.744 OA
ENDBRANCH  94  98
ENDBRANCH  68  91
ENDBRANCH  42  43
ENDBRANCH  34  37
ENDBRANCH  32  33
ENDBRANCH  31  32
ENDBRANCH   1  31
TORSDOF 18
ENDMDL
