MODEL 1
REMARK VINA RESULT:     -12.6      0.000      0.000
REMARK SMILES O=C(NCCCCNC(=O)c1ccc([S@@](=O)[C@H]2CCOC3(CCCC3)C2)cc1)c1ccc(-c2c3nc(c(-c4cc(S(=O)(=O)[O-])ccc4F)c4ccc([nH]4)c(-c4cc(S(=O)(=O)[O-])ccc4F)c4nc(c(-c5cc(S(=O)(=O)[O-])ccc5F)c5ccc2[nH]5)C=C4)C=C3)cc1
REMARK SMILES IDX 5 1 4 2 3 3 1 4 2 5 29 7 30 8 91 9 31 10 90 11 32 12 33 13
REMARK SMILES IDX 34 14 84 15 35 16 89 17 83 18 85 19 36 20 88 21 82 22 81 23
REMARK SMILES IDX 37 25 69 26 49 27 68 28 50 29 53 30 67 31 86 32 51 33 52 34
REMARK SMILES IDX 66 36 87 37 54 38 38 39 39 40 47 41 40 42 46 43 48 44 45 45
REMARK SMILES IDX 41 46 42 47 43 48 44 49 70 50 71 51 79 52 72 53 78 54 80 55
REMARK SMILES IDX 77 56 73 57 74 58 75 59 76 60 55 61 56 62 64 63 57 64 63 65
REMARK SMILES IDX 65 66 62 67 58 68 59 69 60 70 61 71 6 72 7 73 8 74 9 75
REMARK SMILES IDX 10 77 11 78 12 79 28 80 13 81 27 82 14 83 15 84 16 85 17 86
REMARK SMILES IDX 18 87 26 88 19 89 21 90 20 91 22 92 25 93 23 94 24 95
REMARK H PARENT 3 6 85 24 53 35 8 76
REMARK Flexibility Score: inf
ROOT
ATOM      1  C   UNL A   1      31.575  31.714  26.806  1.00  0.00     0.023 C 
ENDROOT
BRANCH   1   2
ATOM      2  C   UNL A   1      32.842  32.508  27.091  1.00  0.00     0.116 C 
BRANCH   2   3
ATOM      3  N   UNL A   1      32.565  33.856  27.560  1.00  0.00    -0.352 N 
ATOM      4  O   UNL A   1      32.687  35.628  28.946  1.00  0.00    -0.269 OA
ATOM      5  C   UNL A   1      33.156  34.549  28.590  1.00  0.00     0.251 C 
ATOM      6  H   UNL A   1      31.860  34.339  27.073  1.00  0.00     0.163 HD
BRANCH   5   7
ATOM      7  C   UNL A   1      34.341  33.987  29.275  1.00  0.00     0.039 A 
ATOM      8  C   UNL A   1      34.191  33.046  30.299  1.00  0.00     0.014 A 
ATOM      9  C   UNL A   1      35.618  34.389  28.872  1.00  0.00     0.014 A 
ATOM     10  C   UNL A   1      35.309  32.590  30.989  1.00  0.00     0.010 A 
ATOM     11  C   UNL A   1      36.744  33.872  29.518  1.00  0.00     0.010 A 
ATOM     12  C   UNL A   1      36.598  32.975  30.588  1.00  0.00    -0.014 A 
BRANCH  12  13
ATOM     13  C   UNL A   1      37.781  32.336  31.219  1.00  0.00     0.031 A 
ATOM     14  C   UNL A   1      38.507  31.203  30.551  1.00  0.00     0.074 A 
ATOM     15  C   UNL A   1      38.180  32.791  32.424  1.00  0.00     0.049 A 
ATOM     16  N   UNL A   1      39.530  30.514  30.987  1.00  0.00    -0.248 NA
ATOM     17  C   UNL A   1      38.023  30.785  29.226  1.00  0.00     0.031 C 
ATOM     18  C   UNL A   1      37.535  33.881  33.164  1.00  0.00     0.029 A 
ATOM     19  N   UNL A   1      39.210  32.403  33.242  1.00  0.00    -0.354 N 
ATOM     20  C   UNL A   1      39.801  29.567  30.006  1.00  0.00     0.074 A 
ATOM     21  C   UNL A   1      38.826  29.763  28.954  1.00  0.00     0.031 C 
ATOM     22  C   UNL A   1      38.192  34.082  34.315  1.00  0.00     0.029 A 
ATOM     23  C   UNL A   1      39.256  33.094  34.431  1.00  0.00     0.049 A 
ATOM     24  H   UNL A   1      39.854  31.699  33.001  1.00  0.00     0.167 HD
ATOM     25  C   UNL A   1      40.776  28.625  29.994  1.00  0.00     0.034 A 
ATOM     26  C   UNL A   1      40.035  32.922  35.517  1.00  0.00     0.034 A 
ATOM     27  C   UNL A   1      41.748  28.460  31.049  1.00  0.00     0.049 A 
ATOM     28  C   UNL A   1      41.072  31.832  35.491  1.00  0.00     0.074 A 
ATOM     29  C   UNL A   1      42.835  27.604  31.091  1.00  0.00     0.029 A 
ATOM     30  N   UNL A   1      41.736  29.145  32.257  1.00  0.00    -0.354 N 
ATOM     31  N   UNL A   1      41.359  30.992  34.523  1.00  0.00    -0.248 NA
ATOM     32  C   UNL A   1      41.887  31.663  36.700  1.00  0.00     0.031 C 
ATOM     33  C   UNL A   1      43.433  27.714  32.352  1.00  0.00     0.029 A 
ATOM     34  C   UNL A   1      42.762  28.689  33.072  1.00  0.00     0.049 A 
ATOM     35  H   UNL A   1      41.095  29.850  32.500  1.00  0.00     0.167 HD
ATOM     36  C   UNL A   1      42.393  30.199  35.007  1.00  0.00     0.074 A 
ATOM     37  C   UNL A   1      42.700  30.682  36.339  1.00  0.00     0.031 C 
ATOM     38  C   UNL A   1      43.033  29.163  34.408  1.00  0.00     0.034 A 
BRANCH  25  39
ATOM     39  C   UNL A   1      40.823  27.661  28.835  1.00  0.00     0.023 A 
ATOM     40  C   UNL A   1      41.773  27.772  27.806  1.00  0.00     0.031 A 
ATOM     41  C   UNL A   1      39.921  26.582  28.788  1.00  0.00     0.131 A 
ATOM     42  C   UNL A   1      41.778  26.839  26.757  1.00  0.00     0.055 A 
ATOM     43  C   UNL A   1      39.968  25.625  27.773  1.00  0.00     0.041 A 
ATOM     44  F   UNL A   1      38.981  26.438  29.736  1.00  0.00    -0.206 F 
ATOM     45  C   UNL A   1      40.898  25.754  26.746  1.00  0.00     0.022 A 
BRANCH  42  46
ATOM     46  S   UNL A   1      42.905  27.103  25.359  1.00  0.00     0.124 S 
ATOM     47  O   UNL A   1      42.828  25.818  24.670  1.00  0.00    -0.237 OA
ATOM     48  O   UNL A   1      42.294  28.235  24.671  1.00  0.00    -0.237 OA
ATOM     49  O   UNL A   1      44.188  27.384  26.000  1.00  0.00    -0.744 OA
ENDBRANCH  42  46
ENDBRANCH  25  39
BRANCH  26  50
ATOM     50  C   UNL A   1      39.817  33.746  36.740  1.00  0.00     0.023 A 
ATOM     51  C   UNL A   1      40.640  34.843  37.034  1.00  0.00     0.031 A 
ATOM     52  C   UNL A   1      38.808  33.413  37.661  1.00  0.00     0.131 A 
ATOM     53  C   UNL A   1      40.471  35.538  38.241  1.00  0.00     0.055 A 
ATOM     54  C   UNL A   1      38.604  34.145  38.831  1.00  0.00     0.041 A 
ATOM     55  F   UNL A   1      37.992  32.371  37.430  1.00  0.00    -0.206 F 
ATOM     56  C   UNL A   1      39.450  35.206  39.134  1.00  0.00     0.022 A 
BRANCH  53  57
ATOM     57  S   UNL A   1      41.679  36.818  38.681  1.00  0.00     0.124 S 
ATOM     58  O   UNL A   1      42.283  37.114  37.387  1.00  0.00    -0.237 OA
ATOM     59  O   UNL A   1      40.825  37.858  39.244  1.00  0.00    -0.237 OA
ATOM     60  O   UNL A   1      42.553  36.143  39.638  1.00  0.00    -0.744 OA
ENDBRANCH  53  57
ENDBRANCH  26  50
BRANCH  38  61
ATOM     61  C   UNL A   1      44.130  28.499  35.198  1.00  0.00     0.023 A 
ATOM     62  C   UNL A   1      43.852  27.458  36.101  1.00  0.00     0.031 A 
ATOM     63  C   UNL A   1      45.463  28.923  35.062  1.00  0.00     0.131 A 
ATOM     64  C   UNL A   1      44.886  26.908  36.871  1.00  0.00     0.055 A 
ATOM     65  C   UNL A   1      46.497  28.334  35.791  1.00  0.00     0.041 A 
ATOM     66  F   UNL A   1      45.780  29.917  34.217  1.00  0.00    -0.206 F 
ATOM     67  C   UNL A   1      46.209  27.329  36.710  1.00  0.00     0.022 A 
BRANCH  64  68
ATOM     68  S   UNL A   1      44.468  25.686  38.143  1.00  0.00     0.124 S 
ATOM     69  O   UNL A   1      43.539  24.814  37.432  1.00  0.00    -0.237 OA
ATOM     70  O   UNL A   1      45.769  25.106  38.461  1.00  0.00    -0.237 OA
ATOM     71  O   UNL A   1      43.872  26.490  39.209  1.00  0.00    -0.744 OA
ENDBRANCH  64  68
ENDBRANCH  38  61
ENDBRANCH  12  13
ENDBRANCH   5   7
ENDBRANCH   2   3
ENDBRANCH   1   2
BRANCH   1  72
ATOM     72  C   UNL A   1      31.759  30.202  26.693  1.00  0.00     0.023 C 
BRANCH  72  73
ATOM     73  C   UNL A   1      32.067  29.676  25.292  1.00  0.00     0.116 C 
BRANCH  73  74
ATOM     74  N   UNL A   1      30.964  29.854  24.366  1.00  0.00    -0.352 N 
ATOM     75  C   UNL A   1      30.332  28.954  23.546  1.00  0.00     0.251 C 
ATOM     76  H   UNL A   1      30.610  30.772  24.318  1.00  0.00     0.163 HD
ATOM     77  O   UNL A   1      29.500  29.353  22.736  1.00  0.00    -0.269 OA
BRANCH  75  78
ATOM     78  C   UNL A   1      30.652  27.511  23.601  1.00  0.00     0.039 A 
ATOM     79  C   UNL A   1      31.495  26.986  22.616  1.00  0.00     0.015 A 
ATOM     80  C   UNL A   1      30.076  26.654  24.545  1.00  0.00     0.015 A 
ATOM     81  C   UNL A   1      31.809  25.626  22.615  1.00  0.00     0.018 A 
ATOM     82  C   UNL A   1      30.432  25.303  24.570  1.00  0.00     0.018 A 
ATOM     83  C   UNL A   1      31.321  24.787  23.621  1.00  0.00     0.039 A 
BRANCH  83  84
ATOM     84  S   UNL A   1      31.718  23.032  23.666  1.00  0.00     0.056 S 
ATOM     85  O   UNL A   1      32.358  22.724  22.344  1.00  0.00    -0.254 OA
BRANCH  84  86
ATOM     86  C   UNL A   1      33.031  22.956  24.934  1.00  0.00     0.089 C 
ATOM     87  C   UNL A   1      32.549  22.497  26.304  1.00  0.00     0.046 C 
ATOM     88  C   UNL A   1      34.248  22.142  24.508  1.00  0.00     0.053 C 
ATOM     89  C   UNL A   1      33.688  22.597  27.305  1.00  0.00     0.162 C 
ATOM     90  C   UNL A   1      35.355  22.229  25.576  1.00  0.00     0.069 C 
ATOM     91  O   UNL A   1      34.833  21.870  26.864  1.00  0.00    -0.375 OA
ATOM     92  C   UNL A   1      36.501  21.229  25.276  1.00  0.00     0.035 C 
ATOM     93  C   UNL A   1      36.045  23.610  25.622  1.00  0.00     0.035 C 
ATOM     94  C   UNL A   1      37.769  22.062  25.125  1.00  0.00     0.003 C 
ATOM     95  C   UNL A   1      37.498  23.300  25.957  1.00  0.00     0.003 C 
ENDBRANCH  84  86
ENDBRANCH  83  84
ENDBRANCH  75  78
ENDBRANCH  73  74
ENDBRANCH  72  73
ENDBRANCH   1  72
TORSDOF 16
ENDMDL
MODEL 2
REMARK VINA RESULT:     -12.6      5.714     11.498
REMARK SMILES O=C(NCCCCNC(=O)c1ccc([S@@](=O)[C@H]2CCOC3(CCCC3)C2)cc1)c1ccc(-c2c3nc(c(-c4cc(S(=O)(=O)[O-])ccc4F)c4ccc([nH]4)c(-c4cc(S(=O)(=O)[O-])ccc4F)c4nc(c(-c5cc(S(=O)(=O)[O-])ccc5F)c5ccc2[nH]5)C=C4)C=C3)cc1
REMARK SMILES IDX 5 1 4 2 3 3 1 4 2 5 29 7 30 8 91 9 31 10 90 11 32 12 33 13
REMARK SMILES IDX 34 14 84 15 35 16 89 17 83 18 85 19 36 20 88 21 82 22 81 23
REMARK SMILES IDX 37 25 69 26 49 27 68 28 50 29 53 30 67 31 86 32 51 33 52 34
REMARK SMILES IDX 66 36 87 37 54 38 38 39 39 40 47 41 40 42 46 43 48 44 45 45
REMARK SMILES IDX 41 46 42 47 43 48 44 49 70 50 71 51 79 52 72 53 78 54 80 55
REMARK SMILES IDX 77 56 73 57 74 58 75 59 76 60 55 61 56 62 64 63 57 64 63 65
REMARK SMILES IDX 65 66 62 67 58 68 59 69 60 70 61 71 6 72 7 73 8 74 9 75
REMARK SMILES IDX 10 77 11 78 12 79 28 80 13 81 27 82 14 83 15 84 16 85 17 86
REMARK SMILES IDX 18 87 26 88 19 89 21 90 20 91 22 92 25 93 23 94 24 95
REMARK H PARENT 3 6 85 24 53 35 8 76
REMARK Flexibility Score: inf
ROOT
ATOM      1  C   UNL A   1      38.159  19.941  24.964  1.00  0.00     0.023 C 
ENDROOT
BRANCH   1   2
ATOM      2  C   UNL A   1      39.253  20.243  25.980  1.00  0.00     0.116 C 
BRANCH   2   3
ATOM      3  N   UNL A   1      40.325  19.261  25.958  1.00  0.00    -0.352 N 
ATOM      4  O   UNL A   1      42.451  18.523  25.862  1.00  0.00    -0.269 OA
ATOM      5  C   UNL A   1      41.681  19.462  26.055  1.00  0.00     0.251 C 
ATOM      6  H   UNL A   1      40.039  18.324  25.863  1.00  0.00     0.163 HD
BRANCH   5   7
ATOM      7  C   UNL A   1      42.208  20.807  26.374  1.00  0.00     0.039 A 
ATOM      8  C   UNL A   1      42.420  21.747  25.360  1.00  0.00     0.014 A 
ATOM      9  C   UNL A   1      42.470  21.141  27.705  1.00  0.00     0.014 A 
ATOM     10  C   UNL A   1      42.993  22.977  25.664  1.00  0.00     0.010 A 
ATOM     11  C   UNL A   1      42.977  22.406  28.018  1.00  0.00     0.010 A 
ATOM     12  C   UNL A   1      43.251  23.331  26.998  1.00  0.00    -0.014 A 
BRANCH  12  13
ATOM     13  C   UNL A   1      43.691  24.713  27.315  1.00  0.00     0.031 A 
ATOM     14  C   UNL A   1      42.729  25.736  27.851  1.00  0.00     0.074 A 
ATOM     15  C   UNL A   1      44.982  25.034  27.094  1.00  0.00     0.049 A 
ATOM     16  N   UNL A   1      42.947  26.993  28.140  1.00  0.00    -0.248 NA
ATOM     17  C   UNL A   1      41.346  25.297  28.087  1.00  0.00     0.031 C 
ATOM     18  C   UNL A   1      45.995  24.115  26.565  1.00  0.00     0.029 A 
ATOM     19  N   UNL A   1      45.666  26.207  27.277  1.00  0.00    -0.354 N 
ATOM     20  C   UNL A   1      41.728  27.504  28.571  1.00  0.00     0.074 A 
ATOM     21  C   UNL A   1      40.770  26.421  28.496  1.00  0.00     0.031 C 
ATOM     22  C   UNL A   1      47.170  24.755  26.481  1.00  0.00     0.029 A 
ATOM     23  C   UNL A   1      46.982  26.143  26.879  1.00  0.00     0.049 A 
ATOM     24  H   UNL A   1      45.256  27.018  27.656  1.00  0.00     0.167 HD
ATOM     25  C   UNL A   1      41.446  28.762  28.991  1.00  0.00     0.034 A 
ATOM     26  C   UNL A   1      47.923  27.104  26.797  1.00  0.00     0.034 A 
ATOM     27  C   UNL A   1      42.424  29.821  29.073  1.00  0.00     0.049 A 
ATOM     28  C   UNL A   1      47.560  28.502  27.220  1.00  0.00     0.074 A 
ATOM     29  C   UNL A   1      42.265  31.101  29.576  1.00  0.00     0.029 A 
ATOM     30  N   UNL A   1      43.733  29.733  28.619  1.00  0.00    -0.354 N 
ATOM     31  N   UNL A   1      46.419  28.949  27.693  1.00  0.00    -0.248 NA
ATOM     32  C   UNL A   1      48.605  29.525  27.096  1.00  0.00     0.031 C 
ATOM     33  C   UNL A   1      43.451  31.810  29.354  1.00  0.00     0.029 A 
ATOM     34  C   UNL A   1      44.374  30.953  28.778  1.00  0.00     0.049 A 
ATOM     35  H   UNL A   1      44.146  28.925  28.240  1.00  0.00     0.167 HD
ATOM     36  C   UNL A   1      46.614  30.305  27.928  1.00  0.00     0.074 A 
ATOM     37  C   UNL A   1      47.989  30.595  27.576  1.00  0.00     0.031 C 
ATOM     38  C   UNL A   1      45.737  31.230  28.392  1.00  0.00     0.034 A 
BRANCH  25  39
ATOM     39  C   UNL A   1      40.018  29.091  29.348  1.00  0.00     0.023 A 
ATOM     40  C   UNL A   1      39.578  29.170  30.680  1.00  0.00     0.031 A 
ATOM     41  C   UNL A   1      39.091  29.376  28.328  1.00  0.00     0.131 A 
ATOM     42  C   UNL A   1      38.239  29.492  30.955  1.00  0.00     0.055 A 
ATOM     43  C   UNL A   1      37.777  29.751  28.610  1.00  0.00     0.041 A 
ATOM     44  F   UNL A   1      39.453  29.299  27.037  1.00  0.00    -0.206 F 
ATOM     45  C   UNL A   1      37.342  29.806  29.930  1.00  0.00     0.022 A 
BRANCH  42  46
ATOM     46  S   UNL A   1      37.659  29.422  32.673  1.00  0.00     0.124 S 
ATOM     47  O   UNL A   1      38.732  30.119  33.377  1.00  0.00    -0.237 OA
ATOM     48  O   UNL A   1      36.380  30.120  32.603  1.00  0.00    -0.237 OA
ATOM     49  O   UNL A   1      37.571  27.989  32.948  1.00  0.00    -0.744 OA
ENDBRANCH  42  46
ENDBRANCH  25  39
BRANCH  26  50
ATOM     50  C   UNL A   1      49.266  26.798  26.227  1.00  0.00     0.023 A 
ATOM     51  C   UNL A   1      49.634  27.246  24.951  1.00  0.00     0.031 A 
ATOM     52  C   UNL A   1      50.184  26.004  26.938  1.00  0.00     0.131 A 
ATOM     53  C   UNL A   1      50.868  26.859  24.405  1.00  0.00     0.055 A 
ATOM     54  C   UNL A   1      51.434  25.672  26.416  1.00  0.00     0.041 A 
ATOM     55  F   UNL A   1      49.882  25.546  28.164  1.00  0.00    -0.206 F 
ATOM     56  C   UNL A   1      51.776  26.087  25.134  1.00  0.00     0.022 A 
BRANCH  53  57
ATOM     57  S   UNL A   1      51.223  27.287  22.678  1.00  0.00     0.124 S 
ATOM     58  O   UNL A   1      50.047  26.765  21.993  1.00  0.00    -0.237 OA
ATOM     59  O   UNL A   1      51.335  28.740  22.745  1.00  0.00    -0.237 OA
ATOM     60  O   UNL A   1      52.471  26.579  22.404  1.00  0.00    -0.744 OA
ENDBRANCH  53  57
ENDBRANCH  26  50
BRANCH  38  61
ATOM     61  C   UNL A   1      46.257  32.635  28.548  1.00  0.00     0.023 A 
ATOM     62  C   UNL A   1      46.404  33.485  27.438  1.00  0.00     0.031 A 
ATOM     63  C   UNL A   1      46.627  33.123  29.813  1.00  0.00     0.131 A 
ATOM     64  C   UNL A   1      46.955  34.763  27.606  1.00  0.00     0.055 A 
ATOM     65  C   UNL A   1      47.122  34.416  29.983  1.00  0.00     0.041 A 
ATOM     66  F   UNL A   1      46.510  32.349  30.903  1.00  0.00    -0.206 F 
ATOM     67  C   UNL A   1      47.300  35.239  28.874  1.00  0.00     0.022 A 
BRANCH  64  68
ATOM     68  S   UNL A   1      47.285  35.770  26.136  1.00  0.00     0.124 S 
ATOM     69  O   UNL A   1      47.138  34.794  25.061  1.00  0.00    -0.237 OA
ATOM     70  O   UNL A   1      46.248  36.793  26.215  1.00  0.00    -0.237 OA
ATOM     71  O   UNL A   1      48.648  36.254  26.351  1.00  0.00    -0.744 OA
ENDBRANCH  64  68
ENDBRANCH  38  61
ENDBRANCH  12  13
ENDBRANCH   5   7
ENDBRANCH   2   3
ENDBRANCH   1   2
BRANCH   1  72
ATOM     72  C   UNL A   1      37.200  21.093  24.670  1.00  0.00     0.023 C 
BRANCH  72  73
ATOM     73  C   UNL A   1      35.912  21.106  25.491  1.00  0.00     0.116 C 
BRANCH  73  74
ATOM     74  N   UNL A   1      34.994  20.044  25.121  1.00  0.00    -0.352 N 
ATOM     75  C   UNL A   1      33.640  20.069  24.906  1.00  0.00     0.251 C 
ATOM     76  H   UNL A   1      35.413  19.160  25.005  1.00  0.00     0.163 HD
ATOM     77  O   UNL A   1      33.035  19.015  24.730  1.00  0.00    -0.269 OA
BRANCH  75  78
ATOM     78  C   UNL A   1      32.886  21.342  24.905  1.00  0.00     0.039 A 
ATOM     79  C   UNL A   1      32.678  21.984  26.130  1.00  0.00     0.015 A 
ATOM     80  C   UNL A   1      32.313  21.870  23.744  1.00  0.00     0.015 A 
ATOM     81  C   UNL A   1      31.956  23.178  26.182  1.00  0.00     0.018 A 
ATOM     82  C   UNL A   1      31.633  23.090  23.792  1.00  0.00     0.018 A 
ATOM     83  C   UNL A   1      31.474  23.764  25.008  1.00  0.00     0.039 A 
BRANCH  83  84
ATOM     84  S   UNL A   1      30.554  25.311  25.029  1.00  0.00     0.056 S 
ATOM     85  O   UNL A   1      29.927  25.393  26.390  1.00  0.00    -0.254 OA
BRANCH  84  86
ATOM     86  C   UNL A   1      31.884  26.562  24.969  1.00  0.00     0.089 C 
ATOM     87  C   UNL A   1      32.448  26.806  23.576  1.00  0.00     0.046 C 
ATOM     88  C   UNL A   1      31.508  27.888  25.622  1.00  0.00     0.053 C 
ATOM     89  C   UNL A   1      33.627  27.760  23.663  1.00  0.00     0.162 C 
ATOM     90  C   UNL A   1      32.718  28.842  25.640  1.00  0.00     0.069 C 
ATOM     91  O   UNL A   1      33.267  28.975  24.320  1.00  0.00    -0.375 OA
ATOM     92  C   UNL A   1      32.299  30.267  26.082  1.00  0.00     0.035 C 
ATOM     93  C   UNL A   1      33.804  28.422  26.654  1.00  0.00     0.035 C 
ATOM     94  C   UNL A   1      33.116  30.586  27.330  1.00  0.00     0.003 C 
ATOM     95  C   UNL A   1      34.363  29.737  27.182  1.00  0.00     0.003 C 
ENDBRANCH  84  86
ENDBRANCH  83  84
ENDBRANCH  75  78
ENDBRANCH  73  74
ENDBRANCH  72  73
ENDBRANCH   1  72
TORSDOF 16
ENDMDL
MODEL 3
REMARK VINA RESULT:     -12.5      3.566      8.927
REMARK SMILES O=C(NCCCCNC(=O)c1ccc([S@@](=O)[C@H]2CCOC3(CCCC3)C2)cc1)c1ccc(-c2c3nc(c(-c4cc(S(=O)(=O)[O-])ccc4F)c4ccc([nH]4)c(-c4cc(S(=O)(=O)[O-])ccc4F)c4nc(c(-c5cc(S(=O)(=O)[O-])ccc5F)c5ccc2[nH]5)C=C4)C=C3)cc1
REMARK SMILES IDX 5 1 4 2 3 3 1 4 2 5 29 7 30 8 91 9 31 10 90 11 32 12 33 13
REMARK SMILES IDX 34 14 84 15 35 16 89 17 83 18 85 19 36 20 88 21 82 22 81 23
REMARK SMILES IDX 37 25 69 26 49 27 68 28 50 29 53 30 67 31 86 32 51 33 52 34
REMARK SMILES IDX 66 36 87 37 54 38 38 39 39 40 47 41 40 42 46 43 48 44 45 45
REMARK SMILES IDX 41 46 42 47 43 48 44 49 70 50 71 51 79 52 72 53 78 54 80 55
REMARK SMILES IDX 77 56 73 57 74 58 75 59 76 60 55 61 56 62 64 63 57 64 63 65
REMARK SMILES IDX 65 66 62 67 58 68 59 69 60 70 61 71 6 72 7 73 8 74 9 75
REMARK SMILES IDX 10 77 11 78 12 79 28 80 13 81 27 82 14 83 15 84 16 85 17 86
REMARK SMILES IDX 18 87 26 88 19 89 21 90 20 91 22 92 25 93 23 94 24 95
REMARK H PARENT 3 6 85 24 53 35 8 76
REMARK Flexibility Score: inf
ROOT
ATOM      1  C   UNL A   1      33.627  28.305  25.418  1.00  0.00     0.023 C 
ENDROOT
BRANCH   1   2
ATOM      2  C   UNL A   1      33.927  28.581  26.885  1.00  0.00     0.116 C 
BRANCH   2   3
ATOM      3  N   UNL A   1      33.825  29.992  27.222  1.00  0.00    -0.352 N 
ATOM      4  O   UNL A   1      34.365  31.910  28.272  1.00  0.00    -0.269 OA
ATOM      5  C   UNL A   1      34.690  30.768  27.955  1.00  0.00     0.251 C 
ATOM      6  H   UNL A   1      33.028  30.454  26.876  1.00  0.00     0.163 HD
BRANCH   5   7
ATOM      7  C   UNL A   1      35.999  30.221  28.375  1.00  0.00     0.039 A 
ATOM      8  C   UNL A   1      37.122  30.349  27.550  1.00  0.00     0.014 A 
ATOM      9  C   UNL A   1      36.111  29.592  29.618  1.00  0.00     0.014 A 
ATOM     10  C   UNL A   1      38.325  29.757  27.921  1.00  0.00     0.010 A 
ATOM     11  C   UNL A   1      37.340  29.063  30.022  1.00  0.00     0.010 A 
ATOM     12  C   UNL A   1      38.455  29.134  29.171  1.00  0.00    -0.014 A 
BRANCH  12  13
ATOM     13  C   UNL A   1      39.792  28.671  29.622  1.00  0.00     0.031 A 
ATOM     14  C   UNL A   1      40.535  29.377  30.721  1.00  0.00     0.074 A 
ATOM     15  C   UNL A   1      40.334  27.602  29.003  1.00  0.00     0.049 A 
ATOM     16  N   UNL A   1      41.724  29.122  31.202  1.00  0.00    -0.248 NA
ATOM     17  C   UNL A   1      39.861  30.518  31.360  1.00  0.00     0.031 C 
ATOM     18  C   UNL A   1      39.699  26.852  27.915  1.00  0.00     0.029 A 
ATOM     19  N   UNL A   1      41.533  26.962  29.188  1.00  0.00    -0.354 N 
ATOM     20  C   UNL A   1      41.955  30.080  32.183  1.00  0.00     0.074 A 
ATOM     21  C   UNL A   1      40.783  30.930  32.222  1.00  0.00     0.031 C 
ATOM     22  C   UNL A   1      40.506  25.848  27.542  1.00  0.00     0.029 A 
ATOM     23  C   UNL A   1      41.742  25.924  28.309  1.00  0.00     0.049 A 
ATOM     24  H   UNL A   1      42.180  27.220  29.883  1.00  0.00     0.167 HD
ATOM     25  C   UNL A   1      43.047  30.227  32.973  1.00  0.00     0.034 A 
ATOM     26  C   UNL A   1      42.825  25.149  28.107  1.00  0.00     0.034 A 
ATOM     27  C   UNL A   1      44.197  29.356  32.926  1.00  0.00     0.049 A 
ATOM     28  C   UNL A   1      44.040  25.375  28.966  1.00  0.00     0.074 A 
ATOM     29  C   UNL A   1      45.311  29.357  33.748  1.00  0.00     0.029 A 
ATOM     30  N   UNL A   1      44.394  28.345  31.994  1.00  0.00    -0.354 N 
ATOM     31  N   UNL A   1      44.211  26.242  29.937  1.00  0.00    -0.248 NA
ATOM     32  C   UNL A   1      45.207  24.525  28.701  1.00  0.00     0.031 C 
ATOM     33  C   UNL A   1      46.214  28.403  33.266  1.00  0.00     0.029 A 
ATOM     34  C   UNL A   1      45.635  27.757  32.185  1.00  0.00     0.049 A 
ATOM     35  H   UNL A   1      43.747  28.085  31.299  1.00  0.00     0.167 HD
ATOM     36  C   UNL A   1      45.504  26.034  30.403  1.00  0.00     0.074 A 
ATOM     37  C   UNL A   1      46.056  24.941  29.628  1.00  0.00     0.031 C 
ATOM     38  C   UNL A   1      46.179  26.688  31.383  1.00  0.00     0.034 A 
BRANCH  25  39
ATOM     39  C   UNL A   1      43.086  31.397  33.924  1.00  0.00     0.023 A 
ATOM     40  C   UNL A   1      42.577  31.317  35.231  1.00  0.00     0.031 A 
ATOM     41  C   UNL A   1      43.689  32.604  33.523  1.00  0.00     0.131 A 
ATOM     42  C   UNL A   1      42.651  32.434  36.079  1.00  0.00     0.055 A 
ATOM     43  C   UNL A   1      43.810  33.691  34.388  1.00  0.00     0.041 A 
ATOM     44  F   UNL A   1      44.176  32.741  32.279  1.00  0.00    -0.206 F 
ATOM     45  C   UNL A   1      43.285  33.612  35.674  1.00  0.00     0.022 A 
BRANCH  42  46
ATOM     46  S   UNL A   1      41.838  32.356  37.699  1.00  0.00     0.124 S 
ATOM     47  O   UNL A   1      42.091  33.695  38.223  1.00  0.00    -0.237 OA
ATOM     48  O   UNL A   1      40.454  32.060  37.344  1.00  0.00    -0.237 OA
ATOM     49  O   UNL A   1      42.547  31.280  38.389  1.00  0.00    -0.744 OA
ENDBRANCH  42  46
ENDBRANCH  25  39
BRANCH  26  50
ATOM     50  C   UNL A   1      42.839  24.145  27.005  1.00  0.00     0.023 A 
ATOM     51  C   UNL A   1      42.229  22.892  27.155  1.00  0.00     0.031 A 
ATOM     52  C   UNL A   1      43.513  24.411  25.799  1.00  0.00     0.131 A 
ATOM     53  C   UNL A   1      42.344  21.933  26.137  1.00  0.00     0.055 A 
ATOM     54  C   UNL A   1      43.573  23.476  24.765  1.00  0.00     0.041 A 
ATOM     55  F   UNL A   1      44.116  25.594  25.602  1.00  0.00    -0.206 F 
ATOM     56  C   UNL A   1      42.999  22.222  24.937  1.00  0.00     0.022 A 
BRANCH  53  57
ATOM     57  S   UNL A   1      41.719  20.259  26.448  1.00  0.00     0.124 S 
ATOM     58  O   UNL A   1      42.299  19.512  25.338  1.00  0.00    -0.237 OA
ATOM     59  O   UNL A   1      42.269  19.973  27.769  1.00  0.00    -0.237 OA
ATOM     60  O   UNL A   1      40.269  20.425  26.400  1.00  0.00    -0.744 OA
ENDBRANCH  53  57
ENDBRANCH  26  50
BRANCH  38  61
ATOM     61  C   UNL A   1      47.583  26.221  31.663  1.00  0.00     0.023 A 
ATOM     62  C   UNL A   1      48.661  26.623  30.855  1.00  0.00     0.031 A 
ATOM     63  C   UNL A   1      47.843  25.350  32.736  1.00  0.00     0.131 A 
ATOM     64  C   UNL A   1      49.944  26.115  31.102  1.00  0.00     0.055 A 
ATOM     65  C   UNL A   1      49.132  24.892  33.010  1.00  0.00     0.041 A 
ATOM     66  F   UNL A   1      46.848  24.933  33.534  1.00  0.00    -0.206 F 
ATOM     67  C   UNL A   1      50.189  25.265  32.184  1.00  0.00     0.022 A 
BRANCH  64  68
ATOM     68  S   UNL A   1      51.278  26.521  29.944  1.00  0.00     0.124 S 
ATOM     69  O   UNL A   1      51.074  27.951  29.736  1.00  0.00    -0.237 OA
ATOM     70  O   UNL A   1      52.472  26.150  30.696  1.00  0.00    -0.237 OA
ATOM     71  O   UNL A   1      50.992  25.679  28.783  1.00  0.00    -0.744 OA
ENDBRANCH  64  68
ENDBRANCH  38  61
ENDBRANCH  12  13
ENDBRANCH   5   7
ENDBRANCH   2   3
ENDBRANCH   1   2
BRANCH   1  72
ATOM     72  C   UNL A   1      32.901  29.424  24.674  1.00  0.00     0.023 C 
BRANCH  72  73
ATOM     73  C   UNL A   1      31.391  29.493  24.895  1.00  0.00     0.116 C 
BRANCH  73  74
ATOM     74  N   UNL A   1      30.643  29.620  23.658  1.00  0.00    -0.352 N 
ATOM     75  C   UNL A   1      30.372  28.698  22.680  1.00  0.00     0.251 C 
ATOM     76  H   UNL A   1      30.267  30.516  23.494  1.00  0.00     0.163 HD
ATOM     77  O   UNL A   1      29.828  29.059  21.641  1.00  0.00    -0.269 OA
BRANCH  75  78
ATOM     78  C   UNL A   1      30.747  27.275  22.842  1.00  0.00     0.039 A 
ATOM     79  C   UNL A   1      29.930  26.467  23.639  1.00  0.00     0.015 A 
ATOM     80  C   UNL A   1      31.921  26.747  22.297  1.00  0.00     0.015 A 
ATOM     81  C   UNL A   1      30.254  25.123  23.836  1.00  0.00     0.018 A 
ATOM     82  C   UNL A   1      32.216  25.389  22.455  1.00  0.00     0.018 A 
ATOM     83  C   UNL A   1      31.369  24.564  23.205  1.00  0.00     0.039 A 
BRANCH  83  84
ATOM     84  S   UNL A   1      31.811  22.832  23.418  1.00  0.00     0.056 S 
ATOM     85  O   UNL A   1      32.560  22.447  22.177  1.00  0.00    -0.254 OA
BRANCH  84  86
ATOM     86  C   UNL A   1      33.024  22.900  24.783  1.00  0.00     0.089 C 
ATOM     87  C   UNL A   1      32.488  22.400  26.119  1.00  0.00     0.046 C 
ATOM     88  C   UNL A   1      34.348  22.215  24.460  1.00  0.00     0.053 C 
ATOM     89  C   UNL A   1      33.530  22.623  27.201  1.00  0.00     0.162 C 
ATOM     90  C   UNL A   1      35.355  22.422  25.608  1.00  0.00     0.069 C 
ATOM     91  O   UNL A   1      34.776  22.016  26.858  1.00  0.00    -0.375 OA
ATOM     92  C   UNL A   1      36.617  21.545  25.409  1.00  0.00     0.035 C 
ATOM     93  C   UNL A   1      35.892  23.867  25.689  1.00  0.00     0.035 C 
ATOM     94  C   UNL A   1      37.800  22.505  25.343  1.00  0.00     0.003 C 
ATOM     95  C   UNL A   1      37.339  23.712  26.136  1.00  0.00     0.003 C 
ENDBRANCH  84  86
ENDBRANCH  83  84
ENDBRANCH  75  78
ENDBRANCH  73  74
ENDBRANCH  72  73
ENDBRANCH   1  72
TORSDOF 16
ENDMDL
