MODEL 1
REMARK VINA RESULT:     -11.7      0.000      0.000
REMARK SMILES O=C(COc1ccc(/C=N/NC(=O)c2cc3cc([N+](=O)[O-])ccc3o2)cc1)NCCCCNC(=O)c1ccc(-c2c3nc(c(-c4cc(S(=O)(=O)[O-])ccc4F)c4ccc([nH]4)c(-c4cc(S(=O)(=O)[O-])ccc4F)c4nc(c(-c5cc(S(=O)(=O)[O-])ccc5F)c5ccc2[nH]5)C=C4)C=C3)cc1
REMARK SMILES IDX 29 1 28 2 1 3 2 4 3 6 4 7 5 8 6 9 27 10 7 11 26 12 8 13 9 14
REMARK SMILES IDX 10 15 11 16 12 17 13 19 14 20 15 21 25 22 16 23 24 24 17 25
REMARK SMILES IDX 23 26 18 27 22 28 19 29 20 30 21 31 30 32 31 33 32 34 33 35
REMARK SMILES IDX 34 36 35 38 36 39 37 40 98 41 38 42 97 43 39 44 40 45 41 46
REMARK SMILES IDX 91 47 42 48 96 49 90 50 92 51 43 52 95 53 89 54 88 55 44 57
REMARK SMILES IDX 76 58 56 59 75 60 57 61 60 62 74 63 93 64 58 65 59 66 73 68
REMARK SMILES IDX 94 69 61 70 45 71 46 72 54 73 47 74 53 75 55 76 52 77 48 78
REMARK SMILES IDX 49 79 50 80 51 81 77 82 78 83 86 84 79 85 85 86 87 87 84 88
REMARK SMILES IDX 80 89 81 90 82 91 83 92 62 93 63 94 71 95 64 96 70 97 72 98
REMARK SMILES IDX 69 99 65 100 66 101 67 102 68 103
REMARK H PARENT 28 5 11 18 33 37 92 56 60 67
REMARK Flexibility Score: inf
ROOT
ATOM      1  C   UNL A   1      33.757  35.277  31.571  1.00  0.00     0.116 C 
ENDROOT
BRANCH   1   2
ATOM      2  N   UNL A   1      33.648  34.383  30.438  1.00  0.00    -0.353 N 
ATOM      3  O   UNL A   1      32.547  35.862  29.062  1.00  0.00    -0.271 OA
ATOM      4  C   UNL A   1      33.144  34.800  29.222  1.00  0.00     0.257 C 
ATOM      5  H   UNL A   1      33.944  33.450  30.537  1.00  0.00     0.163 HD
BRANCH   4   6
ATOM      6  C   UNL A   1      33.444  33.851  28.058  1.00  0.00     0.329 C 
BRANCH   6   7
ATOM      7  O   UNL A   1      34.321  32.761  28.324  1.00  0.00    -0.484 OA
BRANCH   7   8
ATOM      8  C   UNL A   1      34.010  31.569  27.724  1.00  0.00     0.120 A 
ATOM      9  C   UNL A   1      32.708  31.448  27.236  1.00  0.00     0.047 A 
ATOM     10  C   UNL A   1      34.852  30.454  27.707  1.00  0.00     0.047 A 
ATOM     11  C   UNL A   1      32.251  30.221  26.745  1.00  0.00     0.013 A 
ATOM     12  C   UNL A   1      34.392  29.218  27.252  1.00  0.00     0.013 A 
ATOM     13  C   UNL A   1      33.089  29.101  26.778  1.00  0.00    -0.005 A 
BRANCH  13  14
ATOM     14  C   UNL A   1      32.581  27.754  26.448  1.00  0.00     0.141 C 
ATOM     15  N   UNL A   1      31.323  27.498  26.539  1.00  0.00    -0.180 NA
BRANCH  15  16
ATOM     16  N   UNL A   1      30.849  26.232  26.453  1.00  0.00    -0.240 N 
ATOM     17  C   UNL A   1      30.441  25.411  25.427  1.00  0.00     0.307 C 
ATOM     18  H   UNL A   1      30.780  25.796  27.333  1.00  0.00     0.194 HD
ATOM     19  O   UNL A   1      30.501  24.196  25.645  1.00  0.00    -0.264 OA
BRANCH  17  20
ATOM     20  C   UNL A   1      29.837  25.889  24.201  1.00  0.00     0.194 A 
ATOM     21  C   UNL A   1      28.549  26.376  24.000  1.00  0.00     0.065 A 
ATOM     22  O   UNL A   1      30.694  26.559  23.358  1.00  0.00    -0.451 OA
ATOM     23  C   UNL A   1      28.719  27.640  23.358  1.00  0.00     0.028 A 
ATOM     24  C   UNL A   1      30.055  27.698  22.985  1.00  0.00     0.135 A 
ATOM     25  C   UNL A   1      27.922  28.790  23.201  1.00  0.00     0.097 A 
ATOM     26  C   UNL A   1      30.680  28.820  22.445  1.00  0.00     0.055 A 
ATOM     27  C   UNL A   1      28.562  29.973  22.780  1.00  0.00     0.270 A 
ATOM     28  C   UNL A   1      29.913  29.989  22.395  1.00  0.00     0.089 A 
BRANCH  27  29
ATOM     29  N   UNL A   1      27.823  31.243  22.843  1.00  0.00     0.062 N 
ATOM     30  O   UNL A   1      28.121  32.124  22.024  1.00  0.00    -0.258 OA
ATOM     31  O   UNL A   1      26.939  31.354  23.705  1.00  0.00    -0.258 OA
ENDBRANCH  27  29
ENDBRANCH  17  20
ENDBRANCH  15  16
ENDBRANCH  13  14
ENDBRANCH   7   8
ENDBRANCH   6   7
ENDBRANCH   4   6
ENDBRANCH   1   2
BRANCH   1  32
ATOM     32  C   UNL A   1      34.864  34.890  32.541  1.00  0.00     0.023 C 
BRANCH  32  33
ATOM     33  C   UNL A   1      35.906  33.924  31.973  1.00  0.00     0.023 C 
BRANCH  33  34
ATOM     34  C   UNL A   1      36.567  32.993  32.986  1.00  0.00     0.116 C 
BRANCH  34  35
ATOM     35  N   UNL A   1      36.206  31.598  32.797  1.00  0.00    -0.352 N 
ATOM     36  C   UNL A   1      36.884  30.603  32.128  1.00  0.00     0.251 C 
ATOM     37  H   UNL A   1      35.354  31.324  33.205  1.00  0.00     0.163 HD
ATOM     38  O   UNL A   1      36.338  29.516  31.953  1.00  0.00    -0.269 OA
BRANCH  36  39
ATOM     39  C   UNL A   1      38.244  30.849  31.595  1.00  0.00     0.039 A 
ATOM     40  C   UNL A   1      38.424  30.913  30.210  1.00  0.00     0.014 A 
ATOM     41  C   UNL A   1      39.338  31.022  32.447  1.00  0.00     0.014 A 
ATOM     42  C   UNL A   1      39.682  31.226  29.686  1.00  0.00     0.010 A 
ATOM     43  C   UNL A   1      40.572  31.406  31.925  1.00  0.00     0.010 A 
ATOM     44  C   UNL A   1      40.758  31.519  30.539  1.00  0.00    -0.014 A 
BRANCH  44  45
ATOM     45  C   UNL A   1      42.077  31.953  30.001  1.00  0.00     0.031 A 
ATOM     46  C   UNL A   1      42.338  33.407  29.709  1.00  0.00     0.074 A 
ATOM     47  C   UNL A   1      43.019  31.032  29.713  1.00  0.00     0.049 A 
ATOM     48  N   UNL A   1      43.388  33.969  29.168  1.00  0.00    -0.248 NA
ATOM     49  C   UNL A   1      41.261  34.349  30.046  1.00  0.00     0.031 C 
ATOM     50  C   UNL A   1      42.878  29.587  29.918  1.00  0.00     0.029 A 
ATOM     51  N   UNL A   1      44.278  31.166  29.181  1.00  0.00    -0.354 N 
ATOM     52  C   UNL A   1      43.096  35.326  29.086  1.00  0.00     0.074 A 
ATOM     53  C   UNL A   1      41.744  35.491  29.579  1.00  0.00     0.031 C 
ATOM     54  C   UNL A   1      44.013  28.977  29.545  1.00  0.00     0.029 A 
ATOM     55  C   UNL A   1      44.945  29.972  29.024  1.00  0.00     0.049 A 
ATOM     56  H   UNL A   1      44.668  32.036  28.935  1.00  0.00     0.167 HD
ATOM     57  C   UNL A   1      43.887  36.343  28.660  1.00  0.00     0.034 A 
ATOM     58  C   UNL A   1      46.161  29.705  28.507  1.00  0.00     0.034 A 
ATOM     59  C   UNL A   1      45.238  36.164  28.181  1.00  0.00     0.049 A 
ATOM     60  C   UNL A   1      47.008  30.848  28.004  1.00  0.00     0.074 A 
ATOM     61  C   UNL A   1      46.145  37.131  27.785  1.00  0.00     0.029 A 
ATOM     62  N   UNL A   1      45.874  34.939  28.024  1.00  0.00    -0.354 N 
ATOM     63  N   UNL A   1      46.735  32.133  27.982  1.00  0.00    -0.248 NA
ATOM     64  C   UNL A   1      48.330  30.505  27.463  1.00  0.00     0.031 C 
ATOM     65  C   UNL A   1      47.296  36.489  27.315  1.00  0.00     0.029 A 
ATOM     66  C   UNL A   1      47.145  35.125  27.500  1.00  0.00     0.049 A 
ATOM     67  H   UNL A   1      45.480  34.065  28.253  1.00  0.00     0.167 HD
ATOM     68  C   UNL A   1      47.867  32.752  27.459  1.00  0.00     0.074 A 
ATOM     69  C   UNL A   1      48.828  31.702  27.192  1.00  0.00     0.031 C 
ATOM     70  C   UNL A   1      48.094  34.070  27.227  1.00  0.00     0.034 A 
BRANCH  57  71
ATOM     71  C   UNL A   1      43.298  37.735  28.662  1.00  0.00     0.023 A 
ATOM     72  C   UNL A   1      43.457  38.605  29.754  1.00  0.00     0.031 A 
ATOM     73  C   UNL A   1      42.549  38.192  27.563  1.00  0.00     0.131 A 
ATOM     74  C   UNL A   1      42.812  39.851  29.758  1.00  0.00     0.055 A 
ATOM     75  C   UNL A   1      41.983  39.469  27.537  1.00  0.00     0.041 A 
ATOM     76  F   UNL A   1      42.344  37.401  26.498  1.00  0.00    -0.206 F 
ATOM     77  C   UNL A   1      42.099  40.301  28.645  1.00  0.00     0.022 A 
BRANCH  74  78
ATOM     78  S   UNL A   1      42.792  40.809  31.298  1.00  0.00     0.124 S 
ATOM     79  O   UNL A   1      43.878  41.759  31.068  1.00  0.00    -0.237 OA
ATOM     80  O   UNL A   1      41.445  41.368  31.304  1.00  0.00    -0.237 OA
ATOM     81  O   UNL A   1      43.058  39.808  32.329  1.00  0.00    -0.744 OA
ENDBRANCH  74  78
ENDBRANCH  57  71
BRANCH  58  82
ATOM     82  C   UNL A   1      46.658  28.301  28.423  1.00  0.00     0.023 A 
ATOM     83  C   UNL A   1      46.344  27.488  27.322  1.00  0.00     0.031 A 
ATOM     84  C   UNL A   1      47.412  27.731  29.465  1.00  0.00     0.131 A 
ATOM     85  C   UNL A   1      46.735  26.141  27.310  1.00  0.00     0.055 A 
ATOM     86  C   UNL A   1      47.850  26.406  29.422  1.00  0.00     0.041 A 
ATOM     87  F   UNL A   1      47.742  28.463  30.542  1.00  0.00    -0.206 F 
ATOM     88  C   UNL A   1      47.499  25.598  28.346  1.00  0.00     0.022 A 
BRANCH  85  89
ATOM     89  S   UNL A   1      46.149  25.077  25.962  1.00  0.00     0.124 S 
ATOM     90  O   UNL A   1      46.481  25.878  24.789  1.00  0.00    -0.237 OA
ATOM     91  O   UNL A   1      46.945  23.870  26.162  1.00  0.00    -0.237 OA
ATOM     92  O   UNL A   1      44.722  24.934  26.237  1.00  0.00    -0.744 OA
ENDBRANCH  85  89
ENDBRANCH  58  82
BRANCH  70  93
ATOM     93  C   UNL A   1      49.458  34.453  26.703  1.00  0.00     0.023 A 
ATOM     94  C   UNL A   1      50.601  34.436  27.522  1.00  0.00     0.031 A 
ATOM     95  C   UNL A   1      49.613  34.852  25.363  1.00  0.00     0.131 A 
ATOM     96  C   UNL A   1      51.835  34.866  27.010  1.00  0.00     0.055 A 
ATOM     97  C   UNL A   1      50.855  35.215  24.841  1.00  0.00     0.041 A 
ATOM     98  F   UNL A   1      48.556  34.892  24.535  1.00  0.00    -0.206 F 
ATOM     99  C   UNL A   1      51.973  35.237  25.670  1.00  0.00     0.022 A 
BRANCH  96 100
ATOM    100  S   UNL A   1      53.241  35.028  28.145  1.00  0.00     0.124 S 
ATOM    101  O   UNL A   1      53.137  36.423  28.560  1.00  0.00    -0.237 OA
ATOM    102  O   UNL A   1      52.932  34.034  29.168  1.00  0.00    -0.237 OA
ATOM    103  O   UNL A   1      54.396  34.715  27.307  1.00  0.00    -0.744 OA
ENDBRANCH  96 100
ENDBRANCH  70  93
ENDBRANCH  44  45
ENDBRANCH  36  39
ENDBRANCH  34  35
ENDBRANCH  33  34
ENDBRANCH  32  33
ENDBRANCH   1  32
TORSDOF 20
ENDMDL
MODEL 2
REMARK VINA RESULT:     -11.0      5.113      8.185
REMARK SMILES O=C(COc1ccc(/C=N/NC(=O)c2cc3cc([N+](=O)[O-])ccc3o2)cc1)NCCCCNC(=O)c1ccc(-c2c3nc(c(-c4cc(S(=O)(=O)[O-])ccc4F)c4ccc([nH]4)c(-c4cc(S(=O)(=O)[O-])ccc4F)c4nc(c(-c5cc(S(=O)(=O)[O-])ccc5F)c5ccc2[nH]5)C=C4)C=C3)cc1
REMARK SMILES IDX 29 1 28 2 1 3 2 4 3 6 4 7 5 8 6 9 27 10 7 11 26 12 8 13 9 14
REMARK SMILES IDX 10 15 11 16 12 17 13 19 14 20 15 21 25 22 16 23 24 24 17 25
REMARK SMILES IDX 23 26 18 27 22 28 19 29 20 30 21 31 30 32 31 33 32 34 33 35
REMARK SMILES IDX 34 36 35 38 36 39 37 40 98 41 38 42 97 43 39 44 40 45 41 46
REMARK SMILES IDX 91 47 42 48 96 49 90 50 92 51 43 52 95 53 89 54 88 55 44 57
REMARK SMILES IDX 76 58 56 59 75 60 57 61 60 62 74 63 93 64 58 65 59 66 73 68
REMARK SMILES IDX 94 69 61 70 45 71 46 72 54 73 47 74 53 75 55 76 52 77 48 78
REMARK SMILES IDX 49 79 50 80 51 81 77 82 78 83 86 84 79 85 85 86 87 87 84 88
REMARK SMILES IDX 80 89 81 90 82 91 83 92 62 93 63 94 71 95 64 96 70 97 72 98
REMARK SMILES IDX 69 99 65 100 66 101 67 102 68 103
REMARK H PARENT 28 5 11 18 33 37 92 56 60 67
REMARK Flexibility Score: inf
ROOT
ATOM      1  C   UNL A   1      34.852  32.448  30.546  1.00  0.00     0.116 C 
ENDROOT
BRANCH   1   2
ATOM      2  N   UNL A   1      35.528  31.384  29.835  1.00  0.00    -0.353 N 
ATOM      3  O   UNL A   1      35.683  32.491  27.824  1.00  0.00    -0.271 OA
ATOM      4  C   UNL A   1      35.993  31.546  28.545  1.00  0.00     0.257 C 
ATOM      5  H   UNL A   1      35.662  30.519  30.284  1.00  0.00     0.163 HD
BRANCH   4   6
ATOM      6  C   UNL A   1      36.989  30.472  28.095  1.00  0.00     0.329 C 
BRANCH   6   7
ATOM      7  O   UNL A   1      38.160  30.307  28.888  1.00  0.00    -0.484 OA
BRANCH   7   8
ATOM      8  C   UNL A   1      38.746  29.069  28.858  1.00  0.00     0.120 A 
ATOM      9  C   UNL A   1      39.451  28.751  27.696  1.00  0.00     0.047 A 
ATOM     10  C   UNL A   1      38.558  28.086  29.833  1.00  0.00     0.047 A 
ATOM     11  C   UNL A   1      39.955  27.460  27.508  1.00  0.00     0.013 A 
ATOM     12  C   UNL A   1      39.027  26.786  29.637  1.00  0.00     0.013 A 
ATOM     13  C   UNL A   1      39.718  26.472  28.471  1.00  0.00    -0.005 A 
BRANCH  13  14
ATOM     14  C   UNL A   1      40.067  25.059  28.221  1.00  0.00     0.141 C 
ATOM     15  N   UNL A   1      39.521  24.423  27.244  1.00  0.00    -0.180 NA
BRANCH  15  16
ATOM     16  N   UNL A   1      39.650  23.081  27.112  1.00  0.00    -0.240 N 
ATOM     17  C   UNL A   1      40.696  22.190  27.182  1.00  0.00     0.307 C 
ATOM     18  H   UNL A   1      38.792  22.638  26.920  1.00  0.00     0.194 HD
ATOM     19  O   UNL A   1      40.400  21.023  27.461  1.00  0.00    -0.264 OA
BRANCH  17  20
ATOM     20  C   UNL A   1      42.060  22.515  26.822  1.00  0.00     0.194 A 
ATOM     21  C   UNL A   1      42.537  23.069  25.638  1.00  0.00     0.065 A 
ATOM     22  O   UNL A   1      42.839  22.969  27.862  1.00  0.00    -0.451 OA
ATOM     23  C   UNL A   1      43.318  24.196  26.036  1.00  0.00     0.028 A 
ATOM     24  C   UNL A   1      43.472  24.084  27.411  1.00  0.00     0.135 A 
ATOM     25  C   UNL A   1      43.768  25.368  25.398  1.00  0.00     0.097 A 
ATOM     26  C   UNL A   1      44.057  25.050  28.226  1.00  0.00     0.055 A 
ATOM     27  C   UNL A   1      44.244  26.413  26.216  1.00  0.00     0.270 A 
ATOM     28  C   UNL A   1      44.400  26.255  27.604  1.00  0.00     0.089 A 
BRANCH  27  29
ATOM     29  N   UNL A   1      44.486  27.734  25.616  1.00  0.00     0.062 N 
ATOM     30  O   UNL A   1      45.238  27.791  24.634  1.00  0.00    -0.258 OA
ATOM     31  O   UNL A   1      43.914  28.710  26.123  1.00  0.00    -0.258 OA
ENDBRANCH  27  29
ENDBRANCH  17  20
ENDBRANCH  15  16
ENDBRANCH  13  14
ENDBRANCH   7   8
ENDBRANCH   6   7
ENDBRANCH   4   6
ENDBRANCH   1   2
BRANCH   1  32
ATOM     32  C   UNL A   1      35.076  32.404  32.052  1.00  0.00     0.023 C 
BRANCH  32  33
ATOM     33  C   UNL A   1      35.361  33.761  32.697  1.00  0.00     0.023 C 
BRANCH  33  34
ATOM     34  C   UNL A   1      36.718  33.895  33.383  1.00  0.00     0.116 C 
BRANCH  34  35
ATOM     35  N   UNL A   1      36.770  33.234  34.677  1.00  0.00    -0.352 N 
ATOM     36  C   UNL A   1      37.631  32.259  35.126  1.00  0.00     0.251 C 
ATOM     37  H   UNL A   1      36.091  33.526  35.326  1.00  0.00     0.163 HD
ATOM     38  O   UNL A   1      37.417  31.719  36.209  1.00  0.00    -0.269 OA
BRANCH  36  39
ATOM     39  C   UNL A   1      38.785  31.837  34.298  1.00  0.00     0.039 A 
ATOM     40  C   UNL A   1      40.067  32.259  34.661  1.00  0.00     0.014 A 
ATOM     41  C   UNL A   1      38.613  31.026  33.173  1.00  0.00     0.014 A 
ATOM     42  C   UNL A   1      41.178  31.806  33.944  1.00  0.00     0.010 A 
ATOM     43  C   UNL A   1      39.726  30.517  32.506  1.00  0.00     0.010 A 
ATOM     44  C   UNL A   1      41.022  30.895  32.886  1.00  0.00    -0.014 A 
BRANCH  44  45
ATOM     45  C   UNL A   1      42.200  30.324  32.177  1.00  0.00     0.031 A 
ATOM     46  C   UNL A   1      42.798  31.040  30.995  1.00  0.00     0.074 A 
ATOM     47  C   UNL A   1      42.694  29.128  32.557  1.00  0.00     0.049 A 
ATOM     48  N   UNL A   1      43.771  30.666  30.204  1.00  0.00    -0.248 NA
ATOM     49  C   UNL A   1      42.202  32.336  30.641  1.00  0.00     0.031 C 
ATOM     50  C   UNL A   1      42.184  28.316  33.665  1.00  0.00     0.029 A 
ATOM     51  N   UNL A   1      43.729  28.379  32.052  1.00  0.00    -0.354 N 
ATOM     52  C   UNL A   1      43.895  31.672  29.251  1.00  0.00     0.074 A 
ATOM     53  C   UNL A   1      42.856  32.641  29.530  1.00  0.00     0.031 C 
ATOM     54  C   UNL A   1      42.924  27.202  33.773  1.00  0.00     0.029 A 
ATOM     55  C   UNL A   1      43.927  27.187  32.713  1.00  0.00     0.049 A 
ATOM     56  H   UNL A   1      44.279  28.667  31.288  1.00  0.00     0.167 HD
ATOM     57  C   UNL A   1      44.804  31.786  28.249  1.00  0.00     0.034 A 
ATOM     58  C   UNL A   1      44.805  26.190  32.484  1.00  0.00     0.034 A 
ATOM     59  C   UNL A   1      45.842  30.816  27.990  1.00  0.00     0.049 A 
ATOM     60  C   UNL A   1      45.780  26.323  31.341  1.00  0.00     0.074 A 
ATOM     61  C   UNL A   1      46.849  30.866  27.042  1.00  0.00     0.029 A 
ATOM     62  N   UNL A   1      46.002  29.616  28.672  1.00  0.00    -0.354 N 
ATOM     63  N   UNL A   1      45.917  27.305  30.480  1.00  0.00    -0.248 NA
ATOM     64  C   UNL A   1      46.723  25.214  31.144  1.00  0.00     0.031 C 
ATOM     65  C   UNL A   1      47.566  29.667  27.098  1.00  0.00     0.029 A 
ATOM     66  C   UNL A   1      47.066  28.903  28.139  1.00  0.00     0.049 A 
ATOM     67  H   UNL A   1      45.443  29.317  29.425  1.00  0.00     0.167 HD
ATOM     68  C   UNL A   1      46.987  26.948  29.664  1.00  0.00     0.074 A 
ATOM     69  C   UNL A   1      47.465  25.668  30.144  1.00  0.00     0.031 C 
ATOM     70  C   UNL A   1      47.529  27.620  28.617  1.00  0.00     0.034 A 
BRANCH  57  71
ATOM     71  C   UNL A   1      44.693  32.989  27.341  1.00  0.00     0.023 A 
ATOM     72  C   UNL A   1      45.264  34.228  27.679  1.00  0.00     0.031 A 
ATOM     73  C   UNL A   1      43.989  32.901  26.126  1.00  0.00     0.131 A 
ATOM     74  C   UNL A   1      45.055  35.344  26.855  1.00  0.00     0.055 A 
ATOM     75  C   UNL A   1      43.860  33.995  25.268  1.00  0.00     0.041 A 
ATOM     76  F   UNL A   1      43.404  31.751  25.757  1.00  0.00    -0.206 F 
ATOM     77  C   UNL A   1      44.380  35.231  25.638  1.00  0.00     0.022 A 
BRANCH  74  78
ATOM     78  S   UNL A   1      45.545  36.978  27.472  1.00  0.00     0.124 S 
ATOM     79  O   UNL A   1      44.283  37.710  27.404  1.00  0.00    -0.237 OA
ATOM     80  O   UNL A   1      46.037  36.675  28.811  1.00  0.00    -0.237 OA
ATOM     81  O   UNL A   1      46.562  37.415  26.516  1.00  0.00    -0.744 OA
ENDBRANCH  74  78
ENDBRANCH  57  71
BRANCH  58  82
ATOM     82  C   UNL A   1      44.804  24.968  33.341  1.00  0.00     0.023 A 
ATOM     83  C   UNL A   1      45.345  24.995  34.637  1.00  0.00     0.031 A 
ATOM     84  C   UNL A   1      44.311  23.742  32.861  1.00  0.00     0.131 A 
ATOM     85  C   UNL A   1      45.426  23.812  35.387  1.00  0.00     0.055 A 
ATOM     86  C   UNL A   1      44.340  22.579  33.634  1.00  0.00     0.041 A 
ATOM     87  F   UNL A   1      43.782  23.659  31.629  1.00  0.00    -0.206 F 
ATOM     88  C   UNL A   1      44.913  22.608  34.900  1.00  0.00     0.022 A 
BRANCH  85  89
ATOM     89  S   UNL A   1      46.299  23.849  36.977  1.00  0.00     0.124 S 
ATOM     90  O   UNL A   1      45.650  22.758  37.696  1.00  0.00    -0.237 OA
ATOM     91  O   UNL A   1      47.681  23.617  36.568  1.00  0.00    -0.237 OA
ATOM     92  O   UNL A   1      46.018  25.188  37.488  1.00  0.00    -0.744 OA
ENDBRANCH  85  89
ENDBRANCH  58  82
BRANCH  70  93
ATOM     93  C   UNL A   1      48.737  27.003  27.952  1.00  0.00     0.023 A 
ATOM     94  C   UNL A   1      50.044  27.248  28.411  1.00  0.00     0.031 A 
ATOM     95  C   UNL A   1      48.577  26.165  26.834  1.00  0.00     0.131 A 
ATOM     96  C   UNL A   1      51.141  26.708  27.720  1.00  0.00     0.055 A 
ATOM     97  C   UNL A   1      49.667  25.578  26.191  1.00  0.00     0.041 A 
ATOM     98  F   UNL A   1      47.353  25.900  26.349  1.00  0.00    -0.206 F 
ATOM     99  C   UNL A   1      50.959  25.859  26.625  1.00  0.00     0.022 A 
BRANCH  96 100
ATOM    100  S   UNL A   1      52.813  27.209  28.212  1.00  0.00     0.124 S 
ATOM    101  O   UNL A   1      52.609  27.630  29.595  1.00  0.00    -0.237 OA
ATOM    102  O   UNL A   1      53.574  25.977  28.028  1.00  0.00    -0.237 OA
ATOM    103  O   UNL A   1      53.138  28.284  27.278  1.00  0.00    -0.744 OA
ENDBRANCH  96 100
ENDBRANCH  70  93
ENDBRANCH  44  45
ENDBRANCH  36  39
ENDBRANCH  34  35
ENDBRANCH  33  34
ENDBRANCH  32  33
ENDBRANCH   1  32
TORSDOF 20
ENDMDL
MODEL 3
REMARK VINA RESULT:     -11.0      4.012      9.248
REMARK SMILES O=C(COc1ccc(/C=N/NC(=O)c2cc3cc([N+](=O)[O-])ccc3o2)cc1)NCCCCNC(=O)c1ccc(-c2c3nc(c(-c4cc(S(=O)(=O)[O-])ccc4F)c4ccc([nH]4)c(-c4cc(S(=O)(=O)[O-])ccc4F)c4nc(c(-c5cc(S(=O)(=O)[O-])ccc5F)c5ccc2[nH]5)C=C4)C=C3)cc1
REMARK SMILES IDX 29 1 28 2 1 3 2 4 3 6 4 7 5 8 6 9 27 10 7 11 26 12 8 13 9 14
REMARK SMILES IDX 10 15 11 16 12 17 13 19 14 20 15 21 25 22 16 23 24 24 17 25
REMARK SMILES IDX 23 26 18 27 22 28 19 29 20 30 21 31 30 32 31 33 32 34 33 35
REMARK SMILES IDX 34 36 35 38 36 39 37 40 98 41 38 42 97 43 39 44 40 45 41 46
REMARK SMILES IDX 91 47 42 48 96 49 90 50 92 51 43 52 95 53 89 54 88 55 44 57
REMARK SMILES IDX 76 58 56 59 75 60 57 61 60 62 74 63 93 64 58 65 59 66 73 68
REMARK SMILES IDX 94 69 61 70 45 71 46 72 54 73 47 74 53 75 55 76 52 77 48 78
REMARK SMILES IDX 49 79 50 80 51 81 77 82 78 83 86 84 79 85 85 86 87 87 84 88
REMARK SMILES IDX 80 89 81 90 82 91 83 92 62 93 63 94 71 95 64 96 70 97 72 98
REMARK SMILES IDX 69 99 65 100 66 101 67 102 68 103
REMARK H PARENT 28 5 11 18 33 37 92 56 60 67
REMARK Flexibility Score: inf
ROOT
ATOM      1  C   UNL A   1      43.506  21.637  25.712  1.00  0.00     0.116 C 
ENDROOT
BRANCH   1   2
ATOM      2  N   UNL A   1      42.078  21.831  25.574  1.00  0.00    -0.353 N 
ATOM      3  O   UNL A   1      41.457  20.024  26.855  1.00  0.00    -0.271 OA
ATOM      4  C   UNL A   1      41.163  21.060  26.263  1.00  0.00     0.257 C 
ATOM      5  H   UNL A   1      41.748  22.536  24.971  1.00  0.00     0.163 HD
BRANCH   4   6
ATOM      6  C   UNL A   1      39.744  21.635  26.285  1.00  0.00     0.329 C 
BRANCH   6   7
ATOM      7  O   UNL A   1      38.754  20.937  25.536  1.00  0.00    -0.484 OA
BRANCH   7   8
ATOM      8  C   UNL A   1      37.560  21.584  25.354  1.00  0.00     0.120 A 
ATOM      9  C   UNL A   1      37.510  22.913  25.780  1.00  0.00     0.047 A 
ATOM     10  C   UNL A   1      36.388  20.962  24.916  1.00  0.00     0.047 A 
ATOM     11  C   UNL A   1      36.296  23.608  25.776  1.00  0.00     0.013 A 
ATOM     12  C   UNL A   1      35.167  21.639  24.942  1.00  0.00     0.013 A 
ATOM     13  C   UNL A   1      35.122  22.959  25.379  1.00  0.00    -0.005 A 
BRANCH  13  14
ATOM     14  C   UNL A   1      33.800  23.599  25.543  1.00  0.00     0.141 C 
ATOM     15  N   UNL A   1      33.394  23.951  26.713  1.00  0.00    -0.180 NA
BRANCH  15  16
ATOM     16  N   UNL A   1      32.115  24.341  26.930  1.00  0.00    -0.240 N 
ATOM     17  C   UNL A   1      31.079  24.774  26.137  1.00  0.00     0.307 C 
ATOM     18  H   UNL A   1      31.869  24.306  27.883  1.00  0.00     0.194 HD
ATOM     19  O   UNL A   1      29.940  24.613  26.590  1.00  0.00    -0.264 OA
BRANCH  17  20
ATOM     20  C   UNL A   1      31.259  25.511  24.903  1.00  0.00     0.194 A 
ATOM     21  C   UNL A   1      30.395  25.612  23.818  1.00  0.00     0.065 A 
ATOM     22  O   UNL A   1      31.936  26.701  25.036  1.00  0.00    -0.451 OA
ATOM     23  C   UNL A   1      30.242  27.014  23.587  1.00  0.00     0.028 A 
ATOM     24  C   UNL A   1      31.214  27.633  24.361  1.00  0.00     0.135 A 
ATOM     25  C   UNL A   1      29.286  27.814  22.932  1.00  0.00     0.097 A 
ATOM     26  C   UNL A   1      31.330  29.010  24.536  1.00  0.00     0.055 A 
ATOM     27  C   UNL A   1      29.304  29.198  23.198  1.00  0.00     0.270 A 
ATOM     28  C   UNL A   1      30.314  29.791  23.975  1.00  0.00     0.089 A 
BRANCH  27  29
ATOM     29  N   UNL A   1      28.180  30.027  22.737  1.00  0.00     0.062 N 
ATOM     30  O   UNL A   1      27.072  29.832  23.254  1.00  0.00    -0.258 OA
ATOM     31  O   UNL A   1      28.411  30.879  21.866  1.00  0.00    -0.258 OA
ENDBRANCH  27  29
ENDBRANCH  17  20
ENDBRANCH  15  16
ENDBRANCH  13  14
ENDBRANCH   7   8
ENDBRANCH   6   7
ENDBRANCH   4   6
ENDBRANCH   1   2
BRANCH   1  32
ATOM     32  C   UNL A   1      44.329  22.555  24.820  1.00  0.00     0.023 C 
BRANCH  32  33
ATOM     33  C   UNL A   1      44.707  23.895  25.454  1.00  0.00     0.023 C 
BRANCH  33  34
ATOM     34  C   UNL A   1      43.850  25.088  25.039  1.00  0.00     0.116 C 
BRANCH  34  35
ATOM     35  N   UNL A   1      42.427  24.862  25.233  1.00  0.00    -0.352 N 
ATOM     36  C   UNL A   1      41.522  25.584  25.977  1.00  0.00     0.251 C 
ATOM     37  H   UNL A   1      42.057  24.080  24.765  1.00  0.00     0.163 HD
ATOM     38  O   UNL A   1      40.385  25.144  26.136  1.00  0.00    -0.269 OA
BRANCH  36  39
ATOM     39  C   UNL A   1      41.921  26.862  26.612  1.00  0.00     0.039 A 
ATOM     40  C   UNL A   1      41.406  28.058  26.103  1.00  0.00     0.014 A 
ATOM     41  C   UNL A   1      42.792  26.889  27.704  1.00  0.00     0.014 A 
ATOM     42  C   UNL A   1      41.703  29.268  26.736  1.00  0.00     0.010 A 
ATOM     43  C   UNL A   1      43.027  28.087  28.377  1.00  0.00     0.010 A 
ATOM     44  C   UNL A   1      42.481  29.290  27.906  1.00  0.00    -0.014 A 
BRANCH  44  45
ATOM     45  C   UNL A   1      42.722  30.557  28.651  1.00  0.00     0.031 A 
ATOM     46  C   UNL A   1      43.837  31.481  28.238  1.00  0.00     0.074 A 
ATOM     47  C   UNL A   1      41.979  30.846  29.738  1.00  0.00     0.049 A 
ATOM     48  N   UNL A   1      44.252  32.585  28.805  1.00  0.00    -0.248 NA
ATOM     49  C   UNL A   1      44.605  31.095  27.046  1.00  0.00     0.031 C 
ATOM     50  C   UNL A   1      40.890  30.017  30.262  1.00  0.00     0.029 A 
ATOM     51  N   UNL A   1      42.027  31.910  30.606  1.00  0.00    -0.354 N 
ATOM     52  C   UNL A   1      45.336  33.019  28.049  1.00  0.00     0.074 A 
ATOM     53  C   UNL A   1      45.549  32.023  27.019  1.00  0.00     0.031 C 
ATOM     54  C   UNL A   1      40.357  30.617  31.338  1.00  0.00     0.029 A 
ATOM     55  C   UNL A   1      41.095  31.844  31.617  1.00  0.00     0.049 A 
ATOM     56  H   UNL A   1      42.668  32.651  30.512  1.00  0.00     0.167 HD
ATOM     57  C   UNL A   1      46.071  34.151  28.187  1.00  0.00     0.034 A 
ATOM     58  C   UNL A   1      40.869  32.669  32.660  1.00  0.00     0.034 A 
ATOM     59  C   UNL A   1      45.838  35.140  29.213  1.00  0.00     0.049 A 
ATOM     60  C   UNL A   1      41.725  33.902  32.815  1.00  0.00     0.074 A 
ATOM     61  C   UNL A   1      46.484  36.350  29.404  1.00  0.00     0.029 A 
ATOM     62  N   UNL A   1      44.895  35.032  30.228  1.00  0.00    -0.354 N 
ATOM     63  N   UNL A   1      42.713  34.323  32.059  1.00  0.00    -0.248 NA
ATOM     64  C   UNL A   1      41.429  34.774  33.959  1.00  0.00     0.031 C 
ATOM     65  C   UNL A   1      45.988  36.933  30.575  1.00  0.00     0.029 A 
ATOM     66  C   UNL A   1      44.970  36.134  31.068  1.00  0.00     0.049 A 
ATOM     67  H   UNL A   1      44.264  34.284  30.334  1.00  0.00     0.167 HD
ATOM     68  C   UNL A   1      43.130  35.529  32.618  1.00  0.00     0.074 A 
ATOM     69  C   UNL A   1      42.279  35.771  33.764  1.00  0.00     0.031 C 
ATOM     70  C   UNL A   1      44.123  36.363  32.216  1.00  0.00     0.034 A 
BRANCH  57  71
ATOM     71  C   UNL A   1      47.216  34.362  27.223  1.00  0.00     0.023 A 
ATOM     72  C   UNL A   1      48.514  33.903  27.505  1.00  0.00     0.031 A 
ATOM     73  C   UNL A   1      47.011  35.048  26.013  1.00  0.00     0.131 A 
ATOM     74  C   UNL A   1      49.569  34.205  26.630  1.00  0.00     0.055 A 
ATOM     75  C   UNL A   1      48.049  35.268  25.105  1.00  0.00     0.041 A 
ATOM     76  F   UNL A   1      45.798  35.528  25.696  1.00  0.00    -0.206 F 
ATOM     77  C   UNL A   1      49.341  34.860  25.419  1.00  0.00     0.022 A 
BRANCH  74  78
ATOM     78  S   UNL A   1      51.267  33.863  27.172  1.00  0.00     0.124 S 
ATOM     79  O   UNL A   1      52.007  34.942  26.522  1.00  0.00    -0.237 OA
ATOM     80  O   UNL A   1      51.157  33.948  28.623  1.00  0.00    -0.237 OA
ATOM     81  O   UNL A   1      51.533  32.527  26.642  1.00  0.00    -0.744 OA
ENDBRANCH  74  78
ENDBRANCH  57  71
BRANCH  58  82
ATOM     82  C   UNL A   1      39.798  32.362  33.652  1.00  0.00     0.023 A 
ATOM     83  C   UNL A   1      38.546  32.994  33.582  1.00  0.00     0.031 A 
ATOM     84  C   UNL A   1      40.025  31.470  34.715  1.00  0.00     0.131 A 
ATOM     85  C   UNL A   1      37.589  32.767  34.582  1.00  0.00     0.055 A 
ATOM     86  C   UNL A   1      39.047  31.201  35.676  1.00  0.00     0.041 A 
ATOM     87  F   UNL A   1      41.203  30.836  34.830  1.00  0.00    -0.206 F 
ATOM     88  C   UNL A   1      37.825  31.863  35.620  1.00  0.00     0.022 A 
BRANCH  85  89
ATOM     89  S   UNL A   1      36.060  33.743  34.560  1.00  0.00     0.124 S 
ATOM     90  O   UNL A   1      35.776  33.878  35.984  1.00  0.00    -0.237 OA
ATOM     91  O   UNL A   1      36.487  34.958  33.873  1.00  0.00    -0.237 OA
ATOM     92  O   UNL A   1      35.129  32.901  33.814  1.00  0.00    -0.744 OA
ENDBRANCH  85  89
ENDBRANCH  58  82
BRANCH  70  93
ATOM     93  C   UNL A   1      44.306  37.644  32.995  1.00  0.00     0.023 A 
ATOM     94  C   UNL A   1      43.566  38.804  32.702  1.00  0.00     0.031 A 
ATOM     95  C   UNL A   1      45.243  37.706  34.042  1.00  0.00     0.131 A 
ATOM     96  C   UNL A   1      43.819  39.991  33.408  1.00  0.00     0.055 A 
ATOM     97  C   UNL A   1      45.443  38.871  34.784  1.00  0.00     0.041 A 
ATOM     98  F   UNL A   1      45.981  36.631  34.363  1.00  0.00    -0.206 F 
ATOM     99  C   UNL A   1      44.739  40.026  34.460  1.00  0.00     0.022 A 
BRANCH  96 100
ATOM    100  S   UNL A   1      42.999  41.517  32.869  1.00  0.00     0.124 S 
ATOM    101  O   UNL A   1      42.014  41.012  31.918  1.00  0.00    -0.237 OA
ATOM    102  O   UNL A   1      42.464  42.042  34.121  1.00  0.00    -0.237 OA
ATOM    103  O   UNL A   1      44.083  42.300  32.282  1.00  0.00    -0.744 OA
ENDBRANCH  96 100
ENDBRANCH  70  93
ENDBRANCH  44  45
ENDBRANCH  36  39
ENDBRANCH  34  35
ENDBRANCH  33  34
ENDBRANCH  32  33
ENDBRANCH   1  32
TORSDOF 20
ENDMDL
