MODEL 1
REMARK VINA RESULT:     -11.3      0.000      0.000
REMARK SMILES N#CCNC(=O)Cn1ccc(C(=O)NCCCCNC(=O)c2ccc(-c3c4nc(c(-c5cc(S(=O)(=O)[O-])ccc5F)c5ccc([nH]5)c(-c5cc(S(=O)(=O)[O-])ccc5F)c5nc(c(-c6cc(S(=O)(=O)[O-])ccc6F)c6ccc3[nH]6)C=C5)C=C4)cc2)c1
REMARK SMILES IDX 16 1 15 2 14 3 12 4 13 5 11 7 8 8 9 9 85 10 10 11 7 12 5 13
REMARK SMILES IDX 4 14 6 16 3 17 2 18 1 19 17 20 18 21 19 22 20 23 21 25 22 26
REMARK SMILES IDX 23 27 84 28 24 29 83 30 25 31 26 32 27 33 77 34 28 35 82 36
REMARK SMILES IDX 76 37 78 38 29 39 81 40 75 41 74 42 30 44 62 45 42 46 61 47
REMARK SMILES IDX 43 48 46 49 60 50 79 51 44 52 45 53 59 55 80 56 47 57 31 58
REMARK SMILES IDX 32 59 40 60 33 61 39 62 41 63 38 64 34 65 35 66 36 67 37 68
REMARK SMILES IDX 63 69 64 70 72 71 65 72 71 73 73 74 70 75 66 76 67 77 68 78
REMARK SMILES IDX 69 79 48 80 49 81 57 82 50 83 56 84 58 85 55 86 51 87 52 88
REMARK SMILES IDX 53 89 54 90
REMARK H PARENT 14 6 4 15 19 24 78 43 46 54
REMARK Flexibility Score: inf
ROOT
ATOM      1  C   UNL A   1      32.376  28.139  26.641  1.00  0.00     0.023 C 
ENDROOT
BRANCH   1   2
ATOM      2  C   UNL A   1      31.831  27.328  25.465  1.00  0.00     0.116 C 
BRANCH   2   3
ATOM      3  N   UNL A   1      32.552  27.637  24.248  1.00  0.00    -0.352 N 
ATOM      4  C   UNL A   1      33.280  26.863  23.377  1.00  0.00     0.252 C 
ATOM      5  O   UNL A   1      33.750  27.421  22.391  1.00  0.00    -0.269 OA
ATOM      6  H   UNL A   1      32.515  28.588  23.996  1.00  0.00     0.163 HD
BRANCH   4   7
ATOM      7  C   UNL A   1      33.457  25.425  23.582  1.00  0.00     0.057 A 
ATOM      8  N   UNL A   1      33.267  23.189  23.571  1.00  0.00    -0.344 N 
ATOM      9  C   UNL A   1      34.429  23.465  24.236  1.00  0.00     0.087 A 
ATOM     10  C   UNL A   1      32.650  24.363  23.222  1.00  0.00     0.100 A 
ATOM     11  C   UNL A   1      34.555  24.835  24.290  1.00  0.00     0.033 A 
BRANCH   8  12
ATOM     12  C   UNL A   1      32.705  21.865  23.348  1.00  0.00     0.221 C 
BRANCH  12  13
ATOM     13  C   UNL A   1      32.818  20.989  24.582  1.00  0.00     0.240 C 
ATOM     14  N   UNL A   1      31.899  21.109  25.585  1.00  0.00    -0.341 N 
ATOM     15  H   UNL A   1      31.951  20.440  26.305  1.00  0.00     0.164 HD
ATOM     16  O   UNL A   1      33.732  20.177  24.720  1.00  0.00    -0.273 OA
BRANCH  14  17
ATOM     17  C   UNL A   1      30.859  22.107  25.711  1.00  0.00     0.236 C 
BRANCH  17  18
ATOM     18  C   UNL A   1      31.227  23.293  26.588  1.00  0.00     0.084 C 
ATOM     19  N   UNL A   1      31.532  24.277  27.316  1.00  0.00    -0.196 NA
ENDBRANCH  17  18
ENDBRANCH  14  17
ENDBRANCH  12  13
ENDBRANCH   8  12
ENDBRANCH   4   7
ENDBRANCH   2   3
ENDBRANCH   1   2
BRANCH   1  20
ATOM     20  C   UNL A   1      33.440  29.170  26.228  1.00  0.00     0.023 C 
BRANCH  20  21
ATOM     21  C   UNL A   1      34.743  29.082  27.031  1.00  0.00     0.116 C 
BRANCH  21  22
ATOM     22  N   UNL A   1      35.280  30.407  27.293  1.00  0.00    -0.352 N 
ATOM     23  C   UNL A   1      36.337  30.793  28.074  1.00  0.00     0.251 C 
ATOM     24  H   UNL A   1      34.809  31.143  26.838  1.00  0.00     0.163 HD
ATOM     25  O   UNL A   1      36.354  31.946  28.503  1.00  0.00    -0.269 OA
BRANCH  23  26
ATOM     26  C   UNL A   1      37.445  29.876  28.417  1.00  0.00     0.039 A 
ATOM     27  C   UNL A   1      38.539  29.824  27.541  1.00  0.00     0.014 A 
ATOM     28  C   UNL A   1      37.377  28.994  29.502  1.00  0.00     0.014 A 
ATOM     29  C   UNL A   1      39.583  28.935  27.779  1.00  0.00     0.010 A 
ATOM     30  C   UNL A   1      38.428  28.108  29.750  1.00  0.00     0.010 A 
ATOM     31  C   UNL A   1      39.541  28.093  28.899  1.00  0.00    -0.014 A 
BRANCH  31  32
ATOM     32  C   UNL A   1      40.798  27.409  29.304  1.00  0.00     0.031 A 
ATOM     33  C   UNL A   1      41.078  26.205  28.345  1.00  0.00     0.074 A 
ATOM     34  C   UNL A   1      41.456  27.894  30.409  1.00  0.00     0.049 A 
ATOM     35  N   UNL A   1      41.737  25.102  28.532  1.00  0.00    -0.248 NA
ATOM     36  C   UNL A   1      40.455  26.198  26.983  1.00  0.00     0.031 C 
ATOM     37  C   UNL A   1      41.071  29.112  31.170  1.00  0.00     0.029 A 
ATOM     38  N   UNL A   1      42.569  27.492  31.126  1.00  0.00    -0.354 N 
ATOM     39  C   UNL A   1      41.847  24.441  27.277  1.00  0.00     0.074 A 
ATOM     40  C   UNL A   1      40.910  25.080  26.412  1.00  0.00     0.031 C 
ATOM     41  C   UNL A   1      41.858  29.289  32.260  1.00  0.00     0.029 A 
ATOM     42  C   UNL A   1      42.852  28.234  32.324  1.00  0.00     0.049 A 
ATOM     43  H   UNL A   1      43.135  26.742  30.834  1.00  0.00     0.167 HD
ATOM     44  C   UNL A   1      42.827  23.529  26.991  1.00  0.00     0.034 A 
ATOM     45  C   UNL A   1      43.799  27.990  33.295  1.00  0.00     0.034 A 
ATOM     46  C   UNL A   1      43.604  23.304  28.161  1.00  0.00     0.049 A 
ATOM     47  C   UNL A   1      44.625  26.936  32.694  1.00  0.00     0.074 A 
ATOM     48  C   UNL A   1      43.321  22.701  29.357  1.00  0.00     0.029 A 
ATOM     49  N   UNL A   1      44.749  24.054  28.288  1.00  0.00    -0.354 N 
ATOM     50  N   UNL A   1      45.487  27.133  31.745  1.00  0.00    -0.248 NA
ATOM     51  C   UNL A   1      44.441  25.548  33.141  1.00  0.00     0.031 C 
ATOM     52  C   UNL A   1      43.967  23.546  30.277  1.00  0.00     0.029 A 
ATOM     53  C   UNL A   1      44.822  24.429  29.601  1.00  0.00     0.049 A 
ATOM     54  H   UNL A   1      45.389  24.279  27.575  1.00  0.00     0.167 HD
ATOM     55  C   UNL A   1      45.686  25.867  31.267  1.00  0.00     0.074 A 
ATOM     56  C   UNL A   1      45.327  24.961  32.339  1.00  0.00     0.031 C 
ATOM     57  C   UNL A   1      45.549  25.632  29.937  1.00  0.00     0.034 A 
BRANCH  44  58
ATOM     58  C   UNL A   1      43.397  22.963  25.707  1.00  0.00     0.023 A 
ATOM     59  C   UNL A   1      43.482  21.545  25.640  1.00  0.00     0.031 A 
ATOM     60  C   UNL A   1      44.148  23.665  24.758  1.00  0.00     0.131 A 
ATOM     61  C   UNL A   1      44.414  20.897  24.820  1.00  0.00     0.055 A 
ATOM     62  C   UNL A   1      45.019  23.008  23.871  1.00  0.00     0.041 A 
ATOM     63  F   UNL A   1      44.139  25.003  24.703  1.00  0.00    -0.206 F 
ATOM     64  C   UNL A   1      45.194  21.625  23.933  1.00  0.00     0.022 A 
BRANCH  61  65
ATOM     65  S   UNL A   1      44.726  19.130  25.113  1.00  0.00     0.124 S 
ATOM     66  O   UNL A   1      46.067  19.149  25.687  1.00  0.00    -0.237 OA
ATOM     67  O   UNL A   1      43.645  18.778  26.029  1.00  0.00    -0.237 OA
ATOM     68  O   UNL A   1      44.625  18.543  23.778  1.00  0.00    -0.744 OA
ENDBRANCH  61  65
ENDBRANCH  44  58
BRANCH  45  69
ATOM     69  C   UNL A   1      44.248  28.399  34.709  1.00  0.00     0.023 A 
ATOM     70  C   UNL A   1      44.297  27.604  35.870  1.00  0.00     0.031 A 
ATOM     71  C   UNL A   1      44.769  29.727  34.901  1.00  0.00     0.131 A 
ATOM     72  C   UNL A   1      44.910  28.109  37.065  1.00  0.00     0.055 A 
ATOM     73  C   UNL A   1      45.454  30.174  36.030  1.00  0.00     0.041 A 
ATOM     74  F   UNL A   1      44.639  30.692  33.981  1.00  0.00    -0.206 F 
ATOM     75  C   UNL A   1      45.543  29.354  37.121  1.00  0.00     0.022 A 
BRANCH  72  76
ATOM     76  S   UNL A   1      44.925  27.165  38.625  1.00  0.00     0.124 S 
ATOM     77  O   UNL A   1      45.042  28.226  39.619  1.00  0.00    -0.237 OA
ATOM     78  O   UNL A   1      43.653  26.451  38.589  1.00  0.00    -0.237 OA
ATOM     79  O   UNL A   1      46.109  26.314  38.490  1.00  0.00    -0.744 OA
ENDBRANCH  72  76
ENDBRANCH  45  69
BRANCH  57  80
ATOM     80  C   UNL A   1      45.792  26.845  29.038  1.00  0.00     0.023 A 
ATOM     81  C   UNL A   1      44.702  27.610  28.576  1.00  0.00     0.031 A 
ATOM     82  C   UNL A   1      47.052  27.210  28.527  1.00  0.00     0.131 A 
ATOM     83  C   UNL A   1      44.883  28.650  27.640  1.00  0.00     0.055 A 
ATOM     84  C   UNL A   1      47.238  28.247  27.602  1.00  0.00     0.041 A 
ATOM     85  F   UNL A   1      48.156  26.565  28.897  1.00  0.00    -0.206 F 
ATOM     86  C   UNL A   1      46.147  28.973  27.149  1.00  0.00     0.022 A 
BRANCH  83  87
ATOM     87  S   UNL A   1      43.442  29.600  27.078  1.00  0.00     0.124 S 
ATOM     88  O   UNL A   1      42.830  30.026  28.331  1.00  0.00    -0.237 OA
ATOM     89  O   UNL A   1      44.053  30.653  26.273  1.00  0.00    -0.237 OA
ATOM     90  O   UNL A   1      42.664  28.623  26.315  1.00  0.00    -0.744 OA
ENDBRANCH  83  87
ENDBRANCH  57  80
ENDBRANCH  31  32
ENDBRANCH  23  26
ENDBRANCH  21  22
ENDBRANCH  20  21
ENDBRANCH   1  20
TORSDOF 18
ENDMDL
MODEL 2
REMARK VINA RESULT:     -11.0      4.405     10.008
REMARK SMILES N#CCNC(=O)Cn1ccc(C(=O)NCCCCNC(=O)c2ccc(-c3c4nc(c(-c5cc(S(=O)(=O)[O-])ccc5F)c5ccc([nH]5)c(-c5cc(S(=O)(=O)[O-])ccc5F)c5nc(c(-c6cc(S(=O)(=O)[O-])ccc6F)c6ccc3[nH]6)C=C5)C=C4)cc2)c1
REMARK SMILES IDX 16 1 15 2 14 3 12 4 13 5 11 7 8 8 9 9 85 10 10 11 7 12 5 13
REMARK SMILES IDX 4 14 6 16 3 17 2 18 1 19 17 20 18 21 19 22 20 23 21 25 22 26
REMARK SMILES IDX 23 27 84 28 24 29 83 30 25 31 26 32 27 33 77 34 28 35 82 36
REMARK SMILES IDX 76 37 78 38 29 39 81 40 75 41 74 42 30 44 62 45 42 46 61 47
REMARK SMILES IDX 43 48 46 49 60 50 79 51 44 52 45 53 59 55 80 56 47 57 31 58
REMARK SMILES IDX 32 59 40 60 33 61 39 62 41 63 38 64 34 65 35 66 36 67 37 68
REMARK SMILES IDX 63 69 64 70 72 71 65 72 71 73 73 74 70 75 66 76 67 77 68 78
REMARK SMILES IDX 69 79 48 80 49 81 57 82 50 83 56 84 58 85 55 86 51 87 52 88
REMARK SMILES IDX 53 89 54 90
REMARK H PARENT 14 6 4 15 19 24 78 43 46 54
REMARK Flexibility Score: inf
ROOT
ATOM      1  C   UNL A   1      36.799  21.561  25.406  1.00  0.00     0.023 C 
ENDROOT
BRANCH   1   2
ATOM      2  C   UNL A   1      35.430  21.520  26.086  1.00  0.00     0.116 C 
BRANCH   2   3
ATOM      3  N   UNL A   1      34.557  20.570  25.427  1.00  0.00    -0.352 N 
ATOM      4  C   UNL A   1      33.531  20.720  24.527  1.00  0.00     0.252 C 
ATOM      5  O   UNL A   1      32.996  19.698  24.113  1.00  0.00    -0.269 OA
ATOM      6  H   UNL A   1      34.733  19.633  25.675  1.00  0.00     0.163 HD
BRANCH   4   7
ATOM      7  C   UNL A   1      33.116  22.036  24.040  1.00  0.00     0.057 A 
ATOM      8  N   UNL A   1      31.971  23.876  23.460  1.00  0.00    -0.344 N 
ATOM      9  C   UNL A   1      33.287  24.164  23.229  1.00  0.00     0.087 A 
ATOM     10  C   UNL A   1      31.855  22.581  23.895  1.00  0.00     0.100 A 
ATOM     11  C   UNL A   1      34.013  23.037  23.543  1.00  0.00     0.033 A 
BRANCH   8  12
ATOM     12  C   UNL A   1      30.845  24.759  23.193  1.00  0.00     0.221 C 
BRANCH  12  13
ATOM     13  C   UNL A   1      31.295  26.092  22.622  1.00  0.00     0.240 C 
ATOM     14  N   UNL A   1      31.661  27.101  23.464  1.00  0.00    -0.341 N 
ATOM     15  H   UNL A   1      32.053  27.900  23.043  1.00  0.00     0.164 HD
ATOM     16  O   UNL A   1      31.323  26.302  21.409  1.00  0.00    -0.273 OA
BRANCH  14  17
ATOM     17  C   UNL A   1      31.538  27.133  24.906  1.00  0.00     0.236 C 
BRANCH  17  18
ATOM     18  C   UNL A   1      32.834  27.427  25.643  1.00  0.00     0.084 C 
ATOM     19  N   UNL A   1      33.910  27.670  26.254  1.00  0.00    -0.196 NA
ENDBRANCH  17  18
ENDBRANCH  14  17
ENDBRANCH  12  13
ENDBRANCH   8  12
ENDBRANCH   4   7
ENDBRANCH   2   3
ENDBRANCH   1   2
BRANCH   1  20
ATOM     20  C   UNL A   1      37.216  22.974  24.962  1.00  0.00     0.023 C 
BRANCH  20  21
ATOM     21  C   UNL A   1      37.672  23.882  26.110  1.00  0.00     0.116 C 
BRANCH  21  22
ATOM     22  N   UNL A   1      38.825  23.317  26.792  1.00  0.00    -0.352 N 
ATOM     23  C   UNL A   1      39.947  23.928  27.284  1.00  0.00     0.251 C 
ATOM     24  H   UNL A   1      38.793  22.341  26.919  1.00  0.00     0.163 HD
ATOM     25  O   UNL A   1      40.966  23.253  27.419  1.00  0.00    -0.269 OA
BRANCH  23  26
ATOM     26  C   UNL A   1      39.973  25.361  27.650  1.00  0.00     0.039 A 
ATOM     27  C   UNL A   1      39.575  25.706  28.949  1.00  0.00     0.014 A 
ATOM     28  C   UNL A   1      40.263  26.365  26.719  1.00  0.00     0.014 A 
ATOM     29  C   UNL A   1      39.520  27.043  29.331  1.00  0.00     0.010 A 
ATOM     30  C   UNL A   1      40.219  27.708  27.101  1.00  0.00     0.010 A 
ATOM     31  C   UNL A   1      39.867  28.046  28.415  1.00  0.00    -0.014 A 
BRANCH  31  32
ATOM     32  C   UNL A   1      40.118  29.413  28.941  1.00  0.00     0.031 A 
ATOM     33  C   UNL A   1      38.756  30.130  29.225  1.00  0.00     0.074 A 
ATOM     34  C   UNL A   1      41.426  29.818  29.056  1.00  0.00     0.049 A 
ATOM     35  N   UNL A   1      38.445  31.390  29.248  1.00  0.00    -0.248 NA
ATOM     36  C   UNL A   1      37.528  29.301  29.439  1.00  0.00     0.031 C 
ATOM     37  C   UNL A   1      42.614  28.962  28.799  1.00  0.00     0.029 A 
ATOM     38  N   UNL A   1      42.045  31.004  29.410  1.00  0.00    -0.354 N 
ATOM     39  C   UNL A   1      37.118  31.502  29.746  1.00  0.00     0.074 A 
ATOM     40  C   UNL A   1      36.563  30.189  29.690  1.00  0.00     0.031 C 
ATOM     41  C   UNL A   1      43.770  29.664  28.913  1.00  0.00     0.029 A 
ATOM     42  C   UNL A   1      43.476  31.036  29.277  1.00  0.00     0.049 A 
ATOM     43  H   UNL A   1      41.536  31.782  29.735  1.00  0.00     0.167 HD
ATOM     44  C   UNL A   1      36.627  32.639  30.331  1.00  0.00     0.034 A 
ATOM     45  C   UNL A   1      44.340  32.100  29.426  1.00  0.00     0.034 A 
ATOM     46  C   UNL A   1      37.614  33.661  30.252  1.00  0.00     0.049 A 
ATOM     47  C   UNL A   1      43.483  33.143  30.004  1.00  0.00     0.074 A 
ATOM     48  C   UNL A   1      38.132  34.366  29.200  1.00  0.00     0.029 A 
ATOM     49  N   UNL A   1      38.434  33.804  31.346  1.00  0.00    -0.354 N 
ATOM     50  N   UNL A   1      43.076  33.157  31.235  1.00  0.00    -0.248 NA
ATOM     51  C   UNL A   1      42.996  34.224  29.136  1.00  0.00     0.031 C 
ATOM     52  C   UNL A   1      39.499  34.432  29.530  1.00  0.00     0.029 A 
ATOM     53  C   UNL A   1      39.692  34.029  30.860  1.00  0.00     0.049 A 
ATOM     54  H   UNL A   1      38.169  33.753  32.293  1.00  0.00     0.167 HD
ATOM     55  C   UNL A   1      42.033  34.042  31.186  1.00  0.00     0.074 A 
ATOM     56  C   UNL A   1      42.264  34.884  30.030  1.00  0.00     0.031 C 
ATOM     57  C   UNL A   1      40.826  33.670  31.681  1.00  0.00     0.034 A 
BRANCH  44  58
ATOM     58  C   UNL A   1      35.448  32.934  31.235  1.00  0.00     0.023 A 
ATOM     59  C   UNL A   1      34.631  34.031  30.848  1.00  0.00     0.031 A 
ATOM     60  C   UNL A   1      35.286  32.486  32.552  1.00  0.00     0.131 A 
ATOM     61  C   UNL A   1      33.868  34.749  31.776  1.00  0.00     0.055 A 
ATOM     62  C   UNL A   1      34.450  33.155  33.462  1.00  0.00     0.041 A 
ATOM     63  F   UNL A   1      35.984  31.450  33.033  1.00  0.00    -0.206 F 
ATOM     64  C   UNL A   1      33.776  34.320  33.093  1.00  0.00     0.022 A 
BRANCH  61  65
ATOM     65  S   UNL A   1      33.199  36.361  31.266  1.00  0.00     0.124 S 
ATOM     66  O   UNL A   1      31.816  36.276  31.721  1.00  0.00    -0.237 OA
ATOM     67  O   UNL A   1      34.056  37.291  31.997  1.00  0.00    -0.237 OA
ATOM     68  O   UNL A   1      33.381  36.359  29.816  1.00  0.00    -0.744 OA
ENDBRANCH  61  65
ENDBRANCH  44  58
BRANCH  45  69
ATOM     69  C   UNL A   1      45.792  32.550  29.193  1.00  0.00     0.023 A 
ATOM     70  C   UNL A   1      46.413  32.886  27.975  1.00  0.00     0.031 A 
ATOM     71  C   UNL A   1      46.638  32.746  30.341  1.00  0.00     0.131 A 
ATOM     72  C   UNL A   1      47.732  33.453  27.969  1.00  0.00     0.055 A 
ATOM     73  C   UNL A   1      47.874  33.391  30.337  1.00  0.00     0.041 A 
ATOM     74  F   UNL A   1      46.306  32.310  31.564  1.00  0.00    -0.206 F 
ATOM     75  C   UNL A   1      48.424  33.766  29.142  1.00  0.00     0.022 A 
BRANCH  72  76
ATOM     76  S   UNL A   1      48.624  33.825  26.424  1.00  0.00     0.124 S 
ATOM     77  O   UNL A   1      49.439  34.971  26.813  1.00  0.00    -0.237 OA
ATOM     78  O   UNL A   1      49.343  32.585  26.152  1.00  0.00    -0.237 OA
ATOM     79  O   UNL A   1      47.547  34.128  25.479  1.00  0.00    -0.744 OA
ENDBRANCH  72  76
ENDBRANCH  45  69
BRANCH  57  80
ATOM     80  C   UNL A   1      40.875  32.595  32.767  1.00  0.00     0.023 A 
ATOM     81  C   UNL A   1      40.694  31.239  32.425  1.00  0.00     0.031 A 
ATOM     82  C   UNL A   1      40.982  32.867  34.144  1.00  0.00     0.131 A 
ATOM     83  C   UNL A   1      40.601  30.241  33.418  1.00  0.00     0.055 A 
ATOM     84  C   UNL A   1      40.896  31.877  35.134  1.00  0.00     0.041 A 
ATOM     85  F   UNL A   1      41.162  34.109  34.587  1.00  0.00    -0.206 F 
ATOM     86  C   UNL A   1      40.700  30.554  34.773  1.00  0.00     0.022 A 
BRANCH  83  87
ATOM     87  S   UNL A   1      40.366  28.512  32.920  1.00  0.00     0.124 S 
ATOM     88  O   UNL A   1      40.480  27.795  34.184  1.00  0.00    -0.237 OA
ATOM     89  O   UNL A   1      39.037  28.536  32.315  1.00  0.00    -0.237 OA
ATOM     90  O   UNL A   1      41.460  28.275  31.978  1.00  0.00    -0.744 OA
ENDBRANCH  83  87
ENDBRANCH  57  80
ENDBRANCH  31  32
ENDBRANCH  23  26
ENDBRANCH  21  22
ENDBRANCH  20  21
ENDBRANCH   1  20
TORSDOF 18
ENDMDL
MODEL 3
REMARK VINA RESULT:     -10.5      1.820      3.157
REMARK SMILES N#CCNC(=O)Cn1ccc(C(=O)NCCCCNC(=O)c2ccc(-c3c4nc(c(-c5cc(S(=O)(=O)[O-])ccc5F)c5ccc([nH]5)c(-c5cc(S(=O)(=O)[O-])ccc5F)c5nc(c(-c6cc(S(=O)(=O)[O-])ccc6F)c6ccc3[nH]6)C=C5)C=C4)cc2)c1
REMARK SMILES IDX 16 1 15 2 14 3 12 4 13 5 11 7 8 8 9 9 85 10 10 11 7 12 5 13
REMARK SMILES IDX 4 14 6 16 3 17 2 18 1 19 17 20 18 21 19 22 20 23 21 25 22 26
REMARK SMILES IDX 23 27 84 28 24 29 83 30 25 31 26 32 27 33 77 34 28 35 82 36
REMARK SMILES IDX 76 37 78 38 29 39 81 40 75 41 74 42 30 44 62 45 42 46 61 47
REMARK SMILES IDX 43 48 46 49 60 50 79 51 44 52 45 53 59 55 80 56 47 57 31 58
REMARK SMILES IDX 32 59 40 60 33 61 39 62 41 63 38 64 34 65 35 66 36 67 37 68
REMARK SMILES IDX 63 69 64 70 72 71 65 72 71 73 73 74 70 75 66 76 67 77 68 78
REMARK SMILES IDX 69 79 48 80 49 81 57 82 50 83 56 84 58 85 55 86 51 87 52 88
REMARK SMILES IDX 53 89 54 90
REMARK H PARENT 14 6 4 15 19 24 78 43 46 54
REMARK Flexibility Score: inf
ROOT
ATOM      1  C   UNL A   1      33.737  26.774  26.177  1.00  0.00     0.023 C 
ENDROOT
BRANCH   1   2
ATOM      2  C   UNL A   1      34.523  25.764  25.340  1.00  0.00     0.116 C 
BRANCH   2   3
ATOM      3  N   UNL A   1      33.626  24.923  24.573  1.00  0.00    -0.352 N 
ATOM      4  C   UNL A   1      32.759  25.188  23.542  1.00  0.00     0.252 C 
ATOM      5  O   UNL A   1      32.151  24.236  23.063  1.00  0.00    -0.269 OA
ATOM      6  H   UNL A   1      33.640  23.977  24.845  1.00  0.00     0.163 HD
BRANCH   4   7
ATOM      7  C   UNL A   1      32.591  26.536  22.998  1.00  0.00     0.057 A 
ATOM      8  N   UNL A   1      31.802  28.530  22.335  1.00  0.00    -0.344 N 
ATOM      9  C   UNL A   1      33.149  28.562  22.104  1.00  0.00     0.087 A 
ATOM     10  C   UNL A   1      31.452  27.296  22.821  1.00  0.00     0.100 A 
ATOM     11  C   UNL A   1      33.657  27.336  22.470  1.00  0.00     0.033 A 
BRANCH   8  12
ATOM     12  C   UNL A   1      30.857  29.592  22.023  1.00  0.00     0.221 C 
BRANCH  12  13
ATOM     13  C   UNL A   1      29.745  29.679  23.053  1.00  0.00     0.240 C 
ATOM     14  N   UNL A   1      28.482  30.014  22.660  1.00  0.00    -0.341 N 
ATOM     15  H   UNL A   1      27.779  29.943  23.345  1.00  0.00     0.164 HD
ATOM     16  O   UNL A   1      29.951  29.473  24.249  1.00  0.00    -0.273 OA
BRANCH  14  17
ATOM     17  C   UNL A   1      28.057  30.463  21.351  1.00  0.00     0.236 C 
BRANCH  17  18
ATOM     18  C   UNL A   1      27.905  31.970  21.221  1.00  0.00     0.084 C 
ATOM     19  N   UNL A   1      27.778  33.220  21.113  1.00  0.00    -0.196 NA
ENDBRANCH  17  18
ENDBRANCH  14  17
ENDBRANCH  12  13
ENDBRANCH   8  12
ENDBRANCH   4   7
ENDBRANCH   2   3
ENDBRANCH   1   2
BRANCH   1  20
ATOM     20  C   UNL A   1      34.314  28.198  26.111  1.00  0.00     0.023 C 
BRANCH  20  21
ATOM     21  C   UNL A   1      34.372  28.914  27.466  1.00  0.00     0.116 C 
BRANCH  21  22
ATOM     22  N   UNL A   1      34.989  30.223  27.334  1.00  0.00    -0.352 N 
ATOM     23  C   UNL A   1      36.170  30.698  27.840  1.00  0.00     0.251 C 
ATOM     24  H   UNL A   1      34.477  30.871  26.796  1.00  0.00     0.163 HD
ATOM     25  O   UNL A   1      36.295  31.913  27.985  1.00  0.00    -0.269 OA
BRANCH  23  26
ATOM     26  C   UNL A   1      37.286  29.805  28.217  1.00  0.00     0.039 A 
ATOM     27  C   UNL A   1      38.367  29.706  27.330  1.00  0.00     0.014 A 
ATOM     28  C   UNL A   1      37.237  28.985  29.351  1.00  0.00     0.014 A 
ATOM     29  C   UNL A   1      39.418  28.835  27.602  1.00  0.00     0.010 A 
ATOM     30  C   UNL A   1      38.294  28.117  29.633  1.00  0.00     0.010 A 
ATOM     31  C   UNL A   1      39.396  28.057  28.768  1.00  0.00    -0.014 A 
BRANCH  31  32
ATOM     32  C   UNL A   1      40.660  27.401  29.192  1.00  0.00     0.031 A 
ATOM     33  C   UNL A   1      40.969  26.188  28.252  1.00  0.00     0.074 A 
ATOM     34  C   UNL A   1      41.301  27.912  30.295  1.00  0.00     0.049 A 
ATOM     35  N   UNL A   1      41.644  25.100  28.460  1.00  0.00    -0.248 NA
ATOM     36  C   UNL A   1      40.356  26.152  26.886  1.00  0.00     0.031 C 
ATOM     37  C   UNL A   1      40.890  29.134  31.036  1.00  0.00     0.029 A 
ATOM     38  N   UNL A   1      42.415  27.540  31.027  1.00  0.00    -0.354 N 
ATOM     39  C   UNL A   1      41.776  24.424  27.216  1.00  0.00     0.074 A 
ATOM     40  C   UNL A   1      40.835  25.034  26.334  1.00  0.00     0.031 C 
ATOM     41  C   UNL A   1      41.665  29.340  32.130  1.00  0.00     0.029 A 
ATOM     42  C   UNL A   1      42.676  28.303  32.216  1.00  0.00     0.049 A 
ATOM     43  H   UNL A   1      42.996  26.795  30.749  1.00  0.00     0.167 HD
ATOM     44  C   UNL A   1      42.773  23.524  26.950  1.00  0.00     0.034 A 
ATOM     45  C   UNL A   1      43.619  28.089  33.198  1.00  0.00     0.034 A 
ATOM     46  C   UNL A   1      43.544  23.329  28.129  1.00  0.00     0.049 A 
ATOM     47  C   UNL A   1      44.468  27.040  32.618  1.00  0.00     0.074 A 
ATOM     48  C   UNL A   1      43.262  22.738  29.331  1.00  0.00     0.029 A 
ATOM     49  N   UNL A   1      44.676  24.101  28.255  1.00  0.00    -0.354 N 
ATOM     50  N   UNL A   1      45.333  27.240  31.674  1.00  0.00    -0.248 NA
ATOM     51  C   UNL A   1      44.304  25.656  33.083  1.00  0.00     0.031 C 
ATOM     52  C   UNL A   1      43.887  23.607  30.244  1.00  0.00     0.029 A 
ATOM     53  C   UNL A   1      44.732  24.495  29.562  1.00  0.00     0.049 A 
ATOM     54  H   UNL A   1      45.318  24.326  27.543  1.00  0.00     0.167 HD
ATOM     55  C   UNL A   1      45.558  25.970  31.215  1.00  0.00     0.074 A 
ATOM     56  C   UNL A   1      45.206  25.073  32.296  1.00  0.00     0.031 C 
ATOM     57  C   UNL A   1      45.435  25.715  29.887  1.00  0.00     0.034 A 
BRANCH  44  58
ATOM     58  C   UNL A   1      43.363  22.950  25.678  1.00  0.00     0.023 A 
ATOM     59  C   UNL A   1      43.466  21.532  25.629  1.00  0.00     0.031 A 
ATOM     60  C   UNL A   1      44.116  23.650  24.728  1.00  0.00     0.131 A 
ATOM     61  C   UNL A   1      44.414  20.887  24.826  1.00  0.00     0.055 A 
ATOM     62  C   UNL A   1      45.004  22.994  23.859  1.00  0.00     0.041 A 
ATOM     63  F   UNL A   1      44.091  24.987  24.658  1.00  0.00    -0.206 F 
ATOM     64  C   UNL A   1      45.194  21.614  23.938  1.00  0.00     0.022 A 
BRANCH  61  65
ATOM     65  S   UNL A   1      44.744  19.127  25.143  1.00  0.00     0.124 S 
ATOM     66  O   UNL A   1      46.037  19.176  25.816  1.00  0.00    -0.237 OA
ATOM     67  O   UNL A   1      43.605  18.749  25.975  1.00  0.00    -0.237 OA
ATOM     68  O   UNL A   1      44.757  18.540  23.805  1.00  0.00    -0.744 OA
ENDBRANCH  61  65
ENDBRANCH  44  58
BRANCH  45  69
ATOM     69  C   UNL A   1      44.049  28.525  34.609  1.00  0.00     0.023 A 
ATOM     70  C   UNL A   1      44.223  27.722  35.752  1.00  0.00     0.031 A 
ATOM     71  C   UNL A   1      44.410  29.903  34.816  1.00  0.00     0.131 A 
ATOM     72  C   UNL A   1      44.800  28.278  36.944  1.00  0.00     0.055 A 
ATOM     73  C   UNL A   1      45.063  30.410  35.938  1.00  0.00     0.041 A 
ATOM     74  F   UNL A   1      44.142  30.861  33.918  1.00  0.00    -0.206 F 
ATOM     75  C   UNL A   1      45.278  29.589  37.010  1.00  0.00     0.022 A 
BRANCH  72  76
ATOM     76  S   UNL A   1      44.967  27.316  38.483  1.00  0.00     0.124 S 
ATOM     77  O   UNL A   1      46.099  26.449  38.176  1.00  0.00    -0.237 OA
ATOM     78  O   UNL A   1      45.197  28.345  39.491  1.00  0.00    -0.237 OA
ATOM     79  O   UNL A   1      43.678  26.629  38.592  1.00  0.00    -0.744 OA
ENDBRANCH  72  76
ENDBRANCH  45  69
BRANCH  57  80
ATOM     80  C   UNL A   1      45.665  26.919  28.973  1.00  0.00     0.023 A 
ATOM     81  C   UNL A   1      44.570  27.690  28.534  1.00  0.00     0.031 A 
ATOM     82  C   UNL A   1      46.914  27.269  28.426  1.00  0.00     0.131 A 
ATOM     83  C   UNL A   1      44.735  28.721  27.586  1.00  0.00     0.055 A 
ATOM     84  C   UNL A   1      47.084  28.298  27.488  1.00  0.00     0.041 A 
ATOM     85  F   UNL A   1      48.022  26.617  28.772  1.00  0.00    -0.206 F 
ATOM     86  C   UNL A   1      45.989  29.030  27.059  1.00  0.00     0.022 A 
BRANCH  83  87
ATOM     87  S   UNL A   1      43.288  29.680  27.055  1.00  0.00     0.124 S 
ATOM     88  O   UNL A   1      42.631  29.996  28.318  1.00  0.00    -0.237 OA
ATOM     89  O   UNL A   1      43.896  30.806  26.352  1.00  0.00    -0.237 OA
ATOM     90  O   UNL A   1      42.556  28.748  26.197  1.00  0.00    -0.744 OA
ENDBRANCH  83  87
ENDBRANCH  57  80
ENDBRANCH  31  32
ENDBRANCH  23  26
ENDBRANCH  21  22
ENDBRANCH  20  21
ENDBRANCH   1  20
TORSDOF 18
ENDMDL
