MODEL 1
REMARK VINA RESULT:     -12.1      0.000      0.000
REMARK SMILES C#CCNC(=O)N[C@@]1(C(=O)NCCCCNC(=O)c2ccc(-c3c4nc(c(-c5cc(S(=O)(=O)[O-])ccc5F)c5ccc([nH]5)c(-c5cc(S(=O)(=O)[O-])ccc5F)c5nc(c(-c6cc(S(=O)(=O)[O-])ccc6F)c6ccc3[nH]6)C=C5)C=C4)cc2)CCc2ccccc21
REMARK SMILES IDX 13 1 12 2 11 3 9 4 10 5 8 7 82 8 89 9 83 10 84 11 88 12
REMARK SMILES IDX 85 13 87 14 86 15 7 16 4 17 5 18 6 20 3 22 2 23 1 24 14 25
REMARK SMILES IDX 15 26 16 27 17 28 18 30 19 31 20 32 81 33 21 34 80 35 22 36
REMARK SMILES IDX 23 37 24 38 74 39 25 40 79 41 73 42 75 43 26 44 78 45 72 46
REMARK SMILES IDX 71 47 27 49 59 50 39 51 58 52 40 53 43 54 57 55 76 56 41 57
REMARK SMILES IDX 42 58 56 60 77 61 44 62 28 63 29 64 37 65 30 66 36 67 38 68
REMARK SMILES IDX 35 69 31 70 32 71 33 72 34 73 60 74 61 75 69 76 62 77 68 78
REMARK SMILES IDX 70 79 67 80 63 81 64 82 65 83 66 84 45 85 46 86 54 87 47 88
REMARK SMILES IDX 53 89 55 90 52 91 48 92 49 93 50 94 51 95
REMARK H PARENT 11 6 4 19 7 21 16 29 75 48 43 59
REMARK Flexibility Score: inf
ROOT
ATOM      1  C   UNL A   1      33.283  28.746  24.984  1.00  0.00     0.023 C 
ENDROOT
BRANCH   1   2
ATOM      2  C   UNL A   1      33.336  27.385  25.672  1.00  0.00     0.116 C 
BRANCH   2   3
ATOM      3  N   UNL A   1      32.042  26.775  25.917  1.00  0.00    -0.354 N 
ATOM      4  C   UNL A   1      31.420  25.730  25.273  1.00  0.00     0.250 C 
ATOM      5  O   UNL A   1      30.268  25.473  25.642  1.00  0.00    -0.272 OA
ATOM      6  H   UNL A   1      31.529  27.171  26.658  1.00  0.00     0.163 HD
BRANCH   4   7
ATOM      7  C   UNL A   1      32.185  24.782  24.291  1.00  0.00     0.146 C 
ATOM      8  C   UNL A   1      31.231  23.835  23.482  1.00  0.00     0.048 C 
ATOM      9  C   UNL A   1      32.876  23.654  25.086  1.00  0.00    -0.010 A 
ATOM     10  C   UNL A   1      32.093  22.618  23.087  1.00  0.00     0.039 C 
ATOM     11  C   UNL A   1      32.892  22.451  24.339  1.00  0.00    -0.042 A 
ATOM     12  C   UNL A   1      33.614  23.744  26.267  1.00  0.00     0.007 A 
ATOM     13  C   UNL A   1      33.760  21.412  24.658  1.00  0.00     0.004 A 
ATOM     14  C   UNL A   1      34.472  22.685  26.605  1.00  0.00     0.000 A 
ATOM     15  C   UNL A   1      34.571  21.547  25.787  1.00  0.00     0.000 A 
BRANCH   7  16
ATOM     16  N   UNL A   1      32.902  25.544  23.187  1.00  0.00    -0.320 N 
ATOM     17  N   UNL A   1      31.548  26.803  21.726  1.00  0.00    -0.327 N 
ATOM     18  C   UNL A   1      32.708  26.236  22.055  1.00  0.00     0.316 C 
ATOM     19  H   UNL A   1      31.373  26.980  20.774  1.00  0.00     0.166 HD
ATOM     20  O   UNL A   1      33.653  26.332  21.270  1.00  0.00    -0.249 OA
ATOM     21  H   UNL A   1      33.868  25.519  23.373  1.00  0.00     0.166 HD
BRANCH  17  22
ATOM     22  C   UNL A   1      30.558  27.166  22.663  1.00  0.00     0.207 C 
BRANCH  22  23
ATOM     23  C   UNL A   1      30.063  28.588  22.456  1.00  0.00    -0.085 C 
ATOM     24  C   UNL A   1      29.639  29.808  22.279  1.00  0.00     0.006 C 
ENDBRANCH  22  23
ENDBRANCH  17  22
ENDBRANCH   7  16
ENDBRANCH   4   7
ENDBRANCH   2   3
ENDBRANCH   1   2
BRANCH   1  25
ATOM     25  C   UNL A   1      32.086  29.617  25.339  1.00  0.00     0.023 C 
BRANCH  25  26
ATOM     26  C   UNL A   1      32.084  30.148  26.767  1.00  0.00     0.116 C 
BRANCH  26  27
ATOM     27  N   UNL A   1      32.101  31.605  26.830  1.00  0.00    -0.352 N 
ATOM     28  C   UNL A   1      33.023  32.443  27.414  1.00  0.00     0.251 C 
ATOM     29  H   UNL A   1      31.344  32.054  26.390  1.00  0.00     0.163 HD
ATOM     30  O   UNL A   1      32.778  33.644  27.522  1.00  0.00    -0.269 OA
BRANCH  28  31
ATOM     31  C   UNL A   1      34.290  31.890  27.940  1.00  0.00     0.039 A 
ATOM     32  C   UNL A   1      35.364  32.746  28.184  1.00  0.00     0.014 A 
ATOM     33  C   UNL A   1      34.400  30.528  28.227  1.00  0.00     0.014 A 
ATOM     34  C   UNL A   1      36.518  32.249  28.795  1.00  0.00     0.010 A 
ATOM     35  C   UNL A   1      35.503  30.057  28.929  1.00  0.00     0.010 A 
ATOM     36  C   UNL A   1      36.580  30.910  29.216  1.00  0.00    -0.014 A 
BRANCH  36  37
ATOM     37  C   UNL A   1      37.768  30.380  29.939  1.00  0.00     0.031 A 
ATOM     38  C   UNL A   1      38.038  30.806  31.358  1.00  0.00     0.074 A 
ATOM     39  C   UNL A   1      38.632  29.563  29.303  1.00  0.00     0.049 A 
ATOM     40  N   UNL A   1      39.042  30.499  32.138  1.00  0.00    -0.248 NA
ATOM     41  C   UNL A   1      37.069  31.731  31.965  1.00  0.00     0.031 C 
ATOM     42  C   UNL A   1      38.508  29.121  27.912  1.00  0.00     0.029 A 
ATOM     43  N   UNL A   1      39.788  28.962  29.738  1.00  0.00    -0.354 N 
ATOM     44  C   UNL A   1      38.832  31.202  33.321  1.00  0.00     0.074 A 
ATOM     45  C   UNL A   1      37.649  32.010  33.122  1.00  0.00     0.031 C 
ATOM     46  C   UNL A   1      39.523  28.291  27.622  1.00  0.00     0.029 A 
ATOM     47  C   UNL A   1      40.400  28.181  28.783  1.00  0.00     0.049 A 
ATOM     48  H   UNL A   1      40.144  29.077  30.648  1.00  0.00     0.167 HD
ATOM     49  C   UNL A   1      39.543  31.157  34.475  1.00  0.00     0.034 A 
ATOM     50  C   UNL A   1      41.542  27.467  28.834  1.00  0.00     0.034 A 
ATOM     51  C   UNL A   1      40.716  30.338  34.657  1.00  0.00     0.049 A 
ATOM     52  C   UNL A   1      42.331  27.449  30.118  1.00  0.00     0.074 A 
ATOM     53  C   UNL A   1      41.477  30.166  35.800  1.00  0.00     0.029 A 
ATOM     54  N   UNL A   1      41.310  29.564  33.666  1.00  0.00    -0.354 N 
ATOM     55  N   UNL A   1      42.083  28.068  31.250  1.00  0.00    -0.248 NA
ATOM     56  C   UNL A   1      43.545  26.625  30.136  1.00  0.00     0.031 C 
ATOM     57  C   UNL A   1      42.575  29.362  35.478  1.00  0.00     0.029 A 
ATOM     58  C   UNL A   1      42.449  28.948  34.162  1.00  0.00     0.049 A 
ATOM     59  H   UNL A   1      40.970  29.467  32.747  1.00  0.00     0.167 HD
ATOM     60  C   UNL A   1      43.095  27.681  32.125  1.00  0.00     0.074 A 
ATOM     61  C   UNL A   1      43.945  26.764  31.392  1.00  0.00     0.031 C 
ATOM     62  C   UNL A   1      43.300  28.046  33.418  1.00  0.00     0.034 A 
BRANCH  49  63
ATOM     63  C   UNL A   1      39.082  32.043  35.610  1.00  0.00     0.023 A 
ATOM     64  C   UNL A   1      39.483  33.389  35.712  1.00  0.00     0.031 A 
ATOM     65  C   UNL A   1      38.263  31.527  36.630  1.00  0.00     0.131 A 
ATOM     66  C   UNL A   1      39.144  34.138  36.850  1.00  0.00     0.055 A 
ATOM     67  C   UNL A   1      37.848  32.308  37.711  1.00  0.00     0.041 A 
ATOM     68  F   UNL A   1      37.865  30.245  36.604  1.00  0.00    -0.206 F 
ATOM     69  C   UNL A   1      38.305  33.617  37.836  1.00  0.00     0.022 A 
BRANCH  66  70
ATOM     70  S   UNL A   1      39.961  35.737  37.106  1.00  0.00     0.124 S 
ATOM     71  O   UNL A   1      39.285  36.224  38.307  1.00  0.00    -0.237 OA
ATOM     72  O   UNL A   1      41.359  35.355  37.270  1.00  0.00    -0.237 OA
ATOM     73  O   UNL A   1      39.654  36.479  35.885  1.00  0.00    -0.744 OA
ENDBRANCH  66  70
ENDBRANCH  49  63
BRANCH  50  74
ATOM     74  C   UNL A   1      42.017  26.719  27.631  1.00  0.00     0.023 A 
ATOM     75  C   UNL A   1      41.770  25.345  27.484  1.00  0.00     0.031 A 
ATOM     76  C   UNL A   1      42.754  27.367  26.623  1.00  0.00     0.131 A 
ATOM     77  C   UNL A   1      42.290  24.654  26.377  1.00  0.00     0.055 A 
ATOM     78  C   UNL A   1      43.220  26.688  25.496  1.00  0.00     0.041 A 
ATOM     79  F   UNL A   1      43.018  28.680  26.713  1.00  0.00    -0.206 F 
ATOM     80  C   UNL A   1      42.998  25.320  25.375  1.00  0.00     0.022 A 
BRANCH  77  81
ATOM     81  S   UNL A   1      42.099  22.851  26.307  1.00  0.00     0.124 S 
ATOM     82  O   UNL A   1      42.889  22.424  27.455  1.00  0.00    -0.237 OA
ATOM     83  O   UNL A   1      40.653  22.695  26.426  1.00  0.00    -0.237 OA
ATOM     84  O   UNL A   1      42.654  22.502  25.001  1.00  0.00    -0.744 OA
ENDBRANCH  77  81
ENDBRANCH  50  74
BRANCH  62  85
ATOM     85  C   UNL A   1      44.467  27.410  34.136  1.00  0.00     0.023 A 
ATOM     86  C   UNL A   1      44.341  26.197  34.835  1.00  0.00     0.031 A 
ATOM     87  C   UNL A   1      45.726  28.038  34.130  1.00  0.00     0.131 A 
ATOM     88  C   UNL A   1      45.435  25.684  35.551  1.00  0.00     0.055 A 
ATOM     89  C   UNL A   1      46.829  27.487  34.783  1.00  0.00     0.041 A 
ATOM     90  F   UNL A   1      45.906  29.203  33.486  1.00  0.00    -0.206 F 
ATOM     91  C   UNL A   1      46.683  26.310  35.511  1.00  0.00     0.022 A 
BRANCH  88  92
ATOM     92  S   UNL A   1      45.173  24.251  36.630  1.00  0.00     0.124 S 
ATOM     93  O   UNL A   1      44.348  23.388  35.792  1.00  0.00    -0.237 OA
ATOM     94  O   UNL A   1      46.535  23.790  36.873  1.00  0.00    -0.237 OA
ATOM     95  O   UNL A   1      44.494  24.817  37.795  1.00  0.00    -0.744 OA
ENDBRANCH  88  92
ENDBRANCH  62  85
ENDBRANCH  36  37
ENDBRANCH  28  31
ENDBRANCH  26  27
ENDBRANCH  25  26
ENDBRANCH   1  25
TORSDOF 17
ENDMDL
MODEL 2
REMARK VINA RESULT:     -11.9      4.997      7.991
REMARK SMILES C#CCNC(=O)N[C@@]1(C(=O)NCCCCNC(=O)c2ccc(-c3c4nc(c(-c5cc(S(=O)(=O)[O-])ccc5F)c5ccc([nH]5)c(-c5cc(S(=O)(=O)[O-])ccc5F)c5nc(c(-c6cc(S(=O)(=O)[O-])ccc6F)c6ccc3[nH]6)C=C5)C=C4)cc2)CCc2ccccc21
REMARK SMILES IDX 13 1 12 2 11 3 9 4 10 5 8 7 82 8 89 9 83 10 84 11 88 12
REMARK SMILES IDX 85 13 87 14 86 15 7 16 4 17 5 18 6 20 3 22 2 23 1 24 14 25
REMARK SMILES IDX 15 26 16 27 17 28 18 30 19 31 20 32 81 33 21 34 80 35 22 36
REMARK SMILES IDX 23 37 24 38 74 39 25 40 79 41 73 42 75 43 26 44 78 45 72 46
REMARK SMILES IDX 71 47 27 49 59 50 39 51 58 52 40 53 43 54 57 55 76 56 41 57
REMARK SMILES IDX 42 58 56 60 77 61 44 62 28 63 29 64 37 65 30 66 36 67 38 68
REMARK SMILES IDX 35 69 31 70 32 71 33 72 34 73 60 74 61 75 69 76 62 77 68 78
REMARK SMILES IDX 70 79 67 80 63 81 64 82 65 83 66 84 45 85 46 86 54 87 47 88
REMARK SMILES IDX 53 89 55 90 52 91 48 92 49 93 50 94 51 95
REMARK H PARENT 11 6 4 19 7 21 16 29 75 48 43 59
REMARK Flexibility Score: inf
ROOT
ATOM      1  C   UNL A   1      35.485  22.894  26.117  1.00  0.00     0.023 C 
ENDROOT
BRANCH   1   2
ATOM      2  C   UNL A   1      35.148  24.144  25.309  1.00  0.00     0.116 C 
BRANCH   2   3
ATOM      3  N   UNL A   1      34.650  23.888  23.970  1.00  0.00    -0.354 N 
ATOM      4  C   UNL A   1      33.376  23.996  23.463  1.00  0.00     0.250 C 
ATOM      5  O   UNL A   1      33.223  23.627  22.293  1.00  0.00    -0.272 OA
ATOM      6  H   UNL A   1      35.330  23.590  23.323  1.00  0.00     0.163 HD
BRANCH   4   7
ATOM      7  C   UNL A   1      32.233  24.738  24.233  1.00  0.00     0.146 C 
ATOM      8  C   UNL A   1      30.811  24.476  23.624  1.00  0.00     0.048 C 
ATOM      9  C   UNL A   1      32.266  26.243  23.892  1.00  0.00    -0.010 A 
ATOM     10  C   UNL A   1      29.952  25.689  24.041  1.00  0.00     0.039 C 
ATOM     11  C   UNL A   1      30.957  26.783  23.879  1.00  0.00    -0.042 A 
ATOM     12  C   UNL A   1      33.367  27.098  23.819  1.00  0.00     0.007 A 
ATOM     13  C   UNL A   1      30.738  28.153  23.968  1.00  0.00     0.004 A 
ATOM     14  C   UNL A   1      33.147  28.483  23.882  1.00  0.00     0.000 A 
ATOM     15  C   UNL A   1      31.846  29.003  23.994  1.00  0.00     0.000 A 
BRANCH   7  16
ATOM     16  N   UNL A   1      32.074  24.239  25.661  1.00  0.00    -0.320 N 
ATOM     17  N   UNL A   1      31.429  21.988  25.925  1.00  0.00    -0.327 N 
ATOM     18  C   UNL A   1      31.617  23.219  26.401  1.00  0.00     0.316 C 
ATOM     19  H   UNL A   1      30.790  21.404  26.393  1.00  0.00     0.166 HD
ATOM     20  O   UNL A   1      31.338  23.442  27.581  1.00  0.00    -0.249 OA
ATOM     21  H   UNL A   1      32.444  24.921  26.268  1.00  0.00     0.166 HD
BRANCH  17  22
ATOM     22  C   UNL A   1      32.095  21.475  24.793  1.00  0.00     0.207 C 
BRANCH  22  23
ATOM     23  C   UNL A   1      32.483  20.016  24.965  1.00  0.00    -0.085 C 
ATOM     24  C   UNL A   1      32.817  18.764  25.112  1.00  0.00     0.006 C 
ENDBRANCH  22  23
ENDBRANCH  17  22
ENDBRANCH   7  16
ENDBRANCH   4   7
ENDBRANCH   2   3
ENDBRANCH   1   2
BRANCH   1  25
ATOM     25  C   UNL A   1      35.838  21.658  25.301  1.00  0.00     0.023 C 
BRANCH  25  26
ATOM     26  C   UNL A   1      37.256  21.645  24.743  1.00  0.00     0.116 C 
BRANCH  26  27
ATOM     27  N   UNL A   1      38.065  20.556  25.276  1.00  0.00    -0.352 N 
ATOM     28  C   UNL A   1      39.242  20.609  25.988  1.00  0.00     0.251 C 
ATOM     29  H   UNL A   1      37.720  19.651  25.102  1.00  0.00     0.163 HD
ATOM     30  O   UNL A   1      39.877  19.577  26.201  1.00  0.00    -0.269 OA
BRANCH  28  31
ATOM     31  C   UNL A   1      39.754  21.912  26.465  1.00  0.00     0.039 A 
ATOM     32  C   UNL A   1      40.823  21.943  27.362  1.00  0.00     0.014 A 
ATOM     33  C   UNL A   1      39.198  23.104  25.995  1.00  0.00     0.014 A 
ATOM     34  C   UNL A   1      41.389  23.170  27.718  1.00  0.00     0.010 A 
ATOM     35  C   UNL A   1      39.828  24.313  26.267  1.00  0.00     0.010 A 
ATOM     36  C   UNL A   1      40.927  24.363  27.138  1.00  0.00    -0.014 A 
BRANCH  36  37
ATOM     37  C   UNL A   1      41.567  25.671  27.444  1.00  0.00     0.031 A 
ATOM     38  C   UNL A   1      40.823  26.705  28.246  1.00  0.00     0.074 A 
ATOM     39  C   UNL A   1      42.792  25.949  26.953  1.00  0.00     0.049 A 
ATOM     40  N   UNL A   1      41.185  27.919  28.573  1.00  0.00    -0.248 NA
ATOM     41  C   UNL A   1      39.476  26.337  28.709  1.00  0.00     0.031 C 
ATOM     42  C   UNL A   1      43.592  25.051  26.118  1.00  0.00     0.029 A 
ATOM     43  N   UNL A   1      43.578  27.068  27.079  1.00  0.00    -0.354 N 
ATOM     44  C   UNL A   1      40.107  28.462  29.267  1.00  0.00     0.074 A 
ATOM     45  C   UNL A   1      39.053  27.472  29.242  1.00  0.00     0.031 C 
ATOM     46  C   UNL A   1      44.768  25.638  25.841  1.00  0.00     0.029 A 
ATOM     47  C   UNL A   1      44.788  26.972  26.430  1.00  0.00     0.049 A 
ATOM     48  H   UNL A   1      43.302  27.864  27.588  1.00  0.00     0.167 HD
ATOM     49  C   UNL A   1      40.016  29.663  29.891  1.00  0.00     0.034 A 
ATOM     50  C   UNL A   1      45.794  27.862  26.312  1.00  0.00     0.034 A 
ATOM     51  C   UNL A   1      41.082  30.633  29.911  1.00  0.00     0.049 A 
ATOM     52  C   UNL A   1      45.663  29.201  26.992  1.00  0.00     0.074 A 
ATOM     53  C   UNL A   1      41.124  31.854  30.562  1.00  0.00     0.029 A 
ATOM     54  N   UNL A   1      42.292  30.504  29.237  1.00  0.00    -0.354 N 
ATOM     55  N   UNL A   1      44.664  29.674  27.701  1.00  0.00    -0.248 NA
ATOM     56  C   UNL A   1      46.802  30.119  26.869  1.00  0.00     0.031 C 
ATOM     57  C   UNL A   1      42.315  32.497  30.213  1.00  0.00     0.029 A 
ATOM     58  C   UNL A   1      43.066  31.640  29.424  1.00  0.00     0.049 A 
ATOM     59  H   UNL A   1      42.559  29.720  28.705  1.00  0.00     0.167 HD
ATOM     60  C   UNL A   1      45.068  30.934  28.135  1.00  0.00     0.074 A 
ATOM     61  C   UNL A   1      46.407  31.137  27.620  1.00  0.00     0.031 C 
ATOM     62  C   UNL A   1      44.396  31.839  28.894  1.00  0.00     0.034 A 
BRANCH  49  63
ATOM     63  C   UNL A   1      38.706  29.995  30.570  1.00  0.00     0.023 A 
ATOM     64  C   UNL A   1      37.702  30.739  29.923  1.00  0.00     0.031 A 
ATOM     65  C   UNL A   1      38.473  29.599  31.899  1.00  0.00     0.131 A 
ATOM     66  C   UNL A   1      36.560  31.141  30.633  1.00  0.00     0.055 A 
ATOM     67  C   UNL A   1      37.289  29.919  32.568  1.00  0.00     0.041 A 
ATOM     68  F   UNL A   1      39.401  28.907  32.580  1.00  0.00    -0.206 F 
ATOM     69  C   UNL A   1      36.332  30.712  31.941  1.00  0.00     0.022 A 
BRANCH  66  70
ATOM     70  S   UNL A   1      35.466  32.378  29.880  1.00  0.00     0.124 S 
ATOM     71  O   UNL A   1      35.086  31.715  28.633  1.00  0.00    -0.237 OA
ATOM     72  O   UNL A   1      34.412  32.516  30.877  1.00  0.00    -0.237 OA
ATOM     73  O   UNL A   1      36.330  33.545  29.715  1.00  0.00    -0.744 OA
ENDBRANCH  66  70
ENDBRANCH  49  63
BRANCH  50  74
ATOM     74  C   UNL A   1      47.008  27.524  25.511  1.00  0.00     0.023 A 
ATOM     75  C   UNL A   1      47.117  27.894  24.161  1.00  0.00     0.031 A 
ATOM     76  C   UNL A   1      48.068  26.794  26.080  1.00  0.00     0.131 A 
ATOM     77  C   UNL A   1      48.240  27.499  23.414  1.00  0.00     0.055 A 
ATOM     78  C   UNL A   1      49.208  26.454  25.349  1.00  0.00     0.041 A 
ATOM     79  F   UNL A   1      48.016  26.415  27.367  1.00  0.00    -0.206 F 
ATOM     80  C   UNL A   1      49.292  26.797  24.004  1.00  0.00     0.022 A 
BRANCH  77  81
ATOM     81  S   UNL A   1      48.267  27.846  21.634  1.00  0.00     0.124 S 
ATOM     82  O   UNL A   1      46.909  28.321  21.402  1.00  0.00    -0.237 OA
ATOM     83  O   UNL A   1      49.325  28.848  21.536  1.00  0.00    -0.237 OA
ATOM     84  O   UNL A   1      48.586  26.550  21.040  1.00  0.00    -0.744 OA
ENDBRANCH  77  81
ENDBRANCH  50  74
BRANCH  62  85
ATOM     85  C   UNL A   1      45.124  33.113  29.253  1.00  0.00     0.023 A 
ATOM     86  C   UNL A   1      45.067  34.259  28.441  1.00  0.00     0.031 A 
ATOM     87  C   UNL A   1      45.899  33.176  30.427  1.00  0.00     0.131 A 
ATOM     88  C   UNL A   1      45.821  35.394  28.778  1.00  0.00     0.055 A 
ATOM     89  C   UNL A   1      46.588  34.332  30.794  1.00  0.00     0.041 A 
ATOM     90  F   UNL A   1      45.997  32.111  31.239  1.00  0.00    -0.206 F 
ATOM     91  C   UNL A   1      46.564  35.445  29.960  1.00  0.00     0.022 A 
BRANCH  88  92
ATOM     92  S   UNL A   1      45.912  36.761  27.590  1.00  0.00     0.124 S 
ATOM     93  O   UNL A   1      46.072  36.053  26.325  1.00  0.00    -0.237 OA
ATOM     94  O   UNL A   1      44.632  37.433  27.788  1.00  0.00    -0.237 OA
ATOM     95  O   UNL A   1      47.083  37.520  28.029  1.00  0.00    -0.744 OA
ENDBRANCH  88  92
ENDBRANCH  62  85
ENDBRANCH  36  37
ENDBRANCH  28  31
ENDBRANCH  26  27
ENDBRANCH  25  26
ENDBRANCH   1  25
TORSDOF 17
ENDMDL
MODEL 3
REMARK VINA RESULT:     -11.9      5.468      8.747
REMARK SMILES C#CCNC(=O)N[C@@]1(C(=O)NCCCCNC(=O)c2ccc(-c3c4nc(c(-c5cc(S(=O)(=O)[O-])ccc5F)c5ccc([nH]5)c(-c5cc(S(=O)(=O)[O-])ccc5F)c5nc(c(-c6cc(S(=O)(=O)[O-])ccc6F)c6ccc3[nH]6)C=C5)C=C4)cc2)CCc2ccccc21
REMARK SMILES IDX 13 1 12 2 11 3 9 4 10 5 8 7 82 8 89 9 83 10 84 11 88 12
REMARK SMILES IDX 85 13 87 14 86 15 7 16 4 17 5 18 6 20 3 22 2 23 1 24 14 25
REMARK SMILES IDX 15 26 16 27 17 28 18 30 19 31 20 32 81 33 21 34 80 35 22 36
REMARK SMILES IDX 23 37 24 38 74 39 25 40 79 41 73 42 75 43 26 44 78 45 72 46
REMARK SMILES IDX 71 47 27 49 59 50 39 51 58 52 40 53 43 54 57 55 76 56 41 57
REMARK SMILES IDX 42 58 56 60 77 61 44 62 28 63 29 64 37 65 30 66 36 67 38 68
REMARK SMILES IDX 35 69 31 70 32 71 33 72 34 73 60 74 61 75 69 76 62 77 68 78
REMARK SMILES IDX 70 79 67 80 63 81 64 82 65 83 66 84 45 85 46 86 54 87 47 88
REMARK SMILES IDX 53 89 55 90 52 91 48 92 49 93 50 94 51 95
REMARK H PARENT 11 6 4 19 7 21 16 29 75 48 43 59
REMARK Flexibility Score: inf
ROOT
ATOM      1  C   UNL A   1      36.728  20.906  24.704  1.00  0.00     0.023 C 
ENDROOT
BRANCH   1   2
ATOM      2  C   UNL A   1      35.349  20.315  24.984  1.00  0.00     0.116 C 
BRANCH   2   3
ATOM      3  N   UNL A   1      34.735  20.760  26.222  1.00  0.00    -0.354 N 
ATOM      4  C   UNL A   1      33.652  21.583  26.428  1.00  0.00     0.250 C 
ATOM      5  O   UNL A   1      33.399  21.864  27.605  1.00  0.00    -0.272 OA
ATOM      6  H   UNL A   1      35.161  20.420  27.042  1.00  0.00     0.163 HD
BRANCH   4   7
ATOM      7  C   UNL A   1      32.668  21.968  25.274  1.00  0.00     0.146 C 
ATOM      8  C   UNL A   1      32.620  20.903  24.125  1.00  0.00     0.048 C 
ATOM      9  C   UNL A   1      33.287  23.089  24.413  1.00  0.00    -0.010 A 
ATOM     10  C   UNL A   1      32.157  21.669  22.868  1.00  0.00     0.039 C 
ATOM     11  C   UNL A   1      32.905  22.948  23.056  1.00  0.00    -0.042 A 
ATOM     12  C   UNL A   1      33.945  24.248  24.828  1.00  0.00     0.007 A 
ATOM     13  C   UNL A   1      33.014  24.006  22.160  1.00  0.00     0.004 A 
ATOM     14  C   UNL A   1      34.080  25.308  23.917  1.00  0.00     0.000 A 
ATOM     15  C   UNL A   1      33.584  25.200  22.607  1.00  0.00     0.000 A 
BRANCH   7  16
ATOM     16  N   UNL A   1      31.219  22.016  25.736  1.00  0.00    -0.320 N 
ATOM     17  N   UNL A   1      30.548  23.953  26.898  1.00  0.00    -0.327 N 
ATOM     18  C   UNL A   1      30.357  22.694  26.507  1.00  0.00     0.316 C 
ATOM     19  H   UNL A   1      30.085  24.262  27.709  1.00  0.00     0.166 HD
ATOM     20  O   UNL A   1      29.343  22.107  26.890  1.00  0.00    -0.249 OA
ATOM     21  H   UNL A   1      30.736  21.271  25.312  1.00  0.00     0.166 HD
BRANCH  17  22
ATOM     22  C   UNL A   1      31.373  24.870  26.213  1.00  0.00     0.207 C 
BRANCH  22  23
ATOM     23  C   UNL A   1      30.615  25.641  25.145  1.00  0.00    -0.085 C 
ATOM     24  C   UNL A   1      29.965  26.302  24.228  1.00  0.00     0.006 C 
ENDBRANCH  22  23
ENDBRANCH  17  22
ENDBRANCH   7  16
ENDBRANCH   4   7
ENDBRANCH   2   3
ENDBRANCH   1   2
BRANCH   1  25
ATOM     25  C   UNL A   1      37.892  19.929  24.788  1.00  0.00     0.023 C 
BRANCH  25  26
ATOM     26  C   UNL A   1      38.979  20.314  25.784  1.00  0.00     0.116 C 
BRANCH  26  27
ATOM     27  N   UNL A   1      39.969  19.262  25.977  1.00  0.00    -0.352 N 
ATOM     28  C   UNL A   1      41.324  19.366  26.194  1.00  0.00     0.251 C 
ATOM     29  H   UNL A   1      39.618  18.343  25.950  1.00  0.00     0.163 HD
ATOM     30  O   UNL A   1      42.031  18.359  26.155  1.00  0.00    -0.269 OA
BRANCH  28  31
ATOM     31  C   UNL A   1      41.929  20.693  26.438  1.00  0.00     0.039 A 
ATOM     32  C   UNL A   1      42.184  21.541  25.358  1.00  0.00     0.014 A 
ATOM     33  C   UNL A   1      42.210  21.112  27.740  1.00  0.00     0.014 A 
ATOM     34  C   UNL A   1      42.639  22.840  25.594  1.00  0.00     0.010 A 
ATOM     35  C   UNL A   1      42.561  22.436  27.978  1.00  0.00     0.010 A 
ATOM     36  C   UNL A   1      42.788  23.316  26.908  1.00  0.00    -0.014 A 
BRANCH  36  37
ATOM     37  C   UNL A   1      43.195  24.720  27.182  1.00  0.00     0.031 A 
ATOM     38  C   UNL A   1      42.235  25.668  27.849  1.00  0.00     0.074 A 
ATOM     39  C   UNL A   1      44.406  25.158  26.780  1.00  0.00     0.049 A 
ATOM     40  N   UNL A   1      42.381  26.938  28.126  1.00  0.00    -0.248 NA
ATOM     41  C   UNL A   1      40.920  25.122  28.219  1.00  0.00     0.031 C 
ATOM     42  C   UNL A   1      45.406  24.351  26.076  1.00  0.00     0.029 A 
ATOM     43  N   UNL A   1      45.003  26.389  26.900  1.00  0.00    -0.354 N 
ATOM     44  C   UNL A   1      41.175  27.345  28.689  1.00  0.00     0.074 A 
ATOM     45  C   UNL A   1      40.285  26.205  28.640  1.00  0.00     0.031 C 
ATOM     46  C   UNL A   1      46.502  25.095  25.862  1.00  0.00     0.029 A 
ATOM     47  C   UNL A   1      46.269  26.446  26.363  1.00  0.00     0.049 A 
ATOM     48  H   UNL A   1      44.566  27.158  27.330  1.00  0.00     0.167 HD
ATOM     49  C   UNL A   1      40.848  28.548  29.224  1.00  0.00     0.034 A 
ATOM     50  C   UNL A   1      47.140  27.472  26.273  1.00  0.00     0.034 A 
ATOM     51  C   UNL A   1      41.753  29.670  29.271  1.00  0.00     0.049 A 
ATOM     52  C   UNL A   1      46.749  28.808  26.852  1.00  0.00     0.074 A 
ATOM     53  C   UNL A   1      41.552  30.914  29.843  1.00  0.00     0.029 A 
ATOM     54  N   UNL A   1      43.026  29.693  28.713  1.00  0.00    -0.354 N 
ATOM     55  N   UNL A   1      45.628  29.159  27.440  1.00  0.00    -0.248 NA
ATOM     56  C   UNL A   1      47.745  29.882  26.766  1.00  0.00     0.031 C 
ATOM     57  C   UNL A   1      42.663  31.713  29.555  1.00  0.00     0.029 A 
ATOM     58  C   UNL A   1      43.603  30.942  28.891  1.00  0.00     0.049 A 
ATOM     59  H   UNL A   1      43.455  28.933  28.257  1.00  0.00     0.167 HD
ATOM     60  C   UNL A   1      45.799  30.486  27.825  1.00  0.00     0.074 A 
ATOM     61  C   UNL A   1      47.136  30.865  27.414  1.00  0.00     0.031 C 
ATOM     62  C   UNL A   1      44.932  31.315  28.464  1.00  0.00     0.034 A 
BRANCH  49  63
ATOM     63  C   UNL A   1      39.446  28.710  29.766  1.00  0.00     0.023 A 
ATOM     64  C   UNL A   1      38.394  29.199  28.970  1.00  0.00     0.031 A 
ATOM     65  C   UNL A   1      39.164  28.411  31.111  1.00  0.00     0.131 A 
ATOM     66  C   UNL A   1      37.141  29.462  29.546  1.00  0.00     0.055 A 
ATOM     67  C   UNL A   1      37.889  28.583  31.654  1.00  0.00     0.041 A 
ATOM     68  F   UNL A   1      40.130  27.964  31.930  1.00  0.00    -0.206 F 
ATOM     69  C   UNL A   1      36.873  29.130  30.875  1.00  0.00     0.022 A 
BRANCH  66  70
ATOM     70  S   UNL A   1      35.928  30.406  28.583  1.00  0.00     0.124 S 
ATOM     71  O   UNL A   1      34.997  29.357  28.172  1.00  0.00    -0.237 OA
ATOM     72  O   UNL A   1      35.424  31.362  29.562  1.00  0.00    -0.237 OA
ATOM     73  O   UNL A   1      36.723  30.980  27.500  1.00  0.00    -0.744 OA
ENDBRANCH  66  70
ENDBRANCH  49  63
BRANCH  50  74
ATOM     74  C   UNL A   1      48.460  27.283  25.602  1.00  0.00     0.023 A 
ATOM     75  C   UNL A   1      48.611  27.485  24.221  1.00  0.00     0.031 A 
ATOM     76  C   UNL A   1      49.588  26.865  26.332  1.00  0.00     0.131 A 
ATOM     77  C   UNL A   1      49.848  27.230  23.606  1.00  0.00     0.055 A 
ATOM     78  C   UNL A   1      50.830  26.669  25.726  1.00  0.00     0.041 A 
ATOM     79  F   UNL A   1      49.500  26.659  27.656  1.00  0.00    -0.206 F 
ATOM     80  C   UNL A   1      50.961  26.840  24.353  1.00  0.00     0.022 A 
BRANCH  77  81
ATOM     81  S   UNL A   1      49.961  27.335  21.798  1.00  0.00     0.124 S 
ATOM     82  O   UNL A   1      49.652  28.740  21.563  1.00  0.00    -0.237 OA
ATOM     83  O   UNL A   1      51.343  26.931  21.557  1.00  0.00    -0.237 OA
ATOM     84  O   UNL A   1      48.949  26.387  21.339  1.00  0.00    -0.744 OA
ENDBRANCH  77  81
ENDBRANCH  50  74
BRANCH  62  85
ATOM     85  C   UNL A   1      45.427  32.702  28.800  1.00  0.00     0.023 A 
ATOM     86  C   UNL A   1      45.232  33.794  27.935  1.00  0.00     0.031 A 
ATOM     87  C   UNL A   1      46.116  32.932  30.005  1.00  0.00     0.131 A 
ATOM     88  C   UNL A   1      45.776  35.047  28.257  1.00  0.00     0.055 A 
ATOM     89  C   UNL A   1      46.591  34.197  30.353  1.00  0.00     0.041 A 
ATOM     90  F   UNL A   1      46.339  31.928  30.869  1.00  0.00    -0.206 F 
ATOM     91  C   UNL A   1      46.435  35.260  29.470  1.00  0.00     0.022 A 
BRANCH  88  92
ATOM     92  S   UNL A   1      45.713  36.367  27.015  1.00  0.00     0.124 S 
ATOM     93  O   UNL A   1      46.528  37.405  27.635  1.00  0.00    -0.237 OA
ATOM     94  O   UNL A   1      46.287  35.720  25.841  1.00  0.00    -0.237 OA
ATOM     95  O   UNL A   1      44.287  36.676  26.915  1.00  0.00    -0.744 OA
ENDBRANCH  88  92
ENDBRANCH  62  85
ENDBRANCH  36  37
ENDBRANCH  28  31
ENDBRANCH  26  27
ENDBRANCH  25  26
ENDBRANCH   1  25
TORSDOF 17
ENDMDL
