MODEL 1
REMARK VINA RESULT:     -11.8      0.000      0.000
REMARK SMILES O=C(NCCCCNC(=O)[C@@H]1CCC(=O)N(CCCOC2CCCCC2)[C@H]1c1ccco1)c1ccc(-c2c3nc(c(-c4cc(S(=O)(=O)[O-])ccc4F)c4ccc([nH]4)c(-c4cc(S(=O)(=O)[O-])ccc4F)c4nc(c(-c5cc(S(=O)(=O)[O-])ccc5F)c5ccc2[nH]5)C=C4)C=C3)cc1
REMARK SMILES IDX 6 1 5 2 4 3 3 4 1 5 2 6 33 8 34 9 95 10 35 11 94 12 36 13
REMARK SMILES IDX 37 14 38 15 88 16 39 17 93 18 87 19 89 20 40 21 92 22 86 23
REMARK SMILES IDX 85 24 41 26 73 27 53 28 72 29 54 30 57 31 71 32 90 33 55 34
REMARK SMILES IDX 56 35 70 37 91 38 58 39 42 40 43 41 51 42 44 43 50 44 52 45
REMARK SMILES IDX 49 46 45 47 46 48 47 49 48 50 74 51 75 52 83 53 76 54 82 55
REMARK SMILES IDX 84 56 81 57 77 58 78 59 79 60 80 61 59 62 60 63 68 64 61 65
REMARK SMILES IDX 67 66 69 67 66 68 62 69 63 70 64 71 65 72 7 73 8 74 9 75
REMARK SMILES IDX 10 77 11 78 12 79 27 80 13 81 16 82 14 83 15 84 28 85 29 86
REMARK SMILES IDX 32 87 30 88 31 89 17 90 18 91 19 92 20 93 21 94 22 95 26 96
REMARK SMILES IDX 23 97 25 98 24 99
REMARK H PARENT 3 7 89 25 57 36 8 76
REMARK Flexibility Score: inf
ROOT
ATOM      1  C   UNL A   1      37.085  22.107  25.715  1.00  0.00     0.023 C 
ENDROOT
BRANCH   1   2
ATOM      2  C   UNL A   1      38.132  21.102  25.245  1.00  0.00     0.023 C 
BRANCH   2   3
ATOM      3  C   UNL A   1      39.400  21.039  26.088  1.00  0.00     0.116 C 
BRANCH   3   4
ATOM      4  N   UNL A   1      40.180  19.812  25.951  1.00  0.00    -0.352 N 
ATOM      5  O   UNL A   1      42.097  18.597  25.882  1.00  0.00    -0.269 OA
ATOM      6  C   UNL A   1      41.553  19.680  26.044  1.00  0.00     0.251 C 
ATOM      7  H   UNL A   1      39.672  18.988  25.772  1.00  0.00     0.163 HD
BRANCH   6   8
ATOM      8  C   UNL A   1      42.343  20.901  26.301  1.00  0.00     0.039 A 
ATOM      9  C   UNL A   1      42.615  21.265  27.617  1.00  0.00     0.014 A 
ATOM     10  C   UNL A   1      42.666  21.752  25.242  1.00  0.00     0.014 A 
ATOM     11  C   UNL A   1      43.014  22.563  27.888  1.00  0.00     0.010 A 
ATOM     12  C   UNL A   1      43.190  23.020  25.515  1.00  0.00     0.010 A 
ATOM     13  C   UNL A   1      43.322  23.454  26.842  1.00  0.00    -0.014 A 
BRANCH  13  14
ATOM     14  C   UNL A   1      43.818  24.808  27.202  1.00  0.00     0.031 A 
ATOM     15  C   UNL A   1      45.218  25.253  26.870  1.00  0.00     0.074 A 
ATOM     16  C   UNL A   1      42.940  25.671  27.753  1.00  0.00     0.049 A 
ATOM     17  N   UNL A   1      45.777  26.420  27.071  1.00  0.00    -0.248 NA
ATOM     18  C   UNL A   1      46.110  24.264  26.246  1.00  0.00     0.031 C 
ATOM     19  C   UNL A   1      41.560  25.334  28.123  1.00  0.00     0.029 A 
ATOM     20  N   UNL A   1      43.045  27.002  28.050  1.00  0.00    -0.354 N 
ATOM     21  C   UNL A   1      47.089  26.302  26.624  1.00  0.00     0.074 A 
ATOM     22  C   UNL A   1      47.249  24.939  26.160  1.00  0.00     0.031 C 
ATOM     23  C   UNL A   1      40.924  26.446  28.507  1.00  0.00     0.029 A 
ATOM     24  C   UNL A   1      41.870  27.553  28.510  1.00  0.00     0.049 A 
ATOM     25  H   UNL A   1      43.877  27.516  27.945  1.00  0.00     0.167 HD
ATOM     26  C   UNL A   1      48.064  27.247  26.605  1.00  0.00     0.034 A 
ATOM     27  C   UNL A   1      41.587  28.806  28.914  1.00  0.00     0.034 A 
ATOM     28  C   UNL A   1      47.877  28.604  27.066  1.00  0.00     0.049 A 
ATOM     29  C   UNL A   1      42.682  29.830  28.868  1.00  0.00     0.074 A 
ATOM     30  C   UNL A   1      48.795  29.640  27.107  1.00  0.00     0.029 A 
ATOM     31  N   UNL A   1      46.685  29.119  27.564  1.00  0.00    -0.354 N 
ATOM     32  N   UNL A   1      43.926  29.688  28.471  1.00  0.00    -0.248 NA
ATOM     33  C   UNL A   1      42.339  31.180  29.325  1.00  0.00     0.031 C 
ATOM     34  C   UNL A   1      48.175  30.760  27.674  1.00  0.00     0.029 A 
ATOM     35  C   UNL A   1      46.850  30.448  27.925  1.00  0.00     0.049 A 
ATOM     36  H   UNL A   1      45.844  28.613  27.646  1.00  0.00     0.167 HD
ATOM     37  C   UNL A   1      44.519  30.933  28.644  1.00  0.00     0.074 A 
ATOM     38  C   UNL A   1      43.480  31.822  29.128  1.00  0.00     0.031 C 
ATOM     39  C   UNL A   1      45.808  31.306  28.441  1.00  0.00     0.034 A 
BRANCH  26  40
ATOM     40  C   UNL A   1      49.433  26.832  26.115  1.00  0.00     0.023 A 
ATOM     41  C   UNL A   1      49.934  27.247  24.868  1.00  0.00     0.031 A 
ATOM     42  C   UNL A   1      50.250  26.006  26.908  1.00  0.00     0.131 A 
ATOM     43  C   UNL A   1      51.190  26.794  24.431  1.00  0.00     0.055 A 
ATOM     44  C   UNL A   1      51.526  25.615  26.498  1.00  0.00     0.041 A 
ATOM     45  F   UNL A   1      49.819  25.561  28.100  1.00  0.00    -0.206 F 
ATOM     46  C   UNL A   1      52.000  26.000  25.246  1.00  0.00     0.022 A 
BRANCH  43  47
ATOM     47  S   UNL A   1      51.706  27.167  22.732  1.00  0.00     0.124 S 
ATOM     48  O   UNL A   1      52.864  26.290  22.575  1.00  0.00    -0.237 OA
ATOM     49  O   UNL A   1      50.524  26.807  21.957  1.00  0.00    -0.237 OA
ATOM     50  O   UNL A   1      52.016  28.594  22.771  1.00  0.00    -0.744 OA
ENDBRANCH  43  47
ENDBRANCH  26  40
BRANCH  27  51
ATOM     51  C   UNL A   1      40.232  29.131  29.441  1.00  0.00     0.023 A 
ATOM     52  C   UNL A   1      39.979  29.194  30.820  1.00  0.00     0.031 A 
ATOM     53  C   UNL A   1      39.161  29.376  28.562  1.00  0.00     0.131 A 
ATOM     54  C   UNL A   1      38.680  29.463  31.278  1.00  0.00     0.055 A 
ATOM     55  C   UNL A   1      37.886  29.703  29.022  1.00  0.00     0.041 A 
ATOM     56  F   UNL A   1      39.349  29.332  27.233  1.00  0.00    -0.206 F 
ATOM     57  C   UNL A   1      37.637  29.735  30.388  1.00  0.00     0.022 A 
BRANCH  54  58
ATOM     58  S   UNL A   1      38.350  29.372  33.059  1.00  0.00     0.124 S 
ATOM     59  O   UNL A   1      38.031  30.760  33.376  1.00  0.00    -0.237 OA
ATOM     60  O   UNL A   1      37.237  28.430  33.111  1.00  0.00    -0.237 OA
ATOM     61  O   UNL A   1      39.608  28.879  33.613  1.00  0.00    -0.744 OA
ENDBRANCH  54  58
ENDBRANCH  27  51
BRANCH  39  62
ATOM     62  C   UNL A   1      46.137  32.744  28.749  1.00  0.00     0.023 A 
ATOM     63  C   UNL A   1      45.964  33.753  27.785  1.00  0.00     0.031 A 
ATOM     64  C   UNL A   1      46.690  33.099  29.991  1.00  0.00     0.131 A 
ATOM     65  C   UNL A   1      46.414  35.054  28.049  1.00  0.00     0.055 A 
ATOM     66  C   UNL A   1      47.078  34.409  30.270  1.00  0.00     0.041 A 
ATOM     67  F   UNL A   1      46.879  32.173  30.945  1.00  0.00    -0.206 F 
ATOM     68  C   UNL A   1      46.958  35.392  29.290  1.00  0.00     0.022 A 
BRANCH  65  69
ATOM     69  S   UNL A   1      46.392  36.268  26.702  1.00  0.00     0.124 S 
ATOM     70  O   UNL A   1      46.476  35.414  25.522  1.00  0.00    -0.237 OA
ATOM     71  O   UNL A   1      45.115  36.944  26.911  1.00  0.00    -0.237 OA
ATOM     72  O   UNL A   1      47.575  37.087  26.960  1.00  0.00    -0.744 OA
ENDBRANCH  65  69
ENDBRANCH  39  62
ENDBRANCH  13  14
ENDBRANCH   6   8
ENDBRANCH   3   4
ENDBRANCH   2   3
ENDBRANCH   1   2
BRANCH   1  73
ATOM     73  C   UNL A   1      37.216  23.507  25.121  1.00  0.00     0.116 C 
BRANCH  73  74
ATOM     74  N   UNL A   1      36.207  23.768  24.120  1.00  0.00    -0.356 N 
ATOM     75  C   UNL A   1      34.984  24.333  24.140  1.00  0.00     0.225 C 
ATOM     76  H   UNL A   1      36.473  23.466  23.221  1.00  0.00     0.163 HD
ATOM     77  O   UNL A   1      34.466  24.486  23.022  1.00  0.00    -0.275 OA
BRANCH  75  78
ATOM     78  C   UNL A   1      34.206  24.835  25.360  1.00  0.00     0.109 C 
ATOM     79  C   UNL A   1      33.614  23.954  26.439  1.00  0.00     0.026 C 
ATOM     80  C   UNL A   1      33.139  25.838  24.875  1.00  0.00     0.164 C 
ATOM     81  C   UNL A   1      32.255  23.374  26.112  1.00  0.00     0.101 C 
ATOM     82  N   UNL A   1      31.874  25.216  24.460  1.00  0.00    -0.332 N 
ATOM     83  C   UNL A   1      31.385  24.083  25.092  1.00  0.00     0.223 C 
ATOM     84  O   UNL A   1      30.290  23.586  24.818  1.00  0.00    -0.275 OA
BRANCH  80  85
ATOM     85  C   UNL A   1      32.881  26.895  25.916  1.00  0.00     0.127 A 
ATOM     86  C   UNL A   1      31.733  27.282  26.580  1.00  0.00     0.048 A 
ATOM     87  O   UNL A   1      33.933  27.660  26.331  1.00  0.00    -0.467 OA
ATOM     88  C   UNL A   1      32.109  28.326  27.456  1.00  0.00     0.042 A 
ATOM     89  C   UNL A   1      33.459  28.512  27.274  1.00  0.00     0.195 A 
ENDBRANCH  80  85
BRANCH  82  90
ATOM     90  C   UNL A   1      31.087  25.769  23.336  1.00  0.00     0.122 C 
BRANCH  90  91
ATOM     91  C   UNL A   1      31.730  26.812  22.409  1.00  0.00     0.050 C 
BRANCH  91  92
ATOM     92  C   UNL A   1      31.214  28.257  22.422  1.00  0.00     0.162 C 
BRANCH  92  93
ATOM     93  O   UNL A   1      29.872  28.451  21.987  1.00  0.00    -0.378 OA
BRANCH  93  94
ATOM     94  C   UNL A   1      29.092  29.559  22.454  1.00  0.00     0.118 C 
ATOM     95  C   UNL A   1      29.623  30.325  23.672  1.00  0.00     0.032 C 
ATOM     96  C   UNL A   1      28.742  30.432  21.246  1.00  0.00     0.032 C 
ATOM     97  C   UNL A   1      28.937  31.660  23.943  1.00  0.00     0.003 C 
ATOM     98  C   UNL A   1      27.987  31.696  21.631  1.00  0.00     0.003 C 
ATOM     99  C   UNL A   1      28.762  32.487  22.674  1.00  0.00     0.000 C 
ENDBRANCH  93  94
ENDBRANCH  92  93
ENDBRANCH  91  92
ENDBRANCH  90  91
ENDBRANCH  82  90
ENDBRANCH  75  78
ENDBRANCH  73  74
ENDBRANCH   1  73
TORSDOF 20
ENDMDL
MODEL 2
REMARK VINA RESULT:     -11.8      1.889      7.649
REMARK SMILES O=C(NCCCCNC(=O)[C@@H]1CCC(=O)N(CCCOC2CCCCC2)[C@H]1c1ccco1)c1ccc(-c2c3nc(c(-c4cc(S(=O)(=O)[O-])ccc4F)c4ccc([nH]4)c(-c4cc(S(=O)(=O)[O-])ccc4F)c4nc(c(-c5cc(S(=O)(=O)[O-])ccc5F)c5ccc2[nH]5)C=C4)C=C3)cc1
REMARK SMILES IDX 6 1 5 2 4 3 3 4 1 5 2 6 33 8 34 9 95 10 35 11 94 12 36 13
REMARK SMILES IDX 37 14 38 15 88 16 39 17 93 18 87 19 89 20 40 21 92 22 86 23
REMARK SMILES IDX 85 24 41 26 73 27 53 28 72 29 54 30 57 31 71 32 90 33 55 34
REMARK SMILES IDX 56 35 70 37 91 38 58 39 42 40 43 41 51 42 44 43 50 44 52 45
REMARK SMILES IDX 49 46 45 47 46 48 47 49 48 50 74 51 75 52 83 53 76 54 82 55
REMARK SMILES IDX 84 56 81 57 77 58 78 59 79 60 80 61 59 62 60 63 68 64 61 65
REMARK SMILES IDX 67 66 69 67 66 68 62 69 63 70 64 71 65 72 7 73 8 74 9 75
REMARK SMILES IDX 10 77 11 78 12 79 27 80 13 81 16 82 14 83 15 84 28 85 29 86
REMARK SMILES IDX 32 87 30 88 31 89 17 90 18 91 19 92 20 93 21 94 22 95 26 96
REMARK SMILES IDX 23 97 25 98 24 99
REMARK H PARENT 3 7 89 25 57 36 8 76
REMARK Flexibility Score: inf
ROOT
ATOM      1  C   UNL A   1      39.708  22.895  26.473  1.00  0.00     0.023 C 
ENDROOT
BRANCH   1   2
ATOM      2  C   UNL A   1      39.611  21.429  26.063  1.00  0.00     0.023 C 
BRANCH   2   3
ATOM      3  C   UNL A   1      40.343  20.449  26.972  1.00  0.00     0.116 C 
BRANCH   3   4
ATOM      4  N   UNL A   1      41.159  19.450  26.287  1.00  0.00    -0.352 N 
ATOM      5  O   UNL A   1      43.012  18.705  25.207  1.00  0.00    -0.269 OA
ATOM      6  C   UNL A   1      42.438  19.614  25.790  1.00  0.00     0.251 C 
ATOM      7  H   UNL A   1      40.753  18.562  26.165  1.00  0.00     0.163 HD
BRANCH   6   8
ATOM      8  C   UNL A   1      43.070  20.939  25.949  1.00  0.00     0.039 A 
ATOM      9  C   UNL A   1      43.433  21.367  27.223  1.00  0.00     0.014 A 
ATOM     10  C   UNL A   1      43.150  21.803  24.854  1.00  0.00     0.014 A 
ATOM     11  C   UNL A   1      43.670  22.714  27.438  1.00  0.00     0.010 A 
ATOM     12  C   UNL A   1      43.515  23.138  25.058  1.00  0.00     0.010 A 
ATOM     13  C   UNL A   1      43.731  23.616  26.360  1.00  0.00    -0.014 A 
BRANCH  13  14
ATOM     14  C   UNL A   1      44.066  25.034  26.652  1.00  0.00     0.031 A 
ATOM     15  C   UNL A   1      43.085  25.960  27.321  1.00  0.00     0.074 A 
ATOM     16  C   UNL A   1      45.323  25.447  26.388  1.00  0.00     0.049 A 
ATOM     17  N   UNL A   1      43.252  27.205  27.689  1.00  0.00    -0.248 NA
ATOM     18  C   UNL A   1      41.743  25.429  27.602  1.00  0.00     0.031 C 
ATOM     19  C   UNL A   1      46.349  24.628  25.731  1.00  0.00     0.029 A 
ATOM     20  N   UNL A   1      45.971  26.618  26.675  1.00  0.00    -0.354 N 
ATOM     21  C   UNL A   1      42.035  27.617  28.221  1.00  0.00     0.074 A 
ATOM     22  C   UNL A   1      41.129  26.492  28.107  1.00  0.00     0.031 C 
ATOM     23  C   UNL A   1      47.515  25.284  25.751  1.00  0.00     0.029 A 
ATOM     24  C   UNL A   1      47.302  26.606  26.325  1.00  0.00     0.049 A 
ATOM     25  H   UNL A   1      45.528  27.392  27.091  1.00  0.00     0.167 HD
ATOM     26  C   UNL A   1      41.709  28.823  28.753  1.00  0.00     0.034 A 
ATOM     27  C   UNL A   1      48.246  27.559  26.432  1.00  0.00     0.034 A 
ATOM     28  C   UNL A   1      42.634  29.928  28.863  1.00  0.00     0.049 A 
ATOM     29  C   UNL A   1      47.859  28.876  27.037  1.00  0.00     0.074 A 
ATOM     30  C   UNL A   1      42.411  31.198  29.371  1.00  0.00     0.029 A 
ATOM     31  N   UNL A   1      43.966  29.896  28.463  1.00  0.00    -0.354 N 
ATOM     32  N   UNL A   1      46.691  29.255  27.505  1.00  0.00    -0.248 NA
ATOM     33  C   UNL A   1      48.911  29.893  27.128  1.00  0.00     0.031 C 
ATOM     34  C   UNL A   1      43.588  31.944  29.231  1.00  0.00     0.029 A 
ATOM     35  C   UNL A   1      44.568  31.123  28.700  1.00  0.00     0.049 A 
ATOM     36  H   UNL A   1      44.416  29.113  28.070  1.00  0.00     0.167 HD
ATOM     37  C   UNL A   1      46.867  30.565  27.935  1.00  0.00     0.074 A 
ATOM     38  C   UNL A   1      48.266  30.886  27.720  1.00  0.00     0.031 C 
ATOM     39  C   UNL A   1      45.955  31.433  28.443  1.00  0.00     0.034 A 
BRANCH  26  40
ATOM     40  C   UNL A   1      40.283  29.026  29.211  1.00  0.00     0.023 A 
ATOM     41  C   UNL A   1      39.915  28.927  30.565  1.00  0.00     0.031 A 
ATOM     42  C   UNL A   1      39.273  29.321  28.277  1.00  0.00     0.131 A 
ATOM     43  C   UNL A   1      38.568  29.072  30.938  1.00  0.00     0.055 A 
ATOM     44  C   UNL A   1      37.947  29.531  28.662  1.00  0.00     0.041 A 
ATOM     45  F   UNL A   1      39.559  29.409  26.968  1.00  0.00    -0.206 F 
ATOM     46  C   UNL A   1      37.585  29.396  29.999  1.00  0.00     0.022 A 
BRANCH  43  47
ATOM     47  S   UNL A   1      38.098  28.719  32.655  1.00  0.00     0.124 S 
ATOM     48  O   UNL A   1      38.252  27.267  32.711  1.00  0.00    -0.237 OA
ATOM     49  O   UNL A   1      39.072  29.493  33.414  1.00  0.00    -0.237 OA
ATOM     50  O   UNL A   1      36.719  29.195  32.739  1.00  0.00    -0.744 OA
ENDBRANCH  43  47
ENDBRANCH  26  40
BRANCH  27  51
ATOM     51  C   UNL A   1      49.618  27.312  25.906  1.00  0.00     0.023 A 
ATOM     52  C   UNL A   1      50.672  26.944  26.755  1.00  0.00     0.031 A 
ATOM     53  C   UNL A   1      49.895  27.451  24.533  1.00  0.00     0.131 A 
ATOM     54  C   UNL A   1      51.959  26.759  26.228  1.00  0.00     0.055 A 
ATOM     55  C   UNL A   1      51.161  27.208  24.005  1.00  0.00     0.041 A 
ATOM     56  F   UNL A   1      48.921  27.798  23.675  1.00  0.00    -0.206 F 
ATOM     57  C   UNL A   1      52.207  26.872  24.857  1.00  0.00     0.022 A 
BRANCH  54  58
ATOM     58  S   UNL A   1      53.332  26.450  27.372  1.00  0.00     0.124 S 
ATOM     59  O   UNL A   1      53.911  25.229  26.823  1.00  0.00    -0.237 OA
ATOM     60  O   UNL A   1      54.129  27.663  27.221  1.00  0.00    -0.237 OA
ATOM     61  O   UNL A   1      52.669  26.300  28.665  1.00  0.00    -0.744 OA
ENDBRANCH  54  58
ENDBRANCH  27  51
BRANCH  39  62
ATOM     62  C   UNL A   1      46.471  32.805  28.794  1.00  0.00     0.023 A 
ATOM     63  C   UNL A   1      46.499  33.837  27.840  1.00  0.00     0.031 A 
ATOM     64  C   UNL A   1      47.000  33.063  30.069  1.00  0.00     0.131 A 
ATOM     65  C   UNL A   1      47.117  35.057  28.150  1.00  0.00     0.055 A 
ATOM     66  C   UNL A   1      47.557  34.301  30.392  1.00  0.00     0.041 A 
ATOM     67  F   UNL A   1      47.000  32.111  31.016  1.00  0.00    -0.206 F 
ATOM     68  C   UNL A   1      47.634  35.300  29.424  1.00  0.00     0.022 A 
BRANCH  65  69
ATOM     69  S   UNL A   1      47.344  36.274  26.825  1.00  0.00     0.124 S 
ATOM     70  O   UNL A   1      48.137  35.525  25.856  1.00  0.00    -0.237 OA
ATOM     71  O   UNL A   1      45.969  36.570  26.434  1.00  0.00    -0.237 OA
ATOM     72  O   UNL A   1      48.049  37.371  27.487  1.00  0.00    -0.744 OA
ENDBRANCH  65  69
ENDBRANCH  39  62
ENDBRANCH  13  14
ENDBRANCH   6   8
ENDBRANCH   3   4
ENDBRANCH   2   3
ENDBRANCH   1   2
BRANCH   1  73
ATOM     73  C   UNL A   1      38.401  23.680  26.389  1.00  0.00     0.116 C 
BRANCH  73  74
ATOM     74  N   UNL A   1      37.710  23.453  25.141  1.00  0.00    -0.356 N 
ATOM     75  C   UNL A   1      36.418  23.490  24.759  1.00  0.00     0.225 C 
ATOM     76  H   UNL A   1      38.320  23.221  24.403  1.00  0.00     0.163 HD
ATOM     77  O   UNL A   1      36.235  23.349  23.539  1.00  0.00    -0.275 OA
BRANCH  75  78
ATOM     78  C   UNL A   1      35.189  23.725  25.641  1.00  0.00     0.109 C 
ATOM     79  C   UNL A   1      34.806  22.889  26.844  1.00  0.00     0.026 C 
ATOM     80  C   UNL A   1      33.961  23.897  24.725  1.00  0.00     0.164 C 
ATOM     81  C   UNL A   1      34.034  21.627  26.521  1.00  0.00     0.101 C 
ATOM     82  N   UNL A   1      33.312  22.634  24.346  1.00  0.00    -0.332 N 
ATOM     83  C   UNL A   1      33.259  21.559  25.220  1.00  0.00     0.223 C 
ATOM     84  O   UNL A   1      32.655  20.516  24.959  1.00  0.00    -0.275 OA
BRANCH  80  85
ATOM     85  C   UNL A   1      32.955  24.832  25.342  1.00  0.00     0.127 A 
ATOM     86  C   UNL A   1      33.097  25.969  26.114  1.00  0.00     0.048 A 
ATOM     87  O   UNL A   1      31.629  24.569  25.151  1.00  0.00    -0.467 OA
ATOM     88  C   UNL A   1      31.790  26.431  26.392  1.00  0.00     0.042 A 
ATOM     89  C   UNL A   1      30.933  25.551  25.776  1.00  0.00     0.195 A 
ENDBRANCH  80  85
BRANCH  82  90
ATOM     90  C   UNL A   1      32.709  22.460  23.006  1.00  0.00     0.122 C 
BRANCH  90  91
ATOM     91  C   UNL A   1      33.297  23.226  21.811  1.00  0.00     0.050 C 
BRANCH  91  92
ATOM     92  C   UNL A   1      32.743  24.613  21.454  1.00  0.00     0.162 C 
BRANCH  92  93
ATOM     93  O   UNL A   1      33.589  25.721  21.742  1.00  0.00    -0.378 OA
BRANCH  93  94
ATOM     94  C   UNL A   1      33.046  27.020  22.011  1.00  0.00     0.118 C 
ATOM     95  C   UNL A   1      31.552  27.099  22.348  1.00  0.00     0.032 C 
ATOM     96  C   UNL A   1      33.971  27.720  23.011  1.00  0.00     0.032 C 
ATOM     97  C   UNL A   1      31.090  28.436  22.919  1.00  0.00     0.003 C 
ATOM     98  C   UNL A   1      33.446  29.080  23.446  1.00  0.00     0.003 C 
ATOM     99  C   UNL A   1      32.033  28.961  23.995  1.00  0.00     0.000 C 
ENDBRANCH  93  94
ENDBRANCH  92  93
ENDBRANCH  91  92
ENDBRANCH  90  91
ENDBRANCH  82  90
ENDBRANCH  75  78
ENDBRANCH  73  74
ENDBRANCH   1  73
TORSDOF 20
ENDMDL
MODEL 3
REMARK VINA RESULT:     -11.7      1.676      3.000
REMARK SMILES O=C(NCCCCNC(=O)[C@@H]1CCC(=O)N(CCCOC2CCCCC2)[C@H]1c1ccco1)c1ccc(-c2c3nc(c(-c4cc(S(=O)(=O)[O-])ccc4F)c4ccc([nH]4)c(-c4cc(S(=O)(=O)[O-])ccc4F)c4nc(c(-c5cc(S(=O)(=O)[O-])ccc5F)c5ccc2[nH]5)C=C4)C=C3)cc1
REMARK SMILES IDX 6 1 5 2 4 3 3 4 1 5 2 6 33 8 34 9 95 10 35 11 94 12 36 13
REMARK SMILES IDX 37 14 38 15 88 16 39 17 93 18 87 19 89 20 40 21 92 22 86 23
REMARK SMILES IDX 85 24 41 26 73 27 53 28 72 29 54 30 57 31 71 32 90 33 55 34
REMARK SMILES IDX 56 35 70 37 91 38 58 39 42 40 43 41 51 42 44 43 50 44 52 45
REMARK SMILES IDX 49 46 45 47 46 48 47 49 48 50 74 51 75 52 83 53 76 54 82 55
REMARK SMILES IDX 84 56 81 57 77 58 78 59 79 60 80 61 59 62 60 63 68 64 61 65
REMARK SMILES IDX 67 66 69 67 66 68 62 69 63 70 64 71 65 72 7 73 8 74 9 75
REMARK SMILES IDX 10 77 11 78 12 79 27 80 13 81 16 82 14 83 15 84 28 85 29 86
REMARK SMILES IDX 32 87 30 88 31 89 17 90 18 91 19 92 20 93 21 94 22 95 26 96
REMARK SMILES IDX 23 97 25 98 24 99
REMARK H PARENT 3 7 89 25 57 36 8 76
REMARK Flexibility Score: inf
ROOT
ATOM      1  C   UNL A   1      38.928  23.076  26.396  1.00  0.00     0.023 C 
ENDROOT
BRANCH   1   2
ATOM      2  C   UNL A   1      39.141  21.623  25.986  1.00  0.00     0.023 C 
BRANCH   2   3
ATOM      3  C   UNL A   1      40.095  20.830  26.871  1.00  0.00     0.116 C 
BRANCH   3   4
ATOM      4  N   UNL A   1      40.889  19.816  26.182  1.00  0.00    -0.352 N 
ATOM      5  O   UNL A   1      42.750  19.014  25.158  1.00  0.00    -0.269 OA
ATOM      6  C   UNL A   1      42.197  19.928  25.752  1.00  0.00     0.251 C 
ATOM      7  H   UNL A   1      40.443  18.957  26.006  1.00  0.00     0.163 HD
BRANCH   6   8
ATOM      8  C   UNL A   1      42.890  21.210  25.994  1.00  0.00     0.039 A 
ATOM      9  C   UNL A   1      43.391  21.478  27.265  1.00  0.00     0.014 A 
ATOM     10  C   UNL A   1      42.894  22.193  25.001  1.00  0.00     0.014 A 
ATOM     11  C   UNL A   1      43.698  22.785  27.605  1.00  0.00     0.010 A 
ATOM     12  C   UNL A   1      43.327  23.485  25.316  1.00  0.00     0.010 A 
ATOM     13  C   UNL A   1      43.686  23.804  26.634  1.00  0.00    -0.014 A 
BRANCH  13  14
ATOM     14  C   UNL A   1      44.100  25.169  27.049  1.00  0.00     0.031 A 
ATOM     15  C   UNL A   1      45.481  25.700  26.764  1.00  0.00     0.074 A 
ATOM     16  C   UNL A   1      43.166  25.964  27.608  1.00  0.00     0.049 A 
ATOM     17  N   UNL A   1      45.971  26.888  27.016  1.00  0.00    -0.248 NA
ATOM     18  C   UNL A   1      46.437  24.782  26.128  1.00  0.00     0.031 C 
ATOM     19  C   UNL A   1      41.799  25.542  27.936  1.00  0.00     0.029 A 
ATOM     20  N   UNL A   1      43.191  27.289  27.951  1.00  0.00    -0.354 N 
ATOM     21  C   UNL A   1      47.296  26.855  26.594  1.00  0.00     0.074 A 
ATOM     22  C   UNL A   1      47.539  25.520  26.089  1.00  0.00     0.031 C 
ATOM     23  C   UNL A   1      41.095  26.605  28.342  1.00  0.00     0.029 A 
ATOM     24  C   UNL A   1      41.980  27.760  28.404  1.00  0.00     0.049 A 
ATOM     25  H   UNL A   1      43.997  27.850  27.882  1.00  0.00     0.167 HD
ATOM     26  C   UNL A   1      48.219  27.851  26.628  1.00  0.00     0.034 A 
ATOM     27  C   UNL A   1      41.621  28.981  28.842  1.00  0.00     0.034 A 
ATOM     28  C   UNL A   1      47.949  29.179  27.130  1.00  0.00     0.049 A 
ATOM     29  C   UNL A   1      42.659  30.064  28.854  1.00  0.00     0.074 A 
ATOM     30  C   UNL A   1      48.809  30.261  27.225  1.00  0.00     0.029 A 
ATOM     31  N   UNL A   1      46.720  29.613  27.617  1.00  0.00    -0.354 N 
ATOM     32  N   UNL A   1      43.917  30.002  28.481  1.00  0.00    -0.248 NA
ATOM     33  C   UNL A   1      42.234  31.377  29.347  1.00  0.00     0.031 C 
ATOM     34  C   UNL A   1      48.117  31.327  27.814  1.00  0.00     0.029 A 
ATOM     35  C   UNL A   1      46.806  30.936  28.026  1.00  0.00     0.049 A 
ATOM     36  H   UNL A   1      45.907  29.060  27.664  1.00  0.00     0.167 HD
ATOM     37  C   UNL A   1      44.438  31.270  28.708  1.00  0.00     0.074 A 
ATOM     38  C   UNL A   1      43.342  32.085  29.197  1.00  0.00     0.031 C 
ATOM     39  C   UNL A   1      45.709  31.719  28.546  1.00  0.00     0.034 A 
BRANCH  26  40
ATOM     40  C   UNL A   1      49.618  27.528  26.155  1.00  0.00     0.023 A 
ATOM     41  C   UNL A   1      50.022  27.742  24.825  1.00  0.00     0.031 A 
ATOM     42  C   UNL A   1      50.563  26.992  27.050  1.00  0.00     0.131 A 
ATOM     43  C   UNL A   1      51.317  27.378  24.418  1.00  0.00     0.055 A 
ATOM     44  C   UNL A   1      51.870  26.696  26.656  1.00  0.00     0.041 A 
ATOM     45  F   UNL A   1      50.231  26.747  28.328  1.00  0.00    -0.206 F 
ATOM     46  C   UNL A   1      52.251  26.877  25.329  1.00  0.00     0.022 A 
BRANCH  43  47
ATOM     47  S   UNL A   1      51.729  27.461  22.653  1.00  0.00     0.124 S 
ATOM     48  O   UNL A   1      52.813  26.486  22.557  1.00  0.00    -0.237 OA
ATOM     49  O   UNL A   1      50.473  27.083  22.018  1.00  0.00    -0.237 OA
ATOM     50  O   UNL A   1      52.133  28.852  22.460  1.00  0.00    -0.744 OA
ENDBRANCH  43  47
ENDBRANCH  26  40
BRANCH  27  51
ATOM     51  C   UNL A   1      40.239  29.215  29.349  1.00  0.00     0.023 A 
ATOM     52  C   UNL A   1      39.964  29.270  30.724  1.00  0.00     0.031 A 
ATOM     53  C   UNL A   1      39.166  29.379  28.455  1.00  0.00     0.131 A 
ATOM     54  C   UNL A   1      38.644  29.452  31.163  1.00  0.00     0.055 A 
ATOM     55  C   UNL A   1      37.865  29.619  28.895  1.00  0.00     0.041 A 
ATOM     56  F   UNL A   1      39.374  29.338  27.128  1.00  0.00    -0.206 F 
ATOM     57  C   UNL A   1      37.596  29.644  30.258  1.00  0.00     0.022 A 
BRANCH  54  58
ATOM     58  S   UNL A   1      38.297  29.351  32.940  1.00  0.00     0.124 S 
ATOM     59  O   UNL A   1      37.690  30.651  33.202  1.00  0.00    -0.237 OA
ATOM     60  O   UNL A   1      37.403  28.199  33.008  1.00  0.00    -0.237 OA
ATOM     61  O   UNL A   1      39.617  29.148  33.533  1.00  0.00    -0.744 OA
ENDBRANCH  54  58
ENDBRANCH  27  51
BRANCH  39  62
ATOM     62  C   UNL A   1      45.953  33.161  28.908  1.00  0.00     0.023 A 
ATOM     63  C   UNL A   1      45.903  34.174  27.935  1.00  0.00     0.031 A 
ATOM     64  C   UNL A   1      46.304  33.517  30.222  1.00  0.00     0.131 A 
ATOM     65  C   UNL A   1      46.277  35.483  28.271  1.00  0.00     0.055 A 
ATOM     66  C   UNL A   1      46.613  34.833  30.564  1.00  0.00     0.041 A 
ATOM     67  F   UNL A   1      46.368  32.586  31.188  1.00  0.00    -0.206 F 
ATOM     68  C   UNL A   1      46.618  35.822  29.583  1.00  0.00     0.022 A 
BRANCH  65  69
ATOM     69  S   UNL A   1      46.429  36.709  26.944  1.00  0.00     0.124 S 
ATOM     70  O   UNL A   1      46.422  35.867  25.751  1.00  0.00    -0.237 OA
ATOM     71  O   UNL A   1      45.245  37.538  27.147  1.00  0.00    -0.237 OA
ATOM     72  O   UNL A   1      47.702  37.367  27.230  1.00  0.00    -0.744 OA
ENDBRANCH  65  69
ENDBRANCH  39  62
ENDBRANCH  13  14
ENDBRANCH   6   8
ENDBRANCH   3   4
ENDBRANCH   2   3
ENDBRANCH   1   2
BRANCH   1  73
ATOM     73  C   UNL A   1      37.695  23.747  25.795  1.00  0.00     0.116 C 
BRANCH  73  74
ATOM     74  N   UNL A   1      36.495  23.445  26.541  1.00  0.00    -0.356 N 
ATOM     75  C   UNL A   1      35.451  22.615  26.351  1.00  0.00     0.225 C 
ATOM     76  H   UNL A   1      36.424  23.962  27.376  1.00  0.00     0.163 HD
ATOM     77  O   UNL A   1      34.657  22.554  27.303  1.00  0.00    -0.275 OA
BRANCH  75  78
ATOM     78  C   UNL A   1      35.172  21.728  25.134  1.00  0.00     0.109 C 
ATOM     79  C   UNL A   1      35.459  22.104  23.696  1.00  0.00     0.026 C 
ATOM     80  C   UNL A   1      33.729  21.193  25.245  1.00  0.00     0.164 C 
ATOM     81  C   UNL A   1      34.385  22.940  23.031  1.00  0.00     0.101 C 
ATOM     82  N   UNL A   1      32.710  22.093  24.687  1.00  0.00    -0.332 N 
ATOM     83  C   UNL A   1      32.972  22.879  23.575  1.00  0.00     0.223 C 
ATOM     84  O   UNL A   1      32.113  23.583  23.038  1.00  0.00    -0.275 OA
BRANCH  80  85
ATOM     85  C   UNL A   1      33.612  19.827  24.623  1.00  0.00     0.127 A 
ATOM     86  C   UNL A   1      32.575  19.192  23.967  1.00  0.00     0.048 A 
ATOM     87  O   UNL A   1      34.694  18.997  24.684  1.00  0.00    -0.467 OA
ATOM     88  C   UNL A   1      33.057  17.916  23.594  1.00  0.00     0.042 A 
ATOM     89  C   UNL A   1      34.354  17.851  24.044  1.00  0.00     0.195 A 
ENDBRANCH  80  85
BRANCH  82  90
ATOM     90  C   UNL A   1      31.372  22.206  25.308  1.00  0.00     0.122 C 
BRANCH  90  91
ATOM     91  C   UNL A   1      31.186  23.108  26.537  1.00  0.00     0.050 C 
BRANCH  91  92
ATOM     92  C   UNL A   1      31.733  24.542  26.513  1.00  0.00     0.162 C 
BRANCH  92  93
ATOM     93  O   UNL A   1      30.818  25.572  26.872  1.00  0.00    -0.378 OA
BRANCH  93  94
ATOM     94  C   UNL A   1      30.655  26.739  26.058  1.00  0.00     0.118 C 
ATOM     95  C   UNL A   1      31.796  27.766  26.071  1.00  0.00     0.032 C 
ATOM     96  C   UNL A   1      30.212  26.286  24.665  1.00  0.00     0.032 C 
ATOM     97  C   UNL A   1      31.722  28.825  24.976  1.00  0.00     0.003 C 
ATOM     98  C   UNL A   1      30.095  27.439  23.680  1.00  0.00     0.003 C 
ATOM     99  C   UNL A   1      31.396  28.224  23.613  1.00  0.00     0.000 C 
ENDBRANCH  93  94
ENDBRANCH  92  93
ENDBRANCH  91  92
ENDBRANCH  90  91
ENDBRANCH  82  90
ENDBRANCH  75  78
ENDBRANCH  73  74
ENDBRANCH   1  73
TORSDOF 20
ENDMDL
