MODEL 1
REMARK VINA RESULT:     -11.4      0.000      0.000
REMARK SMILES NC(=O)N[C@@H](C(=O)N[C@@H](CO)C(=O)NCCCCNC(=O)c1ccc(-c2c3nc(c(-c4cc(S(=O)(=O)[O-])ccc4F)c4ccc([nH]4)c(-c4cc(S(=O)(=O)[O-])ccc4F)c4nc(c(-c5cc(S(=O)(=O)[O-])ccc5F)c5ccc2[nH]5)C=C4)C=C3)cc1)c1ccccc1
REMARK SMILES IDX 16 1 15 2 14 3 12 4 13 5 9 7 8 8 6 9 7 10 5 12 4 13 1 14
REMARK SMILES IDX 2 15 3 18 85 20 86 21 90 22 87 23 89 24 88 25 10 26 11 27
REMARK SMILES IDX 17 29 18 30 19 31 20 32 21 34 22 35 23 36 84 37 24 38 83 39
REMARK SMILES IDX 25 40 26 41 27 42 77 43 28 44 82 45 76 46 78 47 29 48 81 49
REMARK SMILES IDX 75 50 74 51 30 53 62 54 42 55 61 56 43 57 46 58 60 59 79 60
REMARK SMILES IDX 44 61 45 62 59 64 80 65 47 66 31 67 32 68 40 69 33 70 39 71
REMARK SMILES IDX 41 72 38 73 34 74 35 75 36 76 37 77 63 78 64 79 72 80 65 81
REMARK SMILES IDX 71 82 73 83 70 84 66 85 67 86 68 87 69 88 48 89 49 90 57 91
REMARK SMILES IDX 50 92 56 93 58 94 55 95 51 96 52 97 53 98 54 99
REMARK H PARENT 14 6 8 11 1 16 1 17 4 19 11 28 19 33 78 52 46 63
REMARK Flexibility Score: inf
ROOT
ATOM      1  C   UNL A   1      32.279  28.561  27.433  1.00  0.00     0.023 C 
ENDROOT
BRANCH   1   2
ATOM      2  C   UNL A   1      31.327  28.068  26.347  1.00  0.00     0.116 C 
BRANCH   2   3
ATOM      3  N   UNL A   1      30.673  26.832  26.730  1.00  0.00    -0.354 N 
ATOM      4  C   UNL A   1      30.178  25.815  25.979  1.00  0.00     0.244 C 
ATOM      5  O   UNL A   1      29.767  24.814  26.579  1.00  0.00    -0.273 OA
ATOM      6  H   UNL A   1      30.571  26.710  27.701  1.00  0.00     0.163 HD
BRANCH   4   7
ATOM      7  C   UNL A   1      30.178  25.829  24.440  1.00  0.00     0.197 C 
BRANCH   7   8
ATOM      8  N   UNL A   1      30.331  24.497  23.847  1.00  0.00    -0.340 N 
ATOM      9  C   UNL A   1      31.477  23.860  23.453  1.00  0.00     0.248 C 
ATOM     10  O   UNL A   1      31.428  22.629  23.517  1.00  0.00    -0.272 OA
ATOM     11  H   UNL A   1      29.497  23.991  23.715  1.00  0.00     0.164 HD
BRANCH   9  12
ATOM     12  C   UNL A   1      32.775  24.665  23.118  1.00  0.00     0.203 C 
BRANCH  12  13
ATOM     13  N   UNL A   1      32.991  24.707  21.669  1.00  0.00    -0.322 N 
ATOM     14  N   UNL A   1      31.777  26.599  21.127  1.00  0.00    -0.352 N 
ATOM     15  C   UNL A   1      32.574  25.589  20.742  1.00  0.00     0.313 C 
ATOM     16  H   UNL A   1      31.460  27.255  20.464  1.00  0.00     0.161 HD
ATOM     17  H   UNL A   1      31.510  26.684  22.070  1.00  0.00     0.161 HD
ATOM     18  O   UNL A   1      32.884  25.449  19.564  1.00  0.00    -0.249 OA
ATOM     19  H   UNL A   1      33.534  23.966  21.314  1.00  0.00     0.166 HD
ENDBRANCH  12  13
BRANCH  12  20
ATOM     20  C   UNL A   1      34.075  24.195  23.775  1.00  0.00    -0.016 A 
ATOM     21  C   UNL A   1      34.473  24.538  25.076  1.00  0.00     0.006 A 
ATOM     22  C   UNL A   1      34.910  23.320  23.050  1.00  0.00     0.006 A 
ATOM     23  C   UNL A   1      35.677  24.067  25.612  1.00  0.00     0.000 A 
ATOM     24  C   UNL A   1      36.101  22.833  23.593  1.00  0.00     0.000 A 
ATOM     25  C   UNL A   1      36.490  23.216  24.871  1.00  0.00     0.000 A 
ENDBRANCH  12  20
ENDBRANCH   9  12
ENDBRANCH   7   8
BRANCH   7  26
ATOM     26  C   UNL A   1      29.011  26.638  23.860  1.00  0.00     0.191 C 
BRANCH  26  27
ATOM     27  O   UNL A   1      27.800  25.891  23.761  1.00  0.00    -0.394 OA
ATOM     28  H   UNL A   1      27.043  26.499  23.770  1.00  0.00     0.210 HD
ENDBRANCH  26  27
ENDBRANCH   7  26
ENDBRANCH   4   7
ENDBRANCH   2   3
ENDBRANCH   1   2
BRANCH   1  29
ATOM     29  C   UNL A   1      33.759  28.320  27.135  1.00  0.00     0.023 C 
BRANCH  29  30
ATOM     30  C   UNL A   1      34.482  29.483  26.462  1.00  0.00     0.116 C 
BRANCH  30  31
ATOM     31  N   UNL A   1      34.064  30.782  26.966  1.00  0.00    -0.352 N 
ATOM     32  C   UNL A   1      34.607  31.524  27.989  1.00  0.00     0.251 C 
ATOM     33  H   UNL A   1      33.289  31.186  26.513  1.00  0.00     0.163 HD
ATOM     34  O   UNL A   1      34.049  32.546  28.371  1.00  0.00    -0.269 OA
BRANCH  32  35
ATOM     35  C   UNL A   1      35.843  31.047  28.645  1.00  0.00     0.039 A 
ATOM     36  C   UNL A   1      35.757  30.011  29.577  1.00  0.00     0.014 A 
ATOM     37  C   UNL A   1      37.084  31.586  28.293  1.00  0.00     0.014 A 
ATOM     38  C   UNL A   1      36.929  29.463  30.102  1.00  0.00     0.010 A 
ATOM     39  C   UNL A   1      38.249  30.986  28.758  1.00  0.00     0.010 A 
ATOM     40  C   UNL A   1      38.184  29.918  29.665  1.00  0.00    -0.014 A 
BRANCH  40  41
ATOM     41  C   UNL A   1      39.442  29.287  30.143  1.00  0.00     0.031 A 
ATOM     42  C   UNL A   1      40.157  29.853  31.339  1.00  0.00     0.074 A 
ATOM     43  C   UNL A   1      39.976  28.256  29.458  1.00  0.00     0.049 A 
ATOM     44  N   UNL A   1      41.305  29.505  31.860  1.00  0.00    -0.248 NA
ATOM     45  C   UNL A   1      39.508  30.987  32.016  1.00  0.00     0.031 C 
ATOM     46  C   UNL A   1      39.399  27.653  28.254  1.00  0.00     0.029 A 
ATOM     47  N   UNL A   1      41.126  27.539  29.668  1.00  0.00    -0.354 N 
ATOM     48  C   UNL A   1      41.524  30.385  32.915  1.00  0.00     0.074 A 
ATOM     49  C   UNL A   1      40.422  31.323  32.912  1.00  0.00     0.031 C 
ATOM     50  C   UNL A   1      40.186  26.644  27.847  1.00  0.00     0.029 A 
ATOM     51  C   UNL A   1      41.344  26.555  28.731  1.00  0.00     0.049 A 
ATOM     52  H   UNL A   1      41.738  27.712  30.419  1.00  0.00     0.167 HD
ATOM     53  C   UNL A   1      42.538  30.394  33.815  1.00  0.00     0.034 A 
ATOM     54  C   UNL A   1      42.366  25.686  28.594  1.00  0.00     0.034 A 
ATOM     55  C   UNL A   1      43.620  29.441  33.810  1.00  0.00     0.049 A 
ATOM     56  C   UNL A   1      43.488  25.721  29.599  1.00  0.00     0.074 A 
ATOM     57  C   UNL A   1      44.665  29.316  34.709  1.00  0.00     0.029 A 
ATOM     58  N   UNL A   1      43.802  28.449  32.853  1.00  0.00    -0.354 N 
ATOM     59  N   UNL A   1      43.653  26.524  30.626  1.00  0.00    -0.248 NA
ATOM     60  C   UNL A   1      44.555  24.726  29.435  1.00  0.00     0.031 C 
ATOM     61  C   UNL A   1      45.512  28.298  34.259  1.00  0.00     0.029 A 
ATOM     62  C   UNL A   1      44.958  27.732  33.122  1.00  0.00     0.049 A 
ATOM     63  H   UNL A   1      43.199  28.281  32.094  1.00  0.00     0.167 HD
ATOM     64  C   UNL A   1      44.828  26.109  31.246  1.00  0.00     0.074 A 
ATOM     65  C   UNL A   1      45.321  24.977  30.487  1.00  0.00     0.031 C 
ATOM     66  C   UNL A   1      45.443  26.613  32.347  1.00  0.00     0.034 A 
BRANCH  53  67
ATOM     67  C   UNL A   1      42.527  31.487  34.859  1.00  0.00     0.023 A 
ATOM     68  C   UNL A   1      41.570  31.515  35.889  1.00  0.00     0.031 A 
ATOM     69  C   UNL A   1      43.463  32.536  34.803  1.00  0.00     0.131 A 
ATOM     70  C   UNL A   1      41.515  32.610  36.765  1.00  0.00     0.055 A 
ATOM     71  C   UNL A   1      43.457  33.579  35.732  1.00  0.00     0.041 A 
ATOM     72  F   UNL A   1      44.388  32.575  33.832  1.00  0.00    -0.206 F 
ATOM     73  C   UNL A   1      42.467  33.630  36.710  1.00  0.00     0.022 A 
BRANCH  70  74
ATOM     74  S   UNL A   1      40.085  32.759  37.871  1.00  0.00     0.124 S 
ATOM     75  O   UNL A   1      40.690  32.486  39.173  1.00  0.00    -0.237 OA
ATOM     76  O   UNL A   1      39.652  34.133  37.644  1.00  0.00    -0.237 OA
ATOM     77  O   UNL A   1      39.169  31.727  37.389  1.00  0.00    -0.744 OA
ENDBRANCH  70  74
ENDBRANCH  53  67
BRANCH  54  78
ATOM     78  C   UNL A   1      42.386  24.717  27.462  1.00  0.00     0.023 A 
ATOM     79  C   UNL A   1      41.602  23.551  27.494  1.00  0.00     0.031 A 
ATOM     80  C   UNL A   1      43.216  24.923  26.345  1.00  0.00     0.131 A 
ATOM     81  C   UNL A   1      41.697  22.616  26.452  1.00  0.00     0.055 A 
ATOM     82  C   UNL A   1      43.268  24.013  25.288  1.00  0.00     0.041 A 
ATOM     83  F   UNL A   1      43.980  26.023  26.262  1.00  0.00    -0.206 F 
ATOM     84  C   UNL A   1      42.516  22.845  25.344  1.00  0.00     0.022 A 
BRANCH  81  85
ATOM     85  S   UNL A   1      40.792  21.051  26.603  1.00  0.00     0.124 S 
ATOM     86  O   UNL A   1      39.495  21.402  26.036  1.00  0.00    -0.237 OA
ATOM     87  O   UNL A   1      41.617  20.147  25.808  1.00  0.00    -0.237 OA
ATOM     88  O   UNL A   1      40.796  20.794  28.041  1.00  0.00    -0.744 OA
ENDBRANCH  81  85
ENDBRANCH  54  78
BRANCH  66  89
ATOM     89  C   UNL A   1      46.693  25.909  32.816  1.00  0.00     0.023 A 
ATOM     90  C   UNL A   1      47.959  26.216  32.288  1.00  0.00     0.031 A 
ATOM     91  C   UNL A   1      46.612  24.909  33.802  1.00  0.00     0.131 A 
ATOM     92  C   UNL A   1      49.084  25.491  32.706  1.00  0.00     0.055 A 
ATOM     93  C   UNL A   1      47.744  24.234  34.258  1.00  0.00     0.041 A 
ATOM     94  F   UNL A   1      45.428  24.574  34.339  1.00  0.00    -0.206 F 
ATOM     95  C   UNL A   1      48.988  24.514  33.700  1.00  0.00     0.022 A 
BRANCH  92  96
ATOM     96  S   UNL A   1      50.668  25.778  31.868  1.00  0.00     0.124 S 
ATOM     97  O   UNL A   1      51.628  25.492  32.928  1.00  0.00    -0.237 OA
ATOM     98  O   UNL A   1      50.621  24.813  30.774  1.00  0.00    -0.237 OA
ATOM     99  O   UNL A   1      50.591  27.179  31.461  1.00  0.00    -0.744 OA
ENDBRANCH  92  96
ENDBRANCH  66  89
ENDBRANCH  40  41
ENDBRANCH  32  35
ENDBRANCH  30  31
ENDBRANCH  29  30
ENDBRANCH   1  29
TORSDOF 20
ENDMDL
MODEL 2
REMARK VINA RESULT:     -11.2      1.899      2.217
REMARK SMILES NC(=O)N[C@@H](C(=O)N[C@@H](CO)C(=O)NCCCCNC(=O)c1ccc(-c2c3nc(c(-c4cc(S(=O)(=O)[O-])ccc4F)c4ccc([nH]4)c(-c4cc(S(=O)(=O)[O-])ccc4F)c4nc(c(-c5cc(S(=O)(=O)[O-])ccc5F)c5ccc2[nH]5)C=C4)C=C3)cc1)c1ccccc1
REMARK SMILES IDX 16 1 15 2 14 3 12 4 13 5 9 7 8 8 6 9 7 10 5 12 4 13 1 14
REMARK SMILES IDX 2 15 3 18 85 20 86 21 90 22 87 23 89 24 88 25 10 26 11 27
REMARK SMILES IDX 17 29 18 30 19 31 20 32 21 34 22 35 23 36 84 37 24 38 83 39
REMARK SMILES IDX 25 40 26 41 27 42 77 43 28 44 82 45 76 46 78 47 29 48 81 49
REMARK SMILES IDX 75 50 74 51 30 53 62 54 42 55 61 56 43 57 46 58 60 59 79 60
REMARK SMILES IDX 44 61 45 62 59 64 80 65 47 66 31 67 32 68 40 69 33 70 39 71
REMARK SMILES IDX 41 72 38 73 34 74 35 75 36 76 37 77 63 78 64 79 72 80 65 81
REMARK SMILES IDX 71 82 73 83 70 84 66 85 67 86 68 87 69 88 48 89 49 90 57 91
REMARK SMILES IDX 50 92 56 93 58 94 55 95 51 96 52 97 53 98 54 99
REMARK H PARENT 14 6 8 11 1 16 1 17 4 19 11 28 19 33 78 52 46 63
REMARK Flexibility Score: inf
ROOT
ATOM      1  C   UNL A   1      31.580  28.969  26.089  1.00  0.00     0.023 C 
ENDROOT
BRANCH   1   2
ATOM      2  C   UNL A   1      32.065  27.529  26.222  1.00  0.00     0.116 C 
BRANCH   2   3
ATOM      3  N   UNL A   1      30.997  26.641  26.635  1.00  0.00    -0.354 N 
ATOM      4  C   UNL A   1      30.154  25.861  25.910  1.00  0.00     0.244 C 
ATOM      5  O   UNL A   1      29.399  25.106  26.534  1.00  0.00    -0.273 OA
ATOM      6  H   UNL A   1      30.858  26.595  27.609  1.00  0.00     0.163 HD
BRANCH   4   7
ATOM      7  C   UNL A   1      30.155  25.827  24.371  1.00  0.00     0.197 C 
BRANCH   7   8
ATOM      8  N   UNL A   1      30.336  24.481  23.819  1.00  0.00    -0.340 N 
ATOM      9  C   UNL A   1      31.498  23.843  23.477  1.00  0.00     0.248 C 
ATOM     10  O   UNL A   1      31.456  22.614  23.573  1.00  0.00    -0.272 OA
ATOM     11  H   UNL A   1      29.509  23.965  23.678  1.00  0.00     0.164 HD
BRANCH   9  12
ATOM     12  C   UNL A   1      32.798  24.650  23.157  1.00  0.00     0.203 C 
BRANCH  12  13
ATOM     13  N   UNL A   1      33.029  24.697  21.711  1.00  0.00    -0.322 N 
ATOM     14  N   UNL A   1      31.800  26.575  21.157  1.00  0.00    -0.352 N 
ATOM     15  C   UNL A   1      32.612  25.574  20.780  1.00  0.00     0.313 C 
ATOM     16  H   UNL A   1      31.481  27.227  20.492  1.00  0.00     0.161 HD
ATOM     17  H   UNL A   1      31.522  26.655  22.098  1.00  0.00     0.161 HD
ATOM     18  O   UNL A   1      32.936  25.439  19.605  1.00  0.00    -0.249 OA
ATOM     19  H   UNL A   1      33.584  23.963  21.360  1.00  0.00     0.166 HD
ENDBRANCH  12  13
BRANCH  12  20
ATOM     20  C   UNL A   1      34.092  24.179  23.826  1.00  0.00    -0.016 A 
ATOM     21  C   UNL A   1      34.437  24.450  25.159  1.00  0.00     0.006 A 
ATOM     22  C   UNL A   1      34.977  23.379  23.076  1.00  0.00     0.006 A 
ATOM     23  C   UNL A   1      35.639  23.983  25.704  1.00  0.00     0.000 A 
ATOM     24  C   UNL A   1      36.166  22.894  23.626  1.00  0.00     0.000 A 
ATOM     25  C   UNL A   1      36.501  23.206  24.939  1.00  0.00     0.000 A 
ENDBRANCH  12  20
ENDBRANCH   9  12
ENDBRANCH   7   8
BRANCH   7  26
ATOM     26  C   UNL A   1      28.972  26.595  23.766  1.00  0.00     0.191 C 
BRANCH  26  27
ATOM     27  O   UNL A   1      27.710  25.982  24.025  1.00  0.00    -0.394 OA
ATOM     28  H   UNL A   1      27.330  26.352  24.837  1.00  0.00     0.210 HD
ENDBRANCH  26  27
ENDBRANCH   7  26
ENDBRANCH   4   7
ENDBRANCH   2   3
ENDBRANCH   1   2
BRANCH   1  29
ATOM     29  C   UNL A   1      32.697  30.005  25.965  1.00  0.00     0.023 C 
BRANCH  29  30
ATOM     30  C   UNL A   1      33.601  30.133  27.187  1.00  0.00     0.116 C 
BRANCH  30  31
ATOM     31  N   UNL A   1      33.658  31.488  27.715  1.00  0.00    -0.352 N 
ATOM     32  C   UNL A   1      34.634  32.069  28.490  1.00  0.00     0.251 C 
ATOM     33  H   UNL A   1      32.895  32.067  27.485  1.00  0.00     0.163 HD
ATOM     34  O   UNL A   1      34.461  33.189  28.958  1.00  0.00    -0.269 OA
BRANCH  32  35
ATOM     35  C   UNL A   1      35.867  31.309  28.783  1.00  0.00     0.039 A 
ATOM     36  C   UNL A   1      37.104  31.917  28.562  1.00  0.00     0.014 A 
ATOM     37  C   UNL A   1      35.793  30.023  29.325  1.00  0.00     0.014 A 
ATOM     38  C   UNL A   1      38.271  31.261  28.959  1.00  0.00     0.010 A 
ATOM     39  C   UNL A   1      36.950  29.407  29.790  1.00  0.00     0.010 A 
ATOM     40  C   UNL A   1      38.200  30.020  29.614  1.00  0.00    -0.014 A 
BRANCH  40  41
ATOM     41  C   UNL A   1      39.422  29.348  30.125  1.00  0.00     0.031 A 
ATOM     42  C   UNL A   1      40.107  29.872  31.357  1.00  0.00     0.074 A 
ATOM     43  C   UNL A   1      39.955  28.316  29.440  1.00  0.00     0.049 A 
ATOM     44  N   UNL A   1      41.226  29.484  31.913  1.00  0.00    -0.248 NA
ATOM     45  C   UNL A   1      39.463  31.010  32.032  1.00  0.00     0.031 C 
ATOM     46  C   UNL A   1      39.408  27.751  28.203  1.00  0.00     0.029 A 
ATOM     47  N   UNL A   1      41.078  27.565  29.677  1.00  0.00    -0.354 N 
ATOM     48  C   UNL A   1      41.429  30.338  32.992  1.00  0.00     0.074 A 
ATOM     49  C   UNL A   1      40.351  31.304  32.968  1.00  0.00     0.031 C 
ATOM     50  C   UNL A   1      40.183  26.729  27.806  1.00  0.00     0.029 A 
ATOM     51  C   UNL A   1      41.305  26.593  28.730  1.00  0.00     0.049 A 
ATOM     52  H   UNL A   1      41.666  27.707  30.453  1.00  0.00     0.167 HD
ATOM     53  C   UNL A   1      42.409  30.304  33.929  1.00  0.00     0.034 A 
ATOM     54  C   UNL A   1      42.309  25.701  28.612  1.00  0.00     0.034 A 
ATOM     55  C   UNL A   1      43.465  29.322  33.944  1.00  0.00     0.049 A 
ATOM     56  C   UNL A   1      43.394  25.687  29.659  1.00  0.00     0.074 A 
ATOM     57  C   UNL A   1      44.473  29.153  34.878  1.00  0.00     0.029 A 
ATOM     58  N   UNL A   1      43.657  28.344  32.975  1.00  0.00    -0.354 N 
ATOM     59  N   UNL A   1      43.541  26.466  30.706  1.00  0.00    -0.248 NA
ATOM     60  C   UNL A   1      44.440  24.668  29.513  1.00  0.00     0.031 C 
ATOM     61  C   UNL A   1      45.310  28.121  34.439  1.00  0.00     0.029 A 
ATOM     62  C   UNL A   1      44.783  27.592  33.272  1.00  0.00     0.049 A 
ATOM     63  H   UNL A   1      43.078  28.207  32.191  1.00  0.00     0.167 HD
ATOM     64  C   UNL A   1      44.682  26.009  31.361  1.00  0.00     0.074 A 
ATOM     65  C   UNL A   1      45.173  24.879  30.598  1.00  0.00     0.031 C 
ATOM     66  C   UNL A   1      45.268  26.476  32.493  1.00  0.00     0.034 A 
BRANCH  53  67
ATOM     67  C   UNL A   1      42.387  31.376  34.993  1.00  0.00     0.023 A 
ATOM     68  C   UNL A   1      43.137  32.559  34.865  1.00  0.00     0.031 A 
ATOM     69  C   UNL A   1      41.637  31.198  36.170  1.00  0.00     0.131 A 
ATOM     70  C   UNL A   1      43.189  33.474  35.927  1.00  0.00     0.055 A 
ATOM     71  C   UNL A   1      41.624  32.155  37.187  1.00  0.00     0.041 A 
ATOM     72  F   UNL A   1      40.917  30.081  36.359  1.00  0.00    -0.206 F 
ATOM     73  C   UNL A   1      42.419  33.294  37.077  1.00  0.00     0.022 A 
BRANCH  70  74
ATOM     74  S   UNL A   1      44.402  34.821  35.848  1.00  0.00     0.124 S 
ATOM     75  O   UNL A   1      43.538  35.986  35.667  1.00  0.00    -0.237 OA
ATOM     76  O   UNL A   1      45.073  34.718  37.139  1.00  0.00    -0.237 OA
ATOM     77  O   UNL A   1      45.222  34.476  34.689  1.00  0.00    -0.744 OA
ENDBRANCH  70  74
ENDBRANCH  53  67
BRANCH  54  78
ATOM     78  C   UNL A   1      42.346  24.753  27.463  1.00  0.00     0.023 A 
ATOM     79  C   UNL A   1      41.614  23.554  27.490  1.00  0.00     0.031 A 
ATOM     80  C   UNL A   1      43.140  25.015  26.332  1.00  0.00     0.131 A 
ATOM     81  C   UNL A   1      41.727  22.642  26.430  1.00  0.00     0.055 A 
ATOM     82  C   UNL A   1      43.209  24.126  25.258  1.00  0.00     0.041 A 
ATOM     83  F   UNL A   1      43.854  26.149  26.253  1.00  0.00    -0.206 F 
ATOM     84  C   UNL A   1      42.510  22.926  25.309  1.00  0.00     0.022 A 
BRANCH  81  85
ATOM     85  S   UNL A   1      40.894  21.036  26.573  1.00  0.00     0.124 S 
ATOM     86  O   UNL A   1      39.659  21.275  25.835  1.00  0.00    -0.237 OA
ATOM     87  O   UNL A   1      41.856  20.140  25.939  1.00  0.00    -0.237 OA
ATOM     88  O   UNL A   1      40.738  20.861  28.014  1.00  0.00    -0.744 OA
ENDBRANCH  81  85
ENDBRANCH  54  78
BRANCH  66  89
ATOM     89  C   UNL A   1      46.481  25.730  32.993  1.00  0.00     0.023 A 
ATOM     90  C   UNL A   1      46.367  24.583  33.796  1.00  0.00     0.031 A 
ATOM     91  C   UNL A   1      47.772  26.184  32.666  1.00  0.00     0.131 A 
ATOM     92  C   UNL A   1      47.522  23.960  34.293  1.00  0.00     0.055 A 
ATOM     93  C   UNL A   1      48.918  25.524  33.112  1.00  0.00     0.041 A 
ATOM     94  F   UNL A   1      47.940  27.276  31.903  1.00  0.00    -0.206 F 
ATOM     95  C   UNL A   1      48.796  24.413  33.941  1.00  0.00     0.022 A 
BRANCH  92  96
ATOM     96  S   UNL A   1      47.338  22.601  35.480  1.00  0.00     0.124 S 
ATOM     97  O   UNL A   1      47.230  21.442  34.599  1.00  0.00    -0.237 OA
ATOM     98  O   UNL A   1      48.569  22.697  36.258  1.00  0.00    -0.237 OA
ATOM     99  O   UNL A   1      46.118  22.943  36.207  1.00  0.00    -0.744 OA
ENDBRANCH  92  96
ENDBRANCH  66  89
ENDBRANCH  40  41
ENDBRANCH  32  35
ENDBRANCH  30  31
ENDBRANCH  29  30
ENDBRANCH   1  29
TORSDOF 20
ENDMDL
MODEL 3
REMARK VINA RESULT:     -11.1      3.081      8.484
REMARK SMILES NC(=O)N[C@@H](C(=O)N[C@@H](CO)C(=O)NCCCCNC(=O)c1ccc(-c2c3nc(c(-c4cc(S(=O)(=O)[O-])ccc4F)c4ccc([nH]4)c(-c4cc(S(=O)(=O)[O-])ccc4F)c4nc(c(-c5cc(S(=O)(=O)[O-])ccc5F)c5ccc2[nH]5)C=C4)C=C3)cc1)c1ccccc1
REMARK SMILES IDX 16 1 15 2 14 3 12 4 13 5 9 7 8 8 6 9 7 10 5 12 4 13 1 14
REMARK SMILES IDX 2 15 3 18 85 20 86 21 90 22 87 23 89 24 88 25 10 26 11 27
REMARK SMILES IDX 17 29 18 30 19 31 20 32 21 34 22 35 23 36 84 37 24 38 83 39
REMARK SMILES IDX 25 40 26 41 27 42 77 43 28 44 82 45 76 46 78 47 29 48 81 49
REMARK SMILES IDX 75 50 74 51 30 53 62 54 42 55 61 56 43 57 46 58 60 59 79 60
REMARK SMILES IDX 44 61 45 62 59 64 80 65 47 66 31 67 32 68 40 69 33 70 39 71
REMARK SMILES IDX 41 72 38 73 34 74 35 75 36 76 37 77 63 78 64 79 72 80 65 81
REMARK SMILES IDX 71 82 73 83 70 84 66 85 67 86 68 87 69 88 48 89 49 90 57 91
REMARK SMILES IDX 50 92 56 93 58 94 55 95 51 96 52 97 53 98 54 99
REMARK H PARENT 14 6 8 11 1 16 1 17 4 19 11 28 19 33 78 52 46 63
REMARK Flexibility Score: inf
ROOT
ATOM      1  C   UNL A   1      31.013  31.244  25.610  1.00  0.00     0.023 C 
ENDROOT
BRANCH   1   2
ATOM      2  C   UNL A   1      31.965  30.053  25.659  1.00  0.00     0.116 C 
BRANCH   2   3
ATOM      3  N   UNL A   1      31.744  29.240  26.838  1.00  0.00    -0.354 N 
ATOM      4  C   UNL A   1      31.527  27.906  26.975  1.00  0.00     0.244 C 
ATOM      5  O   UNL A   1      31.482  27.452  28.125  1.00  0.00    -0.273 OA
ATOM      6  H   UNL A   1      31.753  29.741  27.685  1.00  0.00     0.163 HD
BRANCH   4   7
ATOM      7  C   UNL A   1      31.413  26.946  25.777  1.00  0.00     0.197 C 
BRANCH   7   8
ATOM      8  N   UNL A   1      32.642  26.860  24.983  1.00  0.00    -0.340 N 
ATOM      9  C   UNL A   1      32.803  27.015  23.632  1.00  0.00     0.248 C 
ATOM     10  O   UNL A   1      33.911  27.439  23.293  1.00  0.00    -0.272 OA
ATOM     11  H   UNL A   1      33.464  26.666  25.490  1.00  0.00     0.164 HD
BRANCH   9  12
ATOM     12  C   UNL A   1      31.605  26.820  22.648  1.00  0.00     0.203 C 
BRANCH  12  13
ATOM     13  N   UNL A   1      32.092  26.622  21.280  1.00  0.00    -0.322 N 
ATOM     14  N   UNL A   1      32.725  24.402  21.384  1.00  0.00    -0.352 N 
ATOM     15  C   UNL A   1      32.581  25.528  20.669  1.00  0.00     0.313 C 
ATOM     16  H   UNL A   1      33.082  23.589  20.957  1.00  0.00     0.161 HD
ATOM     17  H   UNL A   1      32.475  24.387  22.336  1.00  0.00     0.161 HD
ATOM     18  O   UNL A   1      32.924  25.572  19.492  1.00  0.00    -0.249 OA
ATOM     19  H   UNL A   1      32.055  27.426  20.712  1.00  0.00     0.166 HD
ENDBRANCH  12  13
BRANCH  12  20
ATOM     20  C   UNL A   1      30.543  27.922  22.616  1.00  0.00    -0.016 A 
ATOM     21  C   UNL A   1      30.747  29.202  22.078  1.00  0.00     0.006 A 
ATOM     22  C   UNL A   1      29.258  27.624  23.113  1.00  0.00     0.006 A 
ATOM     23  C   UNL A   1      29.727  30.159  22.082  1.00  0.00     0.000 A 
ATOM     24  C   UNL A   1      28.233  28.573  23.097  1.00  0.00     0.000 A 
ATOM     25  C   UNL A   1      28.471  29.845  22.590  1.00  0.00     0.000 A 
ENDBRANCH  12  20
ENDBRANCH   9  12
ENDBRANCH   7   8
BRANCH   7  26
ATOM     26  C   UNL A   1      30.830  25.583  26.172  1.00  0.00     0.191 C 
BRANCH  26  27
ATOM     27  O   UNL A   1      31.597  24.906  27.165  1.00  0.00    -0.394 OA
ATOM     28  H   UNL A   1      32.229  25.525  27.563  1.00  0.00     0.210 HD
ENDBRANCH  26  27
ENDBRANCH   7  26
ENDBRANCH   4   7
ENDBRANCH   2   3
ENDBRANCH   1   2
BRANCH   1  29
ATOM     29  C   UNL A   1      31.139  32.204  26.794  1.00  0.00     0.023 C 
BRANCH  29  30
ATOM     30  C   UNL A   1      32.514  32.839  26.970  1.00  0.00     0.116 C 
BRANCH  30  31
ATOM     31  N   UNL A   1      32.460  34.153  27.593  1.00  0.00    -0.352 N 
ATOM     32  C   UNL A   1      33.269  34.674  28.575  1.00  0.00     0.251 C 
ATOM     33  H   UNL A   1      31.747  34.750  27.268  1.00  0.00     0.163 HD
ATOM     34  O   UNL A   1      33.003  35.758  29.080  1.00  0.00    -0.269 OA
BRANCH  32  35
ATOM     35  C   UNL A   1      34.434  33.890  29.037  1.00  0.00     0.039 A 
ATOM     36  C   UNL A   1      35.718  34.363  28.764  1.00  0.00     0.014 A 
ATOM     37  C   UNL A   1      34.250  32.723  29.784  1.00  0.00     0.014 A 
ATOM     38  C   UNL A   1      36.823  33.704  29.309  1.00  0.00     0.010 A 
ATOM     39  C   UNL A   1      35.346  32.115  30.388  1.00  0.00     0.010 A 
ATOM     40  C   UNL A   1      36.642  32.600  30.159  1.00  0.00    -0.014 A 
BRANCH  40  41
ATOM     41  C   UNL A   1      37.797  31.941  30.821  1.00  0.00     0.031 A 
ATOM     42  C   UNL A   1      38.574  30.880  30.090  1.00  0.00     0.074 A 
ATOM     43  C   UNL A   1      38.097  32.243  32.100  1.00  0.00     0.049 A 
ATOM     44  N   UNL A   1      39.555  30.128  30.518  1.00  0.00    -0.248 NA
ATOM     45  C   UNL A   1      38.167  30.606  28.703  1.00  0.00     0.031 C 
ATOM     46  C   UNL A   1      37.384  33.219  32.928  1.00  0.00     0.029 A 
ATOM     47  N   UNL A   1      39.073  31.755  32.932  1.00  0.00    -0.354 N 
ATOM     48  C   UNL A   1      39.872  29.281  29.461  1.00  0.00     0.074 A 
ATOM     49  C   UNL A   1      38.932  29.570  28.399  1.00  0.00     0.031 C 
ATOM     50  C   UNL A   1      37.961  33.273  34.139  1.00  0.00     0.029 A 
ATOM     51  C   UNL A   1      39.054  32.308  34.192  1.00  0.00     0.049 A 
ATOM     52  H   UNL A   1      39.725  31.073  32.654  1.00  0.00     0.167 HD
ATOM     53  C   UNL A   1      40.868  28.366  29.377  1.00  0.00     0.034 A 
ATOM     54  C   UNL A   1      39.823  32.057  35.271  1.00  0.00     0.034 A 
ATOM     55  C   UNL A   1      41.805  28.104  30.442  1.00  0.00     0.049 A 
ATOM     56  C   UNL A   1      40.918  31.028  35.158  1.00  0.00     0.074 A 
ATOM     57  C   UNL A   1      42.892  27.246  30.445  1.00  0.00     0.029 A 
ATOM     58  N   UNL A   1      41.763  28.692  31.701  1.00  0.00    -0.354 N 
ATOM     59  N   UNL A   1      41.242  30.275  34.132  1.00  0.00    -0.248 NA
ATOM     60  C   UNL A   1      41.758  30.824  36.345  1.00  0.00     0.031 C 
ATOM     61  C   UNL A   1      43.463  27.265  31.721  1.00  0.00     0.029 A 
ATOM     62  C   UNL A   1      42.783  28.192  32.496  1.00  0.00     0.049 A 
ATOM     63  H   UNL A   1      41.104  29.365  31.987  1.00  0.00     0.167 HD
ATOM     64  C   UNL A   1      42.344  29.529  34.542  1.00  0.00     0.074 A 
ATOM     65  C   UNL A   1      42.636  29.935  35.902  1.00  0.00     0.031 C 
ATOM     66  C   UNL A   1      43.054  28.597  33.856  1.00  0.00     0.034 A 
BRANCH  53  67
ATOM     67  C   UNL A   1      40.972  27.571  28.096  1.00  0.00     0.023 A 
ATOM     68  C   UNL A   1      40.580  26.222  28.030  1.00  0.00     0.031 A 
ATOM     69  C   UNL A   1      41.505  28.158  26.934  1.00  0.00     0.131 A 
ATOM     70  C   UNL A   1      40.807  25.483  26.859  1.00  0.00     0.055 A 
ATOM     71  C   UNL A   1      41.646  27.439  25.744  1.00  0.00     0.041 A 
ATOM     72  F   UNL A   1      41.915  29.435  26.940  1.00  0.00    -0.206 F 
ATOM     73  C   UNL A   1      41.313  26.088  25.707  1.00  0.00     0.022 A 
BRANCH  70  74
ATOM     74  S   UNL A   1      40.578  23.684  26.916  1.00  0.00     0.124 S 
ATOM     75  O   UNL A   1      40.829  23.399  28.327  1.00  0.00    -0.237 OA
ATOM     76  O   UNL A   1      39.199  23.527  26.467  1.00  0.00    -0.237 OA
ATOM     77  O   UNL A   1      41.596  23.180  25.996  1.00  0.00    -0.744 OA
ENDBRANCH  70  74
ENDBRANCH  53  67
BRANCH  54  78
ATOM     78  C   UNL A   1      39.585  32.782  36.552  1.00  0.00     0.023 A 
ATOM     79  C   UNL A   1      38.712  32.266  37.524  1.00  0.00     0.031 A 
ATOM     80  C   UNL A   1      40.201  34.020  36.809  1.00  0.00     0.131 A 
ATOM     81  C   UNL A   1      38.445  33.005  38.686  1.00  0.00     0.055 A 
ATOM     82  C   UNL A   1      39.970  34.727  37.990  1.00  0.00     0.041 A 
ATOM     83  F   UNL A   1      41.049  34.554  35.916  1.00  0.00    -0.206 F 
ATOM     84  C   UNL A   1      39.077  34.226  38.931  1.00  0.00     0.022 A 
BRANCH  81  85
ATOM     85  S   UNL A   1      37.193  32.383  39.843  1.00  0.00     0.124 S 
ATOM     86  O   UNL A   1      36.993  33.537  40.713  1.00  0.00    -0.237 OA
ATOM     87  O   UNL A   1      36.089  32.056  38.946  1.00  0.00    -0.237 OA
ATOM     88  O   UNL A   1      37.847  31.236  40.468  1.00  0.00    -0.744 OA
ENDBRANCH  81  85
ENDBRANCH  54  78
BRANCH  66  89
ATOM     89  C   UNL A   1      44.243  27.989  34.558  1.00  0.00     0.023 A 
ATOM     90  C   UNL A   1      44.156  26.760  35.235  1.00  0.00     0.031 A 
ATOM     91  C   UNL A   1      45.481  28.658  34.557  1.00  0.00     0.131 A 
ATOM     92  C   UNL A   1      45.270  26.265  35.929  1.00  0.00     0.055 A 
ATOM     93  C   UNL A   1      46.602  28.130  35.197  1.00  0.00     0.041 A 
ATOM     94  F   UNL A   1      45.620  29.836  33.928  1.00  0.00    -0.206 F 
ATOM     95  C   UNL A   1      46.497  26.933  35.900  1.00  0.00     0.022 A 
BRANCH  92  96
ATOM     96  S   UNL A   1      45.071  24.778  36.949  1.00  0.00     0.124 S 
ATOM     97  O   UNL A   1      44.358  25.300  38.110  1.00  0.00    -0.237 OA
ATOM     98  O   UNL A   1      44.305  23.899  36.072  1.00  0.00    -0.237 OA
ATOM     99  O   UNL A   1      46.445  24.351  37.206  1.00  0.00    -0.744 OA
ENDBRANCH  92  96
ENDBRANCH  66  89
ENDBRANCH  40  41
ENDBRANCH  32  35
ENDBRANCH  30  31
ENDBRANCH  29  30
ENDBRANCH   1  29
TORSDOF 20
ENDMDL
