MODEL 1
REMARK VINA RESULT:     -12.2      0.000      0.000
REMARK SMILES Cc1ccc(C(=O)N[C@@H]2C=C[C@H](C(=O)NCCCCNC(=O)c3ccc(-c4c5nc(c(-c6cc(S(=O)(=O)[O-])ccc6F)c6ccc([nH]6)c(-c6cc(S(=O)(=O)[O-])ccc6F)c6nc(c(-c7cc(S(=O)(=O)[O-])ccc7F)c7ccc4[nH]7)C=C6)C=C5)cc3)C2)c(F)c1
REMARK SMILES IDX 18 1 17 2 16 3 15 4 13 5 14 6 12 8 9 9 10 10 86 11 11 12
REMARK SMILES IDX 8 13 6 14 7 15 5 17 1 18 2 19 3 20 89 21 4 22 87 23 88 24
REMARK SMILES IDX 19 25 20 26 21 27 22 29 23 30 24 31 85 32 25 33 84 34 26 35
REMARK SMILES IDX 27 36 28 37 78 38 29 39 83 40 77 41 79 42 30 43 82 44 76 45
REMARK SMILES IDX 75 46 31 48 63 49 43 50 62 51 44 52 47 53 61 54 80 55 45 56
REMARK SMILES IDX 46 57 60 59 81 60 48 61 32 62 33 63 41 64 34 65 40 66 42 67
REMARK SMILES IDX 39 68 35 69 36 70 37 71 38 72 64 73 65 74 73 75 66 76 72 77
REMARK SMILES IDX 74 78 71 79 67 80 68 81 69 82 70 83 49 84 50 85 58 86 51 87
REMARK SMILES IDX 57 88 59 89 56 90 52 91 53 92 54 93 55 94
REMARK H PARENT 15 7 8 16 20 28 79 47 47 58
REMARK Flexibility Score: inf
ROOT
ATOM      1  C   UNL A   1      31.477  32.131  26.789  1.00  0.00     0.023 C 
ENDROOT
BRANCH   1   2
ATOM      2  C   UNL A   1      31.553  30.626  26.532  1.00  0.00     0.023 C 
BRANCH   2   3
ATOM      3  C   UNL A   1      31.382  30.187  25.078  1.00  0.00     0.116 C 
BRANCH   3   4
ATOM      4  N   UNL A   1      32.604  29.672  24.487  1.00  0.00    -0.356 N 
ATOM      5  C   UNL A   1      33.086  28.389  24.492  1.00  0.00     0.227 C 
ATOM      6  O   UNL A   1      34.066  28.129  23.795  1.00  0.00    -0.274 OA
ATOM      7  H   UNL A   1      33.162  30.334  24.020  1.00  0.00     0.163 HD
BRANCH   5   8
ATOM      8  C   UNL A   1      32.425  27.367  25.419  1.00  0.00     0.103 C 
ATOM      9  C   UNL A   1      32.935  24.989  24.937  1.00  0.00     0.106 C 
ATOM     10  C   UNL A   1      31.525  25.357  24.591  1.00  0.00    -0.006 C 
ATOM     11  C   UNL A   1      33.420  26.236  25.695  1.00  0.00     0.047 C 
ATOM     12  C   UNL A   1      31.258  26.646  24.828  1.00  0.00    -0.016 C 
BRANCH   9  13
ATOM     13  N   UNL A   1      33.598  24.611  23.700  1.00  0.00    -0.346 N 
ATOM     14  C   UNL A   1      33.729  23.413  23.039  1.00  0.00     0.254 C 
ATOM     15  O   UNL A   1      34.019  23.410  21.846  1.00  0.00    -0.269 OA
ATOM     16  H   UNL A   1      34.041  25.363  23.245  1.00  0.00     0.164 HD
BRANCH  14  17
ATOM     17  C   UNL A   1      33.621  22.138  23.765  1.00  0.00     0.075 A 
ATOM     18  C   UNL A   1      33.628  18.009  24.929  1.00  0.00     0.044 C 
ATOM     19  C   UNL A   1      33.578  19.476  24.618  1.00  0.00    -0.048 A 
ATOM     20  C   UNL A   1      34.615  20.331  25.018  1.00  0.00     0.004 A 
ATOM     21  C   UNL A   1      32.491  20.005  23.914  1.00  0.00     0.043 A 
ATOM     22  C   UNL A   1      34.628  21.671  24.613  1.00  0.00     0.017 A 
ATOM     23  C   UNL A   1      32.521  21.328  23.483  1.00  0.00     0.136 A 
ATOM     24  F   UNL A   1      31.501  21.772  22.734  1.00  0.00    -0.206 F 
ENDBRANCH  14  17
ENDBRANCH   9  13
ENDBRANCH   5   8
ENDBRANCH   3   4
ENDBRANCH   2   3
ENDBRANCH   1   2
BRANCH   1  25
ATOM     25  C   UNL A   1      32.782  32.798  27.211  1.00  0.00     0.116 C 
BRANCH  25  26
ATOM     26  N   UNL A   1      32.592  34.156  27.689  1.00  0.00    -0.352 N 
ATOM     27  C   UNL A   1      33.207  34.819  28.725  1.00  0.00     0.251 C 
ATOM     28  H   UNL A   1      31.922  34.682  27.195  1.00  0.00     0.163 HD
ATOM     29  O   UNL A   1      32.783  35.921  29.056  1.00  0.00    -0.269 OA
BRANCH  27  30
ATOM     30  C   UNL A   1      34.343  34.205  29.455  1.00  0.00     0.039 A 
ATOM     31  C   UNL A   1      34.064  33.332  30.510  1.00  0.00     0.014 A 
ATOM     32  C   UNL A   1      35.671  34.500  29.133  1.00  0.00     0.014 A 
ATOM     33  C   UNL A   1      35.112  32.726  31.209  1.00  0.00     0.010 A 
ATOM     34  C   UNL A   1      36.712  33.827  29.772  1.00  0.00     0.010 A 
ATOM     35  C   UNL A   1      36.446  32.947  30.831  1.00  0.00    -0.014 A 
BRANCH  35  36
ATOM     36  C   UNL A   1      37.562  32.283  31.561  1.00  0.00     0.031 A 
ATOM     37  C   UNL A   1      38.327  31.156  30.919  1.00  0.00     0.074 A 
ATOM     38  C   UNL A   1      37.866  32.675  32.814  1.00  0.00     0.049 A 
ATOM     39  N   UNL A   1      39.334  30.463  31.389  1.00  0.00    -0.248 NA
ATOM     40  C   UNL A   1      37.881  30.728  29.585  1.00  0.00     0.031 C 
ATOM     41  C   UNL A   1      37.156  33.710  33.568  1.00  0.00     0.029 A 
ATOM     42  N   UNL A   1      38.847  32.252  33.676  1.00  0.00    -0.354 N 
ATOM     43  C   UNL A   1      39.630  29.512  30.418  1.00  0.00     0.074 A 
ATOM     44  C   UNL A   1      38.648  29.672  29.368  1.00  0.00     0.031 C 
ATOM     45  C   UNL A   1      37.744  33.864  34.765  1.00  0.00     0.029 A 
ATOM     46  C   UNL A   1      38.846  32.914  34.882  1.00  0.00     0.049 A 
ATOM     47  H   UNL A   1      39.493  31.543  33.451  1.00  0.00     0.167 HD
ATOM     48  C   UNL A   1      40.641  28.605  30.392  1.00  0.00     0.034 A 
ATOM     49  C   UNL A   1      39.637  32.770  35.964  1.00  0.00     0.034 A 
ATOM     50  C   UNL A   1      41.614  28.466  31.450  1.00  0.00     0.049 A 
ATOM     51  C   UNL A   1      40.760  31.767  35.914  1.00  0.00     0.074 A 
ATOM     52  C   UNL A   1      42.719  27.634  31.501  1.00  0.00     0.029 A 
ATOM     53  N   UNL A   1      41.591  29.162  32.654  1.00  0.00    -0.354 N 
ATOM     54  N   UNL A   1      41.079  30.930  34.953  1.00  0.00    -0.248 NA
ATOM     55  C   UNL A   1      41.643  31.707  37.084  1.00  0.00     0.031 C 
ATOM     56  C   UNL A   1      43.310  27.764  32.763  1.00  0.00     0.029 A 
ATOM     57  C   UNL A   1      42.638  28.750  33.467  1.00  0.00     0.049 A 
ATOM     58  H   UNL A   1      40.927  29.848  32.894  1.00  0.00     0.167 HD
ATOM     59  C   UNL A   1      42.220  30.262  35.394  1.00  0.00     0.074 A 
ATOM     60  C   UNL A   1      42.541  30.814  36.695  1.00  0.00     0.031 C 
ATOM     61  C   UNL A   1      42.937  29.288  34.776  1.00  0.00     0.034 A 
BRANCH  48  62
ATOM     62  C   UNL A   1      40.710  27.676  29.200  1.00  0.00     0.023 A 
ATOM     63  C   UNL A   1      41.645  27.861  28.164  1.00  0.00     0.031 A 
ATOM     64  C   UNL A   1      39.796  26.616  29.068  1.00  0.00     0.131 A 
ATOM     65  C   UNL A   1      41.580  27.071  27.006  1.00  0.00     0.055 A 
ATOM     66  C   UNL A   1      39.799  25.769  27.956  1.00  0.00     0.041 A 
ATOM     67  F   UNL A   1      38.865  26.395  30.009  1.00  0.00    -0.206 F 
ATOM     68  C   UNL A   1      40.681  26.007  26.907  1.00  0.00     0.022 A 
BRANCH  65  69
ATOM     69  S   UNL A   1      42.556  27.572  25.559  1.00  0.00     0.124 S 
ATOM     70  O   UNL A   1      43.900  27.657  26.126  1.00  0.00    -0.237 OA
ATOM     71  O   UNL A   1      42.323  26.475  24.627  1.00  0.00    -0.237 OA
ATOM     72  O   UNL A   1      41.968  28.854  25.176  1.00  0.00    -0.744 OA
ENDBRANCH  65  69
ENDBRANCH  48  62
BRANCH  49  73
ATOM     73  C   UNL A   1      39.388  33.590  37.186  1.00  0.00     0.023 A 
ATOM     74  C   UNL A   1      38.667  33.081  38.278  1.00  0.00     0.031 A 
ATOM     75  C   UNL A   1      39.865  34.911  37.268  1.00  0.00     0.131 A 
ATOM     76  C   UNL A   1      38.413  33.900  39.390  1.00  0.00     0.055 A 
ATOM     77  C   UNL A   1      39.656  35.703  38.398  1.00  0.00     0.041 A 
ATOM     78  F   UNL A   1      40.566  35.444  36.254  1.00  0.00    -0.206 F 
ATOM     79  C   UNL A   1      38.916  35.201  39.464  1.00  0.00     0.022 A 
BRANCH  76  80
ATOM     80  S   UNL A   1      37.359  33.262  40.722  1.00  0.00     0.124 S 
ATOM     81  O   UNL A   1      36.243  32.696  39.973  1.00  0.00    -0.237 OA
ATOM     82  O   UNL A   1      38.244  32.305  41.378  1.00  0.00    -0.237 OA
ATOM     83  O   UNL A   1      37.044  34.454  41.507  1.00  0.00    -0.744 OA
ENDBRANCH  76  80
ENDBRANCH  49  73
BRANCH  61  84
ATOM     84  C   UNL A   1      44.172  28.788  35.494  1.00  0.00     0.023 A 
ATOM     85  C   UNL A   1      44.127  27.697  36.382  1.00  0.00     0.031 A 
ATOM     86  C   UNL A   1      45.407  29.438  35.315  1.00  0.00     0.131 A 
ATOM     87  C   UNL A   1      45.270  27.345  37.116  1.00  0.00     0.055 A 
ATOM     88  C   UNL A   1      46.559  29.031  35.989  1.00  0.00     0.041 A 
ATOM     89  F   UNL A   1      45.514  30.489  34.486  1.00  0.00    -0.206 F 
ATOM     90  C   UNL A   1      46.490  27.992  36.911  1.00  0.00     0.022 A 
BRANCH  87  91
ATOM     91  S   UNL A   1      45.103  26.125  38.450  1.00  0.00     0.124 S 
ATOM     92  O   UNL A   1      44.217  26.816  39.381  1.00  0.00    -0.237 OA
ATOM     93  O   UNL A   1      44.530  24.979  37.753  1.00  0.00    -0.237 OA
ATOM     94  O   UNL A   1      46.475  25.944  38.921  1.00  0.00    -0.744 OA
ENDBRANCH  87  91
ENDBRANCH  61  84
ENDBRANCH  35  36
ENDBRANCH  27  30
ENDBRANCH  25  26
ENDBRANCH   1  25
TORSDOF 16
ENDMDL
MODEL 2
REMARK VINA RESULT:     -12.2      3.230      8.512
REMARK SMILES Cc1ccc(C(=O)N[C@@H]2C=C[C@H](C(=O)NCCCCNC(=O)c3ccc(-c4c5nc(c(-c6cc(S(=O)(=O)[O-])ccc6F)c6ccc([nH]6)c(-c6cc(S(=O)(=O)[O-])ccc6F)c6nc(c(-c7cc(S(=O)(=O)[O-])ccc7F)c7ccc4[nH]7)C=C6)C=C5)cc3)C2)c(F)c1
REMARK SMILES IDX 18 1 17 2 16 3 15 4 13 5 14 6 12 8 9 9 10 10 86 11 11 12
REMARK SMILES IDX 8 13 6 14 7 15 5 17 1 18 2 19 3 20 89 21 4 22 87 23 88 24
REMARK SMILES IDX 19 25 20 26 21 27 22 29 23 30 24 31 85 32 25 33 84 34 26 35
REMARK SMILES IDX 27 36 28 37 78 38 29 39 83 40 77 41 79 42 30 43 82 44 76 45
REMARK SMILES IDX 75 46 31 48 63 49 43 50 62 51 44 52 47 53 61 54 80 55 45 56
REMARK SMILES IDX 46 57 60 59 81 60 48 61 32 62 33 63 41 64 34 65 40 66 42 67
REMARK SMILES IDX 39 68 35 69 36 70 37 71 38 72 64 73 65 74 73 75 66 76 72 77
REMARK SMILES IDX 74 78 71 79 67 80 68 81 69 82 70 83 49 84 50 85 58 86 51 87
REMARK SMILES IDX 57 88 59 89 56 90 52 91 53 92 54 93 55 94
REMARK H PARENT 15 7 8 16 20 28 79 47 47 58
REMARK Flexibility Score: inf
ROOT
ATOM      1  C   UNL A   1      33.132  29.305  24.954  1.00  0.00     0.023 C 
ENDROOT
BRANCH   1   2
ATOM      2  C   UNL A   1      31.610  29.166  24.921  1.00  0.00     0.023 C 
BRANCH   2   3
ATOM      3  C   UNL A   1      31.058  28.070  24.011  1.00  0.00     0.116 C 
BRANCH   3   4
ATOM      4  N   UNL A   1      30.636  26.884  24.733  1.00  0.00    -0.356 N 
ATOM      5  C   UNL A   1      31.292  25.689  24.880  1.00  0.00     0.227 C 
ATOM      6  O   UNL A   1      30.832  24.862  25.667  1.00  0.00    -0.274 OA
ATOM      7  H   UNL A   1      29.760  26.945  25.177  1.00  0.00     0.163 HD
BRANCH   5   8
ATOM      8  C   UNL A   1      32.518  25.419  24.006  1.00  0.00     0.103 C 
ATOM      9  C   UNL A   1      33.909  23.478  24.671  1.00  0.00     0.106 C 
ATOM     10  C   UNL A   1      34.582  24.788  24.942  1.00  0.00    -0.006 C 
ATOM     11  C   UNL A   1      32.685  23.906  23.844  1.00  0.00     0.047 C 
ATOM     12  C   UNL A   1      33.821  25.836  24.605  1.00  0.00    -0.016 C 
BRANCH   9  13
ATOM     13  N   UNL A   1      33.703  22.826  25.954  1.00  0.00    -0.346 N 
ATOM     14  C   UNL A   1      33.866  21.529  26.379  1.00  0.00     0.254 C 
ATOM     15  O   UNL A   1      33.975  21.296  27.580  1.00  0.00    -0.269 OA
ATOM     16  H   UNL A   1      33.384  23.435  26.658  1.00  0.00     0.164 HD
BRANCH  14  17
ATOM     17  C   UNL A   1      33.813  20.413  25.423  1.00  0.00     0.075 A 
ATOM     18  C   UNL A   1      33.856  16.566  23.525  1.00  0.00     0.044 C 
ATOM     19  C   UNL A   1      33.837  17.956  24.089  1.00  0.00    -0.048 A 
ATOM     20  C   UNL A   1      32.624  18.612  24.342  1.00  0.00     0.004 A 
ATOM     21  C   UNL A   1      35.040  18.611  24.375  1.00  0.00     0.043 A 
ATOM     22  C   UNL A   1      32.609  19.853  24.988  1.00  0.00     0.017 A 
ATOM     23  C   UNL A   1      35.023  19.828  25.048  1.00  0.00     0.136 A 
ATOM     24  F   UNL A   1      36.198  20.380  25.384  1.00  0.00    -0.206 F 
ENDBRANCH  14  17
ENDBRANCH   9  13
ENDBRANCH   5   8
ENDBRANCH   3   4
ENDBRANCH   2   3
ENDBRANCH   1   2
BRANCH   1  25
ATOM     25  C   UNL A   1      33.757  29.422  26.340  1.00  0.00     0.116 C 
BRANCH  25  26
ATOM     26  N   UNL A   1      33.617  30.749  26.910  1.00  0.00    -0.352 N 
ATOM     27  C   UNL A   1      34.381  31.384  27.863  1.00  0.00     0.251 C 
ATOM     28  H   UNL A   1      32.863  31.277  26.562  1.00  0.00     0.163 HD
ATOM     29  O   UNL A   1      33.993  32.455  28.315  1.00  0.00    -0.269 OA
BRANCH  27  30
ATOM     30  C   UNL A   1      35.637  30.772  28.362  1.00  0.00     0.039 A 
ATOM     31  C   UNL A   1      36.852  31.218  27.835  1.00  0.00     0.014 A 
ATOM     32  C   UNL A   1      35.629  29.751  29.316  1.00  0.00     0.014 A 
ATOM     33  C   UNL A   1      38.053  30.671  28.294  1.00  0.00     0.010 A 
ATOM     34  C   UNL A   1      36.831  29.271  29.837  1.00  0.00     0.010 A 
ATOM     35  C   UNL A   1      38.058  29.711  29.318  1.00  0.00    -0.014 A 
BRANCH  35  36
ATOM     36  C   UNL A   1      39.339  29.146  29.824  1.00  0.00     0.031 A 
ATOM     37  C   UNL A   1      40.024  29.760  31.017  1.00  0.00     0.074 A 
ATOM     38  C   UNL A   1      39.902  28.098  29.190  1.00  0.00     0.049 A 
ATOM     39  N   UNL A   1      41.135  29.404  31.610  1.00  0.00    -0.248 NA
ATOM     40  C   UNL A   1      39.392  30.952  31.601  1.00  0.00     0.031 C 
ATOM     41  C   UNL A   1      39.371  27.458  27.986  1.00  0.00     0.029 A 
ATOM     42  N   UNL A   1      41.044  27.388  29.467  1.00  0.00    -0.354 N 
ATOM     43  C   UNL A   1      41.343  30.335  32.623  1.00  0.00     0.074 A 
ATOM     44  C   UNL A   1      40.280  31.310  32.514  1.00  0.00     0.031 C 
ATOM     45  C   UNL A   1      40.165  26.431  27.647  1.00  0.00     0.029 A 
ATOM     46  C   UNL A   1      41.285  26.362  28.582  1.00  0.00     0.049 A 
ATOM     47  H   UNL A   1      41.635  27.592  30.228  1.00  0.00     0.167 HD
ATOM     48  C   UNL A   1      42.314  30.360  33.572  1.00  0.00     0.034 A 
ATOM     49  C   UNL A   1      42.293  25.470  28.524  1.00  0.00     0.034 A 
ATOM     50  C   UNL A   1      43.364  29.372  33.665  1.00  0.00     0.049 A 
ATOM     51  C   UNL A   1      43.357  25.506  29.590  1.00  0.00     0.074 A 
ATOM     52  C   UNL A   1      44.357  29.257  34.623  1.00  0.00     0.029 A 
ATOM     53  N   UNL A   1      43.570  28.338  32.759  1.00  0.00    -0.354 N 
ATOM     54  N   UNL A   1      43.494  26.344  30.594  1.00  0.00    -0.248 NA
ATOM     55  C   UNL A   1      44.386  24.462  29.530  1.00  0.00     0.031 C 
ATOM     56  C   UNL A   1      45.209  28.212  34.249  1.00  0.00     0.029 A 
ATOM     57  C   UNL A   1      44.695  27.606  33.113  1.00  0.00     0.049 A 
ATOM     58  H   UNL A   1      43.000  28.152  31.978  1.00  0.00     0.167 HD
ATOM     59  C   UNL A   1      44.612  25.909  31.301  1.00  0.00     0.074 A 
ATOM     60  C   UNL A   1      45.093  24.723  30.620  1.00  0.00     0.031 C 
ATOM     61  C   UNL A   1      45.184  26.439  32.414  1.00  0.00     0.034 A 
BRANCH  48  62
ATOM     62  C   UNL A   1      42.301  31.515  34.550  1.00  0.00     0.023 A 
ATOM     63  C   UNL A   1      41.463  31.524  35.681  1.00  0.00     0.031 A 
ATOM     64  C   UNL A   1      43.100  32.650  34.324  1.00  0.00     0.131 A 
ATOM     65  C   UNL A   1      41.369  32.674  36.479  1.00  0.00     0.055 A 
ATOM     66  C   UNL A   1      43.074  33.755  35.179  1.00  0.00     0.041 A 
ATOM     67  F   UNL A   1      43.905  32.717  33.253  1.00  0.00    -0.206 F 
ATOM     68  C   UNL A   1      42.190  33.780  36.253  1.00  0.00     0.022 A 
BRANCH  65  69
ATOM     69  S   UNL A   1      40.028  32.775  37.699  1.00  0.00     0.124 S 
ATOM     70  O   UNL A   1      40.733  32.461  38.940  1.00  0.00    -0.237 OA
ATOM     71  O   UNL A   1      39.572  34.152  37.553  1.00  0.00    -0.237 OA
ATOM     72  O   UNL A   1      39.082  31.753  37.254  1.00  0.00    -0.744 OA
ENDBRANCH  65  69
ENDBRANCH  48  62
BRANCH  49  73
ATOM     73  C   UNL A   1      42.347  24.475  27.413  1.00  0.00     0.023 A 
ATOM     74  C   UNL A   1      41.587  23.295  27.446  1.00  0.00     0.031 A 
ATOM     75  C   UNL A   1      43.179  24.692  26.300  1.00  0.00     0.131 A 
ATOM     76  C   UNL A   1      41.701  22.360  26.404  1.00  0.00     0.055 A 
ATOM     77  C   UNL A   1      43.248  23.786  25.241  1.00  0.00     0.041 A 
ATOM     78  F   UNL A   1      43.921  25.808  26.214  1.00  0.00    -0.206 F 
ATOM     79  C   UNL A   1      42.514  22.605  25.295  1.00  0.00     0.022 A 
BRANCH  76  80
ATOM     80  S   UNL A   1      40.816  20.783  26.545  1.00  0.00     0.124 S 
ATOM     81  O   UNL A   1      39.506  21.127  26.005  1.00  0.00    -0.237 OA
ATOM     82  O   UNL A   1      41.637  19.899  25.726  1.00  0.00    -0.237 OA
ATOM     83  O   UNL A   1      40.846  20.504  27.979  1.00  0.00    -0.744 OA
ENDBRANCH  76  80
ENDBRANCH  49  73
BRANCH  61  84
ATOM     84  C   UNL A   1      46.377  25.704  32.987  1.00  0.00     0.023 A 
ATOM     85  C   UNL A   1      46.234  24.695  33.957  1.00  0.00     0.031 A 
ATOM     86  C   UNL A   1      47.680  26.046  32.582  1.00  0.00     0.131 A 
ATOM     87  C   UNL A   1      47.373  24.125  34.547  1.00  0.00     0.055 A 
ATOM     88  C   UNL A   1      48.806  25.418  33.117  1.00  0.00     0.041 A 
ATOM     89  F   UNL A   1      47.883  27.005  31.665  1.00  0.00    -0.206 F 
ATOM     90  C   UNL A   1      48.658  24.466  34.120  1.00  0.00     0.022 A 
BRANCH  87  91
ATOM     91  S   UNL A   1      47.154  23.039  35.985  1.00  0.00     0.124 S 
ATOM     92  O   UNL A   1      47.396  23.956  37.096  1.00  0.00    -0.237 OA
ATOM     93  O   UNL A   1      45.779  22.582  35.823  1.00  0.00    -0.237 OA
ATOM     94  O   UNL A   1      48.178  22.013  35.797  1.00  0.00    -0.744 OA
ENDBRANCH  87  91
ENDBRANCH  61  84
ENDBRANCH  35  36
ENDBRANCH  27  30
ENDBRANCH  25  26
ENDBRANCH   1  25
TORSDOF 16
ENDMDL
MODEL 3
REMARK VINA RESULT:     -12.1      5.801     11.933
REMARK SMILES Cc1ccc(C(=O)N[C@@H]2C=C[C@H](C(=O)NCCCCNC(=O)c3ccc(-c4c5nc(c(-c6cc(S(=O)(=O)[O-])ccc6F)c6ccc([nH]6)c(-c6cc(S(=O)(=O)[O-])ccc6F)c6nc(c(-c7cc(S(=O)(=O)[O-])ccc7F)c7ccc4[nH]7)C=C6)C=C5)cc3)C2)c(F)c1
REMARK SMILES IDX 18 1 17 2 16 3 15 4 13 5 14 6 12 8 9 9 10 10 86 11 11 12
REMARK SMILES IDX 8 13 6 14 7 15 5 17 1 18 2 19 3 20 89 21 4 22 87 23 88 24
REMARK SMILES IDX 19 25 20 26 21 27 22 29 23 30 24 31 85 32 25 33 84 34 26 35
REMARK SMILES IDX 27 36 28 37 78 38 29 39 83 40 77 41 79 42 30 43 82 44 76 45
REMARK SMILES IDX 75 46 31 48 63 49 43 50 62 51 44 52 47 53 61 54 80 55 45 56
REMARK SMILES IDX 46 57 60 59 81 60 48 61 32 62 33 63 41 64 34 65 40 66 42 67
REMARK SMILES IDX 39 68 35 69 36 70 37 71 38 72 64 73 65 74 73 75 66 76 72 77
REMARK SMILES IDX 74 78 71 79 67 80 68 81 69 82 70 83 49 84 50 85 58 86 51 87
REMARK SMILES IDX 57 88 59 89 56 90 52 91 53 92 54 93 55 94
REMARK H PARENT 15 7 8 16 20 28 79 47 47 58
REMARK Flexibility Score: inf
ROOT
ATOM      1  C   UNL A   1      38.299  19.710  25.007  1.00  0.00     0.023 C 
ENDROOT
BRANCH   1   2
ATOM      2  C   UNL A   1      37.025  20.553  24.946  1.00  0.00     0.023 C 
BRANCH   2   3
ATOM      3  C   UNL A   1      37.122  21.954  25.548  1.00  0.00     0.116 C 
BRANCH   3   4
ATOM      4  N   UNL A   1      35.936  22.343  26.290  1.00  0.00    -0.356 N 
ATOM      5  C   UNL A   1      34.863  23.084  25.868  1.00  0.00     0.227 C 
ATOM      6  O   UNL A   1      33.882  23.168  26.607  1.00  0.00    -0.274 OA
ATOM      7  H   UNL A   1      35.897  22.032  27.223  1.00  0.00     0.163 HD
BRANCH   5   8
ATOM      8  C   UNL A   1      34.970  23.825  24.534  1.00  0.00     0.103 C 
ATOM      9  C   UNL A   1      33.000  25.190  23.900  1.00  0.00     0.106 C 
ATOM     10  C   UNL A   1      33.147  23.964  23.053  1.00  0.00    -0.006 C 
ATOM     11  C   UNL A   1      34.323  25.205  24.684  1.00  0.00     0.047 C 
ATOM     12  C   UNL A   1      34.196  23.215  23.411  1.00  0.00    -0.016 C 
BRANCH   9  13
ATOM     13  N   UNL A   1      31.748  25.065  24.627  1.00  0.00    -0.346 N 
ATOM     14  C   UNL A   1      30.896  25.987  25.188  1.00  0.00     0.254 C 
ATOM     15  O   UNL A   1      29.735  25.668  25.429  1.00  0.00    -0.269 OA
ATOM     16  H   UNL A   1      31.451  24.133  24.741  1.00  0.00     0.164 HD
BRANCH  14  17
ATOM     17  C   UNL A   1      31.386  27.314  25.589  1.00  0.00     0.075 A 
ATOM     18  C   UNL A   1      31.749  31.406  26.826  1.00  0.00     0.044 C 
ATOM     19  C   UNL A   1      31.730  29.975  26.376  1.00  0.00    -0.048 A 
ATOM     20  C   UNL A   1      31.951  28.932  27.288  1.00  0.00     0.004 A 
ATOM     21  C   UNL A   1      31.482  29.667  25.034  1.00  0.00     0.043 A 
ATOM     22  C   UNL A   1      31.803  27.599  26.891  1.00  0.00     0.017 A 
ATOM     23  C   UNL A   1      31.302  28.342  24.649  1.00  0.00     0.136 A 
ATOM     24  F   UNL A   1      30.977  28.094  23.371  1.00  0.00    -0.206 F 
ENDBRANCH  14  17
ENDBRANCH   9  13
ENDBRANCH   5   8
ENDBRANCH   3   4
ENDBRANCH   2   3
ENDBRANCH   1   2
BRANCH   1  25
ATOM     25  C   UNL A   1      39.364  20.188  25.987  1.00  0.00     0.116 C 
BRANCH  25  26
ATOM     26  N   UNL A   1      40.464  19.250  26.125  1.00  0.00    -0.352 N 
ATOM     27  C   UNL A   1      41.806  19.487  26.312  1.00  0.00     0.251 C 
ATOM     28  H   UNL A   1      40.211  18.300  26.078  1.00  0.00     0.163 HD
ATOM     29  O   UNL A   1      42.588  18.545  26.248  1.00  0.00    -0.269 OA
BRANCH  27  30
ATOM     30  C   UNL A   1      42.309  20.861  26.556  1.00  0.00     0.039 A 
ATOM     31  C   UNL A   1      42.483  21.712  25.461  1.00  0.00     0.014 A 
ATOM     32  C   UNL A   1      42.637  21.308  27.839  1.00  0.00     0.014 A 
ATOM     33  C   UNL A   1      42.943  23.017  25.658  1.00  0.00     0.010 A 
ATOM     34  C   UNL A   1      43.010  22.637  28.043  1.00  0.00     0.010 A 
ATOM     35  C   UNL A   1      43.187  23.502  26.953  1.00  0.00    -0.014 A 
BRANCH  35  36
ATOM     36  C   UNL A   1      43.654  24.900  27.165  1.00  0.00     0.031 A 
ATOM     37  C   UNL A   1      42.714  25.942  27.715  1.00  0.00     0.074 A 
ATOM     38  C   UNL A   1      44.916  25.239  26.835  1.00  0.00     0.049 A 
ATOM     39  N   UNL A   1      42.939  27.204  27.979  1.00  0.00    -0.248 NA
ATOM     40  C   UNL A   1      41.331  25.516  27.970  1.00  0.00     0.031 C 
ATOM     41  C   UNL A   1      45.900  24.337  26.233  1.00  0.00     0.029 A 
ATOM     42  N   UNL A   1      45.588  26.429  26.954  1.00  0.00    -0.354 N 
ATOM     43  C   UNL A   1      41.725  27.725  28.415  1.00  0.00     0.074 A 
ATOM     44  C   UNL A   1      40.754  26.657  28.309  1.00  0.00     0.031 C 
ATOM     45  C   UNL A   1      47.057  24.996  26.067  1.00  0.00     0.029 A 
ATOM     46  C   UNL A   1      46.889  26.377  26.511  1.00  0.00     0.049 A 
ATOM     47  H   UNL A   1      45.178  27.245  27.324  1.00  0.00     0.167 HD
ATOM     48  C   UNL A   1      41.450  28.969  28.884  1.00  0.00     0.034 A 
ATOM     49  C   UNL A   1      47.840  27.331  26.460  1.00  0.00     0.034 A 
ATOM     50  C   UNL A   1      42.436  30.019  28.986  1.00  0.00     0.049 A 
ATOM     51  C   UNL A   1      47.521  28.703  26.994  1.00  0.00     0.074 A 
ATOM     52  C   UNL A   1      42.289  31.292  29.510  1.00  0.00     0.029 A 
ATOM     53  N   UNL A   1      43.750  29.927  28.539  1.00  0.00    -0.354 N 
ATOM     54  N   UNL A   1      46.389  29.158  27.482  1.00  0.00    -0.248 NA
ATOM     55  C   UNL A   1      48.614  29.681  26.993  1.00  0.00     0.031 C 
ATOM     56  C   UNL A   1      43.482  31.994  29.301  1.00  0.00     0.029 A 
ATOM     57  C   UNL A   1      44.411  31.131  28.739  1.00  0.00     0.049 A 
ATOM     58  H   UNL A   1      44.153  29.123  28.139  1.00  0.00     0.167 HD
ATOM     59  C   UNL A   1      46.643  30.471  27.873  1.00  0.00     0.074 A 
ATOM     60  C   UNL A   1      48.042  30.720  27.583  1.00  0.00     0.031 C 
ATOM     61  C   UNL A   1      45.800  31.382  28.425  1.00  0.00     0.034 A 
BRANCH  48  62
ATOM     62  C   UNL A   1      40.018  29.262  29.280  1.00  0.00     0.023 A 
ATOM     63  C   UNL A   1      39.625  29.374  30.627  1.00  0.00     0.031 A 
ATOM     64  C   UNL A   1      39.018  29.382  28.299  1.00  0.00     0.131 A 
ATOM     65  C   UNL A   1      38.267  29.496  30.956  1.00  0.00     0.055 A 
ATOM     66  C   UNL A   1      37.678  29.602  28.630  1.00  0.00     0.041 A 
ATOM     67  F   UNL A   1      39.320  29.265  26.996  1.00  0.00    -0.206 F 
ATOM     68  C   UNL A   1      37.293  29.639  29.967  1.00  0.00     0.022 A 
BRANCH  65  69
ATOM     69  S   UNL A   1      37.773  29.276  32.689  1.00  0.00     0.124 S 
ATOM     70  O   UNL A   1      37.695  27.820  32.791  1.00  0.00    -0.237 OA
ATOM     71  O   UNL A   1      38.870  29.909  33.412  1.00  0.00    -0.237 OA
ATOM     72  O   UNL A   1      36.488  29.967  32.771  1.00  0.00    -0.744 OA
ENDBRANCH  65  69
ENDBRANCH  48  62
BRANCH  49  73
ATOM     73  C   UNL A   1      49.178  27.022  25.875  1.00  0.00     0.023 A 
ATOM     74  C   UNL A   1      49.502  27.377  24.556  1.00  0.00     0.031 A 
ATOM     75  C   UNL A   1      50.151  26.350  26.636  1.00  0.00     0.131 A 
ATOM     76  C   UNL A   1      50.755  27.027  24.025  1.00  0.00     0.055 A 
ATOM     77  C   UNL A   1      51.415  26.053  26.122  1.00  0.00     0.041 A 
ATOM     78  F   UNL A   1      49.895  25.995  27.905  1.00  0.00    -0.206 F 
ATOM     79  C   UNL A   1      51.718  26.382  24.804  1.00  0.00     0.022 A 
BRANCH  76  80
ATOM     80  S   UNL A   1      51.090  27.373  22.277  1.00  0.00     0.124 S 
ATOM     81  O   UNL A   1      51.218  28.826  22.279  1.00  0.00    -0.237 OA
ATOM     82  O   UNL A   1      52.318  26.620  22.048  1.00  0.00    -0.237 OA
ATOM     83  O   UNL A   1      49.908  26.851  21.594  1.00  0.00    -0.744 OA
ENDBRANCH  76  80
ENDBRANCH  49  73
BRANCH  61  84
ATOM     84  C   UNL A   1      46.389  32.727  28.790  1.00  0.00     0.023 A 
ATOM     85  C   UNL A   1      46.426  33.796  27.876  1.00  0.00     0.031 A 
ATOM     86  C   UNL A   1      46.958  32.929  30.061  1.00  0.00     0.131 A 
ATOM     87  C   UNL A   1      47.090  34.985  28.217  1.00  0.00     0.055 A 
ATOM     88  C   UNL A   1      47.546  34.142  30.421  1.00  0.00     0.041 A 
ATOM     89  F   UNL A   1      46.960  31.945  30.975  1.00  0.00    -0.206 F 
ATOM     90  C   UNL A   1      47.633  35.172  29.490  1.00  0.00     0.022 A 
BRANCH  87  91
ATOM     91  S   UNL A   1      47.362  36.229  26.924  1.00  0.00     0.124 S 
ATOM     92  O   UNL A   1      47.715  35.400  25.776  1.00  0.00    -0.237 OA
ATOM     93  O   UNL A   1      46.066  36.896  26.856  1.00  0.00    -0.237 OA
ATOM     94  O   UNL A   1      48.453  37.044  27.457  1.00  0.00    -0.744 OA
ENDBRANCH  87  91
ENDBRANCH  61  84
ENDBRANCH  35  36
ENDBRANCH  27  30
ENDBRANCH  25  26
ENDBRANCH   1  25
TORSDOF 16
ENDMDL
