MODEL 1
REMARK VINA RESULT:     -12.3      0.000      0.000
REMARK SMILES O=C(NCCCCNC(=O)[C@H]1CCN1C(=O)OCC1c2ccccc2-c2ccccc21)c1ccc(-c2c3nc(c(-c4cc(S(=O)(=O)[O-])ccc4F)c4ccc([nH]4)c(-c4cc(S(=O)(=O)[O-])ccc4F)c4nc(c(-c5cc(S(=O)(=O)[O-])ccc5F)c5ccc2[nH]5)C=C4)C=C3)cc1
REMARK SMILES IDX 6 1 5 2 4 3 3 4 1 5 2 6 32 8 33 9 94 10 34 11 93 12 35 13
REMARK SMILES IDX 36 14 37 15 87 16 38 17 92 18 86 19 88 20 39 21 91 22 85 23
REMARK SMILES IDX 84 24 40 26 72 27 52 28 71 29 53 30 56 31 70 32 89 33 54 34
REMARK SMILES IDX 55 35 69 37 90 38 57 39 41 40 42 41 50 42 43 43 49 44 51 45
REMARK SMILES IDX 48 46 44 47 45 48 46 49 47 50 73 51 74 52 82 53 75 54 81 55
REMARK SMILES IDX 83 56 80 57 76 58 77 59 78 60 79 61 58 62 59 63 67 64 60 65
REMARK SMILES IDX 66 66 68 67 65 68 61 69 62 70 63 71 64 72 7 73 8 74 9 75
REMARK SMILES IDX 10 77 11 78 12 79 14 80 13 81 15 82 16 83 17 84 18 85 19 86
REMARK SMILES IDX 20 87 31 88 21 89 25 90 26 91 30 92 22 93 24 94 27 95 29 96
REMARK SMILES IDX 23 97 28 98
REMARK H PARENT 3 7 88 25 56 36 8 76
REMARK Flexibility Score: inf
ROOT
ATOM      1  C   UNL A   1      31.861  30.139  26.678  1.00  0.00     0.023 C 
ENDROOT
BRANCH   1   2
ATOM      2  C   UNL A   1      31.651  31.650  26.780  1.00  0.00     0.023 C 
BRANCH   2   3
ATOM      3  C   UNL A   1      32.840  32.444  27.311  1.00  0.00     0.116 C 
BRANCH   3   4
ATOM      4  N   UNL A   1      32.520  33.819  27.667  1.00  0.00    -0.352 N 
ATOM      5  O   UNL A   1      32.687  35.731  28.859  1.00  0.00    -0.269 OA
ATOM      6  C   UNL A   1      33.128  34.613  28.612  1.00  0.00     0.251 C 
ATOM      7  H   UNL A   1      31.778  34.232  27.169  1.00  0.00     0.163 HD
BRANCH   6   8
ATOM      8  C   UNL A   1      34.292  34.083  29.351  1.00  0.00     0.039 A 
ATOM      9  C   UNL A   1      35.590  34.420  28.960  1.00  0.00     0.014 A 
ATOM     10  C   UNL A   1      34.078  33.203  30.416  1.00  0.00     0.014 A 
ATOM     11  C   UNL A   1      36.673  33.775  29.546  1.00  0.00     0.010 A 
ATOM     12  C   UNL A   1      35.172  32.607  31.049  1.00  0.00     0.010 A 
ATOM     13  C   UNL A   1      36.475  32.863  30.594  1.00  0.00    -0.014 A 
BRANCH  13  14
ATOM     14  C   UNL A   1      37.652  32.212  31.220  1.00  0.00     0.031 A 
ATOM     15  C   UNL A   1      38.158  32.659  32.564  1.00  0.00     0.074 A 
ATOM     16  C   UNL A   1      38.239  31.185  30.576  1.00  0.00     0.049 A 
ATOM     17  N   UNL A   1      39.162  32.194  33.263  1.00  0.00    -0.248 NA
ATOM     18  C   UNL A   1      37.450  33.778  33.201  1.00  0.00     0.031 C 
ATOM     19  C   UNL A   1      37.831  30.674  29.265  1.00  0.00     0.029 A 
ATOM     20  N   UNL A   1      39.286  30.380  30.936  1.00  0.00    -0.354 N 
ATOM     21  C   UNL A   1      39.219  32.971  34.414  1.00  0.00     0.074 A 
ATOM     22  C   UNL A   1      38.163  33.956  34.304  1.00  0.00     0.031 C 
ATOM     23  C   UNL A   1      38.593  29.617  28.949  1.00  0.00     0.029 A 
ATOM     24  C   UNL A   1      39.578  29.411  30.005  1.00  0.00     0.049 A 
ATOM     25  H   UNL A   1      39.783  30.484  31.779  1.00  0.00     0.167 HD
ATOM     26  C   UNL A   1      40.072  32.867  35.466  1.00  0.00     0.034 A 
ATOM     27  C   UNL A   1      40.541  28.471  29.993  1.00  0.00     0.034 A 
ATOM     28  C   UNL A   1      41.115  31.873  35.559  1.00  0.00     0.049 A 
ATOM     29  C   UNL A   1      41.484  28.389  31.160  1.00  0.00     0.074 A 
ATOM     30  C   UNL A   1      42.016  31.657  36.588  1.00  0.00     0.029 A 
ATOM     31  N   UNL A   1      41.405  30.930  34.579  1.00  0.00    -0.354 N 
ATOM     32  N   UNL A   1      41.520  29.129  32.244  1.00  0.00    -0.248 NA
ATOM     33  C   UNL A   1      42.513  27.345  31.103  1.00  0.00     0.031 C 
ATOM     34  C   UNL A   1      42.881  30.623  36.210  1.00  0.00     0.029 A 
ATOM     35  C   UNL A   1      42.484  30.151  34.968  1.00  0.00     0.049 A 
ATOM     36  H   UNL A   1      40.915  30.830  33.731  1.00  0.00     0.167 HD
ATOM     37  C   UNL A   1      42.575  28.635  33.002  1.00  0.00     0.074 A 
ATOM     38  C   UNL A   1      43.132  27.520  32.261  1.00  0.00     0.031 C 
ATOM     39  C   UNL A   1      43.044  29.064  34.200  1.00  0.00     0.034 A 
BRANCH  26  40
ATOM     40  C   UNL A   1      39.938  33.885  36.571  1.00  0.00     0.023 A 
ATOM     41  C   UNL A   1      39.476  33.534  37.852  1.00  0.00     0.031 A 
ATOM     42  C   UNL A   1      40.258  35.233  36.334  1.00  0.00     0.131 A 
ATOM     43  C   UNL A   1      39.288  34.528  38.825  1.00  0.00     0.055 A 
ATOM     44  C   UNL A   1      40.135  36.206  37.327  1.00  0.00     0.041 A 
ATOM     45  F   UNL A   1      40.685  35.630  35.125  1.00  0.00    -0.206 F 
ATOM     46  C   UNL A   1      39.636  35.859  38.578  1.00  0.00     0.022 A 
BRANCH  43  47
ATOM     47  S   UNL A   1      38.466  34.079  40.379  1.00  0.00     0.124 S 
ATOM     48  O   UNL A   1      37.294  33.353  39.896  1.00  0.00    -0.237 OA
ATOM     49  O   UNL A   1      39.481  33.279  41.054  1.00  0.00    -0.237 OA
ATOM     50  O   UNL A   1      38.175  35.370  40.999  1.00  0.00    -0.744 OA
ENDBRANCH  43  47
ENDBRANCH  26  40
BRANCH  27  51
ATOM     51  C   UNL A   1      40.676  27.562  28.824  1.00  0.00     0.023 A 
ATOM     52  C   UNL A   1      41.638  27.797  27.830  1.00  0.00     0.031 A 
ATOM     53  C   UNL A   1      39.838  26.441  28.687  1.00  0.00     0.131 A 
ATOM     54  C   UNL A   1      41.722  26.933  26.727  1.00  0.00     0.055 A 
ATOM     55  C   UNL A   1      39.954  25.562  27.610  1.00  0.00     0.041 A 
ATOM     56  F   UNL A   1      38.909  26.170  29.618  1.00  0.00    -0.206 F 
ATOM     57  C   UNL A   1      40.896  25.811  26.617  1.00  0.00     0.022 A 
BRANCH  54  58
ATOM     58  S   UNL A   1      42.900  27.326  25.405  1.00  0.00     0.124 S 
ATOM     59  O   UNL A   1      43.041  26.037  24.739  1.00  0.00    -0.237 OA
ATOM     60  O   UNL A   1      42.186  28.359  24.662  1.00  0.00    -0.237 OA
ATOM     61  O   UNL A   1      44.082  27.787  26.130  1.00  0.00    -0.744 OA
ENDBRANCH  54  58
ENDBRANCH  27  51
BRANCH  39  62
ATOM     62  C   UNL A   1      44.206  28.300  34.777  1.00  0.00     0.023 A 
ATOM     63  C   UNL A   1      44.009  27.146  35.556  1.00  0.00     0.031 A 
ATOM     64  C   UNL A   1      45.521  28.751  34.575  1.00  0.00     0.131 A 
ATOM     65  C   UNL A   1      45.108  26.514  36.154  1.00  0.00     0.055 A 
ATOM     66  C   UNL A   1      46.616  28.089  35.132  1.00  0.00     0.041 A 
ATOM     67  F   UNL A   1      45.762  29.848  33.840  1.00  0.00    -0.206 F 
ATOM     68  C   UNL A   1      46.412  26.971  35.938  1.00  0.00     0.022 A 
BRANCH  65  69
ATOM     69  S   UNL A   1      44.805  25.134  37.291  1.00  0.00     0.124 S 
ATOM     70  O   UNL A   1      43.347  25.107  37.355  1.00  0.00    -0.237 OA
ATOM     71  O   UNL A   1      45.434  24.015  36.599  1.00  0.00    -0.237 OA
ATOM     72  O   UNL A   1      45.472  25.553  38.523  1.00  0.00    -0.744 OA
ENDBRANCH  65  69
ENDBRANCH  39  62
ENDBRANCH  13  14
ENDBRANCH   6   8
ENDBRANCH   3   4
ENDBRANCH   2   3
ENDBRANCH   1   2
BRANCH   1  73
ATOM     73  C   UNL A   1      33.272  29.722  26.270  1.00  0.00     0.116 C 
BRANCH  73  74
ATOM     74  N   UNL A   1      33.470  29.759  24.836  1.00  0.00    -0.354 N 
ATOM     75  C   UNL A   1      33.345  28.791  23.861  1.00  0.00     0.243 C 
ATOM     76  H   UNL A   1      33.744  30.639  24.493  1.00  0.00     0.163 HD
ATOM     77  O   UNL A   1      33.538  29.196  22.701  1.00  0.00    -0.273 OA
BRANCH  75  78
ATOM     78  C   UNL A   1      33.011  27.298  24.148  1.00  0.00     0.179 C 
ATOM     79  C   UNL A   1      31.896  26.815  25.085  1.00  0.00     0.057 C 
ATOM     80  N   UNL A   1      32.294  26.593  23.091  1.00  0.00    -0.296 N 
ATOM     81  C   UNL A   1      31.077  26.400  23.850  1.00  0.00     0.126 C 
BRANCH  80  82
ATOM     82  C   UNL A   1      32.700  25.840  22.029  1.00  0.00     0.410 C 
ATOM     83  O   UNL A   1      32.159  25.891  20.937  1.00  0.00    -0.224 OA
BRANCH  82  84
ATOM     84  O   UNL A   1      33.667  24.941  22.381  1.00  0.00    -0.448 OA
BRANCH  84  85
ATOM     85  C   UNL A   1      33.310  23.567  22.141  1.00  0.00     0.248 C 
BRANCH  85  86
ATOM     86  C   UNL A   1      33.663  22.621  23.315  1.00  0.00     0.088 C 
ATOM     87  C   UNL A   1      35.008  22.885  23.988  1.00  0.00    -0.029 A 
ATOM     88  C   UNL A   1      32.702  22.881  24.478  1.00  0.00    -0.029 A 
ATOM     89  C   UNL A   1      36.281  22.620  23.508  1.00  0.00     0.005 A 
ATOM     90  C   UNL A   1      34.818  23.437  25.272  1.00  0.00    -0.014 A 
ATOM     91  C   UNL A   1      33.405  23.420  25.580  1.00  0.00    -0.014 A 
ATOM     92  C   UNL A   1      31.332  22.672  24.532  1.00  0.00     0.005 A 
ATOM     93  C   UNL A   1      37.376  23.009  24.283  1.00  0.00     0.000 A 
ATOM     94  C   UNL A   1      35.904  23.836  26.036  1.00  0.00     0.009 A 
ATOM     95  C   UNL A   1      32.736  23.778  26.738  1.00  0.00     0.009 A 
ATOM     96  C   UNL A   1      30.661  23.024  25.705  1.00  0.00     0.000 A 
ATOM     97  C   UNL A   1      37.189  23.634  25.525  1.00  0.00     0.001 A 
ATOM     98  C   UNL A   1      31.353  23.578  26.795  1.00  0.00     0.001 A 
ENDBRANCH  85  86
ENDBRANCH  84  85
ENDBRANCH  82  84
ENDBRANCH  80  82
ENDBRANCH  75  78
ENDBRANCH  73  74
ENDBRANCH   1  73
TORSDOF 18
ENDMDL
MODEL 2
REMARK VINA RESULT:     -12.3      1.415      7.701
REMARK SMILES O=C(NCCCCNC(=O)[C@H]1CCN1C(=O)OCC1c2ccccc2-c2ccccc21)c1ccc(-c2c3nc(c(-c4cc(S(=O)(=O)[O-])ccc4F)c4ccc([nH]4)c(-c4cc(S(=O)(=O)[O-])ccc4F)c4nc(c(-c5cc(S(=O)(=O)[O-])ccc5F)c5ccc2[nH]5)C=C4)C=C3)cc1
REMARK SMILES IDX 6 1 5 2 4 3 3 4 1 5 2 6 32 8 33 9 94 10 34 11 93 12 35 13
REMARK SMILES IDX 36 14 37 15 87 16 38 17 92 18 86 19 88 20 39 21 91 22 85 23
REMARK SMILES IDX 84 24 40 26 72 27 52 28 71 29 53 30 56 31 70 32 89 33 54 34
REMARK SMILES IDX 55 35 69 37 90 38 57 39 41 40 42 41 50 42 43 43 49 44 51 45
REMARK SMILES IDX 48 46 44 47 45 48 46 49 47 50 73 51 74 52 82 53 75 54 81 55
REMARK SMILES IDX 83 56 80 57 76 58 77 59 78 60 79 61 58 62 59 63 67 64 60 65
REMARK SMILES IDX 66 66 68 67 65 68 61 69 62 70 63 71 64 72 7 73 8 74 9 75
REMARK SMILES IDX 10 77 11 78 12 79 14 80 13 81 15 82 16 83 17 84 18 85 19 86
REMARK SMILES IDX 20 87 31 88 21 89 25 90 26 91 30 92 22 93 24 94 27 95 29 96
REMARK SMILES IDX 23 97 28 98
REMARK H PARENT 3 7 88 25 56 36 8 76
REMARK Flexibility Score: inf
ROOT
ATOM      1  C   UNL A   1      32.101  30.330  26.656  1.00  0.00     0.023 C 
ENDROOT
BRANCH   1   2
ATOM      2  C   UNL A   1      31.789  31.813  26.857  1.00  0.00     0.023 C 
BRANCH   2   3
ATOM      3  C   UNL A   1      32.971  32.681  27.280  1.00  0.00     0.116 C 
BRANCH   3   4
ATOM      4  N   UNL A   1      32.603  34.042  27.643  1.00  0.00    -0.352 N 
ATOM      5  O   UNL A   1      32.658  35.929  28.884  1.00  0.00    -0.269 OA
ATOM      6  C   UNL A   1      33.134  34.825  28.642  1.00  0.00     0.251 C 
ATOM      7  H   UNL A   1      31.886  34.453  27.107  1.00  0.00     0.163 HD
BRANCH   6   8
ATOM      8  C   UNL A   1      34.258  34.299  29.443  1.00  0.00     0.039 A 
ATOM      9  C   UNL A   1      35.576  34.492  29.024  1.00  0.00     0.014 A 
ATOM     10  C   UNL A   1      33.983  33.565  30.601  1.00  0.00     0.014 A 
ATOM     11  C   UNL A   1      36.610  33.840  29.685  1.00  0.00     0.010 A 
ATOM     12  C   UNL A   1      35.031  32.966  31.304  1.00  0.00     0.010 A 
ATOM     13  C   UNL A   1      36.349  33.071  30.830  1.00  0.00    -0.014 A 
BRANCH  13  14
ATOM     14  C   UNL A   1      37.477  32.411  31.533  1.00  0.00     0.031 A 
ATOM     15  C   UNL A   1      38.239  31.289  30.886  1.00  0.00     0.074 A 
ATOM     16  C   UNL A   1      37.829  32.863  32.752  1.00  0.00     0.049 A 
ATOM     17  N   UNL A   1      39.258  30.611  31.348  1.00  0.00    -0.248 NA
ATOM     18  C   UNL A   1      37.793  30.868  29.549  1.00  0.00     0.031 C 
ATOM     19  C   UNL A   1      37.154  33.945  33.473  1.00  0.00     0.029 A 
ATOM     20  N   UNL A   1      38.844  32.487  33.590  1.00  0.00    -0.354 N 
ATOM     21  C   UNL A   1      39.568  29.672  30.370  1.00  0.00     0.074 A 
ATOM     22  C   UNL A   1      38.609  29.853  29.300  1.00  0.00     0.031 C 
ATOM     23  C   UNL A   1      37.797  34.171  34.627  1.00  0.00     0.029 A 
ATOM     24  C   UNL A   1      38.892  33.216  34.754  1.00  0.00     0.049 A 
ATOM     25  H   UNL A   1      39.479  31.764  33.380  1.00  0.00     0.167 HD
ATOM     26  C   UNL A   1      40.565  28.750  30.366  1.00  0.00     0.034 A 
ATOM     27  C   UNL A   1      39.716  33.119  35.814  1.00  0.00     0.034 A 
ATOM     28  C   UNL A   1      41.515  28.589  31.441  1.00  0.00     0.049 A 
ATOM     29  C   UNL A   1      40.799  32.077  35.793  1.00  0.00     0.074 A 
ATOM     30  C   UNL A   1      42.581  27.710  31.530  1.00  0.00     0.029 A 
ATOM     31  N   UNL A   1      41.511  29.321  32.622  1.00  0.00    -0.354 N 
ATOM     32  N   UNL A   1      41.081  31.201  34.858  1.00  0.00    -0.248 NA
ATOM     33  C   UNL A   1      41.673  32.012  36.970  1.00  0.00     0.031 C 
ATOM     34  C   UNL A   1      43.186  27.873  32.782  1.00  0.00     0.029 A 
ATOM     35  C   UNL A   1      42.536  28.896  33.454  1.00  0.00     0.049 A 
ATOM     36  H   UNL A   1      40.872  30.040  32.838  1.00  0.00     0.167 HD
ATOM     37  C   UNL A   1      42.172  30.482  35.332  1.00  0.00     0.074 A 
ATOM     38  C   UNL A   1      42.509  31.044  36.625  1.00  0.00     0.031 C 
ATOM     39  C   UNL A   1      42.835  29.450  34.753  1.00  0.00     0.034 A 
BRANCH  26  40
ATOM     40  C   UNL A   1      40.641  27.815  29.183  1.00  0.00     0.023 A 
ATOM     41  C   UNL A   1      41.548  28.023  28.130  1.00  0.00     0.031 A 
ATOM     42  C   UNL A   1      39.777  26.709  29.099  1.00  0.00     0.131 A 
ATOM     43  C   UNL A   1      41.528  27.176  27.011  1.00  0.00     0.055 A 
ATOM     44  C   UNL A   1      39.808  25.830  28.016  1.00  0.00     0.041 A 
ATOM     45  F   UNL A   1      38.876  26.472  30.066  1.00  0.00    -0.206 F 
ATOM     46  C   UNL A   1      40.678  26.067  26.957  1.00  0.00     0.022 A 
BRANCH  43  47
ATOM     47  S   UNL A   1      42.540  27.614  25.570  1.00  0.00     0.124 S 
ATOM     48  O   UNL A   1      41.931  28.875  25.153  1.00  0.00    -0.237 OA
ATOM     49  O   UNL A   1      43.878  27.708  26.140  1.00  0.00    -0.237 OA
ATOM     50  O   UNL A   1      42.329  26.498  24.651  1.00  0.00    -0.744 OA
ENDBRANCH  43  47
ENDBRANCH  26  40
BRANCH  27  51
ATOM     51  C   UNL A   1      39.521  34.009  36.990  1.00  0.00     0.023 A 
ATOM     52  C   UNL A   1      38.937  33.532  38.172  1.00  0.00     0.031 A 
ATOM     53  C   UNL A   1      39.921  35.356  36.942  1.00  0.00     0.131 A 
ATOM     54  C   UNL A   1      38.745  34.406  39.253  1.00  0.00     0.055 A 
ATOM     55  C   UNL A   1      39.767  36.209  38.034  1.00  0.00     0.041 A 
ATOM     56  F   UNL A   1      40.494  35.855  35.834  1.00  0.00    -0.206 F 
ATOM     57  C   UNL A   1      39.168  35.737  39.197  1.00  0.00     0.022 A 
BRANCH  54  58
ATOM     58  S   UNL A   1      37.887  33.787  40.727  1.00  0.00     0.124 S 
ATOM     59  O   UNL A   1      37.601  35.023  41.446  1.00  0.00    -0.237 OA
ATOM     60  O   UNL A   1      36.738  33.104  40.142  1.00  0.00    -0.237 OA
ATOM     61  O   UNL A   1      38.876  32.914  41.355  1.00  0.00    -0.744 OA
ENDBRANCH  54  58
ENDBRANCH  27  51
BRANCH  39  62
ATOM     62  C   UNL A   1      44.001  28.888  35.524  1.00  0.00     0.023 A 
ATOM     63  C   UNL A   1      45.309  29.361  35.319  1.00  0.00     0.031 A 
ATOM     64  C   UNL A   1      43.806  27.844  36.443  1.00  0.00     0.131 A 
ATOM     65  C   UNL A   1      46.382  28.751  35.984  1.00  0.00     0.055 A 
ATOM     66  C   UNL A   1      44.872  27.274  37.140  1.00  0.00     0.041 A 
ATOM     67  F   UNL A   1      42.577  27.357  36.672  1.00  0.00    -0.206 F 
ATOM     68  C   UNL A   1      46.171  27.718  36.902  1.00  0.00     0.022 A 
BRANCH  65  69
ATOM     69  S   UNL A   1      48.070  29.268  35.570  1.00  0.00     0.124 S 
ATOM     70  O   UNL A   1      47.991  29.432  34.121  1.00  0.00    -0.237 OA
ATOM     71  O   UNL A   1      48.220  30.496  36.343  1.00  0.00    -0.237 OA
ATOM     72  O   UNL A   1      48.893  28.147  36.023  1.00  0.00    -0.744 OA
ENDBRANCH  65  69
ENDBRANCH  39  62
ENDBRANCH  13  14
ENDBRANCH   6   8
ENDBRANCH   3   4
ENDBRANCH   2   3
ENDBRANCH   1   2
BRANCH   1  73
ATOM     73  C   UNL A   1      31.611  29.753  25.330  1.00  0.00     0.116 C 
BRANCH  73  74
ATOM     74  N   UNL A   1      32.652  29.710  24.324  1.00  0.00    -0.354 N 
ATOM     75  C   UNL A   1      33.182  28.671  23.588  1.00  0.00     0.243 C 
ATOM     76  H   UNL A   1      33.055  30.586  24.128  1.00  0.00     0.163 HD
ATOM     77  O   UNL A   1      34.039  29.012  22.754  1.00  0.00    -0.273 OA
BRANCH  75  78
ATOM     78  C   UNL A   1      32.782  27.178  23.768  1.00  0.00     0.179 C 
ATOM     79  C   UNL A   1      31.430  26.692  24.307  1.00  0.00     0.057 C 
ATOM     80  N   UNL A   1      32.443  26.458  22.545  1.00  0.00    -0.296 N 
ATOM     81  C   UNL A   1      31.049  26.260  22.880  1.00  0.00     0.126 C 
BRANCH  80  82
ATOM     82  C   UNL A   1      33.169  25.701  21.674  1.00  0.00     0.410 C 
ATOM     83  O   UNL A   1      33.026  25.764  20.465  1.00  0.00    -0.224 OA
BRANCH  82  84
ATOM     84  O   UNL A   1      33.947  24.784  22.323  1.00  0.00    -0.448 OA
BRANCH  84  85
ATOM     85  C   UNL A   1      33.504  23.423  22.173  1.00  0.00     0.248 C 
BRANCH  85  86
ATOM     86  C   UNL A   1      33.759  22.546  23.424  1.00  0.00     0.088 C 
ATOM     87  C   UNL A   1      35.091  22.787  24.132  1.00  0.00    -0.029 A 
ATOM     88  C   UNL A   1      32.772  22.939  24.526  1.00  0.00    -0.029 A 
ATOM     89  C   UNL A   1      36.364  22.421  23.725  1.00  0.00     0.005 A 
ATOM     90  C   UNL A   1      34.884  23.439  25.366  1.00  0.00    -0.014 A 
ATOM     91  C   UNL A   1      33.461  23.519  25.615  1.00  0.00    -0.014 A 
ATOM     92  C   UNL A   1      31.391  22.807  24.538  1.00  0.00     0.005 A 
ATOM     93  C   UNL A   1      37.449  22.807  24.515  1.00  0.00     0.000 A 
ATOM     94  C   UNL A   1      35.960  23.834  26.144  1.00  0.00     0.009 A 
ATOM     95  C   UNL A   1      32.770  23.993  26.717  1.00  0.00     0.009 A 
ATOM     96  C   UNL A   1      30.696  23.277  25.654  1.00  0.00     0.000 A 
ATOM     97  C   UNL A   1      37.251  23.528  25.702  1.00  0.00     0.001 A 
ATOM     98  C   UNL A   1      31.377  23.871  26.731  1.00  0.00     0.001 A 
ENDBRANCH  85  86
ENDBRANCH  84  85
ENDBRANCH  82  84
ENDBRANCH  80  82
ENDBRANCH  75  78
ENDBRANCH  73  74
ENDBRANCH   1  73
TORSDOF 18
ENDMDL
MODEL 3
REMARK VINA RESULT:     -12.1      5.642      9.734
REMARK SMILES O=C(NCCCCNC(=O)[C@H]1CCN1C(=O)OCC1c2ccccc2-c2ccccc21)c1ccc(-c2c3nc(c(-c4cc(S(=O)(=O)[O-])ccc4F)c4ccc([nH]4)c(-c4cc(S(=O)(=O)[O-])ccc4F)c4nc(c(-c5cc(S(=O)(=O)[O-])ccc5F)c5ccc2[nH]5)C=C4)C=C3)cc1
REMARK SMILES IDX 6 1 5 2 4 3 3 4 1 5 2 6 32 8 33 9 94 10 34 11 93 12 35 13
REMARK SMILES IDX 36 14 37 15 87 16 38 17 92 18 86 19 88 20 39 21 91 22 85 23
REMARK SMILES IDX 84 24 40 26 72 27 52 28 71 29 53 30 56 31 70 32 89 33 54 34
REMARK SMILES IDX 55 35 69 37 90 38 57 39 41 40 42 41 50 42 43 43 49 44 51 45
REMARK SMILES IDX 48 46 44 47 45 48 46 49 47 50 73 51 74 52 82 53 75 54 81 55
REMARK SMILES IDX 83 56 80 57 76 58 77 59 78 60 79 61 58 62 59 63 67 64 60 65
REMARK SMILES IDX 66 66 68 67 65 68 61 69 62 70 63 71 64 72 7 73 8 74 9 75
REMARK SMILES IDX 10 77 11 78 12 79 14 80 13 81 15 82 16 83 17 84 18 85 19 86
REMARK SMILES IDX 20 87 31 88 21 89 25 90 26 91 30 92 22 93 24 94 27 95 29 96
REMARK SMILES IDX 23 97 28 98
REMARK H PARENT 3 7 88 25 56 36 8 76
REMARK Flexibility Score: inf
ROOT
ATOM      1  C   UNL A   1      38.360  22.526  25.741  1.00  0.00     0.023 C 
ENDROOT
BRANCH   1   2
ATOM      2  C   UNL A   1      38.822  21.097  25.453  1.00  0.00     0.023 C 
BRANCH   2   3
ATOM      3  C   UNL A   1      39.513  20.384  26.611  1.00  0.00     0.116 C 
BRANCH   3   4
ATOM      4  N   UNL A   1      40.493  19.391  26.193  1.00  0.00    -0.352 N 
ATOM      5  O   UNL A   1      42.524  18.652  25.536  1.00  0.00    -0.269 OA
ATOM      6  C   UNL A   1      41.839  19.571  25.972  1.00  0.00     0.251 C 
ATOM      7  H   UNL A   1      40.150  18.479  26.051  1.00  0.00     0.163 HD
BRANCH   6   8
ATOM      8  C   UNL A   1      42.436  20.898  26.229  1.00  0.00     0.039 A 
ATOM      9  C   UNL A   1      42.709  21.308  27.535  1.00  0.00     0.014 A 
ATOM     10  C   UNL A   1      42.681  21.753  25.151  1.00  0.00     0.014 A 
ATOM     11  C   UNL A   1      43.099  22.621  27.775  1.00  0.00     0.010 A 
ATOM     12  C   UNL A   1      43.139  23.051  25.390  1.00  0.00     0.010 A 
ATOM     13  C   UNL A   1      43.317  23.504  26.707  1.00  0.00    -0.014 A 
BRANCH  13  14
ATOM     14  C   UNL A   1      43.762  24.891  26.992  1.00  0.00     0.031 A 
ATOM     15  C   UNL A   1      42.819  25.897  27.591  1.00  0.00     0.074 A 
ATOM     16  C   UNL A   1      45.043  25.222  26.738  1.00  0.00     0.049 A 
ATOM     17  N   UNL A   1      43.043  27.144  27.918  1.00  0.00    -0.248 NA
ATOM     18  C   UNL A   1      41.443  25.446  27.847  1.00  0.00     0.031 C 
ATOM     19  C   UNL A   1      46.041  24.322  26.154  1.00  0.00     0.029 A 
ATOM     20  N   UNL A   1      45.728  26.387  26.950  1.00  0.00    -0.354 N 
ATOM     21  C   UNL A   1      41.835  27.635  28.404  1.00  0.00     0.074 A 
ATOM     22  C   UNL A   1      40.875  26.555  28.302  1.00  0.00     0.031 C 
ATOM     23  C   UNL A   1      47.220  24.958  26.091  1.00  0.00     0.029 A 
ATOM     24  C   UNL A   1      47.049  26.323  26.575  1.00  0.00     0.049 A 
ATOM     25  H   UNL A   1      45.315  27.195  27.333  1.00  0.00     0.167 HD
ATOM     26  C   UNL A   1      41.559  28.871  28.893  1.00  0.00     0.034 A 
ATOM     27  C   UNL A   1      48.013  27.262  26.603  1.00  0.00     0.034 A 
ATOM     28  C   UNL A   1      42.533  29.933  28.992  1.00  0.00     0.049 A 
ATOM     29  C   UNL A   1      47.676  28.627  27.132  1.00  0.00     0.074 A 
ATOM     30  C   UNL A   1      42.370  31.211  29.498  1.00  0.00     0.029 A 
ATOM     31  N   UNL A   1      43.853  29.842  28.568  1.00  0.00    -0.354 N 
ATOM     32  N   UNL A   1      46.530  29.073  27.592  1.00  0.00    -0.248 NA
ATOM     33  C   UNL A   1      48.762  29.614  27.145  1.00  0.00     0.031 C 
ATOM     34  C   UNL A   1      43.573  31.909  29.331  1.00  0.00     0.029 A 
ATOM     35  C   UNL A   1      44.507  31.048  28.776  1.00  0.00     0.049 A 
ATOM     36  H   UNL A   1      44.266  29.038  28.177  1.00  0.00     0.167 HD
ATOM     37  C   UNL A   1      46.759  30.395  27.956  1.00  0.00     0.074 A 
ATOM     38  C   UNL A   1      48.158  30.664  27.683  1.00  0.00     0.031 C 
ATOM     39  C   UNL A   1      45.894  31.304  28.468  1.00  0.00     0.034 A 
BRANCH  26  40
ATOM     40  C   UNL A   1      40.135  29.149  29.310  1.00  0.00     0.023 A 
ATOM     41  C   UNL A   1      39.745  29.154  30.661  1.00  0.00     0.031 A 
ATOM     42  C   UNL A   1      39.149  29.393  28.339  1.00  0.00     0.131 A 
ATOM     43  C   UNL A   1      38.395  29.335  30.999  1.00  0.00     0.055 A 
ATOM     44  C   UNL A   1      37.819  29.642  28.685  1.00  0.00     0.041 A 
ATOM     45  F   UNL A   1      39.459  29.382  27.033  1.00  0.00    -0.206 F 
ATOM     46  C   UNL A   1      37.433  29.602  30.021  1.00  0.00     0.022 A 
BRANCH  43  47
ATOM     47  S   UNL A   1      37.891  29.095  32.725  1.00  0.00     0.124 S 
ATOM     48  O   UNL A   1      36.651  29.866  32.782  1.00  0.00    -0.237 OA
ATOM     49  O   UNL A   1      37.747  27.647  32.814  1.00  0.00    -0.237 OA
ATOM     50  O   UNL A   1      39.001  29.661  33.489  1.00  0.00    -0.744 OA
ENDBRANCH  43  47
ENDBRANCH  26  40
BRANCH  27  51
ATOM     51  C   UNL A   1      49.371  26.946  26.084  1.00  0.00     0.023 A 
ATOM     52  C   UNL A   1      49.743  27.283  24.774  1.00  0.00     0.031 A 
ATOM     53  C   UNL A   1      50.317  26.300  26.899  1.00  0.00     0.131 A 
ATOM     54  C   UNL A   1      51.023  26.948  24.308  1.00  0.00     0.055 A 
ATOM     55  C   UNL A   1      51.603  26.008  26.444  1.00  0.00     0.041 A 
ATOM     56  F   UNL A   1      50.010  25.967  28.163  1.00  0.00    -0.206 F 
ATOM     57  C   UNL A   1      51.960  26.325  25.138  1.00  0.00     0.022 A 
BRANCH  54  58
ATOM     58  S   UNL A   1      51.436  27.297  22.577  1.00  0.00     0.124 S 
ATOM     59  O   UNL A   1      51.599  28.746  22.595  1.00  0.00    -0.237 OA
ATOM     60  O   UNL A   1      52.654  26.516  22.393  1.00  0.00    -0.237 OA
ATOM     61  O   UNL A   1      50.268  26.810  21.845  1.00  0.00    -0.744 OA
ENDBRANCH  54  58
ENDBRANCH  27  51
BRANCH  39  62
ATOM     62  C   UNL A   1      46.459  32.666  28.776  1.00  0.00     0.023 A 
ATOM     63  C   UNL A   1      46.523  33.670  27.794  1.00  0.00     0.031 A 
ATOM     64  C   UNL A   1      46.972  32.948  30.053  1.00  0.00     0.131 A 
ATOM     65  C   UNL A   1      47.141  34.894  28.090  1.00  0.00     0.055 A 
ATOM     66  C   UNL A   1      47.541  34.186  30.356  1.00  0.00     0.041 A 
ATOM     67  F   UNL A   1      46.936  32.022  31.024  1.00  0.00    -0.206 F 
ATOM     68  C   UNL A   1      47.640  35.162  29.368  1.00  0.00     0.022 A 
BRANCH  65  69
ATOM     69  S   UNL A   1      47.361  36.102  26.755  1.00  0.00     0.124 S 
ATOM     70  O   UNL A   1      48.711  35.798  26.290  1.00  0.00    -0.237 OA
ATOM     71  O   UNL A   1      46.278  35.758  25.841  1.00  0.00    -0.237 OA
ATOM     72  O   UNL A   1      47.214  37.390  27.432  1.00  0.00    -0.744 OA
ENDBRANCH  65  69
ENDBRANCH  39  62
ENDBRANCH  13  14
ENDBRANCH   6   8
ENDBRANCH   3   4
ENDBRANCH   2   3
ENDBRANCH   1   2
BRANCH   1  73
ATOM     73  C   UNL A   1      36.890  22.792  25.426  1.00  0.00     0.116 C 
BRANCH  73  74
ATOM     74  N   UNL A   1      35.995  22.155  26.369  1.00  0.00    -0.354 N 
ATOM     75  C   UNL A   1      34.633  22.254  26.560  1.00  0.00     0.243 C 
ATOM     76  H   UNL A   1      36.442  21.535  26.988  1.00  0.00     0.163 HD
ATOM     77  O   UNL A   1      34.177  21.503  27.441  1.00  0.00    -0.273 OA
BRANCH  75  78
ATOM     78  C   UNL A   1      33.707  23.228  25.774  1.00  0.00     0.179 C 
ATOM     79  C   UNL A   1      33.375  23.107  24.281  1.00  0.00     0.057 C 
ATOM     80  N   UNL A   1      32.275  23.071  26.005  1.00  0.00    -0.296 N 
ATOM     81  C   UNL A   1      31.963  22.628  24.664  1.00  0.00     0.126 C 
BRANCH  80  82
ATOM     82  C   UNL A   1      31.400  23.647  26.879  1.00  0.00     0.410 C 
ATOM     83  O   UNL A   1      30.602  23.002  27.536  1.00  0.00    -0.224 OA
BRANCH  82  84
ATOM     84  O   UNL A   1      31.437  25.011  26.811  1.00  0.00    -0.448 OA
BRANCH  84  85
ATOM     85  C   UNL A   1      30.366  25.591  26.044  1.00  0.00     0.248 C 
BRANCH  85  86
ATOM     86  C   UNL A   1      30.769  26.885  25.294  1.00  0.00     0.088 C 
ATOM     87  C   UNL A   1      31.835  27.735  25.982  1.00  0.00    -0.029 A 
ATOM     88  C   UNL A   1      31.492  26.511  23.997  1.00  0.00    -0.029 A 
ATOM     89  C   UNL A   1      31.709  28.533  27.109  1.00  0.00     0.005 A 
ATOM     90  C   UNL A   1      33.057  27.658  25.283  1.00  0.00    -0.014 A 
ATOM     91  C   UNL A   1      32.844  26.920  24.057  1.00  0.00    -0.014 A 
ATOM     92  C   UNL A   1      30.989  25.852  22.886  1.00  0.00     0.005 A 
ATOM     93  C   UNL A   1      32.848  29.177  27.596  1.00  0.00     0.000 A 
ATOM     94  C   UNL A   1      34.191  28.285  25.773  1.00  0.00     0.009 A 
ATOM     95  C   UNL A   1      33.710  26.651  23.011  1.00  0.00     0.009 A 
ATOM     96  C   UNL A   1      31.861  25.590  21.828  1.00  0.00     0.000 A 
ATOM     97  C   UNL A   1      34.084  29.035  26.948  1.00  0.00     0.001 A 
ATOM     98  C   UNL A   1      33.211  25.978  21.892  1.00  0.00     0.001 A 
ENDBRANCH  85  86
ENDBRANCH  84  85
ENDBRANCH  82  84
ENDBRANCH  80  82
ENDBRANCH  75  78
ENDBRANCH  73  74
ENDBRANCH   1  73
TORSDOF 18
ENDMDL
