MODEL 1
REMARK VINA RESULT:     -13.8      0.000      0.000
REMARK SMILES O=C(CCN1C(=O)[C@@H]2[C@@H](C1=O)[C@H]1c3ccccc3[C@]2(Br)c2ccccc21)NCCCCNC(=O)c1ccc(-c2c3nc(c(-c4cc(S(=O)(=O)[O-])ccc4F)c4ccc([nH]4)c(-c4cc(S(=O)(=O)[O-])ccc4F)c4nc(c(-c5cc(S(=O)(=O)[O-])ccc5F)c5ccc2[nH]5)C=C4)C=C3)cc1
REMARK SMILES IDX 30 1 29 2 28 3 27 4 1 5 2 6 3 8 4 9 5 10 6 11 10 12 7 13
REMARK SMILES IDX 8 14 9 15 11 16 19 17 12 18 21 19 20 20 18 21 26 22 13 23
REMARK SMILES IDX 22 24 17 25 25 26 14 27 23 28 16 29 24 30 15 31 31 32 32 33
REMARK SMILES IDX 33 34 34 36 35 37 36 38 97 39 37 40 96 41 38 42 39 43 40 44
REMARK SMILES IDX 90 45 41 46 95 47 89 48 91 49 42 50 94 51 88 52 87 53 43 55
REMARK SMILES IDX 75 56 55 57 74 58 56 59 59 60 73 61 92 62 57 63 58 64 72 66
REMARK SMILES IDX 93 67 60 68 44 69 45 70 53 71 46 72 52 73 54 74 51 75 47 76
REMARK SMILES IDX 48 77 49 78 50 79 76 80 77 81 85 82 78 83 84 84 86 85 83 86
REMARK SMILES IDX 79 87 80 88 81 89 82 90 61 91 62 92 70 93 63 94 69 95 71 96
REMARK SMILES IDX 68 97 64 98 65 99 66 100 67 101
REMARK H PARENT 27 7 32 35 91 54 59 65
REMARK Flexibility Score: inf
ROOT
ATOM      1  C   UNL A   1      35.629  22.428  26.378  1.00  0.00     0.023 C 
ENDROOT
BRANCH   1   2
ATOM      2  C   UNL A   1      34.657  21.353  26.893  1.00  0.00     0.023 C 
BRANCH   2   3
ATOM      3  C   UNL A   1      33.209  21.392  26.372  1.00  0.00     0.116 C 
BRANCH   3   4
ATOM      4  N   UNL A   1      33.064  21.913  25.020  1.00  0.00    -0.356 N 
ATOM      5  O   UNL A   1      32.919  19.872  23.975  1.00  0.00    -0.275 OA
ATOM      6  C   UNL A   1      32.867  21.099  23.919  1.00  0.00     0.221 C 
ATOM      7  H   UNL A   1      33.107  22.886  24.883  1.00  0.00     0.163 HD
BRANCH   6   8
ATOM      8  C   UNL A   1      32.547  21.815  22.607  1.00  0.00     0.122 C 
BRANCH   8   9
ATOM      9  C   UNL A   1      31.320  22.737  22.711  1.00  0.00     0.138 C 
BRANCH   9  10
ATOM     10  N   UNL A   1      31.551  24.093  23.194  1.00  0.00    -0.281 N 
ATOM     11  C   UNL A   1      32.147  25.133  22.439  1.00  0.00     0.235 C 
ATOM     12  C   UNL A   1      31.011  24.606  24.359  1.00  0.00     0.234 C 
ATOM     13  O   UNL A   1      32.549  25.082  21.294  1.00  0.00    -0.274 OA
ATOM     14  C   UNL A   1      32.185  26.310  23.400  1.00  0.00     0.118 C 
ATOM     15  C   UNL A   1      30.791  26.001  23.966  1.00  0.00     0.105 C 
ATOM     16  O   UNL A   1      30.659  24.069  25.393  1.00  0.00    -0.274 OA
ATOM     17  C   UNL A   1      32.348  27.866  23.335  1.00  0.00     0.088 C 
ATOM     18  C   UNL A   1      30.274  27.117  24.810  1.00  0.00     0.063 C 
ATOM     19  C   UNL A   1      32.518  28.180  24.855  1.00  0.00    -0.022 A 
ATOM     20  Br  UNL A   1      33.870  28.310  22.250  1.00  0.00    -0.074 Br
ATOM     21  C   UNL A   1      31.041  28.569  22.937  1.00  0.00    -0.022 A 
ATOM     22  C   UNL A   1      31.419  27.689  25.631  1.00  0.00    -0.035 A 
ATOM     23  C   UNL A   1      29.920  28.094  23.669  1.00  0.00    -0.035 A 
ATOM     24  C   UNL A   1      33.592  28.779  25.505  1.00  0.00     0.006 A 
ATOM     25  C   UNL A   1      30.849  29.618  22.041  1.00  0.00     0.006 A 
ATOM     26  C   UNL A   1      31.451  27.706  27.022  1.00  0.00     0.005 A 
ATOM     27  C   UNL A   1      28.637  28.384  23.225  1.00  0.00     0.005 A 
ATOM     28  C   UNL A   1      33.603  28.817  26.904  1.00  0.00     0.000 A 
ATOM     29  C   UNL A   1      29.551  30.061  21.759  1.00  0.00     0.000 A 
ATOM     30  C   UNL A   1      32.558  28.264  27.656  1.00  0.00     0.000 A 
ATOM     31  C   UNL A   1      28.448  29.403  22.300  1.00  0.00     0.000 A 
ENDBRANCH   9  10
ENDBRANCH   8   9
ENDBRANCH   6   8
ENDBRANCH   3   4
ENDBRANCH   2   3
ENDBRANCH   1   2
BRANCH   1  32
ATOM     32  C   UNL A   1      36.422  22.106  25.106  1.00  0.00     0.116 C 
BRANCH  32  33
ATOM     33  N   UNL A   1      37.395  21.030  25.199  1.00  0.00    -0.352 N 
ATOM     34  C   UNL A   1      38.676  21.048  25.742  1.00  0.00     0.251 C 
ATOM     35  H   UNL A   1      37.107  20.167  24.825  1.00  0.00     0.163 HD
ATOM     36  O   UNL A   1      39.364  20.031  25.692  1.00  0.00    -0.269 OA
BRANCH  34  37
ATOM     37  C   UNL A   1      39.230  22.278  26.377  1.00  0.00     0.039 A 
ATOM     38  C   UNL A   1      38.684  23.519  26.088  1.00  0.00     0.014 A 
ATOM     39  C   UNL A   1      40.274  22.224  27.296  1.00  0.00     0.014 A 
ATOM     40  C   UNL A   1      39.301  24.709  26.491  1.00  0.00     0.010 A 
ATOM     41  C   UNL A   1      40.834  23.419  27.797  1.00  0.00     0.010 A 
ATOM     42  C   UNL A   1      40.414  24.685  27.335  1.00  0.00    -0.014 A 
BRANCH  42  43
ATOM     43  C   UNL A   1      41.183  25.941  27.649  1.00  0.00     0.031 A 
ATOM     44  C   UNL A   1      40.556  26.990  28.546  1.00  0.00     0.074 A 
ATOM     45  C   UNL A   1      42.444  26.157  27.206  1.00  0.00     0.049 A 
ATOM     46  N   UNL A   1      40.973  28.198  28.838  1.00  0.00    -0.248 NA
ATOM     47  C   UNL A   1      39.282  26.637  29.199  1.00  0.00     0.031 C 
ATOM     48  C   UNL A   1      43.236  25.220  26.410  1.00  0.00     0.029 A 
ATOM     49  N   UNL A   1      43.293  27.233  27.374  1.00  0.00    -0.354 N 
ATOM     50  C   UNL A   1      39.991  28.761  29.648  1.00  0.00     0.074 A 
ATOM     51  C   UNL A   1      38.947  27.773  29.791  1.00  0.00     0.031 C 
ATOM     52  C   UNL A   1      44.460  25.735  26.204  1.00  0.00     0.029 A 
ATOM     53  C   UNL A   1      44.521  27.084  26.761  1.00  0.00     0.049 A 
ATOM     54  H   UNL A   1      43.044  28.036  27.886  1.00  0.00     0.167 HD
ATOM     55  C   UNL A   1      39.963  29.981  30.234  1.00  0.00     0.034 A 
ATOM     56  C   UNL A   1      45.565  27.935  26.626  1.00  0.00     0.034 A 
ATOM     57  C   UNL A   1      41.035  30.941  30.160  1.00  0.00     0.049 A 
ATOM     58  C   UNL A   1      45.475  29.321  27.228  1.00  0.00     0.074 A 
ATOM     59  C   UNL A   1      41.093  32.192  30.750  1.00  0.00     0.029 A 
ATOM     60  N   UNL A   1      42.230  30.763  29.483  1.00  0.00    -0.354 N 
ATOM     61  N   UNL A   1      44.537  29.834  27.987  1.00  0.00    -0.248 NA
ATOM     62  C   UNL A   1      46.582  30.251  26.947  1.00  0.00     0.031 C 
ATOM     63  C   UNL A   1      42.284  32.802  30.364  1.00  0.00     0.029 A 
ATOM     64  C   UNL A   1      43.016  31.896  29.616  1.00  0.00     0.049 A 
ATOM     65  H   UNL A   1      42.482  29.954  28.983  1.00  0.00     0.167 HD
ATOM     66  C   UNL A   1      44.961  31.124  28.306  1.00  0.00     0.074 A 
ATOM     67  C   UNL A   1      46.250  31.307  27.679  1.00  0.00     0.031 C 
ATOM     68  C   UNL A   1      44.328  32.070  29.043  1.00  0.00     0.034 A 
BRANCH  55  69
ATOM     69  C   UNL A   1      38.745  30.392  31.025  1.00  0.00     0.023 A 
ATOM     70  C   UNL A   1      37.663  30.997  30.356  1.00  0.00     0.031 A 
ATOM     71  C   UNL A   1      38.726  30.360  32.429  1.00  0.00     0.131 A 
ATOM     72  C   UNL A   1      36.642  31.607  31.093  1.00  0.00     0.055 A 
ATOM     73  C   UNL A   1      37.676  30.921  33.159  1.00  0.00     0.041 A 
ATOM     74  F   UNL A   1      39.734  29.792  33.112  1.00  0.00    -0.206 F 
ATOM     75  C   UNL A   1      36.638  31.565  32.490  1.00  0.00     0.022 A 
BRANCH  72  76
ATOM     76  S   UNL A   1      35.335  32.559  30.267  1.00  0.00     0.124 S 
ATOM     77  O   UNL A   1      36.037  33.794  29.923  1.00  0.00    -0.237 OA
ATOM     78  O   UNL A   1      35.001  31.696  29.138  1.00  0.00    -0.237 OA
ATOM     79  O   UNL A   1      34.303  32.697  31.288  1.00  0.00    -0.744 OA
ENDBRANCH  72  76
ENDBRANCH  55  69
BRANCH  56  80
ATOM     80  C   UNL A   1      46.802  27.506  25.895  1.00  0.00     0.023 A 
ATOM     81  C   UNL A   1      47.033  27.876  24.557  1.00  0.00     0.031 A 
ATOM     82  C   UNL A   1      47.765  26.690  26.519  1.00  0.00     0.131 A 
ATOM     83  C   UNL A   1      48.155  27.386  23.875  1.00  0.00     0.055 A 
ATOM     84  C   UNL A   1      48.925  26.273  25.862  1.00  0.00     0.041 A 
ATOM     85  F   UNL A   1      47.598  26.301  27.793  1.00  0.00    -0.206 F 
ATOM     86  C   UNL A   1      49.117  26.607  24.525  1.00  0.00     0.022 A 
BRANCH  83  87
ATOM     87  S   UNL A   1      48.345  27.641  22.088  1.00  0.00     0.124 S 
ATOM     88  O   UNL A   1      47.074  28.260  21.729  1.00  0.00    -0.237 OA
ATOM     89  O   UNL A   1      49.512  28.518  22.036  1.00  0.00    -0.237 OA
ATOM     90  O   UNL A   1      48.561  26.294  21.570  1.00  0.00    -0.744 OA
ENDBRANCH  83  87
ENDBRANCH  56  80
BRANCH  68  91
ATOM     91  C   UNL A   1      45.003  33.402  29.287  1.00  0.00     0.023 A 
ATOM     92  C   UNL A   1      44.906  34.420  28.316  1.00  0.00     0.031 A 
ATOM     93  C   UNL A   1      45.883  33.598  30.364  1.00  0.00     0.131 A 
ATOM     94  C   UNL A   1      45.722  35.555  28.407  1.00  0.00     0.055 A 
ATOM     95  C   UNL A   1      46.648  34.760  30.484  1.00  0.00     0.041 A 
ATOM     96  F   UNL A   1      46.025  32.655  31.310  1.00  0.00    -0.206 F 
ATOM     97  C   UNL A   1      46.584  35.736  29.492  1.00  0.00     0.022 A 
BRANCH  94  98
ATOM     98  S   UNL A   1      45.780  36.776  27.065  1.00  0.00     0.124 S 
ATOM     99  O   UNL A   1      46.764  37.731  27.569  1.00  0.00    -0.237 OA
ATOM    100  O   UNL A   1      46.222  35.965  25.933  1.00  0.00    -0.237 OA
ATOM    101  O   UNL A   1      44.413  37.276  26.984  1.00  0.00    -0.744 OA
ENDBRANCH  94  98
ENDBRANCH  68  91
ENDBRANCH  42  43
ENDBRANCH  34  37
ENDBRANCH  32  33
ENDBRANCH   1  32
TORSDOF 16
ENDMDL
MODEL 2
REMARK VINA RESULT:     -13.7      0.967      7.243
REMARK SMILES O=C(CCN1C(=O)[C@@H]2[C@@H](C1=O)[C@H]1c3ccccc3[C@]2(Br)c2ccccc21)NCCCCNC(=O)c1ccc(-c2c3nc(c(-c4cc(S(=O)(=O)[O-])ccc4F)c4ccc([nH]4)c(-c4cc(S(=O)(=O)[O-])ccc4F)c4nc(c(-c5cc(S(=O)(=O)[O-])ccc5F)c5ccc2[nH]5)C=C4)C=C3)cc1
REMARK SMILES IDX 30 1 29 2 28 3 27 4 1 5 2 6 3 8 4 9 5 10 6 11 10 12 7 13
REMARK SMILES IDX 8 14 9 15 11 16 19 17 12 18 21 19 20 20 18 21 26 22 13 23
REMARK SMILES IDX 22 24 17 25 25 26 14 27 23 28 16 29 24 30 15 31 31 32 32 33
REMARK SMILES IDX 33 34 34 36 35 37 36 38 97 39 37 40 96 41 38 42 39 43 40 44
REMARK SMILES IDX 90 45 41 46 95 47 89 48 91 49 42 50 94 51 88 52 87 53 43 55
REMARK SMILES IDX 75 56 55 57 74 58 56 59 59 60 73 61 92 62 57 63 58 64 72 66
REMARK SMILES IDX 93 67 60 68 44 69 45 70 53 71 46 72 52 73 54 74 51 75 47 76
REMARK SMILES IDX 48 77 49 78 50 79 76 80 77 81 85 82 78 83 84 84 86 85 83 86
REMARK SMILES IDX 79 87 80 88 81 89 82 90 61 91 62 92 70 93 63 94 69 95 71 96
REMARK SMILES IDX 68 97 64 98 65 99 66 100 67 101
REMARK H PARENT 27 7 32 35 91 54 59 65
REMARK Flexibility Score: inf
ROOT
ATOM      1  C   UNL A   1      37.791  20.048  24.608  1.00  0.00     0.023 C 
ENDROOT
BRANCH   1   2
ATOM      2  C   UNL A   1      36.775  21.200  24.536  1.00  0.00     0.023 C 
BRANCH   2   3
ATOM      3  C   UNL A   1      35.341  20.917  25.020  1.00  0.00     0.116 C 
BRANCH   3   4
ATOM      4  N   UNL A   1      34.293  21.461  24.168  1.00  0.00    -0.356 N 
ATOM      5  O   UNL A   1      32.692  19.905  24.706  1.00  0.00    -0.275 OA
ATOM      6  C   UNL A   1      33.014  20.938  24.124  1.00  0.00     0.221 C 
ATOM      7  H   UNL A   1      34.504  22.235  23.599  1.00  0.00     0.163 HD
BRANCH   6   8
ATOM      8  C   UNL A   1      31.990  21.742  23.323  1.00  0.00     0.122 C 
BRANCH   8   9
ATOM      9  C   UNL A   1      32.623  22.897  22.527  1.00  0.00     0.138 C 
BRANCH   9  10
ATOM     10  N   UNL A   1      32.535  24.229  23.112  1.00  0.00    -0.281 N 
ATOM     11  C   UNL A   1      32.958  25.423  22.478  1.00  0.00     0.235 C 
ATOM     12  C   UNL A   1      31.816  24.531  24.255  1.00  0.00     0.234 C 
ATOM     13  O   UNL A   1      33.445  25.543  21.373  1.00  0.00    -0.274 OA
ATOM     14  C   UNL A   1      32.683  26.504  23.510  1.00  0.00     0.118 C 
ATOM     15  C   UNL A   1      31.344  25.881  23.931  1.00  0.00     0.105 C 
ATOM     16  O   UNL A   1      31.507  23.855  25.218  1.00  0.00    -0.274 OA
ATOM     17  C   UNL A   1      32.527  28.062  23.556  1.00  0.00     0.088 C 
ATOM     18  C   UNL A   1      30.549  26.802  24.793  1.00  0.00     0.063 C 
ATOM     19  C   UNL A   1      32.517  28.284  25.101  1.00  0.00    -0.022 A 
ATOM     20  Br  UNL A   1      34.002  28.885  22.639  1.00  0.00    -0.074 Br
ATOM     21  C   UNL A   1      31.138  28.520  23.089  1.00  0.00    -0.022 A 
ATOM     22  C   UNL A   1      31.488  27.524  25.746  1.00  0.00    -0.035 A 
ATOM     23  C   UNL A   1      30.087  27.775  23.689  1.00  0.00    -0.035 A 
ATOM     24  C   UNL A   1      33.394  29.031  25.879  1.00  0.00     0.006 A 
ATOM     25  C   UNL A   1      30.801  29.576  22.246  1.00  0.00     0.006 A 
ATOM     26  C   UNL A   1      31.414  27.438  27.133  1.00  0.00     0.005 A 
ATOM     27  C   UNL A   1      28.807  27.837  23.152  1.00  0.00     0.005 A 
ATOM     28  C   UNL A   1      33.295  28.962  27.274  1.00  0.00     0.000 A 
ATOM     29  C   UNL A   1      29.464  29.772  21.879  1.00  0.00     0.000 A 
ATOM     30  C   UNL A   1      32.333  28.154  27.896  1.00  0.00     0.000 A 
ATOM     31  C   UNL A   1      28.482  28.867  22.279  1.00  0.00     0.000 A 
ENDBRANCH   9  10
ENDBRANCH   8   9
ENDBRANCH   6   8
ENDBRANCH   3   4
ENDBRANCH   2   3
ENDBRANCH   1   2
BRANCH   1  32
ATOM     32  C   UNL A   1      38.486  19.809  25.954  1.00  0.00     0.116 C 
BRANCH  32  33
ATOM     33  N   UNL A   1      39.812  19.214  25.907  1.00  0.00    -0.352 N 
ATOM     34  C   UNL A   1      41.042  19.780  26.228  1.00  0.00     0.251 C 
ATOM     35  H   UNL A   1      39.844  18.278  25.604  1.00  0.00     0.163 HD
ATOM     36  O   UNL A   1      42.065  19.116  26.085  1.00  0.00    -0.269 OA
BRANCH  34  37
ATOM     37  C   UNL A   1      41.141  21.179  26.735  1.00  0.00     0.039 A 
ATOM     38  C   UNL A   1      40.429  22.197  26.118  1.00  0.00     0.014 A 
ATOM     39  C   UNL A   1      41.907  21.504  27.851  1.00  0.00     0.014 A 
ATOM     40  C   UNL A   1      40.654  23.545  26.423  1.00  0.00     0.010 A 
ATOM     41  C   UNL A   1      42.052  22.854  28.238  1.00  0.00     0.010 A 
ATOM     42  C   UNL A   1      41.498  23.906  27.477  1.00  0.00    -0.014 A 
BRANCH  42  43
ATOM     43  C   UNL A   1      41.875  25.344  27.717  1.00  0.00     0.031 A 
ATOM     44  C   UNL A   1      43.189  25.867  27.172  1.00  0.00     0.074 A 
ATOM     45  C   UNL A   1      41.062  26.216  28.359  1.00  0.00     0.049 A 
ATOM     46  N   UNL A   1      43.777  27.021  27.373  1.00  0.00    -0.248 NA
ATOM     47  C   UNL A   1      43.951  24.969  26.286  1.00  0.00     0.031 C 
ATOM     48  C   UNL A   1      39.726  25.912  28.870  1.00  0.00     0.029 A 
ATOM     49  N   UNL A   1      41.235  27.548  28.682  1.00  0.00    -0.354 N 
ATOM     50  C   UNL A   1      44.992  26.959  26.696  1.00  0.00     0.074 A 
ATOM     51  C   UNL A   1      45.069  25.650  26.090  1.00  0.00     0.031 C 
ATOM     52  C   UNL A   1      39.185  27.026  29.391  1.00  0.00     0.029 A 
ATOM     53  C   UNL A   1      40.165  28.109  29.351  1.00  0.00     0.049 A 
ATOM     54  H   UNL A   1      42.049  28.052  28.455  1.00  0.00     0.167 HD
ATOM     55  C   UNL A   1      45.951  27.907  26.573  1.00  0.00     0.034 A 
ATOM     56  C   UNL A   1      39.995  29.334  29.900  1.00  0.00     0.034 A 
ATOM     57  C   UNL A   1      45.846  29.241  27.108  1.00  0.00     0.049 A 
ATOM     58  C   UNL A   1      41.115  30.349  29.813  1.00  0.00     0.074 A 
ATOM     59  C   UNL A   1      46.766  30.270  27.003  1.00  0.00     0.029 A 
ATOM     60  N   UNL A   1      44.770  29.740  27.821  1.00  0.00    -0.354 N 
ATOM     61  N   UNL A   1      42.255  30.269  29.171  1.00  0.00    -0.248 NA
ATOM     62  C   UNL A   1      40.929  31.620  30.534  1.00  0.00     0.031 C 
ATOM     63  C   UNL A   1      46.284  31.362  27.719  1.00  0.00     0.029 A 
ATOM     64  C   UNL A   1      45.019  31.052  28.190  1.00  0.00     0.049 A 
ATOM     65  H   UNL A   1      43.950  29.238  28.035  1.00  0.00     0.167 HD
ATOM     66  C   UNL A   1      42.899  31.489  29.377  1.00  0.00     0.074 A 
ATOM     67  C   UNL A   1      42.013  32.300  30.181  1.00  0.00     0.031 C 
ATOM     68  C   UNL A   1      44.120  31.890  28.944  1.00  0.00     0.034 A 
BRANCH  55  69
ATOM     69  C   UNL A   1      47.224  27.578  25.831  1.00  0.00     0.023 A 
ATOM     70  C   UNL A   1      47.328  27.906  24.466  1.00  0.00     0.031 A 
ATOM     71  C   UNL A   1      48.236  26.794  26.407  1.00  0.00     0.131 A 
ATOM     72  C   UNL A   1      48.384  27.392  23.705  1.00  0.00     0.055 A 
ATOM     73  C   UNL A   1      49.318  26.330  25.656  1.00  0.00     0.041 A 
ATOM     74  F   UNL A   1      48.183  26.457  27.707  1.00  0.00    -0.206 F 
ATOM     75  C   UNL A   1      49.384  26.614  24.294  1.00  0.00     0.022 A 
BRANCH  72  76
ATOM     76  S   UNL A   1      48.444  27.635  21.907  1.00  0.00     0.124 S 
ATOM     77  O   UNL A   1      48.582  26.263  21.424  1.00  0.00    -0.237 OA
ATOM     78  O   UNL A   1      47.153  28.263  21.644  1.00  0.00    -0.237 OA
ATOM     79  O   UNL A   1      49.614  28.482  21.707  1.00  0.00    -0.744 OA
ENDBRANCH  72  76
ENDBRANCH  55  69
BRANCH  56  80
ATOM     80  C   UNL A   1      38.706  29.685  30.582  1.00  0.00     0.023 A 
ATOM     81  C   UNL A   1      37.750  30.517  29.968  1.00  0.00     0.031 A 
ATOM     82  C   UNL A   1      38.421  29.215  31.878  1.00  0.00     0.131 A 
ATOM     83  C   UNL A   1      36.597  30.899  30.667  1.00  0.00     0.055 A 
ATOM     84  C   UNL A   1      37.231  29.530  32.538  1.00  0.00     0.041 A 
ATOM     85  F   UNL A   1      39.296  28.423  32.516  1.00  0.00    -0.206 F 
ATOM     86  C   UNL A   1      36.318  30.390  31.939  1.00  0.00     0.022 A 
BRANCH  83  87
ATOM     87  S   UNL A   1      35.477  32.162  30.000  1.00  0.00     0.124 S 
ATOM     88  O   UNL A   1      36.393  33.260  29.708  1.00  0.00    -0.237 OA
ATOM     89  O   UNL A   1      34.919  31.478  28.837  1.00  0.00    -0.237 OA
ATOM     90  O   UNL A   1      34.536  32.396  31.091  1.00  0.00    -0.744 OA
ENDBRANCH  83  87
ENDBRANCH  56  80
BRANCH  68  91
ATOM     91  C   UNL A   1      44.604  33.288  29.263  1.00  0.00     0.023 A 
ATOM     92  C   UNL A   1      44.262  34.355  28.408  1.00  0.00     0.031 A 
ATOM     93  C   UNL A   1      45.543  33.531  30.280  1.00  0.00     0.131 A 
ATOM     94  C   UNL A   1      44.900  35.595  28.545  1.00  0.00     0.055 A 
ATOM     95  C   UNL A   1      46.129  34.786  30.452  1.00  0.00     0.041 A 
ATOM     96  F   UNL A   1      45.916  32.546  31.113  1.00  0.00    -0.206 F 
ATOM     97  C   UNL A   1      45.823  35.819  29.569  1.00  0.00     0.022 A 
BRANCH  94  98
ATOM     98  S   UNL A   1      44.643  36.918  27.329  1.00  0.00     0.124 S 
ATOM     99  O   UNL A   1      43.573  36.365  26.502  1.00  0.00    -0.237 OA
ATOM    100  O   UNL A   1      44.258  38.043  28.177  1.00  0.00    -0.237 OA
ATOM    101  O   UNL A   1      45.937  37.044  26.667  1.00  0.00    -0.744 OA
ENDBRANCH  94  98
ENDBRANCH  68  91
ENDBRANCH  42  43
ENDBRANCH  34  37
ENDBRANCH  32  33
ENDBRANCH   1  32
TORSDOF 16
ENDMDL
MODEL 3
REMARK VINA RESULT:     -13.5      2.185      7.982
REMARK SMILES O=C(CCN1C(=O)[C@@H]2[C@@H](C1=O)[C@H]1c3ccccc3[C@]2(Br)c2ccccc21)NCCCCNC(=O)c1ccc(-c2c3nc(c(-c4cc(S(=O)(=O)[O-])ccc4F)c4ccc([nH]4)c(-c4cc(S(=O)(=O)[O-])ccc4F)c4nc(c(-c5cc(S(=O)(=O)[O-])ccc5F)c5ccc2[nH]5)C=C4)C=C3)cc1
REMARK SMILES IDX 30 1 29 2 28 3 27 4 1 5 2 6 3 8 4 9 5 10 6 11 10 12 7 13
REMARK SMILES IDX 8 14 9 15 11 16 19 17 12 18 21 19 20 20 18 21 26 22 13 23
REMARK SMILES IDX 22 24 17 25 25 26 14 27 23 28 16 29 24 30 15 31 31 32 32 33
REMARK SMILES IDX 33 34 34 36 35 37 36 38 97 39 37 40 96 41 38 42 39 43 40 44
REMARK SMILES IDX 90 45 41 46 95 47 89 48 91 49 42 50 94 51 88 52 87 53 43 55
REMARK SMILES IDX 75 56 55 57 74 58 56 59 59 60 73 61 92 62 57 63 58 64 72 66
REMARK SMILES IDX 93 67 60 68 44 69 45 70 53 71 46 72 52 73 54 74 51 75 47 76
REMARK SMILES IDX 48 77 49 78 50 79 76 80 77 81 85 82 78 83 84 84 86 85 83 86
REMARK SMILES IDX 79 87 80 88 81 89 82 90 61 91 62 92 70 93 63 94 69 95 71 96
REMARK SMILES IDX 68 97 64 98 65 99 66 100 67 101
REMARK H PARENT 27 7 32 35 91 54 59 65
REMARK Flexibility Score: inf
ROOT
ATOM      1  C   UNL A   1      38.599  19.689  24.913  1.00  0.00     0.023 C 
ENDROOT
BRANCH   1   2
ATOM      2  C   UNL A   1      37.067  19.791  25.003  1.00  0.00     0.023 C 
BRANCH   2   3
ATOM      3  C   UNL A   1      36.265  18.477  25.001  1.00  0.00     0.116 C 
BRANCH   3   4
ATOM      4  N   UNL A   1      35.237  18.393  23.973  1.00  0.00    -0.356 N 
ATOM      5  O   UNL A   1      34.583  16.242  24.439  1.00  0.00    -0.275 OA
ATOM      6  C   UNL A   1      34.424  17.287  23.811  1.00  0.00     0.221 C 
ATOM      7  H   UNL A   1      35.115  19.159  23.367  1.00  0.00     0.163 HD
BRANCH   6   8
ATOM      8  C   UNL A   1      33.278  17.439  22.813  1.00  0.00     0.122 C 
BRANCH   8   9
ATOM      9  C   UNL A   1      32.042  18.127  23.418  1.00  0.00     0.138 C 
BRANCH   9  10
ATOM     10  N   UNL A   1      32.184  19.528  23.797  1.00  0.00    -0.281 N 
ATOM     11  C   UNL A   1      32.608  19.985  25.069  1.00  0.00     0.235 C 
ATOM     12  C   UNL A   1      32.153  20.582  22.903  1.00  0.00     0.234 C 
ATOM     13  O   UNL A   1      32.923  19.315  26.031  1.00  0.00    -0.274 OA
ATOM     14  C   UNL A   1      32.552  21.499  24.953  1.00  0.00     0.118 C 
ATOM     15  C   UNL A   1      33.118  21.495  23.525  1.00  0.00     0.105 C 
ATOM     16  O   UNL A   1      31.614  20.709  21.820  1.00  0.00    -0.274 OA
ATOM     17  C   UNL A   1      33.129  22.750  25.698  1.00  0.00     0.088 C 
ATOM     18  C   UNL A   1      33.501  22.864  23.074  1.00  0.00     0.063 C 
ATOM     19  C   UNL A   1      32.306  23.879  25.001  1.00  0.00    -0.022 A 
ATOM     20  Br  UNL A   1      32.812  22.578  27.585  1.00  0.00    -0.074 Br
ATOM     21  C   UNL A   1      34.587  23.035  25.309  1.00  0.00    -0.022 A 
ATOM     22  C   UNL A   1      32.467  23.859  23.577  1.00  0.00    -0.035 A 
ATOM     23  C   UNL A   1      34.794  23.002  23.904  1.00  0.00    -0.035 A 
ATOM     24  C   UNL A   1      31.429  24.795  25.570  1.00  0.00     0.006 A 
ATOM     25  C   UNL A   1      35.660  23.379  26.127  1.00  0.00     0.006 A 
ATOM     26  C   UNL A   1      31.689  24.664  22.750  1.00  0.00     0.005 A 
ATOM     27  C   UNL A   1      36.087  22.922  23.402  1.00  0.00     0.005 A 
ATOM     28  C   UNL A   1      30.670  25.621  24.732  1.00  0.00     0.000 A 
ATOM     29  C   UNL A   1      36.939  23.516  25.574  1.00  0.00     0.000 A 
ATOM     30  C   UNL A   1      30.778  25.539  23.337  1.00  0.00     0.000 A 
ATOM     31  C   UNL A   1      37.161  23.225  24.229  1.00  0.00     0.000 A 
ENDBRANCH   9  10
ENDBRANCH   8   9
ENDBRANCH   6   8
ENDBRANCH   3   4
ENDBRANCH   2   3
ENDBRANCH   1   2
BRANCH   1  32
ATOM     32  C   UNL A   1      39.352  19.283  26.187  1.00  0.00     0.116 C 
BRANCH  32  33
ATOM     33  N   UNL A   1      40.729  18.849  26.020  1.00  0.00    -0.352 N 
ATOM     34  C   UNL A   1      41.905  19.575  26.176  1.00  0.00     0.251 C 
ATOM     35  H   UNL A   1      40.846  17.907  25.758  1.00  0.00     0.163 HD
ATOM     36  O   UNL A   1      42.983  19.030  25.951  1.00  0.00    -0.269 OA
BRANCH  34  37
ATOM     37  C   UNL A   1      41.881  21.003  26.605  1.00  0.00     0.039 A 
ATOM     38  C   UNL A   1      41.395  21.981  25.751  1.00  0.00     0.014 A 
ATOM     39  C   UNL A   1      42.303  21.397  27.872  1.00  0.00     0.014 A 
ATOM     40  C   UNL A   1      41.549  23.345  26.026  1.00  0.00     0.010 A 
ATOM     41  C   UNL A   1      42.357  22.768  28.203  1.00  0.00     0.010 A 
ATOM     42  C   UNL A   1      42.064  23.771  27.253  1.00  0.00    -0.014 A 
BRANCH  42  43
ATOM     43  C   UNL A   1      42.383  25.221  27.504  1.00  0.00     0.031 A 
ATOM     44  C   UNL A   1      43.709  25.781  27.028  1.00  0.00     0.074 A 
ATOM     45  C   UNL A   1      41.510  26.071  28.094  1.00  0.00     0.049 A 
ATOM     46  N   UNL A   1      44.250  26.953  27.254  1.00  0.00    -0.248 NA
ATOM     47  C   UNL A   1      44.546  24.902  26.192  1.00  0.00     0.031 C 
ATOM     48  C   UNL A   1      40.157  25.730  28.532  1.00  0.00     0.029 A 
ATOM     49  N   UNL A   1      41.624  27.409  28.417  1.00  0.00    -0.354 N 
ATOM     50  C   UNL A   1      45.502  26.925  26.645  1.00  0.00     0.074 A 
ATOM     51  C   UNL A   1      45.652  25.616  26.054  1.00  0.00     0.031 C 
ATOM     52  C   UNL A   1      39.555  26.829  29.015  1.00  0.00     0.029 A 
ATOM     53  C   UNL A   1      40.503  27.941  29.022  1.00  0.00     0.049 A 
ATOM     54  H   UNL A   1      42.435  27.937  28.232  1.00  0.00     0.167 HD
ATOM     55  C   UNL A   1      46.437  27.901  26.569  1.00  0.00     0.034 A 
ATOM     56  C   UNL A   1      40.265  29.163  29.553  1.00  0.00     0.034 A 
ATOM     57  C   UNL A   1      46.262  29.234  27.088  1.00  0.00     0.049 A 
ATOM     58  C   UNL A   1      41.357  30.211  29.521  1.00  0.00     0.074 A 
ATOM     59  C   UNL A   1      47.155  30.290  27.027  1.00  0.00     0.029 A 
ATOM     60  N   UNL A   1      45.133  29.703  27.738  1.00  0.00    -0.354 N 
ATOM     61  N   UNL A   1      42.533  30.163  28.943  1.00  0.00    -0.248 NA
ATOM     62  C   UNL A   1      41.094  31.480  30.222  1.00  0.00     0.031 C 
ATOM     63  C   UNL A   1      46.601  31.370  27.709  1.00  0.00     0.029 A 
ATOM     64  C   UNL A   1      45.323  31.024  28.111  1.00  0.00     0.049 A 
ATOM     65  H   UNL A   1      44.319  29.178  27.910  1.00  0.00     0.167 HD
ATOM     66  C   UNL A   1      43.128  31.403  29.176  1.00  0.00     0.074 A 
ATOM     67  C   UNL A   1      42.175  32.190  29.925  1.00  0.00     0.031 C 
ATOM     68  C   UNL A   1      44.359  31.839  28.808  1.00  0.00     0.034 A 
BRANCH  55  69
ATOM     69  C   UNL A   1      47.758  27.607  25.901  1.00  0.00     0.023 A 
ATOM     70  C   UNL A   1      47.892  27.829  24.517  1.00  0.00     0.031 A 
ATOM     71  C   UNL A   1      48.800  26.949  26.575  1.00  0.00     0.131 A 
ATOM     72  C   UNL A   1      49.012  27.334  23.838  1.00  0.00     0.055 A 
ATOM     73  C   UNL A   1      49.941  26.507  25.902  1.00  0.00     0.041 A 
ATOM     74  F   UNL A   1      48.719  26.718  27.896  1.00  0.00    -0.206 F 
ATOM     75  C   UNL A   1      50.040  26.682  24.524  1.00  0.00     0.022 A 
BRANCH  72  76
ATOM     76  S   UNL A   1      49.126  27.433  22.029  1.00  0.00     0.124 S 
ATOM     77  O   UNL A   1      48.235  28.553  21.734  1.00  0.00    -0.237 OA
ATOM     78  O   UNL A   1      50.548  27.698  21.831  1.00  0.00    -0.237 OA
ATOM     79  O   UNL A   1      48.653  26.130  21.576  1.00  0.00    -0.744 OA
ENDBRANCH  72  76
ENDBRANCH  55  69
BRANCH  56  80
ATOM     80  C   UNL A   1      38.931  29.478  30.160  1.00  0.00     0.023 A 
ATOM     81  C   UNL A   1      37.963  30.228  29.465  1.00  0.00     0.031 A 
ATOM     82  C   UNL A   1      38.612  29.057  31.465  1.00  0.00     0.131 A 
ATOM     83  C   UNL A   1      36.761  30.582  30.094  1.00  0.00     0.055 A 
ATOM     84  C   UNL A   1      37.378  29.340  32.057  1.00  0.00     0.041 A 
ATOM     85  F   UNL A   1      39.495  28.343  32.179  1.00  0.00    -0.206 F 
ATOM     86  C   UNL A   1      36.451  30.121  31.376  1.00  0.00     0.022 A 
BRANCH  83  87
ATOM     87  S   UNL A   1      35.611  31.751  29.317  1.00  0.00     0.124 S 
ATOM     88  O   UNL A   1      36.518  32.750  28.761  1.00  0.00    -0.237 OA
ATOM     89  O   UNL A   1      34.936  30.899  28.341  1.00  0.00    -0.237 OA
ATOM     90  O   UNL A   1      34.778  32.201  30.426  1.00  0.00    -0.744 OA
ENDBRANCH  83  87
ENDBRANCH  56  80
BRANCH  68  91
ATOM     91  C   UNL A   1      44.782  33.252  29.145  1.00  0.00     0.023 A 
ATOM     92  C   UNL A   1      44.493  34.297  28.244  1.00  0.00     0.031 A 
ATOM     93  C   UNL A   1      45.622  33.532  30.235  1.00  0.00     0.131 A 
ATOM     94  C   UNL A   1      45.088  35.554  28.415  1.00  0.00     0.055 A 
ATOM     95  C   UNL A   1      46.162  34.804  30.436  1.00  0.00     0.041 A 
ATOM     96  F   UNL A   1      45.942  32.569  31.115  1.00  0.00    -0.206 F 
ATOM     97  C   UNL A   1      45.913  35.816  29.512  1.00  0.00     0.022 A 
BRANCH  94  98
ATOM     98  S   UNL A   1      44.911  36.852  27.158  1.00  0.00     0.124 S 
ATOM     99  O   UNL A   1      45.005  38.067  27.964  1.00  0.00    -0.237 OA
ATOM    100  O   UNL A   1      46.054  36.593  26.286  1.00  0.00    -0.237 OA
ATOM    101  O   UNL A   1      43.601  36.596  26.570  1.00  0.00    -0.744 OA
ENDBRANCH  94  98
ENDBRANCH  68  91
ENDBRANCH  42  43
ENDBRANCH  34  37
ENDBRANCH  32  33
ENDBRANCH   1  32
TORSDOF 16
ENDMDL
