MODEL 1
REMARK VINA RESULT:     -13.6      0.000      0.000
REMARK SMILES Cc1ccccc1S(=O)(=O)Nc1ccc(N2CCOCC2)cc1C(=O)NCCCCNC(=O)c1ccc(-c2c3nc(c(-c4cc(S(=O)(=O)[O-])ccc4F)c4ccc([nH]4)c(-c4cc(S(=O)(=O)[O-])ccc4F)c4nc(c(-c5cc(S(=O)(=O)[O-])ccc5F)c5ccc2[nH]5)C=C4)C=C3)cc1
REMARK SMILES IDX 28 1 27 2 26 3 24 4 25 5 23 7 12 8 13 9 14 10 22 11 15 12
REMARK SMILES IDX 11 13 8 15 9 16 10 17 7 18 1 19 2 20 3 21 4 22 6 23 5 24
REMARK SMILES IDX 16 25 17 26 21 27 18 28 20 29 19 30 29 31 30 32 31 33 32 34
REMARK SMILES IDX 33 36 34 37 35 38 96 39 36 40 95 41 37 42 38 43 39 44 89 45
REMARK SMILES IDX 40 46 94 47 88 48 90 49 41 50 93 51 87 52 86 53 42 55 74 56
REMARK SMILES IDX 54 57 73 58 55 59 58 60 72 61 91 62 56 63 57 64 71 66 92 67
REMARK SMILES IDX 59 68 43 69 44 70 52 71 45 72 51 73 53 74 50 75 46 76 47 77
REMARK SMILES IDX 48 78 49 79 75 80 76 81 84 82 77 83 83 84 85 85 82 86 78 87
REMARK SMILES IDX 79 88 80 89 81 90 60 91 61 92 69 93 62 94 68 95 70 96 67 97
REMARK SMILES IDX 63 98 64 99 65 100 66 101
REMARK H PARENT 26 6 11 14 31 35 90 54 58 65
REMARK Flexibility Score: inf
ROOT
ATOM      1  C   UNL A   1      37.626  21.531  24.918  1.00  0.00     0.023 C 
ENDROOT
BRANCH   1   2
ATOM      2  C   UNL A   1      36.896  22.871  24.988  1.00  0.00     0.116 C 
BRANCH   2   3
ATOM      3  N   UNL A   1      36.133  23.246  23.795  1.00  0.00    -0.352 N 
ATOM      4  C   UNL A   1      34.817  23.040  23.442  1.00  0.00     0.253 C 
ATOM      5  O   UNL A   1      34.397  23.534  22.392  1.00  0.00    -0.269 OA
ATOM      6  H   UNL A   1      36.658  23.735  23.120  1.00  0.00     0.163 HD
BRANCH   4   7
ATOM      7  C   UNL A   1      33.905  22.166  24.226  1.00  0.00     0.066 A 
ATOM      8  C   UNL A   1      32.675  22.674  24.682  1.00  0.00     0.062 A 
ATOM      9  C   UNL A   1      31.782  21.824  25.329  1.00  0.00     0.030 A 
ATOM     10  C   UNL A   1      32.078  20.465  25.454  1.00  0.00     0.028 A 
ATOM     11  C   UNL A   1      34.234  20.830  24.497  1.00  0.00     0.042 A 
ATOM     12  C   UNL A   1      33.288  19.926  24.995  1.00  0.00     0.038 A 
BRANCH   8  13
ATOM     13  N   UNL A   1      32.285  24.034  24.492  1.00  0.00    -0.279 N 
ATOM     14  H   UNL A   1      31.956  24.324  23.610  1.00  0.00     0.180 HD
BRANCH  13  15
ATOM     15  S   UNL A   1      32.376  25.150  25.746  1.00  0.00     0.262 S 
ATOM     16  O   UNL A   1      33.792  25.419  25.923  1.00  0.00    -0.201 OA
ATOM     17  O   UNL A   1      31.615  24.671  26.882  1.00  0.00    -0.201 OA
BRANCH  15  18
ATOM     18  C   UNL A   1      31.619  26.674  25.159  1.00  0.00     0.090 A 
ATOM     19  C   UNL A   1      32.243  28.129  27.216  1.00  0.00     0.046 C 
ATOM     20  C   UNL A   1      31.745  27.916  25.815  1.00  0.00    -0.031 A 
ATOM     21  C   UNL A   1      31.273  29.071  25.155  1.00  0.00     0.005 A 
ATOM     22  C   UNL A   1      30.697  29.010  23.888  1.00  0.00     0.000 A 
ATOM     23  C   UNL A   1      31.028  26.624  23.880  1.00  0.00     0.022 A 
ATOM     24  C   UNL A   1      30.565  27.783  23.252  1.00  0.00     0.001 A 
ENDBRANCH  15  18
ENDBRANCH  13  15
ENDBRANCH   8  13
BRANCH  12  25
ATOM     25  N   UNL A   1      33.491  18.562  24.929  1.00  0.00    -0.367 N 
ATOM     26  C   UNL A   1      34.578  17.939  24.142  1.00  0.00     0.145 C 
ATOM     27  C   UNL A   1      32.696  17.644  25.759  1.00  0.00     0.145 C 
ATOM     28  C   UNL A   1      34.123  16.613  23.507  1.00  0.00     0.181 C 
ATOM     29  C   UNL A   1      32.355  16.357  24.995  1.00  0.00     0.181 C 
ATOM     30  O   UNL A   1      33.543  15.735  24.494  1.00  0.00    -0.378 OA
ENDBRANCH  12  25
ENDBRANCH   4   7
ENDBRANCH   2   3
ENDBRANCH   1   2
BRANCH   1  31
ATOM     31  C   UNL A   1      38.889  21.408  25.751  1.00  0.00     0.023 C 
BRANCH  31  32
ATOM     32  C   UNL A   1      39.303  22.697  26.448  1.00  0.00     0.116 C 
BRANCH  32  33
ATOM     33  N   UNL A   1      40.730  22.997  26.356  1.00  0.00    -0.352 N 
ATOM     34  C   UNL A   1      41.352  24.235  26.484  1.00  0.00     0.251 C 
ATOM     35  H   UNL A   1      41.324  22.231  26.183  1.00  0.00     0.163 HD
ATOM     36  O   UNL A   1      42.554  24.384  26.383  1.00  0.00    -0.269 OA
BRANCH  34  37
ATOM     37  C   UNL A   1      40.495  25.377  26.883  1.00  0.00     0.039 A 
ATOM     38  C   UNL A   1      40.724  26.594  26.234  1.00  0.00     0.014 A 
ATOM     39  C   UNL A   1      39.779  25.319  28.074  1.00  0.00     0.014 A 
ATOM     40  C   UNL A   1      40.461  27.778  26.914  1.00  0.00     0.010 A 
ATOM     41  C   UNL A   1      39.619  26.490  28.791  1.00  0.00     0.010 A 
ATOM     42  C   UNL A   1      40.030  27.711  28.239  1.00  0.00    -0.014 A 
BRANCH  42  43
ATOM     43  C   UNL A   1      40.127  28.847  29.152  1.00  0.00     0.031 A 
ATOM     44  C   UNL A   1      39.063  29.868  29.192  1.00  0.00     0.074 A 
ATOM     45  C   UNL A   1      41.192  28.969  29.975  1.00  0.00     0.049 A 
ATOM     46  N   UNL A   1      39.235  31.081  29.595  1.00  0.00    -0.248 NA
ATOM     47  C   UNL A   1      37.710  29.600  28.723  1.00  0.00     0.031 C 
ATOM     48  C   UNL A   1      41.359  29.905  31.086  1.00  0.00     0.029 A 
ATOM     49  N   UNL A   1      42.463  28.428  29.783  1.00  0.00    -0.354 N 
ATOM     50  C   UNL A   1      37.999  31.677  29.675  1.00  0.00     0.074 A 
ATOM     51  C   UNL A   1      37.088  30.727  29.079  1.00  0.00     0.031 C 
ATOM     52  C   UNL A   1      42.671  30.091  31.296  1.00  0.00     0.029 A 
ATOM     53  C   UNL A   1      43.382  29.396  30.238  1.00  0.00     0.049 A 
ATOM     54  H   UNL A   1      42.677  27.544  29.406  1.00  0.00     0.167 HD
ATOM     55  C   UNL A   1      37.860  32.862  30.336  1.00  0.00     0.034 A 
ATOM     56  C   UNL A   1      44.282  29.960  29.380  1.00  0.00     0.034 A 
ATOM     57  C   UNL A   1      39.143  33.380  30.813  1.00  0.00     0.049 A 
ATOM     58  C   UNL A   1      44.163  31.465  29.238  1.00  0.00     0.074 A 
ATOM     59  C   UNL A   1      39.788  33.399  32.039  1.00  0.00     0.029 A 
ATOM     60  N   UNL A   1      40.086  33.777  29.882  1.00  0.00    -0.354 N 
ATOM     61  N   UNL A   1      43.243  32.197  29.803  1.00  0.00    -0.248 NA
ATOM     62  C   UNL A   1      45.024  32.239  28.345  1.00  0.00     0.031 C 
ATOM     63  C   UNL A   1      41.139  33.802  31.824  1.00  0.00     0.029 A 
ATOM     64  C   UNL A   1      41.306  34.049  30.474  1.00  0.00     0.049 A 
ATOM     65  H   UNL A   1      39.911  33.855  28.917  1.00  0.00     0.167 HD
ATOM     66  C   UNL A   1      43.318  33.475  29.308  1.00  0.00     0.074 A 
ATOM     67  C   UNL A   1      44.450  33.451  28.398  1.00  0.00     0.031 C 
ATOM     68  C   UNL A   1      42.415  34.451  29.624  1.00  0.00     0.034 A 
BRANCH  55  69
ATOM     69  C   UNL A   1      36.527  33.428  30.758  1.00  0.00     0.023 A 
ATOM     70  C   UNL A   1      35.682  33.999  29.784  1.00  0.00     0.031 A 
ATOM     71  C   UNL A   1      36.043  33.477  32.080  1.00  0.00     0.131 A 
ATOM     72  C   UNL A   1      34.502  34.674  30.143  1.00  0.00     0.055 A 
ATOM     73  C   UNL A   1      34.910  34.213  32.448  1.00  0.00     0.041 A 
ATOM     74  F   UNL A   1      36.614  32.767  33.064  1.00  0.00    -0.206 F 
ATOM     75  C   UNL A   1      34.138  34.832  31.477  1.00  0.00     0.022 A 
BRANCH  72  76
ATOM     76  S   UNL A   1      33.435  35.334  28.835  1.00  0.00     0.124 S 
ATOM     77  O   UNL A   1      32.944  34.121  28.190  1.00  0.00    -0.237 OA
ATOM     78  O   UNL A   1      32.457  36.102  29.598  1.00  0.00    -0.237 OA
ATOM     79  O   UNL A   1      34.350  36.136  28.024  1.00  0.00    -0.744 OA
ENDBRANCH  72  76
ENDBRANCH  55  69
BRANCH  56  80
ATOM     80  C   UNL A   1      44.717  29.034  28.291  1.00  0.00     0.023 A 
ATOM     81  C   UNL A   1      45.630  28.016  28.632  1.00  0.00     0.031 A 
ATOM     82  C   UNL A   1      44.013  28.904  27.087  1.00  0.00     0.131 A 
ATOM     83  C   UNL A   1      45.684  26.837  27.876  1.00  0.00     0.055 A 
ATOM     84  C   UNL A   1      44.137  27.761  26.289  1.00  0.00     0.041 A 
ATOM     85  F   UNL A   1      43.100  29.817  26.724  1.00  0.00    -0.206 F 
ATOM     86  C   UNL A   1      44.939  26.700  26.707  1.00  0.00     0.022 A 
BRANCH  83  87
ATOM     87  S   UNL A   1      46.527  25.386  28.557  1.00  0.00     0.124 S 
ATOM     88  O   UNL A   1      46.592  25.702  29.978  1.00  0.00    -0.237 OA
ATOM     89  O   UNL A   1      45.632  24.289  28.200  1.00  0.00    -0.237 OA
ATOM     90  O   UNL A   1      47.801  25.369  27.845  1.00  0.00    -0.744 OA
ENDBRANCH  83  87
ENDBRANCH  56  80
BRANCH  68  91
ATOM     91  C   UNL A   1      42.494  35.860  29.085  1.00  0.00     0.023 A 
ATOM     92  C   UNL A   1      43.199  36.874  29.754  1.00  0.00     0.031 A 
ATOM     93  C   UNL A   1      41.824  36.250  27.904  1.00  0.00     0.131 A 
ATOM     94  C   UNL A   1      43.319  38.159  29.197  1.00  0.00     0.055 A 
ATOM     95  C   UNL A   1      41.870  37.552  27.399  1.00  0.00     0.041 A 
ATOM     96  F   UNL A   1      41.126  35.376  27.165  1.00  0.00    -0.206 F 
ATOM     97  C   UNL A   1      42.641  38.513  28.034  1.00  0.00     0.022 A 
BRANCH  94  98
ATOM     98  S   UNL A   1      44.461  39.330  29.976  1.00  0.00     0.124 S 
ATOM     99  O   UNL A   1      43.679  40.561  30.012  1.00  0.00    -0.237 OA
ATOM    100  O   UNL A   1      44.699  38.693  31.270  1.00  0.00    -0.237 OA
ATOM    101  O   UNL A   1      45.609  39.346  29.074  1.00  0.00    -0.744 OA
ENDBRANCH  94  98
ENDBRANCH  68  91
ENDBRANCH  42  43
ENDBRANCH  34  37
ENDBRANCH  32  33
ENDBRANCH  31  32
ENDBRANCH   1  31
TORSDOF 18
ENDMDL
MODEL 2
REMARK VINA RESULT:     -13.3      1.946      2.492
REMARK SMILES Cc1ccccc1S(=O)(=O)Nc1ccc(N2CCOCC2)cc1C(=O)NCCCCNC(=O)c1ccc(-c2c3nc(c(-c4cc(S(=O)(=O)[O-])ccc4F)c4ccc([nH]4)c(-c4cc(S(=O)(=O)[O-])ccc4F)c4nc(c(-c5cc(S(=O)(=O)[O-])ccc5F)c5ccc2[nH]5)C=C4)C=C3)cc1
REMARK SMILES IDX 28 1 27 2 26 3 24 4 25 5 23 7 12 8 13 9 14 10 22 11 15 12
REMARK SMILES IDX 11 13 8 15 9 16 10 17 7 18 1 19 2 20 3 21 4 22 6 23 5 24
REMARK SMILES IDX 16 25 17 26 21 27 18 28 20 29 19 30 29 31 30 32 31 33 32 34
REMARK SMILES IDX 33 36 34 37 35 38 96 39 36 40 95 41 37 42 38 43 39 44 89 45
REMARK SMILES IDX 40 46 94 47 88 48 90 49 41 50 93 51 87 52 86 53 42 55 74 56
REMARK SMILES IDX 54 57 73 58 55 59 58 60 72 61 91 62 56 63 57 64 71 66 92 67
REMARK SMILES IDX 59 68 43 69 44 70 52 71 45 72 51 73 53 74 50 75 46 76 47 77
REMARK SMILES IDX 48 78 49 79 75 80 76 81 84 82 77 83 83 84 85 85 82 86 78 87
REMARK SMILES IDX 79 88 80 89 81 90 60 91 61 92 69 93 62 94 68 95 70 96 67 97
REMARK SMILES IDX 63 98 64 99 65 100 66 101
REMARK H PARENT 26 6 11 14 31 35 90 54 58 65
REMARK Flexibility Score: inf
ROOT
ATOM      1  C   UNL A   1      37.771  21.466  24.967  1.00  0.00     0.023 C 
ENDROOT
BRANCH   1   2
ATOM      2  C   UNL A   1      36.897  22.704  24.780  1.00  0.00     0.116 C 
BRANCH   2   3
ATOM      3  N   UNL A   1      36.092  23.099  25.939  1.00  0.00    -0.352 N 
ATOM      4  C   UNL A   1      34.840  22.714  26.363  1.00  0.00     0.253 C 
ATOM      5  O   UNL A   1      34.413  23.150  27.436  1.00  0.00    -0.269 OA
ATOM      6  H   UNL A   1      36.527  23.763  26.521  1.00  0.00     0.163 HD
BRANCH   4   7
ATOM      7  C   UNL A   1      33.938  21.869  25.536  1.00  0.00     0.066 A 
ATOM      8  C   UNL A   1      32.925  22.473  24.771  1.00  0.00     0.062 A 
ATOM      9  C   UNL A   1      32.148  21.688  23.923  1.00  0.00     0.030 A 
ATOM     10  C   UNL A   1      32.426  20.327  23.782  1.00  0.00     0.028 A 
ATOM     11  C   UNL A   1      34.096  20.477  25.482  1.00  0.00     0.042 A 
ATOM     12  C   UNL A   1      33.440  19.699  24.520  1.00  0.00     0.038 A 
BRANCH   8  13
ATOM     13  N   UNL A   1      32.666  23.877  24.807  1.00  0.00    -0.279 N 
ATOM     14  H   UNL A   1      32.181  24.260  25.573  1.00  0.00     0.180 HD
BRANCH  13  15
ATOM     15  S   UNL A   1      33.175  24.889  23.564  1.00  0.00     0.262 S 
ATOM     16  O   UNL A   1      32.011  25.078  22.717  1.00  0.00    -0.201 OA
ATOM     17  O   UNL A   1      34.386  24.360  22.969  1.00  0.00    -0.201 OA
BRANCH  15  18
ATOM     18  C   UNL A   1      33.557  26.486  24.301  1.00  0.00     0.090 A 
ATOM     19  C   UNL A   1      33.844  27.783  22.071  1.00  0.00     0.046 C 
ATOM     20  C   UNL A   1      33.691  27.680  23.562  1.00  0.00    -0.031 A 
ATOM     21  C   UNL A   1      33.795  28.896  24.269  1.00  0.00     0.005 A 
ATOM     22  C   UNL A   1      33.766  28.941  25.661  1.00  0.00     0.000 A 
ATOM     23  C   UNL A   1      33.536  26.544  25.710  1.00  0.00     0.022 A 
ATOM     24  C   UNL A   1      33.645  27.763  26.385  1.00  0.00     0.001 A 
ENDBRANCH  15  18
ENDBRANCH  13  15
ENDBRANCH   8  13
BRANCH  12  25
ATOM     25  N   UNL A   1      33.850  18.413  24.231  1.00  0.00    -0.367 N 
ATOM     26  C   UNL A   1      33.049  17.466  23.424  1.00  0.00     0.145 C 
ATOM     27  C   UNL A   1      35.192  17.949  24.614  1.00  0.00     0.145 C 
ATOM     28  C   UNL A   1      33.185  16.026  23.947  1.00  0.00     0.181 C 
ATOM     29  C   UNL A   1      35.164  16.486  25.078  1.00  0.00     0.181 C 
ATOM     30  O   UNL A   1      34.571  15.648  24.080  1.00  0.00    -0.378 OA
ENDBRANCH  12  25
ENDBRANCH   4   7
ENDBRANCH   2   3
ENDBRANCH   1   2
BRANCH   1  31
ATOM     31  C   UNL A   1      38.858  21.561  26.023  1.00  0.00     0.023 C 
BRANCH  31  32
ATOM     32  C   UNL A   1      39.414  22.965  26.218  1.00  0.00     0.116 C 
BRANCH  32  33
ATOM     33  N   UNL A   1      40.583  23.031  27.092  1.00  0.00    -0.352 N 
ATOM     34  C   UNL A   1      41.001  24.099  27.879  1.00  0.00     0.251 C 
ATOM     35  H   UNL A   1      41.143  22.221  27.129  1.00  0.00     0.163 HD
ATOM     36  O   UNL A   1      42.000  24.059  28.571  1.00  0.00    -0.269 OA
BRANCH  34  37
ATOM     37  C   UNL A   1      40.100  25.275  27.947  1.00  0.00     0.039 A 
ATOM     38  C   UNL A   1      40.446  26.381  27.166  1.00  0.00     0.014 A 
ATOM     39  C   UNL A   1      39.193  25.388  28.995  1.00  0.00     0.014 A 
ATOM     40  C   UNL A   1      40.084  27.650  27.601  1.00  0.00     0.010 A 
ATOM     41  C   UNL A   1      38.926  26.652  29.486  1.00  0.00     0.010 A 
ATOM     42  C   UNL A   1      39.435  27.780  28.829  1.00  0.00    -0.014 A 
BRANCH  42  43
ATOM     43  C   UNL A   1      39.387  29.045  29.559  1.00  0.00     0.031 A 
ATOM     44  C   UNL A   1      38.438  30.103  29.163  1.00  0.00     0.074 A 
ATOM     45  C   UNL A   1      40.209  29.255  30.612  1.00  0.00     0.049 A 
ATOM     46  N   UNL A   1      38.601  31.357  29.416  1.00  0.00    -0.248 NA
ATOM     47  C   UNL A   1      37.236  29.819  28.391  1.00  0.00     0.031 C 
ATOM     48  C   UNL A   1      40.160  30.350  31.578  1.00  0.00     0.029 A 
ATOM     49  N   UNL A   1      41.436  28.636  30.849  1.00  0.00    -0.354 N 
ATOM     50  C   UNL A   1      37.441  32.009  29.073  1.00  0.00     0.074 A 
ATOM     51  C   UNL A   1      36.639  31.014  28.399  1.00  0.00     0.031 C 
ATOM     52  C   UNL A   1      41.384  30.513  32.103  1.00  0.00     0.029 A 
ATOM     53  C   UNL A   1      42.284  29.626  31.388  1.00  0.00     0.049 A 
ATOM     54  H   UNL A   1      41.666  27.694  30.676  1.00  0.00     0.167 HD
ATOM     55  C   UNL A   1      37.236  33.290  29.492  1.00  0.00     0.034 A 
ATOM     56  C   UNL A   1      43.419  30.004  30.731  1.00  0.00     0.034 A 
ATOM     57  C   UNL A   1      38.389  33.825  30.216  1.00  0.00     0.049 A 
ATOM     58  C   UNL A   1      43.468  31.469  30.345  1.00  0.00     0.074 A 
ATOM     59  C   UNL A   1      38.694  34.016  31.554  1.00  0.00     0.029 A 
ATOM     60  N   UNL A   1      39.572  34.025  29.526  1.00  0.00    -0.354 N 
ATOM     61  N   UNL A   1      42.497  32.322  30.529  1.00  0.00    -0.248 NA
ATOM     62  C   UNL A   1      44.593  32.051  29.614  1.00  0.00     0.031 C 
ATOM     63  C   UNL A   1      40.085  34.322  31.654  1.00  0.00     0.029 A 
ATOM     64  C   UNL A   1      40.615  34.339  30.378  1.00  0.00     0.049 A 
ATOM     65  H   UNL A   1      39.660  33.953  28.548  1.00  0.00     0.167 HD
ATOM     66  C   UNL A   1      42.805  33.498  29.892  1.00  0.00     0.074 A 
ATOM     67  C   UNL A   1      44.128  33.279  29.333  1.00  0.00     0.031 C 
ATOM     68  C   UNL A   1      41.936  34.550  29.808  1.00  0.00     0.034 A 
BRANCH  55  69
ATOM     69  C   UNL A   1      35.891  33.974  29.454  1.00  0.00     0.023 A 
ATOM     70  C   UNL A   1      35.309  34.417  30.659  1.00  0.00     0.031 A 
ATOM     71  C   UNL A   1      35.118  34.188  28.296  1.00  0.00     0.131 A 
ATOM     72  C   UNL A   1      33.997  34.921  30.698  1.00  0.00     0.055 A 
ATOM     73  C   UNL A   1      33.786  34.619  28.341  1.00  0.00     0.041 A 
ATOM     74  F   UNL A   1      35.637  34.046  27.068  1.00  0.00    -0.206 F 
ATOM     75  C   UNL A   1      33.211  34.973  29.550  1.00  0.00     0.022 A 
BRANCH  72  76
ATOM     76  S   UNL A   1      33.333  35.524  32.273  1.00  0.00     0.124 S 
ATOM     77  O   UNL A   1      32.221  36.364  31.841  1.00  0.00    -0.237 OA
ATOM     78  O   UNL A   1      32.979  34.281  32.949  1.00  0.00    -0.237 OA
ATOM     79  O   UNL A   1      34.460  36.247  32.861  1.00  0.00    -0.744 OA
ENDBRANCH  72  76
ENDBRANCH  55  69
BRANCH  56  80
ATOM     80  C   UNL A   1      44.043  28.896  29.946  1.00  0.00     0.023 A 
ATOM     81  C   UNL A   1      43.554  28.670  28.643  1.00  0.00     0.031 A 
ATOM     82  C   UNL A   1      45.282  28.338  30.286  1.00  0.00     0.131 A 
ATOM     83  C   UNL A   1      44.372  28.063  27.681  1.00  0.00     0.055 A 
ATOM     84  C   UNL A   1      46.057  27.655  29.342  1.00  0.00     0.041 A 
ATOM     85  F   UNL A   1      45.822  28.549  31.495  1.00  0.00    -0.206 F 
ATOM     86  C   UNL A   1      45.625  27.557  28.020  1.00  0.00     0.022 A 
BRANCH  83  87
ATOM     87  S   UNL A   1      43.909  28.167  25.933  1.00  0.00     0.124 S 
ATOM     88  O   UNL A   1      45.176  28.495  25.294  1.00  0.00    -0.237 OA
ATOM     89  O   UNL A   1      43.392  26.830  25.651  1.00  0.00    -0.237 OA
ATOM     90  O   UNL A   1      42.891  29.212  25.914  1.00  0.00    -0.744 OA
ENDBRANCH  83  87
ENDBRANCH  56  80
BRANCH  68  91
ATOM     91  C   UNL A   1      42.270  35.848  29.111  1.00  0.00     0.023 A 
ATOM     92  C   UNL A   1      43.096  36.818  29.701  1.00  0.00     0.031 A 
ATOM     93  C   UNL A   1      41.731  36.181  27.848  1.00  0.00     0.131 A 
ATOM     94  C   UNL A   1      43.451  37.986  29.004  1.00  0.00     0.055 A 
ATOM     95  C   UNL A   1      42.014  37.384  27.196  1.00  0.00     0.041 A 
ATOM     96  F   UNL A   1      40.939  35.338  27.172  1.00  0.00    -0.206 F 
ATOM     97  C   UNL A   1      42.897  38.287  27.763  1.00  0.00     0.022 A 
BRANCH  94  98
ATOM     98  S   UNL A   1      44.727  39.057  29.715  1.00  0.00     0.124 S 
ATOM     99  O   UNL A   1      45.476  39.484  28.539  1.00  0.00    -0.237 OA
ATOM    100  O   UNL A   1      43.919  40.089  30.362  1.00  0.00    -0.237 OA
ATOM    101  O   UNL A   1      45.449  38.175  30.629  1.00  0.00    -0.744 OA
ENDBRANCH  94  98
ENDBRANCH  68  91
ENDBRANCH  42  43
ENDBRANCH  34  37
ENDBRANCH  32  33
ENDBRANCH  31  32
ENDBRANCH   1  31
TORSDOF 18
ENDMDL
MODEL 3
REMARK VINA RESULT:     -13.2      4.261     10.977
REMARK SMILES Cc1ccccc1S(=O)(=O)Nc1ccc(N2CCOCC2)cc1C(=O)NCCCCNC(=O)c1ccc(-c2c3nc(c(-c4cc(S(=O)(=O)[O-])ccc4F)c4ccc([nH]4)c(-c4cc(S(=O)(=O)[O-])ccc4F)c4nc(c(-c5cc(S(=O)(=O)[O-])ccc5F)c5ccc2[nH]5)C=C4)C=C3)cc1
REMARK SMILES IDX 28 1 27 2 26 3 24 4 25 5 23 7 12 8 13 9 14 10 22 11 15 12
REMARK SMILES IDX 11 13 8 15 9 16 10 17 7 18 1 19 2 20 3 21 4 22 6 23 5 24
REMARK SMILES IDX 16 25 17 26 21 27 18 28 20 29 19 30 29 31 30 32 31 33 32 34
REMARK SMILES IDX 33 36 34 37 35 38 96 39 36 40 95 41 37 42 38 43 39 44 89 45
REMARK SMILES IDX 40 46 94 47 88 48 90 49 41 50 93 51 87 52 86 53 42 55 74 56
REMARK SMILES IDX 54 57 73 58 55 59 58 60 72 61 91 62 56 63 57 64 71 66 92 67
REMARK SMILES IDX 59 68 43 69 44 70 52 71 45 72 51 73 53 74 50 75 46 76 47 77
REMARK SMILES IDX 48 78 49 79 75 80 76 81 84 82 77 83 83 84 85 85 82 86 78 87
REMARK SMILES IDX 79 88 80 89 81 90 60 91 61 92 69 93 62 94 68 95 70 96 67 97
REMARK SMILES IDX 63 98 64 99 65 100 66 101
REMARK H PARENT 26 6 11 14 31 35 90 54 58 65
REMARK Flexibility Score: inf
ROOT
ATOM      1  C   UNL A   1      33.658  29.776  26.698  1.00  0.00     0.023 C 
ENDROOT
BRANCH   1   2
ATOM      2  C   UNL A   1      32.155  29.684  26.955  1.00  0.00     0.116 C 
BRANCH   2   3
ATOM      3  N   UNL A   1      31.608  28.329  27.067  1.00  0.00    -0.352 N 
ATOM      4  C   UNL A   1      31.153  27.440  26.118  1.00  0.00     0.253 C 
ATOM      5  O   UNL A   1      30.807  26.311  26.476  1.00  0.00    -0.269 OA
ATOM      6  H   UNL A   1      31.555  27.993  27.991  1.00  0.00     0.163 HD
BRANCH   4   7
ATOM      7  C   UNL A   1      30.970  27.814  24.691  1.00  0.00     0.066 A 
ATOM      8  C   UNL A   1      31.330  26.905  23.681  1.00  0.00     0.062 A 
ATOM      9  C   UNL A   1      31.066  27.220  22.350  1.00  0.00     0.030 A 
ATOM     10  C   UNL A   1      30.381  28.396  22.035  1.00  0.00     0.028 A 
ATOM     11  C   UNL A   1      30.416  29.051  24.330  1.00  0.00     0.042 A 
ATOM     12  C   UNL A   1      29.994  29.314  23.021  1.00  0.00     0.038 A 
BRANCH   8  13
ATOM     13  N   UNL A   1      31.944  25.647  23.960  1.00  0.00    -0.279 N 
ATOM     14  H   UNL A   1      31.388  24.893  24.260  1.00  0.00     0.180 HD
BRANCH  13  15
ATOM     15  S   UNL A   1      33.602  25.429  23.785  1.00  0.00     0.262 S 
ATOM     16  O   UNL A   1      34.217  26.474  24.584  1.00  0.00    -0.201 OA
ATOM     17  O   UNL A   1      33.938  25.345  22.378  1.00  0.00    -0.201 OA
BRANCH  15  18
ATOM     18  C   UNL A   1      34.018  23.859  24.561  1.00  0.00     0.090 A 
ATOM     19  C   UNL A   1      32.719  22.349  22.897  1.00  0.00     0.046 C 
ATOM     20  C   UNL A   1      33.693  22.601  24.011  1.00  0.00    -0.031 A 
ATOM     21  C   UNL A   1      34.243  21.448  24.610  1.00  0.00     0.005 A 
ATOM     22  C   UNL A   1      35.089  21.525  25.715  1.00  0.00     0.000 A 
ATOM     23  C   UNL A   1      34.869  23.924  25.684  1.00  0.00     0.022 A 
ATOM     24  C   UNL A   1      35.396  22.765  26.259  1.00  0.00     0.001 A 
ENDBRANCH  15  18
ENDBRANCH  13  15
ENDBRANCH   8  13
BRANCH  12  25
ATOM     25  N   UNL A   1      29.143  30.362  22.735  1.00  0.00    -0.367 N 
ATOM     26  C   UNL A   1      28.294  30.414  21.524  1.00  0.00     0.145 C 
ATOM     27  C   UNL A   1      28.937  31.448  23.706  1.00  0.00     0.145 C 
ATOM     28  C   UNL A   1      28.179  31.848  20.979  1.00  0.00     0.181 C 
ATOM     29  C   UNL A   1      28.806  32.806  23.002  1.00  0.00     0.181 C 
ATOM     30  O   UNL A   1      27.771  32.768  22.013  1.00  0.00    -0.378 OA
ENDBRANCH  12  25
ENDBRANCH   4   7
ENDBRANCH   2   3
ENDBRANCH   1   2
BRANCH   1  31
ATOM     31  C   UNL A   1      34.529  30.088  27.902  1.00  0.00     0.023 C 
BRANCH  31  32
ATOM     32  C   UNL A   1      35.107  31.496  27.904  1.00  0.00     0.116 C 
BRANCH  32  33
ATOM     33  N   UNL A   1      35.590  31.945  29.208  1.00  0.00    -0.352 N 
ATOM     34  C   UNL A   1      36.541  31.336  30.021  1.00  0.00     0.251 C 
ATOM     35  H   UNL A   1      35.196  32.779  29.553  1.00  0.00     0.163 HD
ATOM     36  O   UNL A   1      36.873  31.786  31.100  1.00  0.00    -0.269 OA
BRANCH  34  37
ATOM     37  C   UNL A   1      37.248  30.159  29.460  1.00  0.00     0.039 A 
ATOM     38  C   UNL A   1      37.425  29.065  30.312  1.00  0.00     0.014 A 
ATOM     39  C   UNL A   1      37.997  30.295  28.297  1.00  0.00     0.014 A 
ATOM     40  C   UNL A   1      38.533  28.246  30.132  1.00  0.00     0.010 A 
ATOM     41  C   UNL A   1      39.155  29.550  28.181  1.00  0.00     0.010 A 
ATOM     42  C   UNL A   1      39.459  28.576  29.142  1.00  0.00    -0.014 A 
BRANCH  42  43
ATOM     43  C   UNL A   1      40.824  28.053  29.142  1.00  0.00     0.031 A 
ATOM     44  C   UNL A   1      41.106  26.696  28.636  1.00  0.00     0.074 A 
ATOM     45  C   UNL A   1      41.843  28.813  29.599  1.00  0.00     0.049 A 
ATOM     46  N   UNL A   1      42.127  25.989  28.982  1.00  0.00    -0.248 NA
ATOM     47  C   UNL A   1      40.207  26.005  27.720  1.00  0.00     0.031 C 
ATOM     48  C   UNL A   1      43.276  28.548  29.483  1.00  0.00     0.029 A 
ATOM     49  N   UNL A   1      41.757  29.865  30.511  1.00  0.00    -0.354 N 
ATOM     50  C   UNL A   1      42.163  24.878  28.175  1.00  0.00     0.074 A 
ATOM     51  C   UNL A   1      40.922  24.913  27.436  1.00  0.00     0.031 C 
ATOM     52  C   UNL A   1      43.913  29.194  30.472  1.00  0.00     0.029 A 
ATOM     53  C   UNL A   1      42.899  29.774  31.334  1.00  0.00     0.049 A 
ATOM     54  H   UNL A   1      41.042  30.539  30.568  1.00  0.00     0.167 HD
ATOM     55  C   UNL A   1      43.287  24.107  28.135  1.00  0.00     0.034 A 
ATOM     56  C   UNL A   1      42.775  29.555  32.676  1.00  0.00     0.034 A 
ATOM     57  C   UNL A   1      44.306  24.568  29.077  1.00  0.00     0.049 A 
ATOM     58  C   UNL A   1      43.439  28.286  33.173  1.00  0.00     0.074 A 
ATOM     59  C   UNL A   1      45.472  25.309  28.962  1.00  0.00     0.029 A 
ATOM     60  N   UNL A   1      44.047  24.478  30.433  1.00  0.00    -0.354 N 
ATOM     61  N   UNL A   1      44.023  27.402  32.412  1.00  0.00    -0.248 NA
ATOM     62  C   UNL A   1      43.390  27.873  34.575  1.00  0.00     0.031 C 
ATOM     63  C   UNL A   1      45.899  25.671  30.274  1.00  0.00     0.029 A 
ATOM     64  C   UNL A   1      45.007  25.132  31.183  1.00  0.00     0.049 A 
ATOM     65  H   UNL A   1      43.273  24.007  30.817  1.00  0.00     0.167 HD
ATOM     66  C   UNL A   1      44.339  26.298  33.165  1.00  0.00     0.074 A 
ATOM     67  C   UNL A   1      43.922  26.642  34.514  1.00  0.00     0.031 C 
ATOM     68  C   UNL A   1      44.861  25.155  32.629  1.00  0.00     0.034 A 
BRANCH  55  69
ATOM     69  C   UNL A   1      43.551  23.076  27.065  1.00  0.00     0.023 A 
ATOM     70  C   UNL A   1      42.948  21.806  27.168  1.00  0.00     0.031 A 
ATOM     71  C   UNL A   1      44.399  23.252  25.954  1.00  0.00     0.131 A 
ATOM     72  C   UNL A   1      43.279  20.763  26.285  1.00  0.00     0.055 A 
ATOM     73  C   UNL A   1      44.788  22.197  25.119  1.00  0.00     0.041 A 
ATOM     74  F   UNL A   1      44.842  24.466  25.594  1.00  0.00    -0.206 F 
ATOM     75  C   UNL A   1      44.239  20.937  25.292  1.00  0.00     0.022 A 
BRANCH  72  76
ATOM     76  S   UNL A   1      42.424  19.173  26.442  1.00  0.00     0.124 S 
ATOM     77  O   UNL A   1      41.846  19.260  27.779  1.00  0.00    -0.237 OA
ATOM     78  O   UNL A   1      41.485  19.221  25.327  1.00  0.00    -0.237 OA
ATOM     79  O   UNL A   1      43.501  18.194  26.299  1.00  0.00    -0.744 OA
ENDBRANCH  72  76
ENDBRANCH  55  69
BRANCH  56  80
ATOM     80  C   UNL A   1      41.534  30.151  33.258  1.00  0.00     0.023 A 
ATOM     81  C   UNL A   1      41.529  31.542  33.488  1.00  0.00     0.031 A 
ATOM     82  C   UNL A   1      40.301  29.486  33.242  1.00  0.00     0.131 A 
ATOM     83  C   UNL A   1      40.318  32.245  33.515  1.00  0.00     0.055 A 
ATOM     84  C   UNL A   1      39.094  30.185  33.358  1.00  0.00     0.041 A 
ATOM     85  F   UNL A   1      40.233  28.171  32.989  1.00  0.00    -0.206 F 
ATOM     86  C   UNL A   1      39.097  31.576  33.447  1.00  0.00     0.022 A 
BRANCH  83  87
ATOM     87  S   UNL A   1      40.340  34.051  33.378  1.00  0.00     0.124 S 
ATOM     88  O   UNL A   1      41.583  34.400  34.051  1.00  0.00    -0.237 OA
ATOM     89  O   UNL A   1      40.327  34.270  31.933  1.00  0.00    -0.237 OA
ATOM     90  O   UNL A   1      39.110  34.457  34.050  1.00  0.00    -0.744 OA
ENDBRANCH  83  87
ENDBRANCH  56  80
BRANCH  68  91
ATOM     91  C   UNL A   1      45.215  23.939  33.453  1.00  0.00     0.023 A 
ATOM     92  C   UNL A   1      46.485  23.774  34.029  1.00  0.00     0.031 A 
ATOM     93  C   UNL A   1      44.304  22.877  33.650  1.00  0.00     0.131 A 
ATOM     94  C   UNL A   1      46.768  22.670  34.851  1.00  0.00     0.055 A 
ATOM     95  C   UNL A   1      44.619  21.736  34.393  1.00  0.00     0.041 A 
ATOM     96  F   UNL A   1      43.056  22.915  33.164  1.00  0.00    -0.206 F 
ATOM     97  C   UNL A   1      45.850  21.636  35.020  1.00  0.00     0.022 A 
BRANCH  94  98
ATOM     98  S   UNL A   1      48.327  22.661  35.772  1.00  0.00     0.124 S 
ATOM     99  O   UNL A   1      48.629  24.082  35.900  1.00  0.00    -0.237 OA
ATOM    100  O   UNL A   1      47.938  21.981  37.005  1.00  0.00    -0.237 OA
ATOM    101  O   UNL A   1      49.234  21.906  34.910  1.00  0.00    -0.744 OA
ENDBRANCH  94  98
ENDBRANCH  68  91
ENDBRANCH  42  43
ENDBRANCH  34  37
ENDBRANCH  32  33
ENDBRANCH  31  32
ENDBRANCH   1  31
TORSDOF 18
ENDMDL
