MODEL 1
REMARK VINA RESULT:     -11.5      0.000      0.000
REMARK SMILES O=C(NCCCCNC(=O)[C@H]1CCCN1C(=S)Nc1ccccc1)c1ccc(-c2c3nc(c(-c4cc(S(=O)(=O)[O-])ccc4F)c4ccc([nH]4)c(-c4cc(S(=O)(=O)[O-])ccc4F)c4nc(c(-c5cc(S(=O)(=O)[O-])ccc5F)c5ccc2[nH]5)C=C4)C=C3)cc1
REMARK SMILES IDX 5 1 4 2 3 3 1 4 2 5 25 7 26 8 87 9 27 10 86 11 28 12 29 13
REMARK SMILES IDX 30 14 80 15 31 16 85 17 79 18 81 19 32 20 84 21 78 22 77 23
REMARK SMILES IDX 33 25 65 26 45 27 64 28 46 29 49 30 63 31 82 32 47 33 48 34
REMARK SMILES IDX 62 36 83 37 50 38 34 39 35 40 43 41 36 42 42 43 44 44 41 45
REMARK SMILES IDX 37 46 38 47 39 48 40 49 66 50 67 51 75 52 68 53 74 54 76 55
REMARK SMILES IDX 73 56 69 57 70 58 71 59 72 60 51 61 52 62 60 63 53 64 59 65
REMARK SMILES IDX 61 66 58 67 54 68 55 69 56 70 57 71 6 72 7 73 8 74 9 75
REMARK SMILES IDX 10 77 11 78 12 79 15 80 13 81 14 82 16 83 17 84 18 85 19 87
REMARK SMILES IDX 20 88 24 89 21 90 23 91 22 92
REMARK H PARENT 3 6 81 24 49 35 8 76 18 86
REMARK Flexibility Score: inf
ROOT
ATOM      1  C   UNL A   1      31.692  32.032  26.947  1.00  0.00     0.023 C 
ENDROOT
BRANCH   1   2
ATOM      2  C   UNL A   1      32.889  32.965  27.056  1.00  0.00     0.116 C 
BRANCH   2   3
ATOM      3  N   UNL A   1      32.575  34.208  27.743  1.00  0.00    -0.352 N 
ATOM      4  O   UNL A   1      32.637  35.724  29.409  1.00  0.00    -0.269 OA
ATOM      5  C   UNL A   1      33.134  34.736  28.885  1.00  0.00     0.251 C 
ATOM      6  H   UNL A   1      31.861  34.749  27.333  1.00  0.00     0.163 HD
BRANCH   5   7
ATOM      7  C   UNL A   1      34.325  34.089  29.481  1.00  0.00     0.039 A 
ATOM      8  C   UNL A   1      35.609  34.438  29.055  1.00  0.00     0.014 A 
ATOM      9  C   UNL A   1      34.153  33.131  30.484  1.00  0.00     0.014 A 
ATOM     10  C   UNL A   1      36.711  33.740  29.535  1.00  0.00     0.010 A 
ATOM     11  C   UNL A   1      35.270  32.492  31.029  1.00  0.00     0.010 A 
ATOM     12  C   UNL A   1      36.557  32.780  30.548  1.00  0.00    -0.014 A 
BRANCH  12  13
ATOM     13  C   UNL A   1      37.764  32.180  31.171  1.00  0.00     0.031 A 
ATOM     14  C   UNL A   1      38.510  31.059  30.507  1.00  0.00     0.074 A 
ATOM     15  C   UNL A   1      38.168  32.665  32.362  1.00  0.00     0.049 A 
ATOM     16  N   UNL A   1      39.554  30.399  30.940  1.00  0.00    -0.248 NA
ATOM     17  C   UNL A   1      38.023  30.613  29.192  1.00  0.00     0.031 C 
ATOM     18  C   UNL A   1      37.506  33.750  33.094  1.00  0.00     0.029 A 
ATOM     19  N   UNL A   1      39.221  32.319  33.170  1.00  0.00    -0.354 N 
ATOM     20  C   UNL A   1      39.837  29.445  29.967  1.00  0.00     0.074 A 
ATOM     21  C   UNL A   1      38.846  29.606  28.923  1.00  0.00     0.031 C 
ATOM     22  C   UNL A   1      38.177  33.991  34.229  1.00  0.00     0.029 A 
ATOM     23  C   UNL A   1      39.266  33.031  34.346  1.00  0.00     0.049 A 
ATOM     24  H   UNL A   1      39.881  31.628  32.931  1.00  0.00     0.167 HD
ATOM     25  C   UNL A   1      40.832  28.526  29.958  1.00  0.00     0.034 A 
ATOM     26  C   UNL A   1      40.063  32.896  35.424  1.00  0.00     0.034 A 
ATOM     27  C   UNL A   1      41.819  28.399  31.005  1.00  0.00     0.049 A 
ATOM     28  C   UNL A   1      41.123  31.829  35.402  1.00  0.00     0.074 A 
ATOM     29  C   UNL A   1      42.924  27.566  31.048  1.00  0.00     0.029 A 
ATOM     30  N   UNL A   1      41.806  29.104  32.201  1.00  0.00    -0.354 N 
ATOM     31  N   UNL A   1      41.415  30.980  34.444  1.00  0.00    -0.248 NA
ATOM     32  C   UNL A   1      41.955  31.696  36.603  1.00  0.00     0.031 C 
ATOM     33  C   UNL A   1      43.532  27.710  32.300  1.00  0.00     0.029 A 
ATOM     34  C   UNL A   1      42.850  28.684  33.012  1.00  0.00     0.049 A 
ATOM     35  H   UNL A   1      41.153  29.801  32.439  1.00  0.00     0.167 HD
ATOM     36  C   UNL A   1      42.473  30.217  34.927  1.00  0.00     0.074 A 
ATOM     37  C   UNL A   1      42.784  30.727  36.247  1.00  0.00     0.031 C 
ATOM     38  C   UNL A   1      43.126  29.186  34.337  1.00  0.00     0.034 A 
BRANCH  25  39
ATOM     39  C   UNL A   1      40.886  27.544  28.813  1.00  0.00     0.023 A 
ATOM     40  C   UNL A   1      41.822  27.658  27.771  1.00  0.00     0.031 A 
ATOM     41  C   UNL A   1      40.005  26.447  28.792  1.00  0.00     0.131 A 
ATOM     42  C   UNL A   1      41.831  26.709  26.735  1.00  0.00     0.055 A 
ATOM     43  C   UNL A   1      40.058  25.476  27.791  1.00  0.00     0.041 A 
ATOM     44  F   UNL A   1      39.078  26.299  29.752  1.00  0.00    -0.206 F 
ATOM     45  C   UNL A   1      40.971  25.608  26.750  1.00  0.00     0.022 A 
BRANCH  42  46
ATOM     46  S   UNL A   1      42.929  26.979  25.316  1.00  0.00     0.124 S 
ATOM     47  O   UNL A   1      42.792  25.719  24.591  1.00  0.00    -0.237 OA
ATOM     48  O   UNL A   1      42.340  28.150  24.677  1.00  0.00    -0.237 OA
ATOM     49  O   UNL A   1      44.237  27.197  25.930  1.00  0.00    -0.744 OA
ENDBRANCH  42  46
ENDBRANCH  25  39
BRANCH  26  50
ATOM     50  C   UNL A   1      39.839  33.735  36.635  1.00  0.00     0.023 A 
ATOM     51  C   UNL A   1      39.236  33.206  37.785  1.00  0.00     0.031 A 
ATOM     52  C   UNL A   1      40.186  35.099  36.641  1.00  0.00     0.131 A 
ATOM     53  C   UNL A   1      38.955  34.045  38.875  1.00  0.00     0.055 A 
ATOM     54  C   UNL A   1      39.961  35.916  37.750  1.00  0.00     0.041 A 
ATOM     55  F   UNL A   1      40.764  35.659  35.566  1.00  0.00    -0.206 F 
ATOM     56  C   UNL A   1      39.326  35.392  38.871  1.00  0.00     0.022 A 
BRANCH  53  57
ATOM     57  S   UNL A   1      37.992  33.375  40.257  1.00  0.00     0.124 S 
ATOM     58  O   UNL A   1      36.763  32.958  39.591  1.00  0.00    -0.237 OA
ATOM     59  O   UNL A   1      38.858  32.302  40.734  1.00  0.00    -0.237 OA
ATOM     60  O   UNL A   1      37.857  34.515  41.161  1.00  0.00    -0.744 OA
ENDBRANCH  53  57
ENDBRANCH  26  50
BRANCH  38  61
ATOM     61  C   UNL A   1      44.247  28.559  35.122  1.00  0.00     0.023 A 
ATOM     62  C   UNL A   1      44.004  27.531  36.050  1.00  0.00     0.031 A 
ATOM     63  C   UNL A   1      45.570  29.004  34.955  1.00  0.00     0.131 A 
ATOM     64  C   UNL A   1      45.060  27.014  36.812  1.00  0.00     0.055 A 
ATOM     65  C   UNL A   1      46.626  28.446  35.675  1.00  0.00     0.041 A 
ATOM     66  F   UNL A   1      45.855  29.986  34.085  1.00  0.00    -0.206 F 
ATOM     67  C   UNL A   1      46.374  27.453  36.617  1.00  0.00     0.022 A 
BRANCH  64  68
ATOM     68  S   UNL A   1      44.687  25.808  38.113  1.00  0.00     0.124 S 
ATOM     69  O   UNL A   1      44.413  24.602  37.338  1.00  0.00    -0.237 OA
ATOM     70  O   UNL A   1      45.920  25.797  38.894  1.00  0.00    -0.237 OA
ATOM     71  O   UNL A   1      43.530  26.385  38.793  1.00  0.00    -0.744 OA
ENDBRANCH  64  68
ENDBRANCH  38  61
ENDBRANCH  12  13
ENDBRANCH   5   7
ENDBRANCH   2   3
ENDBRANCH   1   2
BRANCH   1  72
ATOM     72  C   UNL A   1      31.928  30.754  26.145  1.00  0.00     0.023 C 
BRANCH  72  73
ATOM     73  C   UNL A   1      32.434  29.560  26.946  1.00  0.00     0.116 C 
BRANCH  73  74
ATOM     74  N   UNL A   1      31.462  28.490  27.073  1.00  0.00    -0.354 N 
ATOM     75  C   UNL A   1      31.478  27.254  26.476  1.00  0.00     0.242 C 
ATOM     76  H   UNL A   1      30.693  28.674  27.660  1.00  0.00     0.163 HD
ATOM     77  O   UNL A   1      30.642  26.422  26.833  1.00  0.00    -0.273 OA
BRANCH  75  78
ATOM     78  C   UNL A   1      32.570  26.957  25.426  1.00  0.00     0.173 C 
ATOM     79  C   UNL A   1      33.727  26.163  26.037  1.00  0.00     0.037 C 
ATOM     80  N   UNL A   1      32.120  26.120  24.302  1.00  0.00    -0.337 N 
ATOM     81  C   UNL A   1      33.276  24.727  25.879  1.00  0.00     0.024 C 
ATOM     82  C   UNL A   1      32.556  24.736  24.540  1.00  0.00     0.120 C 
BRANCH  80  83
ATOM     83  C   UNL A   1      31.309  26.453  23.243  1.00  0.00     0.174 C 
ATOM     84  S   UNL A   1      31.748  26.226  21.624  1.00  0.00    -0.041 S 
BRANCH  83  85
ATOM     85  N   UNL A   1      30.020  26.845  23.401  1.00  0.00    -0.333 N 
ATOM     86  H   UNL A   1      29.425  26.089  23.612  1.00  0.00     0.169 HD
BRANCH  85  87
ATOM     87  C   UNL A   1      29.331  28.060  23.340  1.00  0.00     0.040 A 
ATOM     88  C   UNL A   1      27.954  27.998  23.099  1.00  0.00     0.026 A 
ATOM     89  C   UNL A   1      29.955  29.303  23.410  1.00  0.00     0.026 A 
ATOM     90  C   UNL A   1      27.190  29.165  23.064  1.00  0.00     0.002 A 
ATOM     91  C   UNL A   1      29.191  30.474  23.383  1.00  0.00     0.002 A 
ATOM     92  C   UNL A   1      27.806  30.402  23.229  1.00  0.00     0.000 A 
ENDBRANCH  85  87
ENDBRANCH  83  85
ENDBRANCH  80  83
ENDBRANCH  75  78
ENDBRANCH  73  74
ENDBRANCH  72  73
ENDBRANCH   1  72
TORSDOF 17
ENDMDL
MODEL 2
REMARK VINA RESULT:     -11.4      6.354     12.077
REMARK SMILES O=C(NCCCCNC(=O)[C@H]1CCCN1C(=S)Nc1ccccc1)c1ccc(-c2c3nc(c(-c4cc(S(=O)(=O)[O-])ccc4F)c4ccc([nH]4)c(-c4cc(S(=O)(=O)[O-])ccc4F)c4nc(c(-c5cc(S(=O)(=O)[O-])ccc5F)c5ccc2[nH]5)C=C4)C=C3)cc1
REMARK SMILES IDX 5 1 4 2 3 3 1 4 2 5 25 7 26 8 87 9 27 10 86 11 28 12 29 13
REMARK SMILES IDX 30 14 80 15 31 16 85 17 79 18 81 19 32 20 84 21 78 22 77 23
REMARK SMILES IDX 33 25 65 26 45 27 64 28 46 29 49 30 63 31 82 32 47 33 48 34
REMARK SMILES IDX 62 36 83 37 50 38 34 39 35 40 43 41 36 42 42 43 44 44 41 45
REMARK SMILES IDX 37 46 38 47 39 48 40 49 66 50 67 51 75 52 68 53 74 54 76 55
REMARK SMILES IDX 73 56 69 57 70 58 71 59 72 60 51 61 52 62 60 63 53 64 59 65
REMARK SMILES IDX 61 66 58 67 54 68 55 69 56 70 57 71 6 72 7 73 8 74 9 75
REMARK SMILES IDX 10 77 11 78 12 79 15 80 13 81 14 82 16 83 17 84 18 85 19 87
REMARK SMILES IDX 20 88 24 89 21 90 23 91 22 92
REMARK H PARENT 3 6 81 24 49 35 8 76 18 86
REMARK Flexibility Score: inf
ROOT
ATOM      1  C   UNL A   1      38.269  19.845  24.984  1.00  0.00     0.023 C 
ENDROOT
BRANCH   1   2
ATOM      2  C   UNL A   1      39.322  20.085  26.056  1.00  0.00     0.116 C 
BRANCH   2   3
ATOM      3  N   UNL A   1      40.416  19.129  25.996  1.00  0.00    -0.352 N 
ATOM      4  O   UNL A   1      42.556  18.441  25.848  1.00  0.00    -0.269 OA
ATOM      5  C   UNL A   1      41.772  19.353  26.072  1.00  0.00     0.251 C 
ATOM      6  H   UNL A   1      40.149  18.187  25.887  1.00  0.00     0.163 HD
BRANCH   5   7
ATOM      7  C   UNL A   1      42.272  20.706  26.405  1.00  0.00     0.039 A 
ATOM      8  C   UNL A   1      42.554  21.627  25.393  1.00  0.00     0.014 A 
ATOM      9  C   UNL A   1      42.450  21.059  27.746  1.00  0.00     0.014 A 
ATOM     10  C   UNL A   1      43.134  22.850  25.711  1.00  0.00     0.010 A 
ATOM     11  C   UNL A   1      42.952  22.323  28.069  1.00  0.00     0.010 A 
ATOM     12  C   UNL A   1      43.313  23.222  27.053  1.00  0.00    -0.014 A 
BRANCH  12  13
ATOM     13  C   UNL A   1      43.765  24.600  27.371  1.00  0.00     0.031 A 
ATOM     14  C   UNL A   1      42.803  25.643  27.866  1.00  0.00     0.074 A 
ATOM     15  C   UNL A   1      45.068  24.895  27.193  1.00  0.00     0.049 A 
ATOM     16  N   UNL A   1      43.031  26.901  28.146  1.00  0.00    -0.248 NA
ATOM     17  C   UNL A   1      41.406  25.227  28.068  1.00  0.00     0.031 C 
ATOM     18  C   UNL A   1      46.083  23.953  26.708  1.00  0.00     0.029 A 
ATOM     19  N   UNL A   1      45.767  26.058  27.390  1.00  0.00    -0.354 N 
ATOM     20  C   UNL A   1      41.807  27.436  28.534  1.00  0.00     0.074 A 
ATOM     21  C   UNL A   1      40.835  26.365  28.442  1.00  0.00     0.031 C 
ATOM     22  C   UNL A   1      47.272  24.569  26.666  1.00  0.00     0.029 A 
ATOM     23  C   UNL A   1      47.095  25.965  27.041  1.00  0.00     0.049 A 
ATOM     24  H   UNL A   1      45.360  26.880  27.748  1.00  0.00     0.167 HD
ATOM     25  C   UNL A   1      41.531  28.704  28.925  1.00  0.00     0.034 A 
ATOM     26  C   UNL A   1      48.055  26.908  26.980  1.00  0.00     0.034 A 
ATOM     27  C   UNL A   1      42.524  29.748  29.024  1.00  0.00     0.049 A 
ATOM     28  C   UNL A   1      47.701  28.317  27.370  1.00  0.00     0.074 A 
ATOM     29  C   UNL A   1      42.370  31.038  29.502  1.00  0.00     0.029 A 
ATOM     30  N   UNL A   1      43.847  29.631  28.618  1.00  0.00    -0.354 N 
ATOM     31  N   UNL A   1      46.551  28.788  27.796  1.00  0.00    -0.248 NA
ATOM     32  C   UNL A   1      48.766  29.321  27.267  1.00  0.00     0.031 C 
ATOM     33  C   UNL A   1      43.574  31.723  29.310  1.00  0.00     0.029 A 
ATOM     34  C   UNL A   1      44.503  30.842  28.780  1.00  0.00     0.049 A 
ATOM     35  H   UNL A   1      44.259  28.808  28.268  1.00  0.00     0.167 HD
ATOM     36  C   UNL A   1      46.761  30.145  28.019  1.00  0.00     0.074 A 
ATOM     37  C   UNL A   1      48.152  30.407  27.709  1.00  0.00     0.031 C 
ATOM     38  C   UNL A   1      45.883  31.090  28.438  1.00  0.00     0.034 A 
BRANCH  25  39
ATOM     39  C   UNL A   1      40.096  29.061  29.228  1.00  0.00     0.023 A 
ATOM     40  C   UNL A   1      39.601  29.124  30.542  1.00  0.00     0.031 A 
ATOM     41  C   UNL A   1      39.221  29.386  28.176  1.00  0.00     0.131 A 
ATOM     42  C   UNL A   1      38.258  29.470  30.764  1.00  0.00     0.055 A 
ATOM     43  C   UNL A   1      37.904  29.786  28.407  1.00  0.00     0.041 A 
ATOM     44  F   UNL A   1      39.636  29.324  26.900  1.00  0.00    -0.206 F 
ATOM     45  C   UNL A   1      37.413  29.824  29.708  1.00  0.00     0.022 A 
BRANCH  42  46
ATOM     46  S   UNL A   1      37.601  29.372  32.453  1.00  0.00     0.124 S 
ATOM     47  O   UNL A   1      38.491  30.279  33.171  1.00  0.00    -0.237 OA
ATOM     48  O   UNL A   1      36.226  29.828  32.285  1.00  0.00    -0.237 OA
ATOM     49  O   UNL A   1      37.752  27.960  32.799  1.00  0.00    -0.744 OA
ENDBRANCH  42  46
ENDBRANCH  25  39
BRANCH  26  50
ATOM     50  C   UNL A   1      49.410  26.570  26.460  1.00  0.00     0.023 A 
ATOM     51  C   UNL A   1      49.862  27.067  25.228  1.00  0.00     0.031 A 
ATOM     52  C   UNL A   1      50.259  25.702  27.172  1.00  0.00     0.131 A 
ATOM     53  C   UNL A   1      51.105  26.655  24.723  1.00  0.00     0.055 A 
ATOM     54  C   UNL A   1      51.521  25.345  26.695  1.00  0.00     0.041 A 
ATOM     55  F   UNL A   1      49.877  25.195  28.356  1.00  0.00    -0.206 F 
ATOM     56  C   UNL A   1      51.944  25.810  25.455  1.00  0.00     0.022 A 
BRANCH  53  57
ATOM     57  S   UNL A   1      51.564  27.152  23.042  1.00  0.00     0.124 S 
ATOM     58  O   UNL A   1      51.957  28.543  23.238  1.00  0.00    -0.237 OA
ATOM     59  O   UNL A   1      52.642  26.219  22.736  1.00  0.00    -0.237 OA
ATOM     60  O   UNL A   1      50.333  26.953  22.280  1.00  0.00    -0.744 OA
ENDBRANCH  53  57
ENDBRANCH  26  50
BRANCH  38  61
ATOM     61  C   UNL A   1      46.420  32.488  28.592  1.00  0.00     0.023 A 
ATOM     62  C   UNL A   1      46.489  33.369  27.499  1.00  0.00     0.031 A 
ATOM     63  C   UNL A   1      46.882  32.940  29.841  1.00  0.00     0.131 A 
ATOM     64  C   UNL A   1      47.054  34.641  27.663  1.00  0.00     0.055 A 
ATOM     65  C   UNL A   1      47.391  34.228  30.010  1.00  0.00     0.041 A 
ATOM     66  F   UNL A   1      46.842  32.137  30.916  1.00  0.00    -0.206 F 
ATOM     67  C   UNL A   1      47.490  35.082  28.916  1.00  0.00     0.022 A 
BRANCH  64  68
ATOM     68  S   UNL A   1      47.279  35.689  26.200  1.00  0.00     0.124 S 
ATOM     69  O   UNL A   1      48.532  36.371  26.507  1.00  0.00    -0.237 OA
ATOM     70  O   UNL A   1      47.334  34.711  25.119  1.00  0.00    -0.237 OA
ATOM     71  O   UNL A   1      46.092  36.540  26.204  1.00  0.00    -0.744 OA
ENDBRANCH  64  68
ENDBRANCH  38  61
ENDBRANCH  12  13
ENDBRANCH   5   7
ENDBRANCH   2   3
ENDBRANCH   1   2
BRANCH   1  72
ATOM     72  C   UNL A   1      37.404  21.054  24.633  1.00  0.00     0.023 C 
BRANCH  72  73
ATOM     73  C   UNL A   1      37.411  22.185  25.655  1.00  0.00     0.116 C 
BRANCH  73  74
ATOM     74  N   UNL A   1      36.479  23.254  25.346  1.00  0.00    -0.354 N 
ATOM     75  C   UNL A   1      35.130  23.302  25.596  1.00  0.00     0.242 C 
ATOM     76  H   UNL A   1      36.862  24.043  24.900  1.00  0.00     0.163 HD
ATOM     77  O   UNL A   1      34.537  24.364  25.402  1.00  0.00    -0.273 OA
BRANCH  75  78
ATOM     78  C   UNL A   1      34.438  22.038  26.152  1.00  0.00     0.173 C 
ATOM     79  C   UNL A   1      34.017  22.232  27.611  1.00  0.00     0.037 C 
ATOM     80  N   UNL A   1      33.187  21.679  25.466  1.00  0.00    -0.337 N 
ATOM     81  C   UNL A   1      32.640  22.851  27.488  1.00  0.00     0.024 C 
ATOM     82  C   UNL A   1      32.053  22.151  26.273  1.00  0.00     0.120 C 
BRANCH  80  83
ATOM     83  C   UNL A   1      33.010  21.126  24.219  1.00  0.00     0.174 C 
ATOM     84  S   UNL A   1      32.234  21.926  22.945  1.00  0.00    -0.041 S 
BRANCH  83  85
ATOM     85  N   UNL A   1      33.583  19.953  23.848  1.00  0.00    -0.333 N 
ATOM     86  H   UNL A   1      34.047  20.023  22.982  1.00  0.00     0.169 HD
BRANCH  85  87
ATOM     87  C   UNL A   1      33.678  18.671  24.396  1.00  0.00     0.040 A 
ATOM     88  C   UNL A   1      32.571  18.201  25.110  1.00  0.00     0.026 A 
ATOM     89  C   UNL A   1      34.834  17.896  24.347  1.00  0.00     0.026 A 
ATOM     90  C   UNL A   1      32.573  16.916  25.653  1.00  0.00     0.002 A 
ATOM     91  C   UNL A   1      34.837  16.604  24.883  1.00  0.00     0.002 A 
ATOM     92  C   UNL A   1      33.699  16.109  25.519  1.00  0.00     0.000 A 
ENDBRANCH  85  87
ENDBRANCH  83  85
ENDBRANCH  80  83
ENDBRANCH  75  78
ENDBRANCH  73  74
ENDBRANCH  72  73
ENDBRANCH   1  72
TORSDOF 17
ENDMDL
MODEL 3
REMARK VINA RESULT:     -11.4      6.126     11.745
REMARK SMILES O=C(NCCCCNC(=O)[C@H]1CCCN1C(=S)Nc1ccccc1)c1ccc(-c2c3nc(c(-c4cc(S(=O)(=O)[O-])ccc4F)c4ccc([nH]4)c(-c4cc(S(=O)(=O)[O-])ccc4F)c4nc(c(-c5cc(S(=O)(=O)[O-])ccc5F)c5ccc2[nH]5)C=C4)C=C3)cc1
REMARK SMILES IDX 5 1 4 2 3 3 1 4 2 5 25 7 26 8 87 9 27 10 86 11 28 12 29 13
REMARK SMILES IDX 30 14 80 15 31 16 85 17 79 18 81 19 32 20 84 21 78 22 77 23
REMARK SMILES IDX 33 25 65 26 45 27 64 28 46 29 49 30 63 31 82 32 47 33 48 34
REMARK SMILES IDX 62 36 83 37 50 38 34 39 35 40 43 41 36 42 42 43 44 44 41 45
REMARK SMILES IDX 37 46 38 47 39 48 40 49 66 50 67 51 75 52 68 53 74 54 76 55
REMARK SMILES IDX 73 56 69 57 70 58 71 59 72 60 51 61 52 62 60 63 53 64 59 65
REMARK SMILES IDX 61 66 58 67 54 68 55 69 56 70 57 71 6 72 7 73 8 74 9 75
REMARK SMILES IDX 10 77 11 78 12 79 15 80 13 81 14 82 16 83 17 84 18 85 19 87
REMARK SMILES IDX 20 88 24 89 21 90 23 91 22 92
REMARK H PARENT 3 6 81 24 49 35 8 76 18 86
REMARK Flexibility Score: inf
ROOT
ATOM      1  C   UNL A   1      38.260  19.492  25.099  1.00  0.00     0.023 C 
ENDROOT
BRANCH   1   2
ATOM      2  C   UNL A   1      39.437  20.123  25.829  1.00  0.00     0.116 C 
BRANCH   2   3
ATOM      3  N   UNL A   1      40.545  19.200  26.016  1.00  0.00    -0.352 N 
ATOM      4  O   UNL A   1      42.695  18.569  26.252  1.00  0.00    -0.269 OA
ATOM      5  C   UNL A   1      41.869  19.472  26.276  1.00  0.00     0.251 C 
ATOM      6  H   UNL A   1      40.315  18.245  25.948  1.00  0.00     0.163 HD
BRANCH   5   7
ATOM      7  C   UNL A   1      42.287  20.862  26.565  1.00  0.00     0.039 A 
ATOM      8  C   UNL A   1      42.475  21.286  27.883  1.00  0.00     0.014 A 
ATOM      9  C   UNL A   1      42.500  21.747  25.504  1.00  0.00     0.014 A 
ATOM     10  C   UNL A   1      42.750  22.623  28.147  1.00  0.00     0.010 A 
ATOM     11  C   UNL A   1      42.862  23.071  25.769  1.00  0.00     0.010 A 
ATOM     12  C   UNL A   1      42.975  23.523  27.093  1.00  0.00    -0.014 A 
BRANCH  12  13
ATOM     13  C   UNL A   1      43.443  24.898  27.399  1.00  0.00     0.031 A 
ATOM     14  C   UNL A   1      42.505  25.942  27.935  1.00  0.00     0.074 A 
ATOM     15  C   UNL A   1      44.739  25.190  27.172  1.00  0.00     0.049 A 
ATOM     16  N   UNL A   1      42.747  27.198  28.212  1.00  0.00    -0.248 NA
ATOM     17  C   UNL A   1      41.115  25.530  28.189  1.00  0.00     0.031 C 
ATOM     18  C   UNL A   1      45.731  24.247  26.645  1.00  0.00     0.029 A 
ATOM     19  N   UNL A   1      45.449  26.350  27.347  1.00  0.00    -0.354 N 
ATOM     20  C   UNL A   1      41.541  27.735  28.649  1.00  0.00     0.074 A 
ATOM     21  C   UNL A   1      40.562  26.668  28.590  1.00  0.00     0.031 C 
ATOM     22  C   UNL A   1      46.920  24.859  26.559  1.00  0.00     0.029 A 
ATOM     23  C   UNL A   1      46.762  26.254  26.946  1.00  0.00     0.049 A 
ATOM     24  H   UNL A   1      45.059  27.171  27.724  1.00  0.00     0.167 HD
ATOM     25  C   UNL A   1      41.284  29.002  29.055  1.00  0.00     0.034 A 
ATOM     26  C   UNL A   1      47.722  27.194  26.852  1.00  0.00     0.034 A 
ATOM     27  C   UNL A   1      42.284  30.043  29.120  1.00  0.00     0.049 A 
ATOM     28  C   UNL A   1      47.388  28.603  27.261  1.00  0.00     0.074 A 
ATOM     29  C   UNL A   1      42.153  31.332  29.608  1.00  0.00     0.029 A 
ATOM     30  N   UNL A   1      43.590  29.924  28.663  1.00  0.00    -0.354 N 
ATOM     31  N   UNL A   1      46.257  29.076  27.733  1.00  0.00    -0.248 NA
ATOM     32  C   UNL A   1      48.451  29.604  27.121  1.00  0.00     0.031 C 
ATOM     33  C   UNL A   1      43.351  32.014  29.373  1.00  0.00     0.029 A 
ATOM     34  C   UNL A   1      44.255  31.132  28.804  1.00  0.00     0.049 A 
ATOM     35  H   UNL A   1      43.985  29.101  28.293  1.00  0.00     0.167 HD
ATOM     36  C   UNL A   1      46.480  30.431  27.953  1.00  0.00     0.074 A 
ATOM     37  C   UNL A   1      47.858  30.691  27.591  1.00  0.00     0.031 C 
ATOM     38  C   UNL A   1      45.622  31.377  28.410  1.00  0.00     0.034 A 
BRANCH  25  39
ATOM     39  C   UNL A   1      39.864  29.363  29.415  1.00  0.00     0.023 A 
ATOM     40  C   UNL A   1      39.427  29.450  30.748  1.00  0.00     0.031 A 
ATOM     41  C   UNL A   1      38.942  29.667  28.397  1.00  0.00     0.131 A 
ATOM     42  C   UNL A   1      38.094  29.798  31.024  1.00  0.00     0.055 A 
ATOM     43  C   UNL A   1      37.636  30.069  28.679  1.00  0.00     0.041 A 
ATOM     44  F   UNL A   1      39.300  29.582  27.106  1.00  0.00    -0.206 F 
ATOM     45  C   UNL A   1      37.203  30.130  30.000  1.00  0.00     0.022 A 
BRANCH  42  46
ATOM     46  S   UNL A   1      37.513  29.730  32.741  1.00  0.00     0.124 S 
ATOM     47  O   UNL A   1      36.225  30.412  32.646  1.00  0.00    -0.237 OA
ATOM     48  O   UNL A   1      37.459  28.297  33.001  1.00  0.00    -0.237 OA
ATOM     49  O   UNL A   1      38.542  30.460  33.481  1.00  0.00    -0.744 OA
ENDBRANCH  42  46
ENDBRANCH  25  39
BRANCH  26  50
ATOM     50  C   UNL A   1      49.055  26.854  26.278  1.00  0.00     0.023 A 
ATOM     51  C   UNL A   1      50.170  26.642  27.103  1.00  0.00     0.031 A 
ATOM     52  C   UNL A   1      49.243  26.783  24.885  1.00  0.00     0.131 A 
ATOM     53  C   UNL A   1      51.430  26.416  26.529  1.00  0.00     0.055 A 
ATOM     54  C   UNL A   1      50.486  26.496  24.320  1.00  0.00     0.041 A 
ATOM     55  F   UNL A   1      48.211  26.979  24.048  1.00  0.00    -0.206 F 
ATOM     56  C   UNL A   1      51.593  26.326  25.144  1.00  0.00     0.022 A 
BRANCH  53  57
ATOM     57  S   UNL A   1      52.878  26.351  27.617  1.00  0.00     0.124 S 
ATOM     58  O   UNL A   1      53.492  27.653  27.375  1.00  0.00    -0.237 OA
ATOM     59  O   UNL A   1      52.262  26.168  28.927  1.00  0.00    -0.237 OA
ATOM     60  O   UNL A   1      53.629  25.203  27.116  1.00  0.00    -0.744 OA
ENDBRANCH  53  57
ENDBRANCH  26  50
BRANCH  38  61
ATOM     61  C   UNL A   1      46.169  32.773  28.549  1.00  0.00     0.023 A 
ATOM     62  C   UNL A   1      46.365  33.596  27.426  1.00  0.00     0.031 A 
ATOM     63  C   UNL A   1      46.514  33.280  29.814  1.00  0.00     0.131 A 
ATOM     64  C   UNL A   1      46.936  34.866  27.583  1.00  0.00     0.055 A 
ATOM     65  C   UNL A   1      47.029  34.567  29.970  1.00  0.00     0.041 A 
ATOM     66  F   UNL A   1      46.351  32.533  30.917  1.00  0.00    -0.206 F 
ATOM     67  C   UNL A   1      47.254  35.364  28.851  1.00  0.00     0.022 A 
BRANCH  64  68
ATOM     68  S   UNL A   1      47.327  35.835  26.101  1.00  0.00     0.124 S 
ATOM     69  O   UNL A   1      46.277  36.849  26.118  1.00  0.00    -0.237 OA
ATOM     70  O   UNL A   1      48.677  36.310  26.383  1.00  0.00    -0.237 OA
ATOM     71  O   UNL A   1      47.228  34.858  25.019  1.00  0.00    -0.744 OA
ENDBRANCH  64  68
ENDBRANCH  38  61
ENDBRANCH  12  13
ENDBRANCH   5   7
ENDBRANCH   2   3
ENDBRANCH   1   2
BRANCH   1  72
ATOM     72  C   UNL A   1      37.010  20.363  24.997  1.00  0.00     0.023 C 
BRANCH  72  73
ATOM     73  C   UNL A   1      37.252  21.816  24.603  1.00  0.00     0.116 C 
BRANCH  73  74
ATOM     74  N   UNL A   1      36.405  22.274  23.518  1.00  0.00    -0.354 N 
ATOM     75  C   UNL A   1      35.248  23.009  23.597  1.00  0.00     0.242 C 
ATOM     76  H   UNL A   1      36.695  22.026  22.611  1.00  0.00     0.163 HD
ATOM     77  O   UNL A   1      34.755  23.437  22.552  1.00  0.00    -0.273 OA
BRANCH  75  78
ATOM     78  C   UNL A   1      34.654  23.299  24.993  1.00  0.00     0.173 C 
ATOM     79  C   UNL A   1      35.125  24.654  25.526  1.00  0.00     0.037 C 
ATOM     80  N   UNL A   1      33.186  23.400  25.019  1.00  0.00    -0.337 N 
ATOM     81  C   UNL A   1      34.102  25.617  24.962  1.00  0.00     0.024 C 
ATOM     82  C   UNL A   1      32.809  24.821  25.019  1.00  0.00     0.120 C 
BRANCH  80  83
ATOM     83  C   UNL A   1      32.246  22.400  24.919  1.00  0.00     0.174 C 
ATOM     84  S   UNL A   1      30.860  22.321  25.887  1.00  0.00    -0.041 S 
BRANCH  83  85
ATOM     85  N   UNL A   1      32.263  21.475  23.926  1.00  0.00    -0.333 N 
ATOM     86  H   UNL A   1      31.885  21.824  23.086  1.00  0.00     0.169 HD
BRANCH  85  87
ATOM     87  C   UNL A   1      32.687  20.148  23.804  1.00  0.00     0.040 A 
ATOM     88  C   UNL A   1      32.130  19.395  22.766  1.00  0.00     0.026 A 
ATOM     89  C   UNL A   1      33.547  19.529  24.709  1.00  0.00     0.026 A 
ATOM     90  C   UNL A   1      32.533  18.076  22.554  1.00  0.00     0.002 A 
ATOM     91  C   UNL A   1      33.958  18.209  24.495  1.00  0.00     0.002 A 
ATOM     92  C   UNL A   1      33.465  17.491  23.407  1.00  0.00     0.000 A 
ENDBRANCH  85  87
ENDBRANCH  83  85
ENDBRANCH  80  83
ENDBRANCH  75  78
ENDBRANCH  73  74
ENDBRANCH  72  73
ENDBRANCH   1  72
TORSDOF 17
ENDMDL
