MODEL 1
REMARK VINA RESULT:      -9.8      0.000      0.000
REMARK SMILES C=CCc1cccc(-c2ccc([C@@H](C)C(=O)NCCCCNC(=O)c3ccc(-c4c5nc(c(-c6cc(S(=O)(=O)[O-])ccc6F)c6ccc([nH]6)c(-c6cc(S(=O)(=O)[O-])ccc6F)c6nc(c(-c7cc(S(=O)(=O)[O-])ccc7F)c7ccc4[nH]7)C=C6)C=C5)cc3)cc2)c1
REMARK SMILES IDX 19 1 18 2 17 3 15 4 16 5 13 7 14 8 12 9 9 10 10 11 89 12
REMARK SMILES IDX 11 13 88 14 8 15 4 16 5 17 90 18 6 19 7 20 3 21 2 22 1 23
REMARK SMILES IDX 20 24 21 25 22 26 23 27 24 29 25 30 26 31 87 32 27 33 86 34
REMARK SMILES IDX 28 35 29 36 30 37 80 38 31 39 85 40 79 41 81 42 32 43 84 44
REMARK SMILES IDX 78 45 77 46 33 48 65 49 45 50 64 51 46 52 49 53 63 54 82 55
REMARK SMILES IDX 47 56 48 57 62 59 83 60 50 61 34 62 35 63 43 64 36 65 42 66
REMARK SMILES IDX 44 67 41 68 37 69 38 70 39 71 40 72 66 73 67 74 75 75 68 76
REMARK SMILES IDX 74 77 76 78 73 79 69 80 70 81 71 82 72 83 51 84 52 85 60 86
REMARK SMILES IDX 53 87 59 88 61 89 58 90 54 91 55 92 56 93 57 94
REMARK H PARENT 17 6 22 28 81 47 49 58
REMARK Flexibility Score: inf
ROOT
ATOM      1  C   UNL A   1      33.662  35.610  29.317  1.00  0.00     0.023 C 
ENDROOT
BRANCH   1   2
ATOM      2  C   UNL A   1      33.026  35.247  30.659  1.00  0.00     0.116 C 
BRANCH   2   3
ATOM      3  N   UNL A   1      33.828  35.683  31.784  1.00  0.00    -0.356 N 
ATOM      4  C   UNL A   1      34.900  35.111  32.398  1.00  0.00     0.227 C 
ATOM      5  O   UNL A   1      35.345  35.696  33.394  1.00  0.00    -0.274 OA
ATOM      6  H   UNL A   1      33.549  36.544  32.171  1.00  0.00     0.163 HD
BRANCH   4   7
ATOM      7  C   UNL A   1      35.566  33.813  31.918  1.00  0.00     0.105 C 
ATOM      8  C   UNL A   1      35.468  32.654  32.911  1.00  0.00     0.023 C 
BRANCH   7   9
ATOM      9  C   UNL A   1      36.923  34.037  31.271  1.00  0.00    -0.036 A 
ATOM     10  C   UNL A   1      39.569  34.271  30.202  1.00  0.00    -0.018 A 
ATOM     11  C   UNL A   1      38.476  33.904  29.400  1.00  0.00     0.009 A 
ATOM     12  C   UNL A   1      39.289  34.568  31.545  1.00  0.00     0.009 A 
ATOM     13  C   UNL A   1      37.174  33.821  29.914  1.00  0.00     0.005 A 
ATOM     14  C   UNL A   1      38.000  34.434  32.076  1.00  0.00     0.005 A 
BRANCH  10  15
ATOM     15  C   UNL A   1      40.951  34.319  29.664  1.00  0.00    -0.018 A 
ATOM     16  C   UNL A   1      43.230  33.387  29.533  1.00  0.00    -0.044 A 
ATOM     17  C   UNL A   1      43.588  34.388  28.627  1.00  0.00     0.004 A 
ATOM     18  C   UNL A   1      41.912  33.350  30.021  1.00  0.00     0.012 A 
ATOM     19  C   UNL A   1      42.658  35.351  28.245  1.00  0.00     0.001 A 
ATOM     20  C   UNL A   1      41.362  35.322  28.768  1.00  0.00     0.009 A 
BRANCH  16  21
ATOM     21  C   UNL A   1      44.236  32.348  29.967  1.00  0.00     0.062 C 
BRANCH  21  22
ATOM     22  C   UNL A   1      43.652  30.967  30.042  1.00  0.00    -0.030 C 
ATOM     23  C   UNL A   1      43.682  30.079  29.040  1.00  0.00     0.004 C 
ENDBRANCH  21  22
ENDBRANCH  16  21
ENDBRANCH  10  15
ENDBRANCH   7   9
ENDBRANCH   4   7
ENDBRANCH   2   3
ENDBRANCH   1   2
BRANCH   1  24
ATOM     24  C   UNL A   1      33.504  34.558  28.220  1.00  0.00     0.023 C 
BRANCH  24  25
ATOM     25  C   UNL A   1      34.188  33.222  28.489  1.00  0.00     0.116 C 
BRANCH  25  26
ATOM     26  N   UNL A   1      33.674  32.121  27.687  1.00  0.00    -0.352 N 
ATOM     27  C   UNL A   1      34.237  30.880  27.479  1.00  0.00     0.251 C 
ATOM     28  H   UNL A   1      32.814  32.282  27.236  1.00  0.00     0.163 HD
ATOM     29  O   UNL A   1      33.715  30.087  26.709  1.00  0.00    -0.269 OA
BRANCH  27  30
ATOM     30  C   UNL A   1      35.510  30.547  28.160  1.00  0.00     0.039 A 
ATOM     31  C   UNL A   1      35.471  29.775  29.323  1.00  0.00     0.014 A 
ATOM     32  C   UNL A   1      36.734  30.943  27.616  1.00  0.00     0.014 A 
ATOM     33  C   UNL A   1      36.665  29.326  29.893  1.00  0.00     0.010 A 
ATOM     34  C   UNL A   1      37.918  30.436  28.143  1.00  0.00     0.010 A 
ATOM     35  C   UNL A   1      37.896  29.614  29.281  1.00  0.00    -0.014 A 
BRANCH  35  36
ATOM     36  C   UNL A   1      39.171  29.060  29.805  1.00  0.00     0.031 A 
ATOM     37  C   UNL A   1      39.832  29.698  30.997  1.00  0.00     0.074 A 
ATOM     38  C   UNL A   1      39.775  28.043  29.156  1.00  0.00     0.049 A 
ATOM     39  N   UNL A   1      40.994  29.438  31.536  1.00  0.00    -0.248 NA
ATOM     40  C   UNL A   1      39.101  30.798  31.644  1.00  0.00     0.031 C 
ATOM     41  C   UNL A   1      39.259  27.378  27.957  1.00  0.00     0.029 A 
ATOM     42  N   UNL A   1      40.964  27.401  29.400  1.00  0.00    -0.354 N 
ATOM     43  C   UNL A   1      41.147  30.358  32.569  1.00  0.00     0.074 A 
ATOM     44  C   UNL A   1      39.978  31.211  32.548  1.00  0.00     0.031 C 
ATOM     45  C   UNL A   1      40.117  26.415  27.581  1.00  0.00     0.029 A 
ATOM     46  C   UNL A   1      41.264  26.418  28.483  1.00  0.00     0.049 A 
ATOM     47  H   UNL A   1      41.548  27.622  30.161  1.00  0.00     0.167 HD
ATOM     48  C   UNL A   1      42.160  30.467  33.463  1.00  0.00     0.034 A 
ATOM     49  C   UNL A   1      42.346  25.622  28.373  1.00  0.00     0.034 A 
ATOM     50  C   UNL A   1      43.301  29.585  33.494  1.00  0.00     0.049 A 
ATOM     51  C   UNL A   1      43.449  25.751  29.396  1.00  0.00     0.074 A 
ATOM     52  C   UNL A   1      44.344  29.558  34.405  1.00  0.00     0.029 A 
ATOM     53  N   UNL A   1      43.550  28.576  32.575  1.00  0.00    -0.354 N 
ATOM     54  N   UNL A   1      43.545  26.586  30.406  1.00  0.00    -0.248 NA
ATOM     55  C   UNL A   1      44.582  24.824  29.272  1.00  0.00     0.031 C 
ATOM     56  C   UNL A   1      45.249  28.570  34.004  1.00  0.00     0.029 A 
ATOM     57  C   UNL A   1      44.740  27.936  32.882  1.00  0.00     0.049 A 
ATOM     58  H   UNL A   1      42.966  28.347  31.815  1.00  0.00     0.167 HD
ATOM     59  C   UNL A   1      44.732  26.257  31.055  1.00  0.00     0.074 A 
ATOM     60  C   UNL A   1      45.307  25.142  30.333  1.00  0.00     0.031 C 
ATOM     61  C   UNL A   1      45.296  26.823  32.152  1.00  0.00     0.034 A 
BRANCH  48  62
ATOM     62  C   UNL A   1      42.087  31.590  34.467  1.00  0.00     0.023 A 
ATOM     63  C   UNL A   1      41.164  31.576  35.526  1.00  0.00     0.031 A 
ATOM     64  C   UNL A   1      42.951  32.694  34.359  1.00  0.00     0.131 A 
ATOM     65  C   UNL A   1      41.083  32.671  36.399  1.00  0.00     0.055 A 
ATOM     66  C   UNL A   1      42.917  33.748  35.275  1.00  0.00     0.041 A 
ATOM     67  F   UNL A   1      43.840  32.770  33.356  1.00  0.00    -0.206 F 
ATOM     68  C   UNL A   1      41.971  33.745  36.296  1.00  0.00     0.022 A 
BRANCH  65  69
ATOM     69  S   UNL A   1      39.728  32.724  37.602  1.00  0.00     0.124 S 
ATOM     70  O   UNL A   1      38.931  31.570  37.196  1.00  0.00    -0.237 OA
ATOM     71  O   UNL A   1      40.430  32.600  38.875  1.00  0.00    -0.237 OA
ATOM     72  O   UNL A   1      39.104  34.023  37.360  1.00  0.00    -0.744 OA
ENDBRANCH  65  69
ENDBRANCH  48  62
BRANCH  49  73
ATOM     73  C   UNL A   1      42.462  24.639  27.258  1.00  0.00     0.023 A 
ATOM     74  C   UNL A   1      41.870  23.369  27.349  1.00  0.00     0.031 A 
ATOM     75  C   UNL A   1      43.224  24.929  26.112  1.00  0.00     0.131 A 
ATOM     76  C   UNL A   1      42.099  22.415  26.346  1.00  0.00     0.055 A 
ATOM     77  C   UNL A   1      43.403  23.995  25.089  1.00  0.00     0.041 A 
ATOM     78  F   UNL A   1      43.807  26.130  25.970  1.00  0.00    -0.206 F 
ATOM     79  C   UNL A   1      42.853  22.723  25.211  1.00  0.00     0.022 A 
BRANCH  76  80
ATOM     80  S   UNL A   1      41.488  20.726  26.600  1.00  0.00     0.124 S 
ATOM     81  O   UNL A   1      40.045  20.916  26.515  1.00  0.00    -0.237 OA
ATOM     82  O   UNL A   1      42.108  20.011  25.489  1.00  0.00    -0.237 OA
ATOM     83  O   UNL A   1      41.996  20.377  27.926  1.00  0.00    -0.744 OA
ENDBRANCH  76  80
ENDBRANCH  49  73
BRANCH  61  84
ATOM     84  C   UNL A   1      46.572  26.203  32.662  1.00  0.00     0.023 A 
ATOM     85  C   UNL A   1      46.561  25.108  33.542  1.00  0.00     0.031 A 
ATOM     86  C   UNL A   1      47.816  26.725  32.265  1.00  0.00     0.131 A 
ATOM     87  C   UNL A   1      47.771  24.603  34.040  1.00  0.00     0.055 A 
ATOM     88  C   UNL A   1      49.018  26.183  32.721  1.00  0.00     0.041 A 
ATOM     89  F   UNL A   1      47.882  27.770  31.425  1.00  0.00    -0.206 F 
ATOM     90  C   UNL A   1      48.999  25.123  33.623  1.00  0.00     0.022 A 
BRANCH  87  91
ATOM     91  S   UNL A   1      47.717  23.306  35.306  1.00  0.00     0.124 S 
ATOM     92  O   UNL A   1      46.284  23.060  35.430  1.00  0.00    -0.237 OA
ATOM     93  O   UNL A   1      48.496  22.236  34.692  1.00  0.00    -0.237 OA
ATOM     94  O   UNL A   1      48.342  23.935  36.469  1.00  0.00    -0.744 OA
ENDBRANCH  87  91
ENDBRANCH  61  84
ENDBRANCH  35  36
ENDBRANCH  27  30
ENDBRANCH  25  26
ENDBRANCH  24  25
ENDBRANCH   1  24
TORSDOF 18
ENDMDL
MODEL 2
REMARK VINA RESULT:      -9.8      4.585     11.794
REMARK SMILES C=CCc1cccc(-c2ccc([C@@H](C)C(=O)NCCCCNC(=O)c3ccc(-c4c5nc(c(-c6cc(S(=O)(=O)[O-])ccc6F)c6ccc([nH]6)c(-c6cc(S(=O)(=O)[O-])ccc6F)c6nc(c(-c7cc(S(=O)(=O)[O-])ccc7F)c7ccc4[nH]7)C=C6)C=C5)cc3)cc2)c1
REMARK SMILES IDX 19 1 18 2 17 3 15 4 16 5 13 7 14 8 12 9 9 10 10 11 89 12
REMARK SMILES IDX 11 13 88 14 8 15 4 16 5 17 90 18 6 19 7 20 3 21 2 22 1 23
REMARK SMILES IDX 20 24 21 25 22 26 23 27 24 29 25 30 26 31 87 32 27 33 86 34
REMARK SMILES IDX 28 35 29 36 30 37 80 38 31 39 85 40 79 41 81 42 32 43 84 44
REMARK SMILES IDX 78 45 77 46 33 48 65 49 45 50 64 51 46 52 49 53 63 54 82 55
REMARK SMILES IDX 47 56 48 57 62 59 83 60 50 61 34 62 35 63 43 64 36 65 42 66
REMARK SMILES IDX 44 67 41 68 37 69 38 70 39 71 40 72 66 73 67 74 75 75 68 76
REMARK SMILES IDX 74 77 76 78 73 79 69 80 70 81 71 82 72 83 51 84 52 85 60 86
REMARK SMILES IDX 53 87 59 88 61 89 58 90 54 91 55 92 56 93 57 94
REMARK H PARENT 17 6 22 28 81 47 49 58
REMARK Flexibility Score: inf
ROOT
ATOM      1  C   UNL A   1      43.005  19.052  25.353  1.00  0.00     0.023 C 
ENDROOT
BRANCH   1   2
ATOM      2  C   UNL A   1      44.263  18.683  26.138  1.00  0.00     0.116 C 
BRANCH   2   3
ATOM      3  N   UNL A   1      45.457  19.282  25.577  1.00  0.00    -0.356 N 
ATOM      4  C   UNL A   1      45.701  20.539  25.117  1.00  0.00     0.227 C 
ATOM      5  O   UNL A   1      46.819  20.743  24.626  1.00  0.00    -0.274 OA
ATOM      6  H   UNL A   1      46.226  18.670  25.517  1.00  0.00     0.163 HD
BRANCH   4   7
ATOM      7  C   UNL A   1      44.681  21.686  25.188  1.00  0.00     0.105 C 
ATOM      8  C   UNL A   1      44.698  22.615  23.974  1.00  0.00     0.023 C 
BRANCH   7   9
ATOM      9  C   UNL A   1      44.622  22.355  26.551  1.00  0.00    -0.036 A 
ATOM     10  C   UNL A   1      44.507  23.840  28.997  1.00  0.00    -0.018 A 
ATOM     11  C   UNL A   1      43.482  22.957  28.617  1.00  0.00     0.009 A 
ATOM     12  C   UNL A   1      45.616  23.919  28.139  1.00  0.00     0.009 A 
ATOM     13  C   UNL A   1      43.552  22.204  27.437  1.00  0.00     0.005 A 
ATOM     14  C   UNL A   1      45.665  23.210  26.933  1.00  0.00     0.005 A 
BRANCH  10  15
ATOM     15  C   UNL A   1      44.412  24.665  30.227  1.00  0.00    -0.018 A 
ATOM     16  C   UNL A   1      43.958  26.825  31.325  1.00  0.00    -0.044 A 
ATOM     17  C   UNL A   1      44.206  26.246  32.571  1.00  0.00     0.004 A 
ATOM     18  C   UNL A   1      44.040  26.024  30.172  1.00  0.00     0.012 A 
ATOM     19  C   UNL A   1      44.562  24.902  32.659  1.00  0.00     0.001 A 
ATOM     20  C   UNL A   1      44.675  24.128  31.500  1.00  0.00     0.009 A 
BRANCH  16  21
ATOM     21  C   UNL A   1      43.589  28.286  31.217  1.00  0.00     0.062 C 
BRANCH  21  22
ATOM     22  C   UNL A   1      44.789  29.185  31.138  1.00  0.00    -0.030 C 
ATOM     23  C   UNL A   1      46.056  28.752  31.105  1.00  0.00     0.004 C 
ENDBRANCH  21  22
ENDBRANCH  16  21
ENDBRANCH  10  15
ENDBRANCH   7   9
ENDBRANCH   4   7
ENDBRANCH   2   3
ENDBRANCH   1   2
BRANCH   1  24
ATOM     24  C   UNL A   1      41.737  19.202  26.193  1.00  0.00     0.023 C 
BRANCH  24  25
ATOM     25  C   UNL A   1      41.076  20.576  26.143  1.00  0.00     0.116 C 
BRANCH  25  26
ATOM     26  N   UNL A   1      39.645  20.536  25.879  1.00  0.00    -0.352 N 
ATOM     27  C   UNL A   1      38.720  21.547  26.034  1.00  0.00     0.251 C 
ATOM     28  H   UNL A   1      39.293  19.679  25.548  1.00  0.00     0.163 HD
ATOM     29  O   UNL A   1      37.533  21.330  25.842  1.00  0.00    -0.269 OA
BRANCH  27  30
ATOM     30  C   UNL A   1      39.183  22.879  26.487  1.00  0.00     0.039 A 
ATOM     31  C   UNL A   1      40.001  22.960  27.615  1.00  0.00     0.014 A 
ATOM     32  C   UNL A   1      38.861  24.030  25.764  1.00  0.00     0.014 A 
ATOM     33  C   UNL A   1      40.569  24.187  27.968  1.00  0.00     0.010 A 
ATOM     34  C   UNL A   1      39.483  25.235  26.074  1.00  0.00     0.010 A 
ATOM     35  C   UNL A   1      40.352  25.324  27.174  1.00  0.00    -0.014 A 
BRANCH  35  36
ATOM     36  C   UNL A   1      41.028  26.615  27.465  1.00  0.00     0.031 A 
ATOM     37  C   UNL A   1      42.424  26.860  26.959  1.00  0.00     0.074 A 
ATOM     38  C   UNL A   1      40.421  27.525  28.256  1.00  0.00     0.049 A 
ATOM     39  N   UNL A   1      43.225  27.866  27.196  1.00  0.00    -0.248 NA
ATOM     40  C   UNL A   1      43.007  25.817  26.102  1.00  0.00     0.031 C 
ATOM     41  C   UNL A   1      39.091  27.377  28.850  1.00  0.00     0.029 A 
ATOM     42  N   UNL A   1      40.849  28.747  28.711  1.00  0.00    -0.354 N 
ATOM     43  C   UNL A   1      44.415  27.566  26.540  1.00  0.00     0.074 A 
ATOM     44  C   UNL A   1      44.243  26.262  25.935  1.00  0.00     0.031 C 
ATOM     45  C   UNL A   1      38.808  28.470  29.578  1.00  0.00     0.029 A 
ATOM     46  C   UNL A   1      39.948  29.380  29.538  1.00  0.00     0.049 A 
ATOM     47  H   UNL A   1      41.721  29.137  28.468  1.00  0.00     0.167 HD
ATOM     48  C   UNL A   1      45.538  28.318  26.436  1.00  0.00     0.034 A 
ATOM     49  C   UNL A   1      40.037  30.550  30.200  1.00  0.00     0.034 A 
ATOM     50  C   UNL A   1      45.680  29.632  27.013  1.00  0.00     0.049 A 
ATOM     51  C   UNL A   1      41.290  31.377  30.049  1.00  0.00     0.074 A 
ATOM     52  C   UNL A   1      46.744  30.511  26.902  1.00  0.00     0.029 A 
ATOM     53  N   UNL A   1      44.729  30.257  27.809  1.00  0.00    -0.354 N 
ATOM     54  N   UNL A   1      42.382  31.104  29.370  1.00  0.00    -0.248 NA
ATOM     55  C   UNL A   1      41.320  32.672  30.741  1.00  0.00     0.031 C 
ATOM     56  C   UNL A   1      46.460  31.642  27.675  1.00  0.00     0.029 A 
ATOM     57  C   UNL A   1      45.192  31.498  28.216  1.00  0.00     0.049 A 
ATOM     58  H   UNL A   1      43.855  29.874  28.050  1.00  0.00     0.167 HD
ATOM     59  C   UNL A   1      43.210  32.212  29.528  1.00  0.00     0.074 A 
ATOM     60  C   UNL A   1      42.489  33.159  30.351  1.00  0.00     0.031 C 
ATOM     61  C   UNL A   1      44.456  32.430  29.035  1.00  0.00     0.034 A 
BRANCH  48  62
ATOM     62  C   UNL A   1      46.706  27.728  25.687  1.00  0.00     0.023 A 
ATOM     63  C   UNL A   1      46.980  28.075  24.353  1.00  0.00     0.031 A 
ATOM     64  C   UNL A   1      47.556  26.801  26.315  1.00  0.00     0.131 A 
ATOM     65  C   UNL A   1      48.036  27.453  23.670  1.00  0.00     0.055 A 
ATOM     66  C   UNL A   1      48.651  26.241  25.654  1.00  0.00     0.041 A 
ATOM     67  F   UNL A   1      47.332  26.418  27.582  1.00  0.00    -0.206 F 
ATOM     68  C   UNL A   1      48.889  26.557  24.320  1.00  0.00     0.022 A 
BRANCH  65  69
ATOM     69  S   UNL A   1      48.212  27.746  21.890  1.00  0.00     0.124 S 
ATOM     70  O   UNL A   1      48.402  26.388  21.387  1.00  0.00    -0.237 OA
ATOM     71  O   UNL A   1      46.945  28.383  21.547  1.00  0.00    -0.237 OA
ATOM     72  O   UNL A   1      49.388  28.608  21.799  1.00  0.00    -0.744 OA
ENDBRANCH  65  69
ENDBRANCH  48  62
BRANCH  49  73
ATOM     73  C   UNL A   1      38.925  31.019  31.077  1.00  0.00     0.023 A 
ATOM     74  C   UNL A   1      37.875  31.795  30.560  1.00  0.00     0.031 A 
ATOM     75  C   UNL A   1      38.930  30.756  32.458  1.00  0.00     0.131 A 
ATOM     76  C   UNL A   1      36.910  32.334  31.424  1.00  0.00     0.055 A 
ATOM     77  C   UNL A   1      37.935  31.246  33.306  1.00  0.00     0.041 A 
ATOM     78  F   UNL A   1      39.906  30.014  33.005  1.00  0.00    -0.206 F 
ATOM     79  C   UNL A   1      36.926  32.055  32.793  1.00  0.00     0.022 A 
BRANCH  76  80
ATOM     80  S   UNL A   1      35.692  33.495  30.748  1.00  0.00     0.124 S 
ATOM     81  O   UNL A   1      35.606  34.490  31.811  1.00  0.00    -0.237 OA
ATOM     82  O   UNL A   1      36.341  33.928  29.514  1.00  0.00    -0.237 OA
ATOM     83  O   UNL A   1      34.499  32.670  30.566  1.00  0.00    -0.744 OA
ENDBRANCH  76  80
ENDBRANCH  49  73
BRANCH  61  84
ATOM     84  C   UNL A   1      45.084  33.768  29.331  1.00  0.00     0.023 A 
ATOM     85  C   UNL A   1      44.890  34.878  28.492  1.00  0.00     0.031 A 
ATOM     86  C   UNL A   1      45.896  33.928  30.468  1.00  0.00     0.131 A 
ATOM     87  C   UNL A   1      45.544  36.086  28.773  1.00  0.00     0.055 A 
ATOM     88  C   UNL A   1      46.501  35.148  30.772  1.00  0.00     0.041 A 
ATOM     89  F   UNL A   1      46.114  32.899  31.302  1.00  0.00    -0.206 F 
ATOM     90  C   UNL A   1      46.336  36.232  29.915  1.00  0.00     0.022 A 
BRANCH  87  91
ATOM     91  S   UNL A   1      45.413  37.445  27.579  1.00  0.00     0.124 S 
ATOM     92  O   UNL A   1      44.050  37.286  27.084  1.00  0.00    -0.237 OA
ATOM     93  O   UNL A   1      45.655  38.618  28.412  1.00  0.00    -0.237 OA
ATOM     94  O   UNL A   1      46.466  37.150  26.606  1.00  0.00    -0.744 OA
ENDBRANCH  87  91
ENDBRANCH  61  84
ENDBRANCH  35  36
ENDBRANCH  27  30
ENDBRANCH  25  26
ENDBRANCH  24  25
ENDBRANCH   1  24
TORSDOF 18
ENDMDL
MODEL 3
REMARK VINA RESULT:      -9.3      5.749     11.956
REMARK SMILES C=CCc1cccc(-c2ccc([C@@H](C)C(=O)NCCCCNC(=O)c3ccc(-c4c5nc(c(-c6cc(S(=O)(=O)[O-])ccc6F)c6ccc([nH]6)c(-c6cc(S(=O)(=O)[O-])ccc6F)c6nc(c(-c7cc(S(=O)(=O)[O-])ccc7F)c7ccc4[nH]7)C=C6)C=C5)cc3)cc2)c1
REMARK SMILES IDX 19 1 18 2 17 3 15 4 16 5 13 7 14 8 12 9 9 10 10 11 89 12
REMARK SMILES IDX 11 13 88 14 8 15 4 16 5 17 90 18 6 19 7 20 3 21 2 22 1 23
REMARK SMILES IDX 20 24 21 25 22 26 23 27 24 29 25 30 26 31 87 32 27 33 86 34
REMARK SMILES IDX 28 35 29 36 30 37 80 38 31 39 85 40 79 41 81 42 32 43 84 44
REMARK SMILES IDX 78 45 77 46 33 48 65 49 45 50 64 51 46 52 49 53 63 54 82 55
REMARK SMILES IDX 47 56 48 57 62 59 83 60 50 61 34 62 35 63 43 64 36 65 42 66
REMARK SMILES IDX 44 67 41 68 37 69 38 70 39 71 40 72 66 73 67 74 75 75 68 76
REMARK SMILES IDX 74 77 76 78 73 79 69 80 70 81 71 82 72 83 51 84 52 85 60 86
REMARK SMILES IDX 53 87 59 88 61 89 58 90 54 91 55 92 56 93 57 94
REMARK H PARENT 17 6 22 28 81 47 49 58
REMARK Flexibility Score: inf
ROOT
ATOM      1  C   UNL A   1      35.355  24.079  24.207  1.00  0.00     0.023 C 
ENDROOT
BRANCH   1   2
ATOM      2  C   UNL A   1      34.641  25.048  25.149  1.00  0.00     0.116 C 
BRANCH   2   3
ATOM      3  N   UNL A   1      34.002  26.136  24.436  1.00  0.00    -0.356 N 
ATOM      4  C   UNL A   1      32.688  26.436  24.246  1.00  0.00     0.227 C 
ATOM      5  O   UNL A   1      32.441  27.411  23.525  1.00  0.00    -0.274 OA
ATOM      6  H   UNL A   1      34.628  26.768  24.016  1.00  0.00     0.163 HD
BRANCH   4   7
ATOM      7  C   UNL A   1      31.532  25.644  24.877  1.00  0.00     0.105 C 
ATOM      8  C   UNL A   1      31.167  26.089  26.294  1.00  0.00     0.023 C 
BRANCH   7   9
ATOM      9  C   UNL A   1      31.632  24.146  24.642  1.00  0.00    -0.036 A 
ATOM     10  C   UNL A   1      32.052  21.367  24.095  1.00  0.00    -0.018 A 
ATOM     11  C   UNL A   1      31.911  21.850  25.406  1.00  0.00     0.009 A 
ATOM     12  C   UNL A   1      31.925  22.309  23.062  1.00  0.00     0.009 A 
ATOM     13  C   UNL A   1      31.672  23.206  25.675  1.00  0.00     0.005 A 
ATOM     14  C   UNL A   1      31.740  23.672  23.328  1.00  0.00     0.005 A 
BRANCH  10  15
ATOM     15  C   UNL A   1      32.343  19.939  23.816  1.00  0.00    -0.018 A 
ATOM     16  C   UNL A   1      32.957  17.686  24.608  1.00  0.00    -0.044 A 
ATOM     17  C   UNL A   1      32.881  17.204  23.300  1.00  0.00     0.004 A 
ATOM     18  C   UNL A   1      32.664  19.039  24.854  1.00  0.00     0.012 A 
ATOM     19  C   UNL A   1      32.553  18.064  22.256  1.00  0.00     0.001 A 
ATOM     20  C   UNL A   1      32.301  19.416  22.512  1.00  0.00     0.009 A 
BRANCH  16  21
ATOM     21  C   UNL A   1      33.329  16.764  25.746  1.00  0.00     0.062 C 
BRANCH  21  22
ATOM     22  C   UNL A   1      34.271  15.674  25.326  1.00  0.00    -0.030 C 
ATOM     23  C   UNL A   1      35.606  15.776  25.357  1.00  0.00     0.004 C 
ENDBRANCH  21  22
ENDBRANCH  16  21
ENDBRANCH  10  15
ENDBRANCH   7   9
ENDBRANCH   4   7
ENDBRANCH   2   3
ENDBRANCH   1   2
BRANCH   1  24
ATOM     24  C   UNL A   1      35.818  22.773  24.851  1.00  0.00     0.023 C 
BRANCH  24  25
ATOM     25  C   UNL A   1      36.678  22.927  26.102  1.00  0.00     0.116 C 
BRANCH  25  26
ATOM     26  N   UNL A   1      37.919  22.166  26.066  1.00  0.00    -0.352 N 
ATOM     27  C   UNL A   1      39.198  22.606  26.334  1.00  0.00     0.251 C 
ATOM     28  H   UNL A   1      37.834  21.217  25.819  1.00  0.00     0.163 HD
ATOM     29  O   UNL A   1      40.151  21.856  26.182  1.00  0.00    -0.269 OA
BRANCH  27  30
ATOM     30  C   UNL A   1      39.399  24.011  26.754  1.00  0.00     0.039 A 
ATOM     31  C   UNL A   1      39.095  24.373  28.068  1.00  0.00     0.014 A 
ATOM     32  C   UNL A   1      39.945  24.948  25.873  1.00  0.00     0.014 A 
ATOM     33  C   UNL A   1      39.419  25.653  28.524  1.00  0.00     0.010 A 
ATOM     34  C   UNL A   1      40.333  26.197  26.348  1.00  0.00     0.010 A 
ATOM     35  C   UNL A   1      40.083  26.560  27.681  1.00  0.00    -0.014 A 
BRANCH  35  36
ATOM     36  C   UNL A   1      40.535  27.888  28.172  1.00  0.00     0.031 A 
ATOM     37  C   UNL A   1      42.006  28.174  28.310  1.00  0.00     0.074 A 
ATOM     38  C   UNL A   1      39.623  28.797  28.576  1.00  0.00     0.049 A 
ATOM     39  N   UNL A   1      42.600  29.221  28.820  1.00  0.00    -0.248 NA
ATOM     40  C   UNL A   1      42.927  27.128  27.843  1.00  0.00     0.031 C 
ATOM     41  C   UNL A   1      38.171  28.613  28.542  1.00  0.00     0.029 A 
ATOM     42  N   UNL A   1      39.782  30.052  29.110  1.00  0.00    -0.354 N 
ATOM     43  C   UNL A   1      43.963  28.950  28.760  1.00  0.00     0.074 A 
ATOM     44  C   UNL A   1      44.102  27.620  28.206  1.00  0.00     0.031 C 
ATOM     45  C   UNL A   1      37.574  29.717  29.019  1.00  0.00     0.029 A 
ATOM     46  C   UNL A   1      38.596  30.673  29.432  1.00  0.00     0.049 A 
ATOM     47  H   UNL A   1      40.663  30.470  29.250  1.00  0.00     0.167 HD
ATOM     48  C   UNL A   1      45.002  29.746  29.116  1.00  0.00     0.034 A 
ATOM     49  C   UNL A   1      38.360  31.869  30.008  1.00  0.00     0.034 A 
ATOM     50  C   UNL A   1      44.848  31.083  29.631  1.00  0.00     0.049 A 
ATOM     51  C   UNL A   1      39.535  32.743  30.374  1.00  0.00     0.074 A 
ATOM     52  C   UNL A   1      45.833  32.003  29.948  1.00  0.00     0.029 A 
ATOM     53  N   UNL A   1      43.631  31.694  29.905  1.00  0.00    -0.354 N 
ATOM     54  N   UNL A   1      40.820  32.493  30.249  1.00  0.00    -0.248 NA
ATOM     55  C   UNL A   1      39.231  34.061  30.946  1.00  0.00     0.031 C 
ATOM     56  C   UNL A   1      45.215  33.146  30.465  1.00  0.00     0.029 A 
ATOM     57  C   UNL A   1      43.842  32.967  30.409  1.00  0.00     0.049 A 
ATOM     58  H   UNL A   1      42.748  31.283  29.762  1.00  0.00     0.167 HD
ATOM     59  C   UNL A   1      41.471  33.640  30.696  1.00  0.00     0.074 A 
ATOM     60  C   UNL A   1      40.441  34.584  31.076  1.00  0.00     0.031 C 
ATOM     61  C   UNL A   1      42.801  33.895  30.781  1.00  0.00     0.034 A 
BRANCH  48  62
ATOM     62  C   UNL A   1      46.393  29.180  28.977  1.00  0.00     0.023 A 
ATOM     63  C   UNL A   1      47.021  29.061  27.725  1.00  0.00     0.031 A 
ATOM     64  C   UNL A   1      47.100  28.750  30.113  1.00  0.00     0.131 A 
ATOM     65  C   UNL A   1      48.289  28.468  27.632  1.00  0.00     0.055 A 
ATOM     66  C   UNL A   1      48.393  28.229  30.023  1.00  0.00     0.041 A 
ATOM     67  F   UNL A   1      46.543  28.823  31.332  1.00  0.00    -0.206 F 
ATOM     68  C   UNL A   1      48.990  28.075  28.775  1.00  0.00     0.022 A 
BRANCH  65  69
ATOM     69  S   UNL A   1      48.964  28.116  25.987  1.00  0.00     0.124 S 
ATOM     70  O   UNL A   1      50.150  28.968  25.968  1.00  0.00    -0.237 OA
ATOM     71  O   UNL A   1      49.211  26.680  26.046  1.00  0.00    -0.237 OA
ATOM     72  O   UNL A   1      47.894  28.527  25.081  1.00  0.00    -0.744 OA
ENDBRANCH  65  69
ENDBRANCH  48  62
BRANCH  49  73
ATOM     73  C   UNL A   1      36.967  32.320  30.292  1.00  0.00     0.023 A 
ATOM     74  C   UNL A   1      36.205  32.970  29.309  1.00  0.00     0.031 A 
ATOM     75  C   UNL A   1      36.402  32.167  31.570  1.00  0.00     0.131 A 
ATOM     76  C   UNL A   1      34.947  33.501  29.635  1.00  0.00     0.055 A 
ATOM     77  C   UNL A   1      35.126  32.646  31.875  1.00  0.00     0.041 A 
ATOM     78  F   UNL A   1      37.085  31.547  32.546  1.00  0.00    -0.206 F 
ATOM     79  C   UNL A   1      34.398  33.333  30.909  1.00  0.00     0.022 A 
BRANCH  76  80
ATOM     80  S   UNL A   1      34.084  34.510  28.399  1.00  0.00     0.124 S 
ATOM     81  O   UNL A   1      35.017  34.471  27.279  1.00  0.00    -0.237 OA
ATOM     82  O   UNL A   1      32.838  33.770  28.224  1.00  0.00    -0.237 OA
ATOM     83  O   UNL A   1      33.949  35.809  29.056  1.00  0.00    -0.744 OA
ENDBRANCH  76  80
ENDBRANCH  49  73
BRANCH  61  84
ATOM     84  C   UNL A   1      43.206  35.268  31.253  1.00  0.00     0.023 A 
ATOM     85  C   UNL A   1      43.257  35.594  32.619  1.00  0.00     0.031 A 
ATOM     86  C   UNL A   1      43.537  36.264  30.319  1.00  0.00     0.131 A 
ATOM     87  C   UNL A   1      43.579  36.902  33.011  1.00  0.00     0.055 A 
ATOM     88  C   UNL A   1      43.910  37.549  30.717  1.00  0.00     0.041 A 
ATOM     89  F   UNL A   1      43.505  36.004  29.002  1.00  0.00    -0.206 F 
ATOM     90  C   UNL A   1      43.920  37.876  32.069  1.00  0.00     0.022 A 
BRANCH  87  91
ATOM     91  S   UNL A   1      43.465  37.336  34.768  1.00  0.00     0.124 S 
ATOM     92  O   UNL A   1      44.386  36.383  35.378  1.00  0.00    -0.237 OA
ATOM     93  O   UNL A   1      43.896  38.730  34.774  1.00  0.00    -0.237 OA
ATOM     94  O   UNL A   1      42.053  37.124  35.084  1.00  0.00    -0.744 OA
ENDBRANCH  87  91
ENDBRANCH  61  84
ENDBRANCH  35  36
ENDBRANCH  27  30
ENDBRANCH  25  26
ENDBRANCH  24  25
ENDBRANCH   1  24
TORSDOF 18
ENDMDL
