MODEL 1
REMARK VINA RESULT:     -11.6      0.000      0.000
REMARK SMILES CCC(C)(C)NC(=O)[C@@H](C)Oc1ccc(C)nc1C(=O)NCCCCNC(=O)c1ccc(-c2c3nc(c(-c4cc(S(=O)(=O)[O-])ccc4F)c4ccc([nH]4)c(-c4cc(S(=O)(=O)[O-])ccc4F)c4nc(c(-c5cc(S(=O)(=O)[O-])ccc5F)c5ccc2[nH]5)C=C4)C=C3)cc1
REMARK SMILES IDX 22 1 21 2 19 3 20 4 18 6 12 7 13 8 14 9 17 10 15 11 16 12
REMARK SMILES IDX 11 13 9 14 10 15 7 16 6 17 8 19 3 20 4 21 5 22 2 23 1 24
REMARK SMILES IDX 23 25 24 26 25 27 26 28 27 29 28 31 29 32 30 33 91 34 31 35
REMARK SMILES IDX 90 36 32 37 33 38 34 39 84 40 35 41 89 42 83 43 85 44 36 45
REMARK SMILES IDX 88 46 82 47 81 48 37 50 69 51 49 52 68 53 50 54 53 55 67 56
REMARK SMILES IDX 86 57 51 58 52 59 66 61 87 62 54 63 38 64 39 65 47 66 40 67
REMARK SMILES IDX 46 68 48 69 45 70 41 71 42 72 43 73 44 74 70 75 71 76 79 77
REMARK SMILES IDX 72 78 78 79 80 80 77 81 73 82 74 83 75 84 76 85 55 86 56 87
REMARK SMILES IDX 64 88 57 89 63 90 65 91 62 92 58 93 59 94 60 95 61 96
REMARK H PARENT 21 5 6 18 26 30 85 49 53 60
REMARK Flexibility Score: inf
ROOT
ATOM      1  C   UNL A   1      32.717  29.915  25.818  1.00  0.00     0.116 C 
ENDROOT
BRANCH   1   2
ATOM      2  N   UNL A   1      33.139  29.539  24.493  1.00  0.00    -0.351 N 
ATOM      3  C   UNL A   1      33.471  28.343  23.908  1.00  0.00     0.273 C 
ATOM      4  O   UNL A   1      34.043  28.465  22.815  1.00  0.00    -0.267 OA
ATOM      5  H   UNL A   1      33.201  30.302  23.875  1.00  0.00     0.163 HD
BRANCH   3   6
ATOM      6  C   UNL A   1      33.119  26.952  24.395  1.00  0.00     0.170 A 
ATOM      7  C   UNL A   1      31.875  26.395  24.718  1.00  0.00     0.151 A 
ATOM      8  C   UNL A   1      31.828  24.998  24.826  1.00  0.00     0.051 A 
ATOM      9  C   UNL A   1      33.002  24.257  24.958  1.00  0.00     0.027 A 
ATOM     10  N   UNL A   1      34.268  26.219  24.559  1.00  0.00    -0.244 NA
ATOM     11  C   UNL A   1      34.202  24.933  24.940  1.00  0.00     0.038 A 
ATOM     12  C   UNL A   1      35.478  24.302  25.403  1.00  0.00     0.067 C 
BRANCH   7  13
ATOM     13  O   UNL A   1      30.837  27.195  25.118  1.00  0.00    -0.478 OA
BRANCH  13  14
ATOM     14  C   UNL A   1      29.796  27.537  24.206  1.00  0.00     0.259 C 
ATOM     15  C   UNL A   1      28.941  26.294  23.883  1.00  0.00     0.064 C 
BRANCH  14  16
ATOM     16  C   UNL A   1      29.982  28.220  22.823  1.00  0.00     0.261 C 
ATOM     17  N   UNL A   1      29.724  29.545  22.627  1.00  0.00    -0.348 N 
ATOM     18  H   UNL A   1      30.530  30.109  22.575  1.00  0.00     0.164 HD
ATOM     19  O   UNL A   1      30.592  27.632  21.921  1.00  0.00    -0.271 OA
BRANCH  17  20
ATOM     20  C   UNL A   1      28.453  30.289  22.477  1.00  0.00     0.034 C 
ATOM     21  C   UNL A   1      28.477  31.470  23.478  1.00  0.00     0.034 C 
ATOM     22  C   UNL A   1      27.337  29.323  22.933  1.00  0.00     0.034 C 
BRANCH  20  23
ATOM     23  C   UNL A   1      28.058  30.849  21.089  1.00  0.00     0.024 C 
ATOM     24  C   UNL A   1      28.082  32.349  20.860  1.00  0.00     0.006 C 
ENDBRANCH  20  23
ENDBRANCH  17  20
ENDBRANCH  14  16
ENDBRANCH  13  14
ENDBRANCH   7  13
ENDBRANCH   3   6
ENDBRANCH   1   2
BRANCH   1  25
ATOM     25  C   UNL A   1      31.325  30.542  25.731  1.00  0.00     0.023 C 
BRANCH  25  26
ATOM     26  C   UNL A   1      31.157  31.897  26.413  1.00  0.00     0.023 C 
BRANCH  26  27
ATOM     27  C   UNL A   1      32.472  32.543  26.826  1.00  0.00     0.116 C 
BRANCH  27  28
ATOM     28  N   UNL A   1      32.331  33.833  27.493  1.00  0.00    -0.352 N 
ATOM     29  C   UNL A   1      33.180  34.398  28.424  1.00  0.00     0.251 C 
ATOM     30  H   UNL A   1      31.537  34.362  27.251  1.00  0.00     0.163 HD
ATOM     31  O   UNL A   1      32.907  35.461  28.953  1.00  0.00    -0.269 OA
BRANCH  29  32
ATOM     32  C   UNL A   1      34.387  33.633  28.809  1.00  0.00     0.039 A 
ATOM     33  C   UNL A   1      35.629  34.269  28.781  1.00  0.00     0.014 A 
ATOM     34  C   UNL A   1      34.259  32.347  29.331  1.00  0.00     0.014 A 
ATOM     35  C   UNL A   1      36.729  33.640  29.367  1.00  0.00     0.010 A 
ATOM     36  C   UNL A   1      35.321  31.782  30.021  1.00  0.00     0.010 A 
ATOM     37  C   UNL A   1      36.572  32.417  30.039  1.00  0.00    -0.014 A 
BRANCH  37  38
ATOM     38  C   UNL A   1      37.707  31.769  30.746  1.00  0.00     0.031 A 
ATOM     39  C   UNL A   1      38.543  30.743  30.029  1.00  0.00     0.074 A 
ATOM     40  C   UNL A   1      37.943  32.053  32.042  1.00  0.00     0.049 A 
ATOM     41  N   UNL A   1      39.548  30.033  30.474  1.00  0.00    -0.248 NA
ATOM     42  C   UNL A   1      38.163  30.440  28.641  1.00  0.00     0.031 C 
ATOM     43  C   UNL A   1      37.158  32.975  32.865  1.00  0.00     0.029 A 
ATOM     44  N   UNL A   1      38.917  31.599  32.894  1.00  0.00    -0.354 N 
ATOM     45  C   UNL A   1      39.906  29.192  29.425  1.00  0.00     0.074 A 
ATOM     46  C   UNL A   1      38.940  29.406  28.369  1.00  0.00     0.031 C 
ATOM     47  C   UNL A   1      37.719  33.066  34.081  1.00  0.00     0.029 A 
ATOM     48  C   UNL A   1      38.875  32.179  34.140  1.00  0.00     0.049 A 
ATOM     49  H   UNL A   1      39.583  30.921  32.637  1.00  0.00     0.167 HD
ATOM     50  C   UNL A   1      40.970  28.357  29.327  1.00  0.00     0.034 A 
ATOM     51  C   UNL A   1      39.689  32.022  35.203  1.00  0.00     0.034 A 
ATOM     52  C   UNL A   1      41.930  28.171  30.385  1.00  0.00     0.049 A 
ATOM     53  C   UNL A   1      40.858  31.076  35.086  1.00  0.00     0.074 A 
ATOM     54  C   UNL A   1      43.073  27.392  30.391  1.00  0.00     0.029 A 
ATOM     55  N   UNL A   1      41.854  28.772  31.636  1.00  0.00    -0.354 N 
ATOM     56  N   UNL A   1      41.224  30.334  34.066  1.00  0.00    -0.248 NA
ATOM     57  C   UNL A   1      41.727  30.958  36.262  1.00  0.00     0.031 C 
ATOM     58  C   UNL A   1      43.653  27.475  31.663  1.00  0.00     0.029 A 
ATOM     59  C   UNL A   1      42.914  28.363  32.429  1.00  0.00     0.049 A 
ATOM     60  H   UNL A   1      41.149  29.399  31.918  1.00  0.00     0.167 HD
ATOM     61  C   UNL A   1      42.390  29.688  34.467  1.00  0.00     0.074 A 
ATOM     62  C   UNL A   1      42.667  30.135  35.818  1.00  0.00     0.031 C 
ATOM     63  C   UNL A   1      43.167  28.812  33.779  1.00  0.00     0.034 A 
BRANCH  50  64
ATOM     64  C   UNL A   1      41.116  27.587  28.032  1.00  0.00     0.023 A 
ATOM     65  C   UNL A   1      40.788  26.220  27.952  1.00  0.00     0.031 A 
ATOM     66  C   UNL A   1      41.673  28.192  26.893  1.00  0.00     0.131 A 
ATOM     67  C   UNL A   1      41.136  25.480  26.814  1.00  0.00     0.055 A 
ATOM     68  C   UNL A   1      41.918  27.471  25.722  1.00  0.00     0.041 A 
ATOM     69  F   UNL A   1      42.025  29.487  26.907  1.00  0.00    -0.206 F 
ATOM     70  C   UNL A   1      41.674  26.100  25.686  1.00  0.00     0.022 A 
BRANCH  67  71
ATOM     71  S   UNL A   1      41.073  23.668  26.916  1.00  0.00     0.124 S 
ATOM     72  O   UNL A   1      39.658  23.408  26.658  1.00  0.00    -0.237 OA
ATOM     73  O   UNL A   1      42.000  23.261  25.866  1.00  0.00    -0.237 OA
ATOM     74  O   UNL A   1      41.511  23.386  28.281  1.00  0.00    -0.744 OA
ENDBRANCH  67  71
ENDBRANCH  50  64
BRANCH  51  75
ATOM     75  C   UNL A   1      39.461  32.805  36.450  1.00  0.00     0.023 A 
ATOM     76  C   UNL A   1      38.620  32.311  37.460  1.00  0.00     0.031 A 
ATOM     77  C   UNL A   1      40.059  34.061  36.644  1.00  0.00     0.131 A 
ATOM     78  C   UNL A   1      38.371  33.084  38.604  1.00  0.00     0.055 A 
ATOM     79  C   UNL A   1      39.843  34.807  37.804  1.00  0.00     0.041 A 
ATOM     80  F   UNL A   1      40.879  34.574  35.713  1.00  0.00    -0.206 F 
ATOM     81  C   UNL A   1      38.986  34.324  38.788  1.00  0.00     0.022 A 
BRANCH  78  82
ATOM     82  S   UNL A   1      37.181  32.467  39.827  1.00  0.00     0.124 S 
ATOM     83  O   UNL A   1      37.084  33.598  40.743  1.00  0.00    -0.237 OA
ATOM     84  O   UNL A   1      36.007  32.205  39.004  1.00  0.00    -0.237 OA
ATOM     85  O   UNL A   1      37.837  31.279  40.370  1.00  0.00    -0.744 OA
ENDBRANCH  78  82
ENDBRANCH  51  75
BRANCH  63  86
ATOM     86  C   UNL A   1      44.417  28.321  34.467  1.00  0.00     0.023 A 
ATOM     87  C   UNL A   1      44.420  27.157  35.254  1.00  0.00     0.031 A 
ATOM     88  C   UNL A   1      45.620  29.039  34.338  1.00  0.00     0.131 A 
ATOM     89  C   UNL A   1      45.591  26.774  35.926  1.00  0.00     0.055 A 
ATOM     90  C   UNL A   1      46.794  28.619  34.960  1.00  0.00     0.041 A 
ATOM     91  F   UNL A   1      45.671  30.158  33.599  1.00  0.00    -0.206 F 
ATOM     92  C   UNL A   1      46.782  27.487  35.771  1.00  0.00     0.022 A 
BRANCH  89  93
ATOM     93  S   UNL A   1      45.514  25.377  37.080  1.00  0.00     0.124 S 
ATOM     94  O   UNL A   1      46.348  25.848  38.182  1.00  0.00    -0.237 OA
ATOM     95  O   UNL A   1      44.085  25.279  37.360  1.00  0.00    -0.237 OA
ATOM     96  O   UNL A   1      46.073  24.266  36.313  1.00  0.00    -0.744 OA
ENDBRANCH  89  93
ENDBRANCH  63  86
ENDBRANCH  37  38
ENDBRANCH  29  32
ENDBRANCH  27  28
ENDBRANCH  26  27
ENDBRANCH  25  26
ENDBRANCH   1  25
TORSDOF 19
ENDMDL
MODEL 2
REMARK VINA RESULT:     -11.4      1.232      7.550
REMARK SMILES CCC(C)(C)NC(=O)[C@@H](C)Oc1ccc(C)nc1C(=O)NCCCCNC(=O)c1ccc(-c2c3nc(c(-c4cc(S(=O)(=O)[O-])ccc4F)c4ccc([nH]4)c(-c4cc(S(=O)(=O)[O-])ccc4F)c4nc(c(-c5cc(S(=O)(=O)[O-])ccc5F)c5ccc2[nH]5)C=C4)C=C3)cc1
REMARK SMILES IDX 22 1 21 2 19 3 20 4 18 6 12 7 13 8 14 9 17 10 15 11 16 12
REMARK SMILES IDX 11 13 9 14 10 15 7 16 6 17 8 19 3 20 4 21 5 22 2 23 1 24
REMARK SMILES IDX 23 25 24 26 25 27 26 28 27 29 28 31 29 32 30 33 91 34 31 35
REMARK SMILES IDX 90 36 32 37 33 38 34 39 84 40 35 41 89 42 83 43 85 44 36 45
REMARK SMILES IDX 88 46 82 47 81 48 37 50 69 51 49 52 68 53 50 54 53 55 67 56
REMARK SMILES IDX 86 57 51 58 52 59 66 61 87 62 54 63 38 64 39 65 47 66 40 67
REMARK SMILES IDX 46 68 48 69 45 70 41 71 42 72 43 73 44 74 70 75 71 76 79 77
REMARK SMILES IDX 72 78 78 79 80 80 77 81 73 82 74 83 75 84 76 85 55 86 56 87
REMARK SMILES IDX 64 88 57 89 63 90 65 91 62 92 58 93 59 94 60 95 61 96
REMARK H PARENT 21 5 6 18 26 30 85 49 53 60
REMARK Flexibility Score: inf
ROOT
ATOM      1  C   UNL A   1      32.816  29.844  25.971  1.00  0.00     0.116 C 
ENDROOT
BRANCH   1   2
ATOM      2  N   UNL A   1      33.256  29.520  24.637  1.00  0.00    -0.351 N 
ATOM      3  C   UNL A   1      33.573  28.346  24.004  1.00  0.00     0.273 C 
ATOM      4  O   UNL A   1      34.169  28.504  22.929  1.00  0.00    -0.267 OA
ATOM      5  H   UNL A   1      33.348  30.310  24.057  1.00  0.00     0.163 HD
BRANCH   3   6
ATOM      6  C   UNL A   1      33.178  26.942  24.418  1.00  0.00     0.170 A 
ATOM      7  C   UNL A   1      31.916  26.401  24.691  1.00  0.00     0.151 A 
ATOM      8  C   UNL A   1      31.833  25.002  24.733  1.00  0.00     0.051 A 
ATOM      9  C   UNL A   1      32.987  24.228  24.851  1.00  0.00     0.027 A 
ATOM     10  N   UNL A   1      34.306  26.174  24.568  1.00  0.00    -0.244 NA
ATOM     11  C   UNL A   1      34.202  24.874  24.887  1.00  0.00     0.038 A 
ATOM     12  C   UNL A   1      35.455  24.191  25.342  1.00  0.00     0.067 C 
BRANCH   7  13
ATOM     13  O   UNL A   1      30.889  27.207  25.110  1.00  0.00    -0.478 OA
BRANCH  13  14
ATOM     14  C   UNL A   1      29.838  27.561  24.214  1.00  0.00     0.259 C 
ATOM     15  C   UNL A   1      29.041  26.305  23.804  1.00  0.00     0.064 C 
BRANCH  14  16
ATOM     16  C   UNL A   1      30.000  28.340  22.880  1.00  0.00     0.261 C 
ATOM     17  N   UNL A   1      29.687  29.663  22.768  1.00  0.00    -0.348 N 
ATOM     18  H   UNL A   1      30.468  30.263  22.758  1.00  0.00     0.164 HD
ATOM     19  O   UNL A   1      30.638  27.839  21.945  1.00  0.00    -0.271 OA
BRANCH  17  20
ATOM     20  C   UNL A   1      28.385  30.361  22.658  1.00  0.00     0.034 C 
ATOM     21  C   UNL A   1      27.276  29.357  23.059  1.00  0.00     0.034 C 
ATOM     22  C   UNL A   1      28.197  30.678  21.158  1.00  0.00     0.034 C 
BRANCH  20  23
ATOM     23  C   UNL A   1      28.154  31.669  23.453  1.00  0.00     0.024 C 
ATOM     24  C   UNL A   1      28.814  32.951  22.978  1.00  0.00     0.006 C 
ENDBRANCH  20  23
ENDBRANCH  17  20
ENDBRANCH  14  16
ENDBRANCH  13  14
ENDBRANCH   7  13
ENDBRANCH   3   6
ENDBRANCH   1   2
BRANCH   1  25
ATOM     25  C   UNL A   1      31.496  30.609  25.880  1.00  0.00     0.023 C 
BRANCH  25  26
ATOM     26  C   UNL A   1      31.373  31.842  26.771  1.00  0.00     0.023 C 
BRANCH  26  27
ATOM     27  C   UNL A   1      32.636  32.689  26.825  1.00  0.00     0.116 C 
BRANCH  27  28
ATOM     28  N   UNL A   1      32.529  33.888  27.648  1.00  0.00    -0.352 N 
ATOM     29  C   UNL A   1      33.395  34.313  28.636  1.00  0.00     0.251 C 
ATOM     30  H   UNL A   1      31.747  34.462  27.479  1.00  0.00     0.163 HD
ATOM     31  O   UNL A   1      33.150  35.308  29.295  1.00  0.00    -0.269 OA
BRANCH  29  32
ATOM     32  C   UNL A   1      34.586  33.479  28.915  1.00  0.00     0.039 A 
ATOM     33  C   UNL A   1      35.854  34.013  28.686  1.00  0.00     0.014 A 
ATOM     34  C   UNL A   1      34.437  32.238  29.533  1.00  0.00     0.014 A 
ATOM     35  C   UNL A   1      36.975  33.333  29.168  1.00  0.00     0.010 A 
ATOM     36  C   UNL A   1      35.538  31.631  30.118  1.00  0.00     0.010 A 
ATOM     37  C   UNL A   1      36.821  32.166  29.934  1.00  0.00    -0.014 A 
BRANCH  37  38
ATOM     38  C   UNL A   1      37.991  31.472  30.532  1.00  0.00     0.031 A 
ATOM     39  C   UNL A   1      38.415  31.803  31.937  1.00  0.00     0.074 A 
ATOM     40  C   UNL A   1      38.706  30.599  29.795  1.00  0.00     0.049 A 
ATOM     41  N   UNL A   1      39.427  31.345  32.630  1.00  0.00    -0.248 NA
ATOM     42  C   UNL A   1      37.622  32.824  32.639  1.00  0.00     0.031 C 
ATOM     43  C   UNL A   1      38.438  30.250  28.398  1.00  0.00     0.029 A 
ATOM     44  N   UNL A   1      39.802  29.841  30.119  1.00  0.00    -0.354 N 
ATOM     45  C   UNL A   1      39.397  32.034  33.837  1.00  0.00     0.074 A 
ATOM     46  C   UNL A   1      38.338  33.014  33.734  1.00  0.00     0.031 C 
ATOM     47  C   UNL A   1      39.304  29.302  28.007  1.00  0.00     0.029 A 
ATOM     48  C   UNL A   1      40.215  29.005  29.107  1.00  0.00     0.049 A 
ATOM     49  H   UNL A   1      40.251  29.891  30.994  1.00  0.00     0.167 HD
ATOM     50  C   UNL A   1      40.147  31.837  34.951  1.00  0.00     0.034 A 
ATOM     51  C   UNL A   1      41.207  28.094  29.080  1.00  0.00     0.034 A 
ATOM     52  C   UNL A   1      41.186  30.843  35.038  1.00  0.00     0.049 A 
ATOM     53  C   UNL A   1      42.045  27.898  30.319  1.00  0.00     0.074 A 
ATOM     54  C   UNL A   1      41.982  30.514  36.121  1.00  0.00     0.029 A 
ATOM     55  N   UNL A   1      41.580  30.017  33.992  1.00  0.00    -0.354 N 
ATOM     56  N   UNL A   1      41.965  28.511  31.477  1.00  0.00    -0.248 NA
ATOM     57  C   UNL A   1      43.096  26.877  30.246  1.00  0.00     0.031 C 
ATOM     58  C   UNL A   1      42.895  29.535  35.713  1.00  0.00     0.029 A 
ATOM     59  C   UNL A   1      42.622  29.197  34.396  1.00  0.00     0.049 A 
ATOM     60  H   UNL A   1      41.177  30.014  33.094  1.00  0.00     0.167 HD
ATOM     61  C   UNL A   1      42.935  27.922  32.284  1.00  0.00     0.074 A 
ATOM     62  C   UNL A   1      43.579  26.903  31.480  1.00  0.00     0.031 C 
ATOM     63  C   UNL A   1      43.259  28.193  33.575  1.00  0.00     0.034 A 
BRANCH  50  64
ATOM     64  C   UNL A   1      39.858  32.733  36.136  1.00  0.00     0.023 A 
ATOM     65  C   UNL A   1      39.061  32.292  37.209  1.00  0.00     0.031 A 
ATOM     66  C   UNL A   1      40.303  34.066  36.157  1.00  0.00     0.131 A 
ATOM     67  C   UNL A   1      38.629  33.203  38.183  1.00  0.00     0.055 A 
ATOM     68  C   UNL A   1      39.956  34.940  37.190  1.00  0.00     0.041 A 
ATOM     69  F   UNL A   1      41.051  34.555  35.156  1.00  0.00    -0.206 F 
ATOM     70  C   UNL A   1      39.092  34.519  38.197  1.00  0.00     0.022 A 
BRANCH  67  71
ATOM     71  S   UNL A   1      37.288  32.696  39.298  1.00  0.00     0.124 S 
ATOM     72  O   UNL A   1      37.658  31.314  39.594  1.00  0.00    -0.237 OA
ATOM     73  O   UNL A   1      37.418  33.644  40.398  1.00  0.00    -0.237 OA
ATOM     74  O   UNL A   1      36.087  32.848  38.479  1.00  0.00    -0.744 OA
ENDBRANCH  67  71
ENDBRANCH  50  64
BRANCH  51  75
ATOM     75  C   UNL A   1      41.438  27.267  27.862  1.00  0.00     0.023 A 
ATOM     76  C   UNL A   1      41.107  25.902  27.851  1.00  0.00     0.031 A 
ATOM     77  C   UNL A   1      42.008  27.817  26.702  1.00  0.00     0.131 A 
ATOM     78  C   UNL A   1      41.381  25.124  26.717  1.00  0.00     0.055 A 
ATOM     79  C   UNL A   1      42.238  27.049  25.559  1.00  0.00     0.041 A 
ATOM     80  F   UNL A   1      42.333  29.119  26.657  1.00  0.00    -0.206 F 
ATOM     81  C   UNL A   1      41.935  25.691  25.566  1.00  0.00     0.022 A 
BRANCH  78  82
ATOM     82  S   UNL A   1      41.056  23.341  26.787  1.00  0.00     0.124 S 
ATOM     83  O   UNL A   1      39.623  23.290  26.520  1.00  0.00    -0.237 OA
ATOM     84  O   UNL A   1      41.924  22.831  25.732  1.00  0.00    -0.237 OA
ATOM     85  O   UNL A   1      41.451  22.976  28.146  1.00  0.00    -0.744 OA
ENDBRANCH  78  82
ENDBRANCH  51  75
BRANCH  63  86
ATOM     86  C   UNL A   1      44.328  27.335  34.205  1.00  0.00     0.023 A 
ATOM     87  C   UNL A   1      45.679  27.722  34.213  1.00  0.00     0.031 A 
ATOM     88  C   UNL A   1      43.986  26.107  34.800  1.00  0.00     0.131 A 
ATOM     89  C   UNL A   1      46.647  26.862  34.754  1.00  0.00     0.055 A 
ATOM     90  C   UNL A   1      44.945  25.286  35.390  1.00  0.00     0.041 A 
ATOM     91  F   UNL A   1      42.710  25.690  34.819  1.00  0.00    -0.206 F 
ATOM     92  C   UNL A   1      46.287  25.655  35.358  1.00  0.00     0.022 A 
BRANCH  89  93
ATOM     93  S   UNL A   1      48.398  27.302  34.579  1.00  0.00     0.124 S 
ATOM     94  O   UNL A   1      48.676  26.898  33.204  1.00  0.00    -0.237 OA
ATOM     95  O   UNL A   1      48.386  28.740  34.831  1.00  0.00    -0.237 OA
ATOM     96  O   UNL A   1      49.058  26.499  35.606  1.00  0.00    -0.744 OA
ENDBRANCH  89  93
ENDBRANCH  63  86
ENDBRANCH  37  38
ENDBRANCH  29  32
ENDBRANCH  27  28
ENDBRANCH  26  27
ENDBRANCH  25  26
ENDBRANCH   1  25
TORSDOF 19
ENDMDL
MODEL 3
REMARK VINA RESULT:     -11.1      1.457      7.558
REMARK SMILES CCC(C)(C)NC(=O)[C@@H](C)Oc1ccc(C)nc1C(=O)NCCCCNC(=O)c1ccc(-c2c3nc(c(-c4cc(S(=O)(=O)[O-])ccc4F)c4ccc([nH]4)c(-c4cc(S(=O)(=O)[O-])ccc4F)c4nc(c(-c5cc(S(=O)(=O)[O-])ccc5F)c5ccc2[nH]5)C=C4)C=C3)cc1
REMARK SMILES IDX 22 1 21 2 19 3 20 4 18 6 12 7 13 8 14 9 17 10 15 11 16 12
REMARK SMILES IDX 11 13 9 14 10 15 7 16 6 17 8 19 3 20 4 21 5 22 2 23 1 24
REMARK SMILES IDX 23 25 24 26 25 27 26 28 27 29 28 31 29 32 30 33 91 34 31 35
REMARK SMILES IDX 90 36 32 37 33 38 34 39 84 40 35 41 89 42 83 43 85 44 36 45
REMARK SMILES IDX 88 46 82 47 81 48 37 50 69 51 49 52 68 53 50 54 53 55 67 56
REMARK SMILES IDX 86 57 51 58 52 59 66 61 87 62 54 63 38 64 39 65 47 66 40 67
REMARK SMILES IDX 46 68 48 69 45 70 41 71 42 72 43 73 44 74 70 75 71 76 79 77
REMARK SMILES IDX 72 78 78 79 80 80 77 81 73 82 74 83 75 84 76 85 55 86 56 87
REMARK SMILES IDX 64 88 57 89 63 90 65 91 62 92 58 93 59 94 60 95 61 96
REMARK H PARENT 21 5 6 18 26 30 85 49 53 60
REMARK Flexibility Score: inf
ROOT
ATOM      1  C   UNL A   1      33.197  29.536  26.163  1.00  0.00     0.116 C 
ENDROOT
BRANCH   1   2
ATOM      2  N   UNL A   1      33.387  29.353  24.747  1.00  0.00    -0.351 N 
ATOM      3  C   UNL A   1      33.556  28.250  23.949  1.00  0.00     0.273 C 
ATOM      4  O   UNL A   1      33.957  28.518  22.807  1.00  0.00    -0.267 OA
ATOM      5  H   UNL A   1      33.395  30.199  24.244  1.00  0.00     0.163 HD
BRANCH   3   6
ATOM      6  C   UNL A   1      33.206  26.814  24.279  1.00  0.00     0.170 A 
ATOM      7  C   UNL A   1      31.964  26.224  24.547  1.00  0.00     0.151 A 
ATOM      8  C   UNL A   1      31.915  24.824  24.498  1.00  0.00     0.051 A 
ATOM      9  C   UNL A   1      33.089  24.073  24.536  1.00  0.00     0.027 A 
ATOM     10  N   UNL A   1      34.354  26.065  24.349  1.00  0.00    -0.244 NA
ATOM     11  C   UNL A   1      34.290  24.745  24.584  1.00  0.00     0.038 A 
ATOM     12  C   UNL A   1      35.569  24.065  24.962  1.00  0.00     0.067 C 
BRANCH   7  13
ATOM     13  O   UNL A   1      30.930  26.975  25.044  1.00  0.00    -0.478 OA
BRANCH  13  14
ATOM     14  C   UNL A   1      29.926  27.488  24.171  1.00  0.00     0.259 C 
ATOM     15  C   UNL A   1      28.865  26.404  23.885  1.00  0.00     0.064 C 
BRANCH  14  16
ATOM     16  C   UNL A   1      30.169  28.134  22.779  1.00  0.00     0.261 C 
ATOM     17  N   UNL A   1      30.110  29.482  22.584  1.00  0.00    -0.348 N 
ATOM     18  H   UNL A   1      30.991  29.917  22.504  1.00  0.00     0.164 HD
ATOM     19  O   UNL A   1      30.653  27.460  21.861  1.00  0.00    -0.271 OA
BRANCH  17  20
ATOM     20  C   UNL A   1      28.963  30.412  22.471  1.00  0.00     0.034 C 
ATOM     21  C   UNL A   1      28.947  31.298  23.741  1.00  0.00     0.034 C 
ATOM     22  C   UNL A   1      27.695  29.531  22.510  1.00  0.00     0.034 C 
BRANCH  20  23
ATOM     23  C   UNL A   1      28.857  31.343  21.239  1.00  0.00     0.024 C 
ATOM     24  C   UNL A   1      28.028  32.611  21.337  1.00  0.00     0.006 C 
ENDBRANCH  20  23
ENDBRANCH  17  20
ENDBRANCH  14  16
ENDBRANCH  13  14
ENDBRANCH   7  13
ENDBRANCH   3   6
ENDBRANCH   1   2
BRANCH   1  25
ATOM     25  C   UNL A   1      31.723  29.846  26.426  1.00  0.00     0.023 C 
BRANCH  25  26
ATOM     26  C   UNL A   1      31.349  31.324  26.488  1.00  0.00     0.023 C 
BRANCH  26  27
ATOM     27  C   UNL A   1      32.549  32.260  26.504  1.00  0.00     0.116 C 
BRANCH  27  28
ATOM     28  N   UNL A   1      32.358  33.477  27.284  1.00  0.00    -0.352 N 
ATOM     29  C   UNL A   1      33.194  33.998  28.253  1.00  0.00     0.251 C 
ATOM     30  H   UNL A   1      31.538  33.988  27.098  1.00  0.00     0.163 HD
ATOM     31  O   UNL A   1      32.881  34.996  28.877  1.00  0.00    -0.269 OA
BRANCH  29  32
ATOM     32  C   UNL A   1      34.441  33.259  28.556  1.00  0.00     0.039 A 
ATOM     33  C   UNL A   1      35.646  33.959  28.609  1.00  0.00     0.014 A 
ATOM     34  C   UNL A   1      34.382  31.916  28.927  1.00  0.00     0.014 A 
ATOM     35  C   UNL A   1      36.778  33.327  29.126  1.00  0.00     0.010 A 
ATOM     36  C   UNL A   1      35.472  31.333  29.555  1.00  0.00     0.010 A 
ATOM     37  C   UNL A   1      36.686  32.028  29.653  1.00  0.00    -0.014 A 
BRANCH  37  38
ATOM     38  C   UNL A   1      37.854  31.365  30.289  1.00  0.00     0.031 A 
ATOM     39  C   UNL A   1      38.197  31.673  31.721  1.00  0.00     0.074 A 
ATOM     40  C   UNL A   1      38.639  30.543  29.565  1.00  0.00     0.049 A 
ATOM     41  N   UNL A   1      39.193  31.237  32.450  1.00  0.00    -0.248 NA
ATOM     42  C   UNL A   1      37.331  32.642  32.410  1.00  0.00     0.031 C 
ATOM     43  C   UNL A   1      38.452  30.222  28.148  1.00  0.00     0.029 A 
ATOM     44  N   UNL A   1      39.749  29.820  29.922  1.00  0.00    -0.354 N 
ATOM     45  C   UNL A   1      39.078  31.891  33.672  1.00  0.00     0.074 A 
ATOM     46  C   UNL A   1      37.985  32.830  33.542  1.00  0.00     0.031 C 
ATOM     47  C   UNL A   1      39.374  29.320  27.775  1.00  0.00     0.029 A 
ATOM     48  C   UNL A   1      40.243  29.030  28.910  1.00  0.00     0.049 A 
ATOM     49  H   UNL A   1      40.153  29.863  30.819  1.00  0.00     0.167 HD
ATOM     50  C   UNL A   1      39.782  31.693  34.815  1.00  0.00     0.034 A 
ATOM     51  C   UNL A   1      41.272  28.160  28.907  1.00  0.00     0.034 A 
ATOM     52  C   UNL A   1      40.856  30.739  34.927  1.00  0.00     0.049 A 
ATOM     53  C   UNL A   1      42.058  27.963  30.180  1.00  0.00     0.074 A 
ATOM     54  C   UNL A   1      41.613  30.413  36.038  1.00  0.00     0.029 A 
ATOM     55  N   UNL A   1      41.333  29.959  33.880  1.00  0.00    -0.354 N 
ATOM     56  N   UNL A   1      41.898  28.540  31.348  1.00  0.00    -0.248 NA
ATOM     57  C   UNL A   1      43.153  26.988  30.131  1.00  0.00     0.031 C 
ATOM     58  C   UNL A   1      42.583  29.482  35.649  1.00  0.00     0.029 A 
ATOM     59  C   UNL A   1      42.388  29.171  34.313  1.00  0.00     0.049 A 
ATOM     60  H   UNL A   1      40.973  29.965  32.963  1.00  0.00     0.167 HD
ATOM     61  C   UNL A   1      42.852  27.969  32.185  1.00  0.00     0.074 A 
ATOM     62  C   UNL A   1      43.575  26.998  31.387  1.00  0.00     0.031 C 
ATOM     63  C   UNL A   1      43.104  28.216  33.498  1.00  0.00     0.034 A 
BRANCH  50  64
ATOM     64  C   UNL A   1      39.401  32.543  36.007  1.00  0.00     0.023 A 
ATOM     65  C   UNL A   1      40.063  33.754  36.284  1.00  0.00     0.031 A 
ATOM     66  C   UNL A   1      38.435  32.102  36.928  1.00  0.00     0.131 A 
ATOM     67  C   UNL A   1      39.847  34.410  37.504  1.00  0.00     0.055 A 
ATOM     68  C   UNL A   1      38.147  32.819  38.092  1.00  0.00     0.041 A 
ATOM     69  F   UNL A   1      37.780  30.947  36.734  1.00  0.00    -0.206 F 
ATOM     70  C   UNL A   1      38.873  33.967  38.400  1.00  0.00     0.022 A 
BRANCH  67  71
ATOM     71  S   UNL A   1      41.006  35.720  37.992  1.00  0.00     0.124 S 
ATOM     72  O   UNL A   1      40.993  35.595  39.448  1.00  0.00    -0.237 OA
ATOM     73  O   UNL A   1      42.238  35.314  37.326  1.00  0.00    -0.237 OA
ATOM     74  O   UNL A   1      40.385  36.937  37.474  1.00  0.00    -0.744 OA
ENDBRANCH  67  71
ENDBRANCH  50  64
BRANCH  51  75
ATOM     75  C   UNL A   1      41.594  27.377  27.681  1.00  0.00     0.023 A 
ATOM     76  C   UNL A   1      41.356  25.994  27.633  1.00  0.00     0.031 A 
ATOM     77  C   UNL A   1      42.160  27.990  26.550  1.00  0.00     0.131 A 
ATOM     78  C   UNL A   1      41.716  25.261  26.492  1.00  0.00     0.055 A 
ATOM     79  C   UNL A   1      42.476  27.263  25.400  1.00  0.00     0.041 A 
ATOM     80  F   UNL A   1      42.398  29.311  26.542  1.00  0.00    -0.206 F 
ATOM     81  C   UNL A   1      42.264  25.888  25.371  1.00  0.00     0.022 A 
BRANCH  78  82
ATOM     82  S   UNL A   1      41.510  23.458  26.517  1.00  0.00     0.124 S 
ATOM     83  O   UNL A   1      42.045  23.116  27.830  1.00  0.00    -0.237 OA
ATOM     84  O   UNL A   1      40.068  23.315  26.353  1.00  0.00    -0.237 OA
ATOM     85  O   UNL A   1      42.311  23.009  25.380  1.00  0.00    -0.744 OA
ENDBRANCH  78  82
ENDBRANCH  51  75
BRANCH  63  86
ATOM     86  C   UNL A   1      44.176  27.385  34.156  1.00  0.00     0.023 A 
ATOM     87  C   UNL A   1      43.892  26.140  34.743  1.00  0.00     0.031 A 
ATOM     88  C   UNL A   1      45.501  27.854  34.203  1.00  0.00     0.131 A 
ATOM     89  C   UNL A   1      44.909  25.431  35.401  1.00  0.00     0.055 A 
ATOM     90  C   UNL A   1      46.519  27.116  34.805  1.00  0.00     0.041 A 
ATOM     91  F   UNL A   1      45.826  29.037  33.659  1.00  0.00    -0.206 F 
ATOM     92  C   UNL A   1      46.224  25.902  35.420  1.00  0.00     0.022 A 
BRANCH  89  93
ATOM     93  S   UNL A   1      44.472  23.923  36.309  1.00  0.00     0.124 S 
ATOM     94  O   UNL A   1      44.088  24.455  37.613  1.00  0.00    -0.237 OA
ATOM     95  O   UNL A   1      43.388  23.374  35.501  1.00  0.00    -0.237 OA
ATOM     96  O   UNL A   1      45.709  23.145  36.298  1.00  0.00    -0.744 OA
ENDBRANCH  89  93
ENDBRANCH  63  86
ENDBRANCH  37  38
ENDBRANCH  29  32
ENDBRANCH  27  28
ENDBRANCH  26  27
ENDBRANCH  25  26
ENDBRANCH   1  25
TORSDOF 19
ENDMDL
