MODEL 1
REMARK VINA RESULT:     -13.2      0.000      0.000
REMARK SMILES CCc1cc(C(=O)N[C@@H]2C=C[C@H](C(=O)NCCCCNC(=O)c3ccc(-c4c5nc(c(-c6cc(S(=O)(=O)[O-])ccc6F)c6ccc([nH]6)c(-c6cc(S(=O)(=O)[O-])ccc6F)c6nc(c(-c7cc(S(=O)(=O)[O-])ccc7F)c7ccc4[nH]7)C=C6)C=C5)cc3)C2)n(C)n1
REMARK SMILES IDX 17 1 16 2 15 3 13 4 14 5 12 7 9 8 10 9 86 10 11 11 8 12 6 13
REMARK SMILES IDX 7 14 5 16 3 17 4 18 89 19 87 20 88 21 2 22 1 23 18 24 19 25
REMARK SMILES IDX 20 26 21 27 22 29 23 30 24 31 85 32 25 33 84 34 26 35 27 36
REMARK SMILES IDX 28 37 78 38 29 39 83 40 77 41 79 42 30 43 82 44 76 45 75 46
REMARK SMILES IDX 31 48 63 49 43 50 62 51 44 52 47 53 61 54 80 55 45 56 46 57
REMARK SMILES IDX 60 59 81 60 48 61 32 62 33 63 41 64 34 65 40 66 42 67 39 68
REMARK SMILES IDX 35 69 36 70 37 71 38 72 64 73 65 74 73 75 66 76 72 77 74 78
REMARK SMILES IDX 71 79 67 80 68 81 69 82 70 83 49 84 50 85 58 86 51 87 57 88
REMARK SMILES IDX 59 89 56 90 52 91 53 92 54 93 55 94
REMARK H PARENT 15 6 8 15 20 28 79 47 47 58
REMARK Flexibility Score: inf
ROOT
ATOM      1  C   UNL A   1      31.762  28.617  27.368  1.00  0.00     0.023 C 
ENDROOT
BRANCH   1   2
ATOM      2  C   UNL A   1      32.010  26.527  26.529  1.00  0.00     0.116 C 
BRANCH   2   3
ATOM      3  N   UNL A   1      31.148  25.309  26.139  1.00  0.00    -0.356 N 
ATOM      4  C   UNL A   1      31.566  24.007  26.372  1.00  0.00     0.227 C 
ATOM      5  O   UNL A   1      30.793  23.087  26.087  1.00  0.00    -0.274 OA
ATOM      6  H   UNL A   1      30.274  25.460  25.711  1.00  0.00     0.163 HD
BRANCH   4   7
ATOM      7  C   UNL A   1      32.969  23.669  27.019  1.00  0.00     0.103 C 
ATOM      8  C   UNL A   1      35.145  22.985  26.014  1.00  0.00     0.106 C 
ATOM      9  C   UNL A   1      34.473  21.854  26.707  1.00  0.00    -0.006 C 
ATOM     10  C   UNL A   1      34.227  24.195  26.280  1.00  0.00     0.047 C 
ATOM     11  C   UNL A   1      33.314  22.223  27.274  1.00  0.00    -0.016 C 
BRANCH   8  12
ATOM     12  N   UNL A   1      35.587  22.721  24.636  1.00  0.00    -0.344 N 
ATOM     13  C   UNL A   1      35.343  23.175  23.359  1.00  0.00     0.270 C 
ATOM     14  O   UNL A   1      36.156  22.876  22.488  1.00  0.00    -0.268 OA
ATOM     15  H   UNL A   1      36.261  22.003  24.623  1.00  0.00     0.164 HD
BRANCH  13  16
ATOM     16  C   UNL A   1      34.153  23.928  23.058  1.00  0.00     0.126 A 
ATOM     17  C   UNL A   1      31.886  25.955  22.940  1.00  0.00     0.063 A 
ATOM     18  C   UNL A   1      33.842  25.714  22.972  1.00  0.00     0.059 A 
ATOM     19  N   UNL A   1      31.158  24.404  23.067  1.00  0.00    -0.178 NA
ATOM     20  N   UNL A   1      32.501  23.135  23.025  1.00  0.00    -0.263 N 
ATOM     21  C   UNL A   1      32.185  21.733  23.101  1.00  0.00     0.174 C 
BRANCH  17  22
ATOM     22  C   UNL A   1      30.961  27.087  22.550  1.00  0.00     0.055 C 
ATOM     23  C   UNL A   1      30.114  27.751  23.605  1.00  0.00     0.011 C 
ENDBRANCH  17  22
ENDBRANCH  13  16
ENDBRANCH   8  12
ENDBRANCH   4   7
ENDBRANCH   2   3
ENDBRANCH   1   2
BRANCH   1  24
ATOM     24  C   UNL A   1      31.927  30.197  26.674  1.00  0.00     0.023 C 
BRANCH  24  25
ATOM     25  C   UNL A   1      33.097  31.094  27.054  1.00  0.00     0.116 C 
BRANCH  25  26
ATOM     26  N   UNL A   1      32.796  32.494  27.251  1.00  0.00    -0.352 N 
ATOM     27  C   UNL A   1      33.531  33.385  28.010  1.00  0.00     0.251 C 
ATOM     28  H   UNL A   1      31.993  32.845  26.803  1.00  0.00     0.163 HD
ATOM     29  O   UNL A   1      33.167  34.546  28.159  1.00  0.00    -0.269 OA
BRANCH  27  30
ATOM     30  C   UNL A   1      34.757  32.882  28.683  1.00  0.00     0.039 A 
ATOM     31  C   UNL A   1      34.633  32.021  29.774  1.00  0.00     0.014 A 
ATOM     32  C   UNL A   1      36.017  33.154  28.137  1.00  0.00     0.014 A 
ATOM     33  C   UNL A   1      35.772  31.395  30.288  1.00  0.00     0.010 A 
ATOM     34  C   UNL A   1      37.131  32.448  28.586  1.00  0.00     0.010 A 
ATOM     35  C   UNL A   1      37.029  31.579  29.684  1.00  0.00    -0.014 A 
BRANCH  35  36
ATOM     36  C   UNL A   1      38.251  30.937  30.247  1.00  0.00     0.031 A 
ATOM     37  C   UNL A   1      38.705  31.307  31.638  1.00  0.00     0.074 A 
ATOM     38  C   UNL A   1      38.950  30.034  29.526  1.00  0.00     0.049 A 
ATOM     39  N   UNL A   1      39.735  30.875  32.319  1.00  0.00    -0.248 NA
ATOM     40  C   UNL A   1      37.909  32.324  32.344  1.00  0.00     0.031 C 
ATOM     41  C   UNL A   1      38.639  29.625  28.154  1.00  0.00     0.029 A 
ATOM     42  N   UNL A   1      40.058  29.288  29.846  1.00  0.00    -0.354 N 
ATOM     43  C   UNL A   1      39.705  31.565  33.528  1.00  0.00     0.074 A 
ATOM     44  C   UNL A   1      38.620  32.515  33.442  1.00  0.00     0.031 C 
ATOM     45  C   UNL A   1      39.507  28.674  27.770  1.00  0.00     0.029 A 
ATOM     46  C   UNL A   1      40.464  28.431  28.846  1.00  0.00     0.049 A 
ATOM     47  H   UNL A   1      40.521  29.360  30.712  1.00  0.00     0.167 HD
ATOM     48  C   UNL A   1      40.477  31.392  34.628  1.00  0.00     0.034 A 
ATOM     49  C   UNL A   1      41.488  27.552  28.804  1.00  0.00     0.034 A 
ATOM     50  C   UNL A   1      41.549  30.433  34.704  1.00  0.00     0.049 A 
ATOM     51  C   UNL A   1      42.364  27.408  30.027  1.00  0.00     0.074 A 
ATOM     52  C   UNL A   1      42.385  30.156  35.770  1.00  0.00     0.029 A 
ATOM     53  N   UNL A   1      41.936  29.594  33.666  1.00  0.00    -0.354 N 
ATOM     54  N   UNL A   1      42.287  28.036  31.180  1.00  0.00    -0.248 NA
ATOM     55  C   UNL A   1      43.455  26.426  29.952  1.00  0.00     0.031 C 
ATOM     56  C   UNL A   1      43.320  29.202  35.355  1.00  0.00     0.029 A 
ATOM     57  C   UNL A   1      43.014  28.819  34.059  1.00  0.00     0.049 A 
ATOM     58  H   UNL A   1      41.505  29.557  32.781  1.00  0.00     0.167 HD
ATOM     59  C   UNL A   1      43.296  27.496  31.975  1.00  0.00     0.074 A 
ATOM     60  C   UNL A   1      43.950  26.479  31.178  1.00  0.00     0.031 C 
ATOM     61  C   UNL A   1      43.652  27.809  33.248  1.00  0.00     0.034 A 
BRANCH  48  62
ATOM     62  C   UNL A   1      40.184  32.269  35.824  1.00  0.00     0.023 A 
ATOM     63  C   UNL A   1      39.195  31.923  36.764  1.00  0.00     0.031 A 
ATOM     64  C   UNL A   1      40.868  33.483  36.010  1.00  0.00     0.131 A 
ATOM     65  C   UNL A   1      38.858  32.817  37.790  1.00  0.00     0.055 A 
ATOM     66  C   UNL A   1      40.591  34.326  37.088  1.00  0.00     0.041 A 
ATOM     67  F   UNL A   1      41.806  33.881  35.136  1.00  0.00    -0.206 F 
ATOM     68  C   UNL A   1      39.570  34.004  37.976  1.00  0.00     0.022 A 
BRANCH  65  69
ATOM     69  S   UNL A   1      37.374  32.480  38.777  1.00  0.00     0.124 S 
ATOM     70  O   UNL A   1      37.418  31.024  38.885  1.00  0.00    -0.237 OA
ATOM     71  O   UNL A   1      37.636  33.221  40.005  1.00  0.00    -0.237 OA
ATOM     72  O   UNL A   1      36.287  33.004  37.951  1.00  0.00    -0.744 OA
ENDBRANCH  65  69
ENDBRANCH  48  62
BRANCH  49  73
ATOM     73  C   UNL A   1      41.761  26.745  27.574  1.00  0.00     0.023 A 
ATOM     74  C   UNL A   1      41.438  25.378  27.510  1.00  0.00     0.031 A 
ATOM     75  C   UNL A   1      42.420  27.312  26.468  1.00  0.00     0.131 A 
ATOM     76  C   UNL A   1      41.831  24.613  26.398  1.00  0.00     0.055 A 
ATOM     77  C   UNL A   1      42.749  26.562  25.337  1.00  0.00     0.041 A 
ATOM     78  F   UNL A   1      42.758  28.611  26.470  1.00  0.00    -0.206 F 
ATOM     79  C   UNL A   1      42.470  25.199  25.304  1.00  0.00     0.022 A 
BRANCH  76  80
ATOM     80  S   UNL A   1      41.608  22.813  26.455  1.00  0.00     0.124 S 
ATOM     81  O   UNL A   1      42.325  22.389  25.257  1.00  0.00    -0.237 OA
ATOM     82  O   UNL A   1      42.229  22.471  27.730  1.00  0.00    -0.237 OA
ATOM     83  O   UNL A   1      40.157  22.648  26.406  1.00  0.00    -0.744 OA
ENDBRANCH  76  80
ENDBRANCH  49  73
BRANCH  61  84
ATOM     84  C   UNL A   1      44.766  27.004  33.870  1.00  0.00     0.023 A 
ATOM     85  C   UNL A   1      44.552  25.713  34.383  1.00  0.00     0.031 A 
ATOM     86  C   UNL A   1      46.064  27.541  33.955  1.00  0.00     0.131 A 
ATOM     87  C   UNL A   1      45.602  25.029  35.013  1.00  0.00     0.055 A 
ATOM     88  C   UNL A   1      47.122  26.826  34.516  1.00  0.00     0.041 A 
ATOM     89  F   UNL A   1      46.327  28.772  33.483  1.00  0.00    -0.206 F 
ATOM     90  C   UNL A   1      46.890  25.568  35.064  1.00  0.00     0.022 A 
BRANCH  87  91
ATOM     91  S   UNL A   1      45.236  23.468  35.862  1.00  0.00     0.124 S 
ATOM     92  O   UNL A   1      46.253  22.579  35.309  1.00  0.00    -0.237 OA
ATOM     93  O   UNL A   1      45.401  23.830  37.265  1.00  0.00    -0.237 OA
ATOM     94  O   UNL A   1      43.864  23.170  35.455  1.00  0.00    -0.744 OA
ENDBRANCH  87  91
ENDBRANCH  61  84
ENDBRANCH  35  36
ENDBRANCH  27  30
ENDBRANCH  25  26
ENDBRANCH  24  25
ENDBRANCH   1  24
TORSDOF 17
ENDMDL
MODEL 2
REMARK VINA RESULT:     -13.1      2.222      8.196
REMARK SMILES CCc1cc(C(=O)N[C@@H]2C=C[C@H](C(=O)NCCCCNC(=O)c3ccc(-c4c5nc(c(-c6cc(S(=O)(=O)[O-])ccc6F)c6ccc([nH]6)c(-c6cc(S(=O)(=O)[O-])ccc6F)c6nc(c(-c7cc(S(=O)(=O)[O-])ccc7F)c7ccc4[nH]7)C=C6)C=C5)cc3)C2)n(C)n1
REMARK SMILES IDX 17 1 16 2 15 3 13 4 14 5 12 7 9 8 10 9 86 10 11 11 8 12 6 13
REMARK SMILES IDX 7 14 5 16 3 17 4 18 89 19 87 20 88 21 2 22 1 23 18 24 19 25
REMARK SMILES IDX 20 26 21 27 22 29 23 30 24 31 85 32 25 33 84 34 26 35 27 36
REMARK SMILES IDX 28 37 78 38 29 39 83 40 77 41 79 42 30 43 82 44 76 45 75 46
REMARK SMILES IDX 31 48 63 49 43 50 62 51 44 52 47 53 61 54 80 55 45 56 46 57
REMARK SMILES IDX 60 59 81 60 48 61 32 62 33 63 41 64 34 65 40 66 42 67 39 68
REMARK SMILES IDX 35 69 36 70 37 71 38 72 64 73 65 74 73 75 66 76 72 77 74 78
REMARK SMILES IDX 71 79 67 80 68 81 69 82 70 83 49 84 50 85 58 86 51 87 57 88
REMARK SMILES IDX 59 89 56 90 52 91 53 92 54 93 55 94
REMARK H PARENT 15 6 8 15 20 28 79 47 47 58
REMARK Flexibility Score: inf
ROOT
ATOM      1  C   UNL A   1      32.366  30.273  25.935  1.00  0.00     0.023 C 
ENDROOT
BRANCH   1   2
ATOM      2  C   UNL A   1      31.433  28.231  25.626  1.00  0.00     0.116 C 
BRANCH   2   3
ATOM      3  N   UNL A   1      30.850  27.366  24.490  1.00  0.00    -0.356 N 
ATOM      4  C   UNL A   1      30.490  26.042  24.685  1.00  0.00     0.227 C 
ATOM      5  O   UNL A   1      29.972  25.434  23.743  1.00  0.00    -0.274 OA
ATOM      6  H   UNL A   1      30.728  27.768  23.599  1.00  0.00     0.163 HD
BRANCH   4   7
ATOM      7  C   UNL A   1      30.683  25.304  26.071  1.00  0.00     0.103 C 
ATOM      8  C   UNL A   1      31.191  22.931  26.638  1.00  0.00     0.106 C 
ATOM      9  C   UNL A   1      29.780  23.285  26.943  1.00  0.00    -0.006 C 
ATOM     10  C   UNL A   1      31.820  24.252  26.153  1.00  0.00     0.047 C 
ATOM     11  C   UNL A   1      29.507  24.569  26.664  1.00  0.00    -0.016 C 
BRANCH   8  12
ATOM     12  N   UNL A   1      31.388  21.716  25.833  1.00  0.00    -0.344 N 
ATOM     13  C   UNL A   1      32.421  20.966  25.314  1.00  0.00     0.270 C 
ATOM     14  O   UNL A   1      32.156  19.830  24.929  1.00  0.00    -0.268 OA
ATOM     15  H   UNL A   1      30.520  21.318  25.593  1.00  0.00     0.164 HD
BRANCH  13  16
ATOM     16  C   UNL A   1      33.743  21.520  25.185  1.00  0.00     0.126 A 
ATOM     17  C   UNL A   1      36.421  22.908  25.592  1.00  0.00     0.063 A 
ATOM     18  C   UNL A   1      35.124  21.637  26.357  1.00  0.00     0.059 A 
ATOM     19  N   UNL A   1      35.770  23.510  24.120  1.00  0.00    -0.178 NA
ATOM     20  N   UNL A   1      34.195  22.605  23.778  1.00  0.00    -0.263 N 
ATOM     21  C   UNL A   1      33.429  22.891  22.594  1.00  0.00     0.174 C 
BRANCH  17  22
ATOM     22  C   UNL A   1      37.882  23.215  25.840  1.00  0.00     0.055 C 
ATOM     23  C   UNL A   1      38.863  22.081  25.995  1.00  0.00     0.011 C 
ENDBRANCH  17  22
ENDBRANCH  13  16
ENDBRANCH   8  12
ENDBRANCH   4   7
ENDBRANCH   2   3
ENDBRANCH   1   2
BRANCH   1  24
ATOM     24  C   UNL A   1      32.028  31.574  27.029  1.00  0.00     0.023 C 
BRANCH  24  25
ATOM     25  C   UNL A   1      33.124  32.546  27.443  1.00  0.00     0.116 C 
BRANCH  25  26
ATOM     26  N   UNL A   1      32.711  33.905  27.711  1.00  0.00    -0.352 N 
ATOM     27  C   UNL A   1      33.248  34.745  28.668  1.00  0.00     0.251 C 
ATOM     28  H   UNL A   1      31.978  34.266  27.160  1.00  0.00     0.163 HD
ATOM     29  O   UNL A   1      32.795  35.868  28.856  1.00  0.00    -0.269 OA
BRANCH  27  30
ATOM     30  C   UNL A   1      34.365  34.229  29.500  1.00  0.00     0.039 A 
ATOM     31  C   UNL A   1      34.076  33.538  30.678  1.00  0.00     0.014 A 
ATOM     32  C   UNL A   1      35.682  34.309  29.033  1.00  0.00     0.014 A 
ATOM     33  C   UNL A   1      35.106  32.887  31.363  1.00  0.00     0.010 A 
ATOM     34  C   UNL A   1      36.683  33.572  29.662  1.00  0.00     0.010 A 
ATOM     35  C   UNL A   1      36.415  32.872  30.849  1.00  0.00    -0.014 A 
BRANCH  35  36
ATOM     36  C   UNL A   1      37.523  32.204  31.590  1.00  0.00     0.031 A 
ATOM     37  C   UNL A   1      38.282  31.081  30.927  1.00  0.00     0.074 A 
ATOM     38  C   UNL A   1      37.849  32.594  32.841  1.00  0.00     0.049 A 
ATOM     39  N   UNL A   1      39.274  30.363  31.387  1.00  0.00    -0.248 NA
ATOM     40  C   UNL A   1      37.842  30.694  29.577  1.00  0.00     0.031 C 
ATOM     41  C   UNL A   1      37.162  33.636  33.608  1.00  0.00     0.029 A 
ATOM     42  N   UNL A   1      38.844  32.168  33.687  1.00  0.00    -0.354 N 
ATOM     43  C   UNL A   1      39.575  29.447  30.383  1.00  0.00     0.074 A 
ATOM     44  C   UNL A   1      38.594  29.632  29.338  1.00  0.00     0.031 C 
ATOM     45  C   UNL A   1      37.783  33.798  34.788  1.00  0.00     0.029 A 
ATOM     46  C   UNL A   1      38.885  32.846  34.887  1.00  0.00     0.049 A 
ATOM     47  H   UNL A   1      39.471  31.444  33.457  1.00  0.00     0.167 HD
ATOM     48  C   UNL A   1      40.601  28.565  30.312  1.00  0.00     0.034 A 
ATOM     49  C   UNL A   1      39.717  32.712  35.942  1.00  0.00     0.034 A 
ATOM     50  C   UNL A   1      41.579  28.398  31.356  1.00  0.00     0.049 A 
ATOM     51  C   UNL A   1      40.828  31.690  35.860  1.00  0.00     0.074 A 
ATOM     52  C   UNL A   1      42.672  27.551  31.388  1.00  0.00     0.029 A 
ATOM     53  N   UNL A   1      41.578  29.093  32.559  1.00  0.00    -0.354 N 
ATOM     54  N   UNL A   1      41.125  30.868  34.879  1.00  0.00    -0.248 NA
ATOM     55  C   UNL A   1      41.726  31.589  37.019  1.00  0.00     0.031 C 
ATOM     56  C   UNL A   1      43.290  27.682  32.635  1.00  0.00     0.029 A 
ATOM     57  C   UNL A   1      42.637  28.674  33.349  1.00  0.00     0.049 A 
ATOM     58  H   UNL A   1      40.922  29.782  32.812  1.00  0.00     0.167 HD
ATOM     59  C   UNL A   1      42.266  30.180  35.290  1.00  0.00     0.074 A 
ATOM     60  C   UNL A   1      42.612  30.701  36.596  1.00  0.00     0.031 C 
ATOM     61  C   UNL A   1      42.965  29.208  34.650  1.00  0.00     0.034 A 
BRANCH  48  62
ATOM     62  C   UNL A   1      40.700  27.716  29.064  1.00  0.00     0.023 A 
ATOM     63  C   UNL A   1      41.631  28.008  28.050  1.00  0.00     0.031 A 
ATOM     64  C   UNL A   1      39.833  26.629  28.864  1.00  0.00     0.131 A 
ATOM     65  C   UNL A   1      41.613  27.283  26.850  1.00  0.00     0.055 A 
ATOM     66  C   UNL A   1      39.882  25.852  27.705  1.00  0.00     0.041 A 
ATOM     67  F   UNL A   1      38.907  26.314  29.783  1.00  0.00    -0.206 F 
ATOM     68  C   UNL A   1      40.764  26.187  26.682  1.00  0.00     0.022 A 
BRANCH  65  69
ATOM     69  S   UNL A   1      42.601  27.892  25.456  1.00  0.00     0.124 S 
ATOM     70  O   UNL A   1      43.837  28.290  26.125  1.00  0.00    -0.237 OA
ATOM     71  O   UNL A   1      42.689  26.720  24.595  1.00  0.00    -0.237 OA
ATOM     72  O   UNL A   1      41.804  28.997  24.928  1.00  0.00    -0.744 OA
ENDBRANCH  65  69
ENDBRANCH  48  62
BRANCH  49  73
ATOM     73  C   UNL A   1      39.541  33.546  37.172  1.00  0.00     0.023 A 
ATOM     74  C   UNL A   1      39.008  33.002  38.354  1.00  0.00     0.031 A 
ATOM     75  C   UNL A   1      39.834  34.922  37.162  1.00  0.00     0.131 A 
ATOM     76  C   UNL A   1      38.724  33.838  39.448  1.00  0.00     0.055 A 
ATOM     77  C   UNL A   1      39.612  35.735  38.275  1.00  0.00     0.041 A 
ATOM     78  F   UNL A   1      40.342  35.500  36.062  1.00  0.00    -0.206 F 
ATOM     79  C   UNL A   1      39.037  35.198  39.422  1.00  0.00     0.022 A 
BRANCH  76  80
ATOM     80  S   UNL A   1      37.821  33.147  40.863  1.00  0.00     0.124 S 
ATOM     81  O   UNL A   1      38.134  34.111  41.912  1.00  0.00    -0.237 OA
ATOM     82  O   UNL A   1      36.445  33.151  40.375  1.00  0.00    -0.237 OA
ATOM     83  O   UNL A   1      38.416  31.824  41.033  1.00  0.00    -0.744 OA
ENDBRANCH  76  80
ENDBRANCH  49  73
BRANCH  61  84
ATOM     84  C   UNL A   1      44.204  28.685  35.335  1.00  0.00     0.023 A 
ATOM     85  C   UNL A   1      44.148  27.639  36.272  1.00  0.00     0.031 A 
ATOM     86  C   UNL A   1      45.461  29.247  35.046  1.00  0.00     0.131 A 
ATOM     87  C   UNL A   1      45.316  27.230  36.933  1.00  0.00     0.055 A 
ATOM     88  C   UNL A   1      46.630  28.786  35.652  1.00  0.00     0.041 A 
ATOM     89  F   UNL A   1      45.574  30.251  34.161  1.00  0.00    -0.206 F 
ATOM     90  C   UNL A   1      46.560  27.782  36.613  1.00  0.00     0.022 A 
BRANCH  87  91
ATOM     91  S   UNL A   1      45.173  26.040  38.293  1.00  0.00     0.124 S 
ATOM     92  O   UNL A   1      44.286  26.741  39.216  1.00  0.00    -0.237 OA
ATOM     93  O   UNL A   1      44.606  24.872  37.628  1.00  0.00    -0.237 OA
ATOM     94  O   UNL A   1      46.551  25.881  38.756  1.00  0.00    -0.744 OA
ENDBRANCH  87  91
ENDBRANCH  61  84
ENDBRANCH  35  36
ENDBRANCH  27  30
ENDBRANCH  25  26
ENDBRANCH  24  25
ENDBRANCH   1  24
TORSDOF 17
ENDMDL
MODEL 3
REMARK VINA RESULT:     -13.1      2.114      8.177
REMARK SMILES CCc1cc(C(=O)N[C@@H]2C=C[C@H](C(=O)NCCCCNC(=O)c3ccc(-c4c5nc(c(-c6cc(S(=O)(=O)[O-])ccc6F)c6ccc([nH]6)c(-c6cc(S(=O)(=O)[O-])ccc6F)c6nc(c(-c7cc(S(=O)(=O)[O-])ccc7F)c7ccc4[nH]7)C=C6)C=C5)cc3)C2)n(C)n1
REMARK SMILES IDX 17 1 16 2 15 3 13 4 14 5 12 7 9 8 10 9 86 10 11 11 8 12 6 13
REMARK SMILES IDX 7 14 5 16 3 17 4 18 89 19 87 20 88 21 2 22 1 23 18 24 19 25
REMARK SMILES IDX 20 26 21 27 22 29 23 30 24 31 85 32 25 33 84 34 26 35 27 36
REMARK SMILES IDX 28 37 78 38 29 39 83 40 77 41 79 42 30 43 82 44 76 45 75 46
REMARK SMILES IDX 31 48 63 49 43 50 62 51 44 52 47 53 61 54 80 55 45 56 46 57
REMARK SMILES IDX 60 59 81 60 48 61 32 62 33 63 41 64 34 65 40 66 42 67 39 68
REMARK SMILES IDX 35 69 36 70 37 71 38 72 64 73 65 74 73 75 66 76 72 77 74 78
REMARK SMILES IDX 71 79 67 80 68 81 69 82 70 83 49 84 50 85 58 86 51 87 57 88
REMARK SMILES IDX 59 89 56 90 52 91 53 92 54 93 55 94
REMARK H PARENT 15 6 8 15 20 28 79 47 47 58
REMARK Flexibility Score: inf
ROOT
ATOM      1  C   UNL A   1      32.572  29.818  26.849  1.00  0.00     0.023 C 
ENDROOT
BRANCH   1   2
ATOM      2  C   UNL A   1      31.452  27.904  27.316  1.00  0.00     0.116 C 
BRANCH   2   3
ATOM      3  N   UNL A   1      31.534  26.393  27.017  1.00  0.00    -0.356 N 
ATOM      4  C   UNL A   1      31.087  25.856  25.820  1.00  0.00     0.227 C 
ATOM      5  O   UNL A   1      31.243  24.646  25.630  1.00  0.00    -0.274 OA
ATOM      6  H   UNL A   1      31.917  25.793  27.697  1.00  0.00     0.163 HD
BRANCH   4   7
ATOM      7  C   UNL A   1      30.425  26.739  24.687  1.00  0.00     0.103 C 
ATOM      8  C   UNL A   1      30.888  26.939  22.246  1.00  0.00     0.106 C 
ATOM      9  C   UNL A   1      31.358  28.131  23.000  1.00  0.00    -0.006 C 
ATOM     10  C   UNL A   1      30.200  26.061  23.311  1.00  0.00     0.047 C 
ATOM     11  C   UNL A   1      31.087  28.042  24.312  1.00  0.00    -0.016 C 
BRANCH   8  12
ATOM     12  N   UNL A   1      31.874  26.319  21.348  1.00  0.00    -0.344 N 
ATOM     13  C   UNL A   1      32.735  25.243  21.328  1.00  0.00     0.270 C 
ATOM     14  O   UNL A   1      33.191  24.905  20.239  1.00  0.00    -0.268 OA
ATOM     15  H   UNL A   1      31.939  26.826  20.506  1.00  0.00     0.164 HD
BRANCH  13  16
ATOM     16  C   UNL A   1      33.117  24.582  22.549  1.00  0.00     0.126 A 
ATOM     17  C   UNL A   1      34.561  23.500  25.000  1.00  0.00     0.063 A 
ATOM     18  C   UNL A   1      34.169  25.109  23.930  1.00  0.00     0.059 A 
ATOM     19  N   UNL A   1      33.826  22.155  24.224  1.00  0.00    -0.178 NA
ATOM     20  N   UNL A   1      32.842  22.786  22.793  1.00  0.00    -0.263 N 
ATOM     21  C   UNL A   1      32.099  21.879  21.958  1.00  0.00     0.174 C 
BRANCH  17  22
ATOM     22  C   UNL A   1      35.065  23.255  26.406  1.00  0.00     0.055 C 
ATOM     23  C   UNL A   1      34.089  22.880  27.490  1.00  0.00     0.011 C 
ENDBRANCH  17  22
ENDBRANCH  13  16
ENDBRANCH   8  12
ENDBRANCH   4   7
ENDBRANCH   2   3
ENDBRANCH   1   2
BRANCH   1  24
ATOM     24  C   UNL A   1      32.160  31.495  27.001  1.00  0.00     0.023 C 
BRANCH  24  25
ATOM     25  C   UNL A   1      33.220  32.526  27.366  1.00  0.00     0.116 C 
BRANCH  25  26
ATOM     26  N   UNL A   1      32.746  33.859  27.659  1.00  0.00    -0.352 N 
ATOM     27  C   UNL A   1      33.216  34.688  28.660  1.00  0.00     0.251 C 
ATOM     28  H   UNL A   1      32.020  34.210  27.093  1.00  0.00     0.163 HD
ATOM     29  O   UNL A   1      32.714  35.787  28.865  1.00  0.00    -0.269 OA
BRANCH  27  30
ATOM     30  C   UNL A   1      34.321  34.187  29.517  1.00  0.00     0.039 A 
ATOM     31  C   UNL A   1      34.023  33.370  30.608  1.00  0.00     0.014 A 
ATOM     32  C   UNL A   1      35.652  34.416  29.148  1.00  0.00     0.014 A 
ATOM     33  C   UNL A   1      35.063  32.742  31.301  1.00  0.00     0.010 A 
ATOM     34  C   UNL A   1      36.674  33.706  29.776  1.00  0.00     0.010 A 
ATOM     35  C   UNL A   1      36.396  32.880  30.877  1.00  0.00    -0.014 A 
BRANCH  35  36
ATOM     36  C   UNL A   1      37.511  32.236  31.629  1.00  0.00     0.031 A 
ATOM     37  C   UNL A   1      38.271  31.099  30.992  1.00  0.00     0.074 A 
ATOM     38  C   UNL A   1      37.842  32.660  32.867  1.00  0.00     0.049 A 
ATOM     39  N   UNL A   1      39.269  30.398  31.465  1.00  0.00    -0.248 NA
ATOM     40  C   UNL A   1      37.825  30.674  29.655  1.00  0.00     0.031 C 
ATOM     41  C   UNL A   1      37.155  33.720  33.610  1.00  0.00     0.029 A 
ATOM     42  N   UNL A   1      38.843  32.262  33.719  1.00  0.00    -0.354 N 
ATOM     43  C   UNL A   1      39.568  29.456  30.484  1.00  0.00     0.074 A 
ATOM     44  C   UNL A   1      38.580  29.609  29.440  1.00  0.00     0.031 C 
ATOM     45  C   UNL A   1      37.782  33.916  34.782  1.00  0.00     0.029 A 
ATOM     46  C   UNL A   1      38.889  32.971  34.900  1.00  0.00     0.049 A 
ATOM     47  H   UNL A   1      39.472  31.535  33.505  1.00  0.00     0.167 HD
ATOM     48  C   UNL A   1      40.597  28.577  30.431  1.00  0.00     0.034 A 
ATOM     49  C   UNL A   1      39.727  32.869  35.954  1.00  0.00     0.034 A 
ATOM     50  C   UNL A   1      41.581  28.441  31.474  1.00  0.00     0.049 A 
ATOM     51  C   UNL A   1      40.842  31.850  35.892  1.00  0.00     0.074 A 
ATOM     52  C   UNL A   1      42.678  27.600  31.522  1.00  0.00     0.029 A 
ATOM     53  N   UNL A   1      41.585  29.168  32.658  1.00  0.00    -0.354 N 
ATOM     54  N   UNL A   1      41.137  31.003  34.932  1.00  0.00    -0.248 NA
ATOM     55  C   UNL A   1      41.747  31.784  37.048  1.00  0.00     0.031 C 
ATOM     56  C   UNL A   1      43.303  27.767  32.762  1.00  0.00     0.029 A 
ATOM     57  C   UNL A   1      42.649  28.776  33.453  1.00  0.00     0.049 A 
ATOM     58  H   UNL A   1      40.927  29.861  32.896  1.00  0.00     0.167 HD
ATOM     59  C   UNL A   1      42.283  30.331  35.355  1.00  0.00     0.074 A 
ATOM     60  C   UNL A   1      42.634  30.888  36.644  1.00  0.00     0.031 C 
ATOM     61  C   UNL A   1      42.982  29.345  34.737  1.00  0.00     0.034 A 
BRANCH  48  62
ATOM     62  C   UNL A   1      40.693  27.695  29.206  1.00  0.00     0.023 A 
ATOM     63  C   UNL A   1      41.633  27.950  28.190  1.00  0.00     0.031 A 
ATOM     64  C   UNL A   1      39.813  26.614  29.028  1.00  0.00     0.131 A 
ATOM     65  C   UNL A   1      41.613  27.195  27.009  1.00  0.00     0.055 A 
ATOM     66  C   UNL A   1      39.860  25.806  27.890  1.00  0.00     0.041 A 
ATOM     67  F   UNL A   1      38.878  26.333  29.950  1.00  0.00    -0.206 F 
ATOM     68  C   UNL A   1      40.752  26.105  26.864  1.00  0.00     0.022 A 
BRANCH  65  69
ATOM     69  S   UNL A   1      42.616  27.756  25.606  1.00  0.00     0.124 S 
ATOM     70  O   UNL A   1      42.596  26.578  24.742  1.00  0.00    -0.237 OA
ATOM     71  O   UNL A   1      41.870  28.914  25.127  1.00  0.00    -0.237 OA
ATOM     72  O   UNL A   1      43.913  28.055  26.210  1.00  0.00    -0.744 OA
ENDBRANCH  65  69
ENDBRANCH  48  62
BRANCH  49  73
ATOM     73  C   UNL A   1      39.554  33.735  37.162  1.00  0.00     0.023 A 
ATOM     74  C   UNL A   1      38.917  33.256  38.320  1.00  0.00     0.031 A 
ATOM     75  C   UNL A   1      39.958  35.082  37.150  1.00  0.00     0.131 A 
ATOM     76  C   UNL A   1      38.644  34.130  39.386  1.00  0.00     0.055 A 
ATOM     77  C   UNL A   1      39.744  35.930  38.239  1.00  0.00     0.041 A 
ATOM     78  F   UNL A   1      40.569  35.600  36.072  1.00  0.00    -0.206 F 
ATOM     79  C   UNL A   1      39.068  35.460  39.360  1.00  0.00     0.022 A 
BRANCH  76  80
ATOM     80  S   UNL A   1      37.614  33.537  40.758  1.00  0.00     0.124 S 
ATOM     81  O   UNL A   1      38.505  32.579  41.403  1.00  0.00    -0.237 OA
ATOM     82  O   UNL A   1      37.354  34.770  41.495  1.00  0.00    -0.237 OA
ATOM     83  O   UNL A   1      36.454  32.957  40.088  1.00  0.00    -0.744 OA
ENDBRANCH  76  80
ENDBRANCH  49  73
BRANCH  61  84
ATOM     84  C   UNL A   1      44.227  28.846  35.429  1.00  0.00     0.023 A 
ATOM     85  C   UNL A   1      44.182  27.824  36.393  1.00  0.00     0.031 A 
ATOM     86  C   UNL A   1      45.481  29.405  35.119  1.00  0.00     0.131 A 
ATOM     87  C   UNL A   1      45.355  27.438  37.058  1.00  0.00     0.055 A 
ATOM     88  C   UNL A   1      46.655  28.966  35.730  1.00  0.00     0.041 A 
ATOM     89  F   UNL A   1      45.584  30.387  34.207  1.00  0.00    -0.206 F 
ATOM     90  C   UNL A   1      46.594  27.987  36.717  1.00  0.00     0.022 A 
BRANCH  87  91
ATOM     91  S   UNL A   1      45.224  26.283  38.450  1.00  0.00     0.124 S 
ATOM     92  O   UNL A   1      44.430  25.203  37.872  1.00  0.00    -0.237 OA
ATOM     93  O   UNL A   1      46.622  25.968  38.726  1.00  0.00    -0.237 OA
ATOM     94  O   UNL A   1      44.549  27.066  39.483  1.00  0.00    -0.744 OA
ENDBRANCH  87  91
ENDBRANCH  61  84
ENDBRANCH  35  36
ENDBRANCH  27  30
ENDBRANCH  25  26
ENDBRANCH  24  25
ENDBRANCH   1  24
TORSDOF 17
ENDMDL
