MODEL 1
REMARK VINA RESULT:     -11.8      0.000      0.000
REMARK SMILES C[C@H](Oc1ccc(C(=O)NCc2ccccc2)cc1)C(=O)NCCCCNC(=O)c1ccc(-c2c3nc(c(-c4cc(S(=O)(=O)[O-])ccc4F)c4ccc([nH]4)c(-c4cc(S(=O)(=O)[O-])ccc4F)c4nc(c(-c5cc(S(=O)(=O)[O-])ccc5F)c5ccc2[nH]5)C=C4)C=C3)cc1
REMARK SMILES IDX 23 1 22 2 20 3 21 4 2 6 1 7 3 8 4 9 5 10 19 11 6 12 18 13
REMARK SMILES IDX 7 14 8 15 9 16 10 17 11 19 12 20 13 21 17 22 14 23 16 24
REMARK SMILES IDX 15 25 24 26 25 27 26 28 27 29 28 30 29 32 30 33 31 34 92 35
REMARK SMILES IDX 32 36 91 37 33 38 34 39 35 40 85 41 36 42 90 43 84 44 86 45
REMARK SMILES IDX 37 46 89 47 83 48 82 49 38 51 70 52 50 53 69 54 51 55 54 56
REMARK SMILES IDX 68 57 87 58 52 59 53 60 67 62 88 63 55 64 39 65 40 66 48 67
REMARK SMILES IDX 41 68 47 69 49 70 46 71 42 72 43 73 44 74 45 75 71 76 72 77
REMARK SMILES IDX 80 78 73 79 79 80 81 81 78 82 74 83 75 84 76 85 77 86 56 87
REMARK SMILES IDX 57 88 65 89 58 90 64 91 66 92 63 93 59 94 60 95 61 96 62 97
REMARK H PARENT 22 5 10 18 27 31 86 50 54 61
REMARK Flexibility Score: inf
ROOT
ATOM      1  C   UNL A   1      32.316  29.290  27.236  1.00  0.00     0.116 C 
ENDROOT
BRANCH   1   2
ATOM      2  N   UNL A   1      33.384  28.372  26.879  1.00  0.00    -0.353 N 
ATOM      3  C   UNL A   1      33.332  27.230  26.125  1.00  0.00     0.260 C 
ATOM      4  O   UNL A   1      34.383  26.610  25.937  1.00  0.00    -0.271 OA
ATOM      5  H   UNL A   1      34.274  28.605  27.230  1.00  0.00     0.163 HD
BRANCH   3   6
ATOM      6  C   UNL A   1      32.010  26.765  25.490  1.00  0.00     0.258 C 
ATOM      7  C   UNL A   1      31.297  25.845  26.481  1.00  0.00     0.064 C 
BRANCH   6   8
ATOM      8  O   UNL A   1      32.360  26.331  24.175  1.00  0.00    -0.481 OA
BRANCH   8   9
ATOM      9  C   UNL A   1      32.184  25.082  23.684  1.00  0.00     0.120 A 
ATOM     10  C   UNL A   1      30.994  24.389  23.548  1.00  0.00     0.047 A 
ATOM     11  C   UNL A   1      33.372  24.467  23.281  1.00  0.00     0.047 A 
ATOM     12  C   UNL A   1      31.010  23.061  23.095  1.00  0.00     0.017 A 
ATOM     13  C   UNL A   1      33.390  23.144  22.826  1.00  0.00     0.017 A 
ATOM     14  C   UNL A   1      32.207  22.417  22.730  1.00  0.00     0.040 A 
BRANCH  14  15
ATOM     15  C   UNL A   1      32.103  20.976  22.356  1.00  0.00     0.251 C 
ATOM     16  O   UNL A   1      31.637  20.693  21.251  1.00  0.00    -0.269 OA
ATOM     17  N   UNL A   1      32.493  19.928  23.140  1.00  0.00    -0.348 N 
ATOM     18  H   UNL A   1      32.278  19.056  22.737  1.00  0.00     0.164 HD
BRANCH  17  19
ATOM     19  C   UNL A   1      33.148  19.800  24.424  1.00  0.00     0.152 C 
BRANCH  19  20
ATOM     20  C   UNL A   1      33.411  18.348  24.738  1.00  0.00    -0.029 A 
ATOM     21  C   UNL A   1      34.695  17.806  24.581  1.00  0.00     0.005 A 
ATOM     22  C   UNL A   1      32.375  17.496  25.154  1.00  0.00     0.005 A 
ATOM     23  C   UNL A   1      34.934  16.453  24.834  1.00  0.00     0.000 A 
ATOM     24  C   UNL A   1      32.615  16.147  25.416  1.00  0.00     0.000 A 
ATOM     25  C   UNL A   1      33.895  15.625  25.253  1.00  0.00     0.000 A 
ENDBRANCH  19  20
ENDBRANCH  17  19
ENDBRANCH  14  15
ENDBRANCH   8   9
ENDBRANCH   6   8
ENDBRANCH   3   6
ENDBRANCH   1   2
BRANCH   1  26
ATOM     26  C   UNL A   1      32.081  30.354  26.168  1.00  0.00     0.023 C 
BRANCH  26  27
ATOM     27  C   UNL A   1      31.721  31.737  26.712  1.00  0.00     0.023 C 
BRANCH  27  28
ATOM     28  C   UNL A   1      32.872  32.503  27.357  1.00  0.00     0.116 C 
BRANCH  28  29
ATOM     29  N   UNL A   1      32.548  33.896  27.624  1.00  0.00    -0.352 N 
ATOM     30  C   UNL A   1      33.096  34.752  28.554  1.00  0.00     0.251 C 
ATOM     31  H   UNL A   1      31.837  34.279  27.061  1.00  0.00     0.163 HD
ATOM     32  O   UNL A   1      32.593  35.849  28.740  1.00  0.00    -0.269 OA
BRANCH  30  33
ATOM     33  C   UNL A   1      34.269  34.316  29.347  1.00  0.00     0.039 A 
ATOM     34  C   UNL A   1      34.056  33.679  30.572  1.00  0.00     0.014 A 
ATOM     35  C   UNL A   1      35.570  34.514  28.876  1.00  0.00     0.014 A 
ATOM     36  C   UNL A   1      35.144  33.171  31.286  1.00  0.00     0.010 A 
ATOM     37  C   UNL A   1      36.645  33.941  29.551  1.00  0.00     0.010 A 
ATOM     38  C   UNL A   1      36.444  33.260  30.763  1.00  0.00    -0.014 A 
BRANCH  38  39
ATOM     39  C   UNL A   1      37.603  32.641  31.460  1.00  0.00     0.031 A 
ATOM     40  C   UNL A   1      38.335  31.487  30.831  1.00  0.00     0.074 A 
ATOM     41  C   UNL A   1      37.951  33.073  32.689  1.00  0.00     0.049 A 
ATOM     42  N   UNL A   1      39.313  30.764  31.315  1.00  0.00    -0.248 NA
ATOM     43  C   UNL A   1      37.886  31.073  29.495  1.00  0.00     0.031 C 
ATOM     44  C   UNL A   1      37.292  34.157  33.423  1.00  0.00     0.029 A 
ATOM     45  N   UNL A   1      38.938  32.649  33.544  1.00  0.00    -0.354 N 
ATOM     46  C   UNL A   1      39.586  29.801  30.348  1.00  0.00     0.074 A 
ATOM     47  C   UNL A   1      38.627  29.997  29.281  1.00  0.00     0.031 C 
ATOM     48  C   UNL A   1      37.910  34.329  34.602  1.00  0.00     0.029 A 
ATOM     49  C   UNL A   1      38.974  33.339  34.734  1.00  0.00     0.049 A 
ATOM     50  H   UNL A   1      39.561  31.919  33.327  1.00  0.00     0.167 HD
ATOM     51  C   UNL A   1      40.560  28.856  30.342  1.00  0.00     0.034 A 
ATOM     52  C   UNL A   1      39.766  33.185  35.815  1.00  0.00     0.034 A 
ATOM     53  C   UNL A   1      41.516  28.682  31.409  1.00  0.00     0.049 A 
ATOM     54  C   UNL A   1      40.824  32.110  35.797  1.00  0.00     0.074 A 
ATOM     55  C   UNL A   1      42.580  27.798  31.478  1.00  0.00     0.029 A 
ATOM     56  N   UNL A   1      41.520  29.398  32.601  1.00  0.00    -0.354 N 
ATOM     57  N   UNL A   1      41.103  31.242  34.853  1.00  0.00    -0.248 NA
ATOM     58  C   UNL A   1      41.676  32.002  36.987  1.00  0.00     0.031 C 
ATOM     59  C   UNL A   1      43.180  27.929  32.735  1.00  0.00     0.029 A 
ATOM     60  C   UNL A   1      42.544  28.952  33.423  1.00  0.00     0.049 A 
ATOM     61  H   UNL A   1      40.887  30.116  32.828  1.00  0.00     0.167 HD
ATOM     62  C   UNL A   1      42.188  30.507  35.323  1.00  0.00     0.074 A 
ATOM     63  C   UNL A   1      42.517  31.043  36.629  1.00  0.00     0.031 C 
ATOM     64  C   UNL A   1      42.855  29.485  34.728  1.00  0.00     0.034 A 
BRANCH  51  65
ATOM     65  C   UNL A   1      40.614  27.923  29.154  1.00  0.00     0.023 A 
ATOM     66  C   UNL A   1      41.544  28.102  28.115  1.00  0.00     0.031 A 
ATOM     67  C   UNL A   1      39.706  26.855  29.045  1.00  0.00     0.131 A 
ATOM     68  C   UNL A   1      41.491  27.283  26.977  1.00  0.00     0.055 A 
ATOM     69  C   UNL A   1      39.715  25.989  27.949  1.00  0.00     0.041 A 
ATOM     70  F   UNL A   1      38.781  26.643  29.994  1.00  0.00    -0.206 F 
ATOM     71  C   UNL A   1      40.600  26.211  26.898  1.00  0.00     0.022 A 
BRANCH  68  72
ATOM     72  S   UNL A   1      42.497  27.736  25.538  1.00  0.00     0.124 S 
ATOM     73  O   UNL A   1      42.292  26.586  24.661  1.00  0.00    -0.237 OA
ATOM     74  O   UNL A   1      41.885  28.987  25.106  1.00  0.00    -0.237 OA
ATOM     75  O   UNL A   1      43.847  27.857  26.087  1.00  0.00    -0.744 OA
ENDBRANCH  68  72
ENDBRANCH  51  65
BRANCH  52  76
ATOM     76  C   UNL A   1      39.592  34.059  37.011  1.00  0.00     0.023 A 
ATOM     77  C   UNL A   1      39.001  33.568  38.185  1.00  0.00     0.031 A 
ATOM     78  C   UNL A   1      39.978  35.412  36.983  1.00  0.00     0.131 A 
ATOM     79  C   UNL A   1      38.769  34.432  39.267  1.00  0.00     0.055 A 
ATOM     80  C   UNL A   1      39.793  36.254  38.080  1.00  0.00     0.041 A 
ATOM     81  F   UNL A   1      40.552  35.932  35.886  1.00  0.00    -0.206 F 
ATOM     82  C   UNL A   1      39.172  35.768  39.227  1.00  0.00     0.022 A 
BRANCH  79  83
ATOM     83  S   UNL A   1      37.853  33.802  40.700  1.00  0.00     0.124 S 
ATOM     84  O   UNL A   1      37.530  35.034  41.411  1.00  0.00    -0.237 OA
ATOM     85  O   UNL A   1      36.734  33.114  40.067  1.00  0.00    -0.237 OA
ATOM     86  O   UNL A   1      38.822  32.933  41.366  1.00  0.00    -0.744 OA
ENDBRANCH  79  83
ENDBRANCH  52  76
BRANCH  64  87
ATOM     87  C   UNL A   1      44.041  28.915  35.470  1.00  0.00     0.023 A 
ATOM     88  C   UNL A   1      43.913  27.827  36.351  1.00  0.00     0.031 A 
ATOM     89  C   UNL A   1      45.317  29.480  35.299  1.00  0.00     0.131 A 
ATOM     90  C   UNL A   1      45.030  27.375  37.071  1.00  0.00     0.055 A 
ATOM     91  C   UNL A   1      46.437  28.986  35.970  1.00  0.00     0.041 A 
ATOM     92  F   UNL A   1      45.498  30.524  34.473  1.00  0.00    -0.206 F 
ATOM     93  C   UNL A   1      46.294  27.936  36.872  1.00  0.00     0.022 A 
BRANCH  90  94
ATOM     94  S   UNL A   1      44.792  26.102  38.341  1.00  0.00     0.124 S 
ATOM     95  O   UNL A   1      44.738  24.882  37.541  1.00  0.00    -0.237 OA
ATOM     96  O   UNL A   1      45.981  26.265  39.172  1.00  0.00    -0.237 OA
ATOM     97  O   UNL A   1      43.534  26.482  38.978  1.00  0.00    -0.744 OA
ENDBRANCH  90  94
ENDBRANCH  64  87
ENDBRANCH  38  39
ENDBRANCH  30  33
ENDBRANCH  28  29
ENDBRANCH  27  28
ENDBRANCH  26  27
ENDBRANCH   1  26
TORSDOF 19
ENDMDL
MODEL 2
REMARK VINA RESULT:     -11.8      5.889     12.011
REMARK SMILES C[C@H](Oc1ccc(C(=O)NCc2ccccc2)cc1)C(=O)NCCCCNC(=O)c1ccc(-c2c3nc(c(-c4cc(S(=O)(=O)[O-])ccc4F)c4ccc([nH]4)c(-c4cc(S(=O)(=O)[O-])ccc4F)c4nc(c(-c5cc(S(=O)(=O)[O-])ccc5F)c5ccc2[nH]5)C=C4)C=C3)cc1
REMARK SMILES IDX 23 1 22 2 20 3 21 4 2 6 1 7 3 8 4 9 5 10 19 11 6 12 18 13
REMARK SMILES IDX 7 14 8 15 9 16 10 17 11 19 12 20 13 21 17 22 14 23 16 24
REMARK SMILES IDX 15 25 24 26 25 27 26 28 27 29 28 30 29 32 30 33 31 34 92 35
REMARK SMILES IDX 32 36 91 37 33 38 34 39 35 40 85 41 36 42 90 43 84 44 86 45
REMARK SMILES IDX 37 46 89 47 83 48 82 49 38 51 70 52 50 53 69 54 51 55 54 56
REMARK SMILES IDX 68 57 87 58 52 59 53 60 67 62 88 63 55 64 39 65 40 66 48 67
REMARK SMILES IDX 41 68 47 69 49 70 46 71 42 72 43 73 44 74 45 75 71 76 72 77
REMARK SMILES IDX 80 78 73 79 79 80 81 81 78 82 74 83 75 84 76 85 77 86 56 87
REMARK SMILES IDX 57 88 65 89 58 90 64 91 66 92 63 93 59 94 60 95 61 96 62 97
REMARK H PARENT 22 5 10 18 27 31 86 50 54 61
REMARK Flexibility Score: inf
ROOT
ATOM      1  C   UNL A   1      37.299  22.312  24.944  1.00  0.00     0.116 C 
ENDROOT
BRANCH   1   2
ATOM      2  N   UNL A   1      36.337  21.234  24.791  1.00  0.00    -0.353 N 
ATOM      3  C   UNL A   1      35.046  21.152  25.240  1.00  0.00     0.260 C 
ATOM      4  O   UNL A   1      34.402  20.132  24.975  1.00  0.00    -0.271 OA
ATOM      5  H   UNL A   1      36.661  20.449  24.293  1.00  0.00     0.163 HD
BRANCH   3   6
ATOM      6  C   UNL A   1      34.404  22.322  26.007  1.00  0.00     0.258 C 
ATOM      7  C   UNL A   1      33.998  21.823  27.394  1.00  0.00     0.064 C 
BRANCH   6   8
ATOM      8  O   UNL A   1      33.454  22.885  25.100  1.00  0.00    -0.481 OA
BRANCH   8   9
ATOM      9  C   UNL A   1      33.563  24.088  24.490  1.00  0.00     0.120 A 
ATOM     10  C   UNL A   1      34.116  25.247  25.004  1.00  0.00     0.047 A 
ATOM     11  C   UNL A   1      33.045  24.105  23.192  1.00  0.00     0.047 A 
ATOM     12  C   UNL A   1      34.067  26.433  24.254  1.00  0.00     0.017 A 
ATOM     13  C   UNL A   1      32.998  25.285  22.442  1.00  0.00     0.017 A 
ATOM     14  C   UNL A   1      33.506  26.472  22.964  1.00  0.00     0.040 A 
BRANCH  14  15
ATOM     15  C   UNL A   1      33.428  27.810  22.310  1.00  0.00     0.251 C 
ATOM     16  O   UNL A   1      34.397  28.195  21.652  1.00  0.00    -0.269 OA
ATOM     17  N   UNL A   1      32.358  28.656  22.369  1.00  0.00    -0.348 N 
ATOM     18  H   UNL A   1      32.533  29.518  21.927  1.00  0.00     0.164 HD
BRANCH  17  19
ATOM     19  C   UNL A   1      31.026  28.581  22.932  1.00  0.00     0.152 C 
BRANCH  19  20
ATOM     20  C   UNL A   1      31.091  28.184  24.386  1.00  0.00    -0.029 A 
ATOM     21  C   UNL A   1      31.700  29.026  25.328  1.00  0.00     0.005 A 
ATOM     22  C   UNL A   1      30.584  26.950  24.824  1.00  0.00     0.005 A 
ATOM     23  C   UNL A   1      31.796  28.644  26.669  1.00  0.00     0.000 A 
ATOM     24  C   UNL A   1      30.671  26.573  26.165  1.00  0.00     0.000 A 
ATOM     25  C   UNL A   1      31.280  27.420  27.086  1.00  0.00     0.000 A 
ENDBRANCH  19  20
ENDBRANCH  17  19
ENDBRANCH  14  15
ENDBRANCH   8   9
ENDBRANCH   6   8
ENDBRANCH   3   6
ENDBRANCH   1   2
BRANCH   1  26
ATOM     26  C   UNL A   1      38.526  21.889  25.747  1.00  0.00     0.023 C 
BRANCH  26  27
ATOM     27  C   UNL A   1      39.073  20.505  25.396  1.00  0.00     0.023 C 
BRANCH  27  28
ATOM     28  C   UNL A   1      39.771  19.772  26.537  1.00  0.00     0.116 C 
BRANCH  28  29
ATOM     29  N   UNL A   1      40.963  19.058  26.108  1.00  0.00    -0.352 N 
ATOM     30  C   UNL A   1      42.228  19.548  25.863  1.00  0.00     0.251 C 
ATOM     31  H   UNL A   1      40.851  18.090  25.974  1.00  0.00     0.163 HD
ATOM     32  O   UNL A   1      43.073  18.824  25.362  1.00  0.00    -0.269 OA
BRANCH  30  33
ATOM     33  C   UNL A   1      42.537  20.964  26.177  1.00  0.00     0.039 A 
ATOM     34  C   UNL A   1      42.790  21.320  27.503  1.00  0.00     0.014 A 
ATOM     35  C   UNL A   1      42.598  21.928  25.167  1.00  0.00     0.014 A 
ATOM     36  C   UNL A   1      43.181  22.627  27.806  1.00  0.00     0.010 A 
ATOM     37  C   UNL A   1      43.061  23.209  25.460  1.00  0.00     0.010 A 
ATOM     38  C   UNL A   1      43.361  23.572  26.783  1.00  0.00    -0.014 A 
BRANCH  38  39
ATOM     39  C   UNL A   1      43.870  24.939  27.073  1.00  0.00     0.031 A 
ATOM     40  C   UNL A   1      42.953  25.977  27.662  1.00  0.00     0.074 A 
ATOM     41  C   UNL A   1      45.136  25.265  26.744  1.00  0.00     0.049 A 
ATOM     42  N   UNL A   1      43.184  27.241  27.911  1.00  0.00    -0.248 NA
ATOM     43  C   UNL A   1      41.586  25.541  27.983  1.00  0.00     0.031 C 
ATOM     44  C   UNL A   1      46.110  24.359  26.130  1.00  0.00     0.029 A 
ATOM     45  N   UNL A   1      45.820  26.449  26.869  1.00  0.00    -0.354 N 
ATOM     46  C   UNL A   1      41.988  27.754  28.403  1.00  0.00     0.074 A 
ATOM     47  C   UNL A   1      41.021  26.678  28.358  1.00  0.00     0.031 C 
ATOM     48  C   UNL A   1      47.270  25.011  25.958  1.00  0.00     0.029 A 
ATOM     49  C   UNL A   1      47.113  26.393  26.401  1.00  0.00     0.049 A 
ATOM     50  H   UNL A   1      45.424  27.261  27.257  1.00  0.00     0.167 HD
ATOM     51  C   UNL A   1      41.729  29.002  28.871  1.00  0.00     0.034 A 
ATOM     52  C   UNL A   1      48.062  27.349  26.324  1.00  0.00     0.034 A 
ATOM     53  C   UNL A   1      42.708  30.060  28.921  1.00  0.00     0.049 A 
ATOM     54  C   UNL A   1      47.742  28.735  26.825  1.00  0.00     0.074 A 
ATOM     55  C   UNL A   1      42.569  31.340  29.431  1.00  0.00     0.029 A 
ATOM     56  N   UNL A   1      44.007  29.968  28.434  1.00  0.00    -0.354 N 
ATOM     57  N   UNL A   1      46.622  29.190  27.337  1.00  0.00    -0.248 NA
ATOM     58  C   UNL A   1      48.816  29.731  26.743  1.00  0.00     0.031 C 
ATOM     59  C   UNL A   1      43.755  32.041  29.188  1.00  0.00     0.029 A 
ATOM     60  C   UNL A   1      44.666  31.177  28.601  1.00  0.00     0.049 A 
ATOM     61  H   UNL A   1      44.401  29.162  28.030  1.00  0.00     0.167 HD
ATOM     62  C   UNL A   1      46.871  30.519  27.671  1.00  0.00     0.074 A 
ATOM     63  C   UNL A   1      48.249  30.785  27.312  1.00  0.00     0.031 C 
ATOM     64  C   UNL A   1      46.038  31.435  28.228  1.00  0.00     0.034 A 
BRANCH  51  65
ATOM     65  C   UNL A   1      40.319  29.289  29.336  1.00  0.00     0.023 A 
ATOM     66  C   UNL A   1      39.997  29.392  30.701  1.00  0.00     0.031 A 
ATOM     67  C   UNL A   1      39.277  29.435  28.403  1.00  0.00     0.131 A 
ATOM     68  C   UNL A   1      38.661  29.549  31.097  1.00  0.00     0.055 A 
ATOM     69  C   UNL A   1      37.960  29.678  28.802  1.00  0.00     0.041 A 
ATOM     70  F   UNL A   1      39.516  29.328  27.087  1.00  0.00    -0.206 F 
ATOM     71  C   UNL A   1      37.643  29.718  30.156  1.00  0.00     0.022 A 
BRANCH  68  72
ATOM     72  S   UNL A   1      38.253  29.371  32.855  1.00  0.00     0.124 S 
ATOM     73  O   UNL A   1      38.099  30.765  33.265  1.00  0.00    -0.237 OA
ATOM     74  O   UNL A   1      37.030  28.577  32.816  1.00  0.00    -0.237 OA
ATOM     75  O   UNL A   1      39.421  28.692  33.412  1.00  0.00    -0.744 OA
ENDBRANCH  68  72
ENDBRANCH  51  65
BRANCH  52  76
ATOM     76  C   UNL A   1      49.401  27.040  25.747  1.00  0.00     0.023 A 
ATOM     77  C   UNL A   1      49.726  27.415  24.433  1.00  0.00     0.031 A 
ATOM     78  C   UNL A   1      50.364  26.330  26.486  1.00  0.00     0.131 A 
ATOM     79  C   UNL A   1      50.960  27.037  23.882  1.00  0.00     0.055 A 
ATOM     80  C   UNL A   1      51.611  26.003  25.952  1.00  0.00     0.041 A 
ATOM     81  F   UNL A   1      50.108  25.951  27.749  1.00  0.00    -0.206 F 
ATOM     82  C   UNL A   1      51.910  26.346  24.637  1.00  0.00     0.022 A 
BRANCH  79  83
ATOM     83  S   UNL A   1      51.275  27.394  22.132  1.00  0.00     0.124 S 
ATOM     84  O   UNL A   1      52.192  26.318  21.770  1.00  0.00    -0.237 OA
ATOM     85  O   UNL A   1      49.935  27.313  21.561  1.00  0.00    -0.237 OA
ATOM     86  O   UNL A   1      51.861  28.732  22.158  1.00  0.00    -0.744 OA
ENDBRANCH  79  83
ENDBRANCH  52  76
BRANCH  64  87
ATOM     87  C   UNL A   1      46.617  32.797  28.527  1.00  0.00     0.023 A 
ATOM     88  C   UNL A   1      46.749  33.782  27.533  1.00  0.00     0.031 A 
ATOM     89  C   UNL A   1      47.053  33.107  29.828  1.00  0.00     0.131 A 
ATOM     90  C   UNL A   1      47.355  35.010  27.842  1.00  0.00     0.055 A 
ATOM     91  C   UNL A   1      47.597  34.353  30.144  1.00  0.00     0.041 A 
ATOM     92  F   UNL A   1      46.954  32.203  30.816  1.00  0.00    -0.206 F 
ATOM     93  C   UNL A   1      47.764  35.307  29.145  1.00  0.00     0.022 A 
BRANCH  90  94
ATOM     94  S   UNL A   1      47.688  36.182  26.498  1.00  0.00     0.124 S 
ATOM     95  O   UNL A   1      48.651  35.444  25.686  1.00  0.00    -0.237 OA
ATOM     96  O   UNL A   1      46.366  36.364  25.908  1.00  0.00    -0.237 OA
ATOM     97  O   UNL A   1      48.226  37.352  27.188  1.00  0.00    -0.744 OA
ENDBRANCH  90  94
ENDBRANCH  64  87
ENDBRANCH  38  39
ENDBRANCH  30  33
ENDBRANCH  28  29
ENDBRANCH  27  28
ENDBRANCH  26  27
ENDBRANCH   1  26
TORSDOF 19
ENDMDL
MODEL 3
REMARK VINA RESULT:     -11.7      1.596      2.165
REMARK SMILES C[C@H](Oc1ccc(C(=O)NCc2ccccc2)cc1)C(=O)NCCCCNC(=O)c1ccc(-c2c3nc(c(-c4cc(S(=O)(=O)[O-])ccc4F)c4ccc([nH]4)c(-c4cc(S(=O)(=O)[O-])ccc4F)c4nc(c(-c5cc(S(=O)(=O)[O-])ccc5F)c5ccc2[nH]5)C=C4)C=C3)cc1
REMARK SMILES IDX 23 1 22 2 20 3 21 4 2 6 1 7 3 8 4 9 5 10 19 11 6 12 18 13
REMARK SMILES IDX 7 14 8 15 9 16 10 17 11 19 12 20 13 21 17 22 14 23 16 24
REMARK SMILES IDX 15 25 24 26 25 27 26 28 27 29 28 30 29 32 30 33 31 34 92 35
REMARK SMILES IDX 32 36 91 37 33 38 34 39 35 40 85 41 36 42 90 43 84 44 86 45
REMARK SMILES IDX 37 46 89 47 83 48 82 49 38 51 70 52 50 53 69 54 51 55 54 56
REMARK SMILES IDX 68 57 87 58 52 59 53 60 67 62 88 63 55 64 39 65 40 66 48 67
REMARK SMILES IDX 41 68 47 69 49 70 46 71 42 72 43 73 44 74 45 75 71 76 72 77
REMARK SMILES IDX 80 78 73 79 79 80 81 81 78 82 74 83 75 84 76 85 77 86 56 87
REMARK SMILES IDX 57 88 65 89 58 90 64 91 66 92 63 93 59 94 60 95 61 96 62 97
REMARK H PARENT 22 5 10 18 27 31 86 50 54 61
REMARK Flexibility Score: inf
ROOT
ATOM      1  C   UNL A   1      32.768  29.546  27.272  1.00  0.00     0.116 C 
ENDROOT
BRANCH   1   2
ATOM      2  N   UNL A   1      33.704  28.609  26.674  1.00  0.00    -0.353 N 
ATOM      3  C   UNL A   1      33.457  27.523  25.878  1.00  0.00     0.260 C 
ATOM      4  O   UNL A   1      34.423  26.873  25.466  1.00  0.00    -0.271 OA
ATOM      5  H   UNL A   1      34.654  28.780  26.871  1.00  0.00     0.163 HD
BRANCH   3   6
ATOM      6  C   UNL A   1      32.020  27.159  25.467  1.00  0.00     0.258 C 
ATOM      7  C   UNL A   1      31.390  26.341  26.595  1.00  0.00     0.064 C 
BRANCH   6   8
ATOM      8  O   UNL A   1      32.129  26.649  24.137  1.00  0.00    -0.481 OA
BRANCH   8   9
ATOM      9  C   UNL A   1      32.002  25.352  23.776  1.00  0.00     0.120 A 
ATOM     10  C   UNL A   1      30.913  24.522  23.980  1.00  0.00     0.047 A 
ATOM     11  C   UNL A   1      33.127  24.839  23.126  1.00  0.00     0.047 A 
ATOM     12  C   UNL A   1      30.990  23.170  23.613  1.00  0.00     0.017 A 
ATOM     13  C   UNL A   1      33.205  23.492  22.755  1.00  0.00     0.017 A 
ATOM     14  C   UNL A   1      32.136  22.633  22.998  1.00  0.00     0.040 A 
BRANCH  14  15
ATOM     15  C   UNL A   1      32.131  21.163  22.743  1.00  0.00     0.251 C 
ATOM     16  O   UNL A   1      31.998  20.773  21.581  1.00  0.00    -0.269 OA
ATOM     17  N   UNL A   1      32.271  20.197  23.698  1.00  0.00    -0.348 N 
ATOM     18  H   UNL A   1      32.172  19.288  23.332  1.00  0.00     0.164 HD
BRANCH  17  19
ATOM     19  C   UNL A   1      32.530  20.197  25.122  1.00  0.00     0.152 C 
BRANCH  19  20
ATOM     20  C   UNL A   1      33.666  21.134  25.450  1.00  0.00    -0.029 A 
ATOM     21  C   UNL A   1      33.456  22.243  26.284  1.00  0.00     0.005 A 
ATOM     22  C   UNL A   1      34.944  20.947  24.900  1.00  0.00     0.005 A 
ATOM     23  C   UNL A   1      34.495  23.135  26.560  1.00  0.00     0.000 A 
ATOM     24  C   UNL A   1      35.984  21.832  25.183  1.00  0.00     0.000 A 
ATOM     25  C   UNL A   1      35.759  22.927  26.011  1.00  0.00     0.000 A 
ENDBRANCH  19  20
ENDBRANCH  17  19
ENDBRANCH  14  15
ENDBRANCH   8   9
ENDBRANCH   6   8
ENDBRANCH   3   6
ENDBRANCH   1   2
BRANCH   1  26
ATOM     26  C   UNL A   1      32.078  30.424  26.233  1.00  0.00     0.023 C 
BRANCH  26  27
ATOM     27  C   UNL A   1      31.754  31.840  26.707  1.00  0.00     0.023 C 
BRANCH  27  28
ATOM     28  C   UNL A   1      32.855  32.527  27.511  1.00  0.00     0.116 C 
BRANCH  28  29
ATOM     29  N   UNL A   1      32.594  33.938  27.741  1.00  0.00    -0.352 N 
ATOM     30  C   UNL A   1      33.194  34.798  28.635  1.00  0.00     0.251 C 
ATOM     31  H   UNL A   1      31.890  34.335  27.179  1.00  0.00     0.163 HD
ATOM     32  O   UNL A   1      32.741  35.920  28.797  1.00  0.00    -0.269 OA
BRANCH  30  33
ATOM     33  C   UNL A   1      34.363  34.336  29.422  1.00  0.00     0.039 A 
ATOM     34  C   UNL A   1      34.141  33.666  30.626  1.00  0.00     0.014 A 
ATOM     35  C   UNL A   1      35.666  34.543  28.962  1.00  0.00     0.014 A 
ATOM     36  C   UNL A   1      35.224  33.135  31.332  1.00  0.00     0.010 A 
ATOM     37  C   UNL A   1      36.737  33.949  29.626  1.00  0.00     0.010 A 
ATOM     38  C   UNL A   1      36.527  33.234  30.817  1.00  0.00    -0.014 A 
BRANCH  38  39
ATOM     39  C   UNL A   1      37.681  32.592  31.502  1.00  0.00     0.031 A 
ATOM     40  C   UNL A   1      38.394  31.435  30.858  1.00  0.00     0.074 A 
ATOM     41  C   UNL A   1      38.041  33.006  32.734  1.00  0.00     0.049 A 
ATOM     42  N   UNL A   1      39.365  30.694  31.329  1.00  0.00    -0.248 NA
ATOM     43  C   UNL A   1      37.933  31.041  29.519  1.00  0.00     0.031 C 
ATOM     44  C   UNL A   1      37.401  34.092  33.482  1.00  0.00     0.029 A 
ATOM     45  N   UNL A   1      39.026  32.560  33.580  1.00  0.00    -0.354 N 
ATOM     46  C   UNL A   1      39.619  29.737  30.352  1.00  0.00     0.074 A 
ATOM     47  C   UNL A   1      38.659  29.958  29.291  1.00  0.00     0.031 C 
ATOM     48  C   UNL A   1      38.026  34.243  34.660  1.00  0.00     0.029 A 
ATOM     49  C   UNL A   1      39.078  33.238  34.777  1.00  0.00     0.049 A 
ATOM     50  H   UNL A   1      39.638  31.825  33.352  1.00  0.00     0.167 HD
ATOM     51  C   UNL A   1      40.581  28.779  30.331  1.00  0.00     0.034 A 
ATOM     52  C   UNL A   1      39.872  33.062  35.852  1.00  0.00     0.034 A 
ATOM     53  C   UNL A   1      41.539  28.581  31.391  1.00  0.00     0.049 A 
ATOM     54  C   UNL A   1      40.915  31.973  35.817  1.00  0.00     0.074 A 
ATOM     55  C   UNL A   1      42.591  27.683  31.445  1.00  0.00     0.029 A 
ATOM     56  N   UNL A   1      41.558  29.284  32.590  1.00  0.00    -0.354 N 
ATOM     57  N   UNL A   1      41.178  31.111  34.863  1.00  0.00    -0.248 NA
ATOM     58  C   UNL A   1      41.772  31.841  37.002  1.00  0.00     0.031 C 
ATOM     59  C   UNL A   1      43.199  27.792  32.701  1.00  0.00     0.029 A 
ATOM     60  C   UNL A   1      42.580  28.816  33.402  1.00  0.00     0.049 A 
ATOM     61  H   UNL A   1      40.937  30.009  32.828  1.00  0.00     0.167 HD
ATOM     62  C   UNL A   1      42.255  30.356  35.320  1.00  0.00     0.074 A 
ATOM     63  C   UNL A   1      42.597  30.874  36.630  1.00  0.00     0.031 C 
ATOM     64  C   UNL A   1      42.906  29.332  34.712  1.00  0.00     0.034 A 
BRANCH  51  65
ATOM     65  C   UNL A   1      40.616  27.858  29.133  1.00  0.00     0.023 A 
ATOM     66  C   UNL A   1      41.560  28.020  28.103  1.00  0.00     0.031 A 
ATOM     67  C   UNL A   1      39.677  26.819  29.005  1.00  0.00     0.131 A 
ATOM     68  C   UNL A   1      41.492  27.215  26.956  1.00  0.00     0.055 A 
ATOM     69  C   UNL A   1      39.669  25.965  27.899  1.00  0.00     0.041 A 
ATOM     70  F   UNL A   1      38.738  26.626  29.944  1.00  0.00    -0.206 F 
ATOM     71  C   UNL A   1      40.569  26.172  26.858  1.00  0.00     0.022 A 
BRANCH  68  72
ATOM     72  S   UNL A   1      42.523  27.653  25.530  1.00  0.00     0.124 S 
ATOM     73  O   UNL A   1      43.827  27.853  26.159  1.00  0.00    -0.237 OA
ATOM     74  O   UNL A   1      42.398  26.477  24.677  1.00  0.00    -0.237 OA
ATOM     75  O   UNL A   1      41.897  28.868  25.014  1.00  0.00    -0.744 OA
ENDBRANCH  68  72
ENDBRANCH  51  65
BRANCH  52  76
ATOM     76  C   UNL A   1      39.716  33.926  37.057  1.00  0.00     0.023 A 
ATOM     77  C   UNL A   1      40.606  34.982  37.310  1.00  0.00     0.031 A 
ATOM     78  C   UNL A   1      38.698  33.683  37.997  1.00  0.00     0.131 A 
ATOM     79  C   UNL A   1      40.492  35.726  38.495  1.00  0.00     0.055 A 
ATOM     80  C   UNL A   1      38.556  34.460  39.148  1.00  0.00     0.041 A 
ATOM     81  F   UNL A   1      37.816  32.689  37.803  1.00  0.00    -0.206 F 
ATOM     82  C   UNL A   1      39.465  35.480  39.409  1.00  0.00     0.022 A 
BRANCH  79  83
ATOM     83  S   UNL A   1      41.759  36.969  38.864  1.00  0.00     0.124 S 
ATOM     84  O   UNL A   1      42.231  37.318  37.529  1.00  0.00    -0.237 OA
ATOM     85  O   UNL A   1      40.986  37.993  39.559  1.00  0.00    -0.237 OA
ATOM     86  O   UNL A   1      42.717  36.242  39.695  1.00  0.00    -0.744 OA
ENDBRANCH  79  83
ENDBRANCH  52  76
BRANCH  64  87
ATOM     87  C   UNL A   1      44.086  28.738  35.442  1.00  0.00     0.023 A 
ATOM     88  C   UNL A   1      43.943  27.662  36.335  1.00  0.00     0.031 A 
ATOM     89  C   UNL A   1      45.375  29.269  35.247  1.00  0.00     0.131 A 
ATOM     90  C   UNL A   1      45.059  27.187  37.043  1.00  0.00     0.055 A 
ATOM     91  C   UNL A   1      46.491  28.751  35.906  1.00  0.00     0.041 A 
ATOM     92  F   UNL A   1      45.570  30.299  34.409  1.00  0.00    -0.206 F 
ATOM     93  C   UNL A   1      46.334  27.713  36.820  1.00  0.00     0.022 A 
BRANCH  90  94
ATOM     94  S   UNL A   1      44.807  25.933  38.328  1.00  0.00     0.124 S 
ATOM     95  O   UNL A   1      43.759  26.540  39.143  1.00  0.00    -0.237 OA
ATOM     96  O   UNL A   1      44.411  24.763  37.550  1.00  0.00    -0.237 OA
ATOM     97  O   UNL A   1      46.115  25.834  38.973  1.00  0.00    -0.744 OA
ENDBRANCH  90  94
ENDBRANCH  64  87
ENDBRANCH  38  39
ENDBRANCH  30  33
ENDBRANCH  28  29
ENDBRANCH  27  28
ENDBRANCH  26  27
ENDBRANCH   1  26
TORSDOF 19
ENDMDL
