MODEL 1
REMARK VINA RESULT:     -12.5      0.000      0.000
REMARK SMILES O=C(NCCCCNC(=O)c1ccc(N[C@@H]2CCCS(=O)(=O)C2)c(F)c1F)c1ccc(-c2c3nc(c(-c4cc(S(=O)(=O)[O-])ccc4F)c4ccc([nH]4)c(-c4cc(S(=O)(=O)[O-])ccc4F)c4nc(c(-c5cc(S(=O)(=O)[O-])ccc5F)c5ccc2[nH]5)C=C4)C=C3)cc1
REMARK SMILES IDX 5 1 4 2 3 3 1 4 2 5 28 7 29 8 90 9 30 10 89 11 31 12 32 13
REMARK SMILES IDX 33 14 83 15 34 16 88 17 82 18 84 19 35 20 87 21 81 22 80 23
REMARK SMILES IDX 36 25 68 26 48 27 67 28 49 29 52 30 66 31 85 32 50 33 51 34
REMARK SMILES IDX 65 36 86 37 53 38 37 39 38 40 46 41 39 42 45 43 47 44 44 45
REMARK SMILES IDX 40 46 41 47 42 48 43 49 69 50 70 51 78 52 71 53 77 54 79 55
REMARK SMILES IDX 76 56 72 57 73 58 74 59 75 60 54 61 55 62 63 63 56 64 62 65
REMARK SMILES IDX 64 66 61 67 57 68 58 69 59 70 60 71 6 72 7 73 8 74 9 75
REMARK SMILES IDX 10 77 11 78 12 79 26 80 13 81 24 82 27 83 14 84 25 85 15 86
REMARK SMILES IDX 16 88 17 89 23 90 18 91 20 92 19 93 21 94 22 95
REMARK H PARENT 3 6 84 24 52 35 8 76 15 87
REMARK Flexibility Score: inf
ROOT
ATOM      1  C   UNL A   1      31.531  32.124  26.556  1.00  0.00     0.023 C 
ENDROOT
BRANCH   1   2
ATOM      2  C   UNL A   1      32.758  32.717  27.237  1.00  0.00     0.116 C 
BRANCH   2   3
ATOM      3  N   UNL A   1      32.541  34.074  27.716  1.00  0.00    -0.352 N 
ATOM      4  O   UNL A   1      32.767  35.835  29.108  1.00  0.00    -0.269 OA
ATOM      5  C   UNL A   1      33.175  34.737  28.740  1.00  0.00     0.251 C 
ATOM      6  H   UNL A   1      31.847  34.587  27.242  1.00  0.00     0.163 HD
BRANCH   5   7
ATOM      7  C   UNL A   1      34.336  34.109  29.406  1.00  0.00     0.039 A 
ATOM      8  C   UNL A   1      35.637  34.494  29.071  1.00  0.00     0.014 A 
ATOM      9  C   UNL A   1      34.120  33.117  30.366  1.00  0.00     0.014 A 
ATOM     10  C   UNL A   1      36.720  33.800  29.597  1.00  0.00     0.010 A 
ATOM     11  C   UNL A   1      35.213  32.477  30.957  1.00  0.00     0.010 A 
ATOM     12  C   UNL A   1      36.521  32.799  30.561  1.00  0.00    -0.014 A 
BRANCH  12  13
ATOM     13  C   UNL A   1      37.699  32.165  31.206  1.00  0.00     0.031 A 
ATOM     14  C   UNL A   1      38.447  31.046  30.536  1.00  0.00     0.074 A 
ATOM     15  C   UNL A   1      38.084  32.616  32.416  1.00  0.00     0.049 A 
ATOM     16  N   UNL A   1      39.470  30.362  30.977  1.00  0.00    -0.248 NA
ATOM     17  C   UNL A   1      37.982  30.639  29.201  1.00  0.00     0.031 C 
ATOM     18  C   UNL A   1      37.423  33.694  33.159  1.00  0.00     0.029 A 
ATOM     19  N   UNL A   1      39.113  32.235  33.237  1.00  0.00    -0.354 N 
ATOM     20  C   UNL A   1      39.761  29.427  29.990  1.00  0.00     0.074 A 
ATOM     21  C   UNL A   1      38.791  29.622  28.932  1.00  0.00     0.031 C 
ATOM     22  C   UNL A   1      38.077  33.902  34.309  1.00  0.00     0.029 A 
ATOM     23  C   UNL A   1      39.153  32.927  34.425  1.00  0.00     0.049 A 
ATOM     24  H   UNL A   1      39.762  31.533  32.999  1.00  0.00     0.167 HD
ATOM     25  C   UNL A   1      40.749  28.497  29.974  1.00  0.00     0.034 A 
ATOM     26  C   UNL A   1      39.938  32.768  35.507  1.00  0.00     0.034 A 
ATOM     27  C   UNL A   1      41.712  28.331  31.038  1.00  0.00     0.049 A 
ATOM     28  C   UNL A   1      40.991  31.694  35.482  1.00  0.00     0.074 A 
ATOM     29  C   UNL A   1      42.797  27.472  31.090  1.00  0.00     0.029 A 
ATOM     30  N   UNL A   1      41.695  29.019  32.244  1.00  0.00    -0.354 N 
ATOM     31  N   UNL A   1      41.283  30.852  34.518  1.00  0.00    -0.248 NA
ATOM     32  C   UNL A   1      41.817  31.548  36.684  1.00  0.00     0.031 C 
ATOM     33  C   UNL A   1      43.388  27.587  32.353  1.00  0.00     0.029 A 
ATOM     34  C   UNL A   1      42.719  28.569  33.065  1.00  0.00     0.049 A 
ATOM     35  H   UNL A   1      41.050  29.723  32.483  1.00  0.00     0.167 HD
ATOM     36  C   UNL A   1      42.338  30.082  34.996  1.00  0.00     0.074 A 
ATOM     37  C   UNL A   1      42.644  30.578  36.324  1.00  0.00     0.031 C 
ATOM     38  C   UNL A   1      42.995  29.059  34.395  1.00  0.00     0.034 A 
BRANCH  25  39
ATOM     39  C   UNL A   1      40.811  27.553  28.798  1.00  0.00     0.023 A 
ATOM     40  C   UNL A   1      41.788  27.669  27.795  1.00  0.00     0.031 A 
ATOM     41  C   UNL A   1      39.879  26.503  28.690  1.00  0.00     0.131 A 
ATOM     42  C   UNL A   1      41.781  26.786  26.703  1.00  0.00     0.055 A 
ATOM     43  C   UNL A   1      39.918  25.587  27.637  1.00  0.00     0.041 A 
ATOM     44  F   UNL A   1      38.912  26.352  29.608  1.00  0.00    -0.206 F 
ATOM     45  C   UNL A   1      40.867  25.732  26.630  1.00  0.00     0.022 A 
BRANCH  42  46
ATOM     46  S   UNL A   1      42.913  27.100  25.322  1.00  0.00     0.124 S 
ATOM     47  O   UNL A   1      42.901  25.814  24.629  1.00  0.00    -0.237 OA
ATOM     48  O   UNL A   1      42.264  28.206  24.628  1.00  0.00    -0.237 OA
ATOM     49  O   UNL A   1      44.175  27.433  25.981  1.00  0.00    -0.744 OA
ENDBRANCH  42  46
ENDBRANCH  25  39
BRANCH  26  50
ATOM     50  C   UNL A   1      39.718  33.603  36.722  1.00  0.00     0.023 A 
ATOM     51  C   UNL A   1      39.061  33.088  37.849  1.00  0.00     0.031 A 
ATOM     52  C   UNL A   1      40.136  34.946  36.757  1.00  0.00     0.131 A 
ATOM     53  C   UNL A   1      38.806  33.922  38.949  1.00  0.00     0.055 A 
ATOM     54  C   UNL A   1      39.932  35.755  37.875  1.00  0.00     0.041 A 
ATOM     55  F   UNL A   1      40.771  35.489  35.706  1.00  0.00    -0.206 F 
ATOM     56  C   UNL A   1      39.250  35.246  38.975  1.00  0.00     0.022 A 
BRANCH  53  57
ATOM     57  S   UNL A   1      37.802  33.274  40.312  1.00  0.00     0.124 S 
ATOM     58  O   UNL A   1      36.513  33.069  39.661  1.00  0.00    -0.237 OA
ATOM     59  O   UNL A   1      38.535  32.067  40.680  1.00  0.00    -0.237 OA
ATOM     60  O   UNL A   1      37.837  34.349  41.301  1.00  0.00    -0.744 OA
ENDBRANCH  53  57
ENDBRANCH  26  50
BRANCH  38  61
ATOM     61  C   UNL A   1      44.125  28.432  35.170  1.00  0.00     0.023 A 
ATOM     62  C   UNL A   1      43.892  27.425  36.123  1.00  0.00     0.031 A 
ATOM     63  C   UNL A   1      45.448  28.856  34.961  1.00  0.00     0.131 A 
ATOM     64  C   UNL A   1      44.962  26.912  36.870  1.00  0.00     0.055 A 
ATOM     65  C   UNL A   1      46.516  28.300  35.666  1.00  0.00     0.041 A 
ATOM     66  F   UNL A   1      45.725  29.817  34.065  1.00  0.00    -0.206 F 
ATOM     67  C   UNL A   1      46.274  27.330  36.636  1.00  0.00     0.022 A 
BRANCH  64  68
ATOM     68  S   UNL A   1      44.607  25.740  38.207  1.00  0.00     0.124 S 
ATOM     69  O   UNL A   1      45.840  25.789  38.987  1.00  0.00    -0.237 OA
ATOM     70  O   UNL A   1      43.430  26.327  38.837  1.00  0.00    -0.237 OA
ATOM     71  O   UNL A   1      44.368  24.480  37.505  1.00  0.00    -0.744 OA
ENDBRANCH  64  68
ENDBRANCH  38  61
ENDBRANCH  12  13
ENDBRANCH   5   7
ENDBRANCH   2   3
ENDBRANCH   1   2
BRANCH   1  72
ATOM     72  C   UNL A   1      31.552  30.609  26.392  1.00  0.00     0.023 C 
BRANCH  72  73
ATOM     73  C   UNL A   1      32.901  30.024  25.992  1.00  0.00     0.116 C 
BRANCH  73  74
ATOM     74  N   UNL A   1      32.986  29.690  24.576  1.00  0.00    -0.352 N 
ATOM     75  C   UNL A   1      32.904  28.453  23.980  1.00  0.00     0.254 C 
ATOM     76  H   UNL A   1      33.119  30.450  23.965  1.00  0.00     0.163 HD
ATOM     77  O   UNL A   1      33.021  28.310  22.770  1.00  0.00    -0.269 OA
BRANCH  75  78
ATOM     78  C   UNL A   1      32.628  27.291  24.832  1.00  0.00     0.078 A 
ATOM     79  C   UNL A   1      33.694  26.512  25.281  1.00  0.00     0.019 A 
ATOM     80  C   UNL A   1      31.323  26.919  25.109  1.00  0.00     0.173 A 
ATOM     81  C   UNL A   1      33.441  25.291  25.903  1.00  0.00     0.030 A 
ATOM     82  C   UNL A   1      31.085  25.717  25.770  1.00  0.00     0.182 A 
ATOM     83  F   UNL A   1      30.286  27.659  24.693  1.00  0.00    -0.203 F 
ATOM     84  C   UNL A   1      32.134  24.852  26.150  1.00  0.00     0.074 A 
ATOM     85  F   UNL A   1      29.817  25.335  26.000  1.00  0.00    -0.201 F 
BRANCH  84  86
ATOM     86  N   UNL A   1      31.827  23.618  26.705  1.00  0.00    -0.379 N 
ATOM     87  H   UNL A   1      31.171  23.629  27.438  1.00  0.00     0.160 HD
BRANCH  86  88
ATOM     88  C   UNL A   1      32.356  22.297  26.339  1.00  0.00     0.094 C 
ATOM     89  C   UNL A   1      33.879  22.254  26.579  1.00  0.00     0.027 C 
ATOM     90  C   UNL A   1      31.840  21.878  24.965  1.00  0.00     0.161 C 
ATOM     91  C   UNL A   1      34.586  20.992  26.093  1.00  0.00     0.018 C 
ATOM     92  S   UNL A   1      32.547  20.349  24.431  1.00  0.00     0.152 S 
ATOM     93  C   UNL A   1      34.280  20.676  24.640  1.00  0.00     0.137 C 
ATOM     94  O   UNL A   1      32.290  20.208  23.013  1.00  0.00    -0.229 OA
ATOM     95  O   UNL A   1      32.158  19.312  25.366  1.00  0.00    -0.229 OA
ENDBRANCH  86  88
ENDBRANCH  84  86
ENDBRANCH  75  78
ENDBRANCH  73  74
ENDBRANCH  72  73
ENDBRANCH   1  72
TORSDOF 16
ENDMDL
MODEL 2
REMARK VINA RESULT:     -12.5      1.360      1.814
REMARK SMILES O=C(NCCCCNC(=O)c1ccc(N[C@@H]2CCCS(=O)(=O)C2)c(F)c1F)c1ccc(-c2c3nc(c(-c4cc(S(=O)(=O)[O-])ccc4F)c4ccc([nH]4)c(-c4cc(S(=O)(=O)[O-])ccc4F)c4nc(c(-c5cc(S(=O)(=O)[O-])ccc5F)c5ccc2[nH]5)C=C4)C=C3)cc1
REMARK SMILES IDX 5 1 4 2 3 3 1 4 2 5 28 7 29 8 90 9 30 10 89 11 31 12 32 13
REMARK SMILES IDX 33 14 83 15 34 16 88 17 82 18 84 19 35 20 87 21 81 22 80 23
REMARK SMILES IDX 36 25 68 26 48 27 67 28 49 29 52 30 66 31 85 32 50 33 51 34
REMARK SMILES IDX 65 36 86 37 53 38 37 39 38 40 46 41 39 42 45 43 47 44 44 45
REMARK SMILES IDX 40 46 41 47 42 48 43 49 69 50 70 51 78 52 71 53 77 54 79 55
REMARK SMILES IDX 76 56 72 57 73 58 74 59 75 60 54 61 55 62 63 63 56 64 62 65
REMARK SMILES IDX 64 66 61 67 57 68 58 69 59 70 60 71 6 72 7 73 8 74 9 75
REMARK SMILES IDX 10 77 11 78 12 79 26 80 13 81 24 82 27 83 14 84 25 85 15 86
REMARK SMILES IDX 16 88 17 89 23 90 18 91 20 92 19 93 21 94 22 95
REMARK H PARENT 3 6 84 24 52 35 8 76 15 87
REMARK Flexibility Score: inf
ROOT
ATOM      1  C   UNL A   1      31.504  31.467  26.506  1.00  0.00     0.023 C 
ENDROOT
BRANCH   1   2
ATOM      2  C   UNL A   1      32.773  32.165  26.977  1.00  0.00     0.116 C 
BRANCH   2   3
ATOM      3  N   UNL A   1      32.536  33.527  27.434  1.00  0.00    -0.352 N 
ATOM      4  O   UNL A   1      32.755  35.321  28.783  1.00  0.00    -0.269 OA
ATOM      5  C   UNL A   1      33.180  34.226  28.427  1.00  0.00     0.251 C 
ATOM      6  H   UNL A   1      31.818  34.013  26.968  1.00  0.00     0.163 HD
BRANCH   5   7
ATOM      7  C   UNL A   1      34.373  33.640  29.074  1.00  0.00     0.039 A 
ATOM      8  C   UNL A   1      34.241  32.571  29.965  1.00  0.00     0.014 A 
ATOM      9  C   UNL A   1      35.635  34.172  28.795  1.00  0.00     0.014 A 
ATOM     10  C   UNL A   1      35.348  32.123  30.675  1.00  0.00     0.010 A 
ATOM     11  C   UNL A   1      36.760  33.663  29.448  1.00  0.00     0.010 A 
ATOM     12  C   UNL A   1      36.623  32.649  30.409  1.00  0.00    -0.014 A 
BRANCH  12  13
ATOM     13  C   UNL A   1      37.808  32.061  31.083  1.00  0.00     0.031 A 
ATOM     14  C   UNL A   1      38.593  30.947  30.449  1.00  0.00     0.074 A 
ATOM     15  C   UNL A   1      38.167  32.551  32.286  1.00  0.00     0.049 A 
ATOM     16  N   UNL A   1      39.628  30.300  30.919  1.00  0.00    -0.248 NA
ATOM     17  C   UNL A   1      38.155  30.495  29.119  1.00  0.00     0.031 C 
ATOM     18  C   UNL A   1      37.469  33.630  32.994  1.00  0.00     0.029 A 
ATOM     19  N   UNL A   1      39.195  32.217  33.128  1.00  0.00    -0.354 N 
ATOM     20  C   UNL A   1      39.955  29.349  29.958  1.00  0.00     0.074 A 
ATOM     21  C   UNL A   1      38.994  29.493  28.884  1.00  0.00     0.031 C 
ATOM     22  C   UNL A   1      38.104  33.883  34.147  1.00  0.00     0.029 A 
ATOM     23  C   UNL A   1      39.203  32.938  34.299  1.00  0.00     0.049 A 
ATOM     24  H   UNL A   1      39.865  31.527  32.915  1.00  0.00     0.167 HD
ATOM     25  C   UNL A   1      40.967  28.445  29.976  1.00  0.00     0.034 A 
ATOM     26  C   UNL A   1      39.979  32.827  35.394  1.00  0.00     0.034 A 
ATOM     27  C   UNL A   1      41.920  28.330  31.055  1.00  0.00     0.049 A 
ATOM     28  C   UNL A   1      41.059  31.780  35.407  1.00  0.00     0.074 A 
ATOM     29  C   UNL A   1      43.026  27.501  31.141  1.00  0.00     0.029 A 
ATOM     30  N   UNL A   1      41.871  29.046  32.244  1.00  0.00    -0.354 N 
ATOM     31  N   UNL A   1      41.385  30.922  34.467  1.00  0.00    -0.248 NA
ATOM     32  C   UNL A   1      41.874  31.684  36.622  1.00  0.00     0.031 C 
ATOM     33  C   UNL A   1      43.599  27.662  32.408  1.00  0.00     0.029 A 
ATOM     34  C   UNL A   1      42.897  28.644  33.087  1.00  0.00     0.049 A 
ATOM     35  H   UNL A   1      41.205  29.739  32.458  1.00  0.00     0.167 HD
ATOM     36  C   UNL A   1      42.453  30.192  34.977  1.00  0.00     0.074 A 
ATOM     37  C   UNL A   1      42.730  30.727  36.295  1.00  0.00     0.031 C 
ATOM     38  C   UNL A   1      43.143  29.173  34.408  1.00  0.00     0.034 A 
BRANCH  25  39
ATOM     39  C   UNL A   1      41.067  27.474  28.825  1.00  0.00     0.023 A 
ATOM     40  C   UNL A   1      42.052  27.594  27.829  1.00  0.00     0.031 A 
ATOM     41  C   UNL A   1      40.166  26.397  28.733  1.00  0.00     0.131 A 
ATOM     42  C   UNL A   1      42.081  26.684  26.760  1.00  0.00     0.055 A 
ATOM     43  C   UNL A   1      40.241  25.457  27.703  1.00  0.00     0.041 A 
ATOM     44  F   UNL A   1      39.193  26.242  29.645  1.00  0.00    -0.206 F 
ATOM     45  C   UNL A   1      41.197  25.604  26.703  1.00  0.00     0.022 A 
BRANCH  42  46
ATOM     46  S   UNL A   1      43.219  26.996  25.383  1.00  0.00     0.124 S 
ATOM     47  O   UNL A   1      42.499  28.018  24.628  1.00  0.00    -0.237 OA
ATOM     48  O   UNL A   1      44.428  27.440  26.067  1.00  0.00    -0.237 OA
ATOM     49  O   UNL A   1      43.320  25.697  24.720  1.00  0.00    -0.744 OA
ENDBRANCH  42  46
ENDBRANCH  25  39
BRANCH  26  50
ATOM     50  C   UNL A   1      39.722  33.684  36.585  1.00  0.00     0.023 A 
ATOM     51  C   UNL A   1      39.143  33.158  37.749  1.00  0.00     0.031 A 
ATOM     52  C   UNL A   1      40.026  35.058  36.561  1.00  0.00     0.131 A 
ATOM     53  C   UNL A   1      38.848  34.009  38.827  1.00  0.00     0.055 A 
ATOM     54  C   UNL A   1      39.785  35.888  37.656  1.00  0.00     0.041 A 
ATOM     55  F   UNL A   1      40.584  35.612  35.472  1.00  0.00    -0.206 F 
ATOM     56  C   UNL A   1      39.179  35.365  38.794  1.00  0.00     0.022 A 
BRANCH  53  57
ATOM     57  S   UNL A   1      37.940  33.330  40.241  1.00  0.00     0.124 S 
ATOM     58  O   UNL A   1      38.010  34.429  41.196  1.00  0.00    -0.237 OA
ATOM     59  O   UNL A   1      36.628  33.066  39.659  1.00  0.00    -0.237 OA
ATOM     60  O   UNL A   1      38.710  32.141  40.600  1.00  0.00    -0.744 OA
ENDBRANCH  53  57
ENDBRANCH  26  50
BRANCH  38  61
ATOM     61  C   UNL A   1      44.280  28.593  35.211  1.00  0.00     0.023 A 
ATOM     62  C   UNL A   1      44.062  27.599  36.180  1.00  0.00     0.031 A 
ATOM     63  C   UNL A   1      45.593  29.053  35.013  1.00  0.00     0.131 A 
ATOM     64  C   UNL A   1      45.135  27.131  36.953  1.00  0.00     0.055 A 
ATOM     65  C   UNL A   1      46.666  28.543  35.745  1.00  0.00     0.041 A 
ATOM     66  F   UNL A   1      45.855  30.005  34.104  1.00  0.00    -0.206 F 
ATOM     67  C   UNL A   1      46.438  27.584  36.729  1.00  0.00     0.022 A 
BRANCH  64  68
ATOM     68  S   UNL A   1      44.795  25.974  38.306  1.00  0.00     0.124 S 
ATOM     69  O   UNL A   1      44.708  24.700  37.600  1.00  0.00    -0.237 OA
ATOM     70  O   UNL A   1      45.959  26.148  39.168  1.00  0.00    -0.237 OA
ATOM     71  O   UNL A   1      43.534  26.460  38.865  1.00  0.00    -0.744 OA
ENDBRANCH  64  68
ENDBRANCH  38  61
ENDBRANCH  12  13
ENDBRANCH   5   7
ENDBRANCH   2   3
ENDBRANCH   1   2
BRANCH   1  72
ATOM     72  C   UNL A   1      31.617  29.955  26.352  1.00  0.00     0.023 C 
BRANCH  72  73
ATOM     73  C   UNL A   1      32.150  29.483  25.004  1.00  0.00     0.116 C 
BRANCH  73  74
ATOM     74  N   UNL A   1      31.274  29.822  23.890  1.00  0.00    -0.352 N 
ATOM     75  C   UNL A   1      30.947  29.059  22.794  1.00  0.00     0.254 C 
ATOM     76  H   UNL A   1      30.862  30.715  23.927  1.00  0.00     0.163 HD
ATOM     77  O   UNL A   1      30.214  29.481  21.909  1.00  0.00    -0.269 OA
BRANCH  75  78
ATOM     78  C   UNL A   1      31.469  27.690  22.723  1.00  0.00     0.078 A 
ATOM     79  C   UNL A   1      32.774  27.485  22.277  1.00  0.00     0.019 A 
ATOM     80  C   UNL A   1      30.647  26.610  23.005  1.00  0.00     0.173 A 
ATOM     81  C   UNL A   1      33.211  26.192  21.996  1.00  0.00     0.030 A 
ATOM     82  C   UNL A   1      31.112  25.321  22.760  1.00  0.00     0.182 A 
ATOM     83  F   UNL A   1      29.393  26.788  23.443  1.00  0.00    -0.203 F 
ATOM     84  C   UNL A   1      32.390  25.078  22.214  1.00  0.00     0.074 A 
ATOM     85  F   UNL A   1      30.299  24.276  22.994  1.00  0.00    -0.201 F 
BRANCH  84  86
ATOM     86  N   UNL A   1      32.753  23.778  21.889  1.00  0.00    -0.379 N 
ATOM     87  H   UNL A   1      32.696  23.543  20.935  1.00  0.00     0.160 HD
BRANCH  86  88
ATOM     88  C   UNL A   1      33.210  22.709  22.786  1.00  0.00     0.094 C 
ATOM     89  C   UNL A   1      32.173  21.567  22.817  1.00  0.00     0.027 C 
ATOM     90  C   UNL A   1      33.667  23.291  24.121  1.00  0.00     0.161 C 
ATOM     91  C   UNL A   1      32.445  20.459  23.831  1.00  0.00     0.018 C 
ATOM     92  S   UNL A   1      34.112  22.030  25.275  1.00  0.00     0.152 S 
ATOM     93  C   UNL A   1      32.669  20.995  25.233  1.00  0.00     0.137 C 
ATOM     94  O   UNL A   1      34.188  22.633  26.590  1.00  0.00    -0.229 OA
ATOM     95  O   UNL A   1      35.230  21.283  24.732  1.00  0.00    -0.229 OA
ENDBRANCH  86  88
ENDBRANCH  84  86
ENDBRANCH  75  78
ENDBRANCH  73  74
ENDBRANCH  72  73
ENDBRANCH   1  72
TORSDOF 16
ENDMDL
MODEL 3
REMARK VINA RESULT:     -12.3      1.792      2.163
REMARK SMILES O=C(NCCCCNC(=O)c1ccc(N[C@@H]2CCCS(=O)(=O)C2)c(F)c1F)c1ccc(-c2c3nc(c(-c4cc(S(=O)(=O)[O-])ccc4F)c4ccc([nH]4)c(-c4cc(S(=O)(=O)[O-])ccc4F)c4nc(c(-c5cc(S(=O)(=O)[O-])ccc5F)c5ccc2[nH]5)C=C4)C=C3)cc1
REMARK SMILES IDX 5 1 4 2 3 3 1 4 2 5 28 7 29 8 90 9 30 10 89 11 31 12 32 13
REMARK SMILES IDX 33 14 83 15 34 16 88 17 82 18 84 19 35 20 87 21 81 22 80 23
REMARK SMILES IDX 36 25 68 26 48 27 67 28 49 29 52 30 66 31 85 32 50 33 51 34
REMARK SMILES IDX 65 36 86 37 53 38 37 39 38 40 46 41 39 42 45 43 47 44 44 45
REMARK SMILES IDX 40 46 41 47 42 48 43 49 69 50 70 51 78 52 71 53 77 54 79 55
REMARK SMILES IDX 76 56 72 57 73 58 74 59 75 60 54 61 55 62 63 63 56 64 62 65
REMARK SMILES IDX 64 66 61 67 57 68 58 69 59 70 60 71 6 72 7 73 8 74 9 75
REMARK SMILES IDX 10 77 11 78 12 79 26 80 13 81 24 82 27 83 14 84 25 85 15 86
REMARK SMILES IDX 16 88 17 89 23 90 18 91 20 92 19 93 21 94 22 95
REMARK H PARENT 3 6 84 24 52 35 8 76 15 87
REMARK Flexibility Score: inf
ROOT
ATOM      1  C   UNL A   1      31.693  31.901  26.749  1.00  0.00     0.023 C 
ENDROOT
BRANCH   1   2
ATOM      2  C   UNL A   1      32.935  32.702  27.119  1.00  0.00     0.116 C 
BRANCH   2   3
ATOM      3  N   UNL A   1      32.621  34.011  27.674  1.00  0.00    -0.352 N 
ATOM      4  O   UNL A   1      32.687  35.684  29.185  1.00  0.00    -0.269 OA
ATOM      5  C   UNL A   1      33.172  34.636  28.767  1.00  0.00     0.251 C 
ATOM      6  H   UNL A   1      31.921  34.516  27.201  1.00  0.00     0.163 HD
BRANCH   5   7
ATOM      7  C   UNL A   1      34.335  34.028  29.446  1.00  0.00     0.039 A 
ATOM      8  C   UNL A   1      35.635  34.359  29.054  1.00  0.00     0.014 A 
ATOM      9  C   UNL A   1      34.123  33.109  30.477  1.00  0.00     0.014 A 
ATOM     10  C   UNL A   1      36.716  33.677  29.599  1.00  0.00     0.010 A 
ATOM     11  C   UNL A   1      35.217  32.485  31.083  1.00  0.00     0.010 A 
ATOM     12  C   UNL A   1      36.521  32.748  30.634  1.00  0.00    -0.014 A 
BRANCH  12  13
ATOM     13  C   UNL A   1      37.701  32.132  31.292  1.00  0.00     0.031 A 
ATOM     14  C   UNL A   1      38.479  31.032  30.625  1.00  0.00     0.074 A 
ATOM     15  C   UNL A   1      38.060  32.581  32.511  1.00  0.00     0.049 A 
ATOM     16  N   UNL A   1      39.508  30.364  31.076  1.00  0.00    -0.248 NA
ATOM     17  C   UNL A   1      38.041  30.625  29.281  1.00  0.00     0.031 C 
ATOM     18  C   UNL A   1      37.368  33.642  33.251  1.00  0.00     0.029 A 
ATOM     19  N   UNL A   1      39.083  32.214  33.344  1.00  0.00    -0.354 N 
ATOM     20  C   UNL A   1      39.832  29.441  30.087  1.00  0.00     0.074 A 
ATOM     21  C   UNL A   1      38.874  29.626  29.017  1.00  0.00     0.031 C 
ATOM     22  C   UNL A   1      38.001  33.854  34.412  1.00  0.00     0.029 A 
ATOM     23  C   UNL A   1      39.093  32.898  34.537  1.00  0.00     0.049 A 
ATOM     24  H   UNL A   1      39.749  31.526  33.111  1.00  0.00     0.167 HD
ATOM     25  C   UNL A   1      40.837  28.531  30.080  1.00  0.00     0.034 A 
ATOM     26  C   UNL A   1      39.866  32.746  35.630  1.00  0.00     0.034 A 
ATOM     27  C   UNL A   1      41.787  28.375  31.156  1.00  0.00     0.049 A 
ATOM     28  C   UNL A   1      40.938  31.692  35.612  1.00  0.00     0.074 A 
ATOM     29  C   UNL A   1      42.887  27.536  31.219  1.00  0.00     0.029 A 
ATOM     30  N   UNL A   1      41.740  29.053  32.367  1.00  0.00    -0.354 N 
ATOM     31  N   UNL A   1      41.260  30.862  34.647  1.00  0.00    -0.248 NA
ATOM     32  C   UNL A   1      41.749  31.553  36.826  1.00  0.00     0.031 C 
ATOM     33  C   UNL A   1      43.457  27.653  32.491  1.00  0.00     0.029 A 
ATOM     34  C   UNL A   1      42.760  28.618  33.200  1.00  0.00     0.049 A 
ATOM     35  H   UNL A   1      41.078  29.744  32.601  1.00  0.00     0.167 HD
ATOM     36  C   UNL A   1      42.322  30.109  35.136  1.00  0.00     0.074 A 
ATOM     37  C   UNL A   1      42.600  30.601  36.471  1.00  0.00     0.031 C 
ATOM     38  C   UNL A   1      43.007  29.103  34.537  1.00  0.00     0.034 A 
BRANCH  25  39
ATOM     39  C   UNL A   1      40.934  27.596  28.898  1.00  0.00     0.023 A 
ATOM     40  C   UNL A   1      41.875  27.783  27.871  1.00  0.00     0.031 A 
ATOM     41  C   UNL A   1      40.074  26.485  28.810  1.00  0.00     0.131 A 
ATOM     42  C   UNL A   1      41.900  26.903  26.776  1.00  0.00     0.055 A 
ATOM     43  C   UNL A   1      40.149  25.576  27.752  1.00  0.00     0.041 A 
ATOM     44  F   UNL A   1      39.144  26.265  29.752  1.00  0.00    -0.206 F 
ATOM     45  C   UNL A   1      41.060  25.789  26.721  1.00  0.00     0.022 A 
BRANCH  42  46
ATOM     46  S   UNL A   1      42.972  27.299  25.368  1.00  0.00     0.124 S 
ATOM     47  O   UNL A   1      43.039  26.015  24.675  1.00  0.00    -0.237 OA
ATOM     48  O   UNL A   1      42.226  28.353  24.690  1.00  0.00    -0.237 OA
ATOM     49  O   UNL A   1      44.221  27.726  25.996  1.00  0.00    -0.744 OA
ENDBRANCH  42  46
ENDBRANCH  25  39
BRANCH  26  50
ATOM     50  C   UNL A   1      39.611  33.568  36.847  1.00  0.00     0.023 A 
ATOM     51  C   UNL A   1      40.353  34.729  37.108  1.00  0.00     0.031 A 
ATOM     52  C   UNL A   1      38.637  33.182  37.785  1.00  0.00     0.131 A 
ATOM     53  C   UNL A   1      40.138  35.441  38.299  1.00  0.00     0.055 A 
ATOM     54  C   UNL A   1      38.386  33.924  38.939  1.00  0.00     0.041 A 
ATOM     55  F   UNL A   1      37.897  32.079  37.582  1.00  0.00    -0.206 F 
ATOM     56  C   UNL A   1      39.150  35.055  39.207  1.00  0.00     0.022 A 
BRANCH  53  57
ATOM     57  S   UNL A   1      41.234  36.831  38.687  1.00  0.00     0.124 S 
ATOM     58  O   UNL A   1      41.966  36.993  37.435  1.00  0.00    -0.237 OA
ATOM     59  O   UNL A   1      40.280  37.886  39.015  1.00  0.00    -0.237 OA
ATOM     60  O   UNL A   1      42.025  36.336  39.812  1.00  0.00    -0.744 OA
ENDBRANCH  53  57
ENDBRANCH  26  50
BRANCH  38  61
ATOM     61  C   UNL A   1      44.138  28.491  35.324  1.00  0.00     0.023 A 
ATOM     62  C   UNL A   1      43.916  27.442  36.233  1.00  0.00     0.031 A 
ATOM     63  C   UNL A   1      45.449  28.973  35.172  1.00  0.00     0.131 A 
ATOM     64  C   UNL A   1      44.982  26.943  36.995  1.00  0.00     0.055 A 
ATOM     65  C   UNL A   1      46.516  28.434  35.890  1.00  0.00     0.041 A 
ATOM     66  F   UNL A   1      45.714  29.977  34.320  1.00  0.00    -0.206 F 
ATOM     67  C   UNL A   1      46.284  27.420  36.817  1.00  0.00     0.022 A 
BRANCH  64  68
ATOM     68  S   UNL A   1      44.635  25.710  38.277  1.00  0.00     0.124 S 
ATOM     69  O   UNL A   1      43.715  24.810  37.589  1.00  0.00    -0.237 OA
ATOM     70  O   UNL A   1      45.960  25.172  38.564  1.00  0.00    -0.237 OA
ATOM     71  O   UNL A   1      44.040  26.496  39.358  1.00  0.00    -0.744 OA
ENDBRANCH  64  68
ENDBRANCH  38  61
ENDBRANCH  12  13
ENDBRANCH   5   7
ENDBRANCH   2   3
ENDBRANCH   1   2
BRANCH   1  72
ATOM     72  C   UNL A   1      31.844  30.388  26.858  1.00  0.00     0.023 C 
BRANCH  72  73
ATOM     73  C   UNL A   1      31.658  29.628  25.550  1.00  0.00     0.116 C 
BRANCH  73  74
ATOM     74  N   UNL A   1      30.705  30.262  24.648  1.00  0.00    -0.352 N 
ATOM     75  C   UNL A   1      30.148  29.758  23.495  1.00  0.00     0.254 C 
ATOM     76  H   UNL A   1      30.422  31.171  24.896  1.00  0.00     0.163 HD
ATOM     77  O   UNL A   1      29.376  30.415  22.810  1.00  0.00    -0.269 OA
BRANCH  75  78
ATOM     78  C   UNL A   1      30.472  28.378  23.117  1.00  0.00     0.078 A 
ATOM     79  C   UNL A   1      29.578  27.359  23.444  1.00  0.00     0.019 A 
ATOM     80  C   UNL A   1      31.689  28.079  22.527  1.00  0.00     0.173 A 
ATOM     81  C   UNL A   1      29.964  26.029  23.291  1.00  0.00     0.030 A 
ATOM     82  C   UNL A   1      32.044  26.746  22.340  1.00  0.00     0.182 A 
ATOM     83  F   UNL A   1      32.557  29.046  22.198  1.00  0.00    -0.203 F 
ATOM     84  C   UNL A   1      31.210  25.685  22.751  1.00  0.00     0.074 A 
ATOM     85  F   UNL A   1      33.244  26.455  21.807  1.00  0.00    -0.201 F 
BRANCH  84  86
ATOM     86  N   UNL A   1      31.668  24.380  22.639  1.00  0.00    -0.379 N 
ATOM     87  H   UNL A   1      31.777  24.042  21.721  1.00  0.00     0.160 HD
BRANCH  86  88
ATOM     88  C   UNL A   1      32.010  23.438  23.713  1.00  0.00     0.094 C 
ATOM     89  C   UNL A   1      33.218  23.968  24.513  1.00  0.00     0.027 C 
ATOM     90  C   UNL A   1      32.086  22.014  23.169  1.00  0.00     0.161 C 
ATOM     91  C   UNL A   1      33.781  23.013  25.562  1.00  0.00     0.018 C 
ATOM     92  S   UNL A   1      32.614  20.863  24.401  1.00  0.00     0.152 S 
ATOM     93  C   UNL A   1      34.096  21.642  24.992  1.00  0.00     0.137 C 
ATOM     94  O   UNL A   1      32.994  19.635  23.734  1.00  0.00    -0.229 OA
ATOM     95  O   UNL A   1      31.638  20.858  25.474  1.00  0.00    -0.229 OA
ENDBRANCH  86  88
ENDBRANCH  84  86
ENDBRANCH  75  78
ENDBRANCH  73  74
ENDBRANCH  72  73
ENDBRANCH   1  72
TORSDOF 16
ENDMDL
