MODEL 1
REMARK VINA RESULT:     -10.0      0.000      0.000
REMARK SMILES CN(C)C(=O)CNC(=O)NCCOCC(=O)NCCCCNC(=O)c1ccc(-c2c3nc(c(-c4cc(S(=O)(=O)[O-])ccc4F)c4ccc([nH]4)c(-c4cc(S(=O)(=O)[O-])ccc4F)c4nc(c(-c5cc(S(=O)(=O)[O-])ccc5F)c5ccc2[nH]5)C=C4)C=C3)cc1
REMARK SMILES IDX 18 1 17 2 15 3 16 4 14 6 13 7 12 8 11 9 10 10 7 11 8 12 9 14
REMARK SMILES IDX 6 16 4 17 1 18 2 19 3 20 5 21 19 22 20 23 21 24 22 25 23 26
REMARK SMILES IDX 24 28 25 29 26 30 87 31 27 32 86 33 28 34 29 35 30 36 80 37
REMARK SMILES IDX 31 38 85 39 79 40 81 41 32 42 84 43 78 44 77 45 33 47 65 48
REMARK SMILES IDX 45 49 64 50 46 51 49 52 63 53 82 54 47 55 48 56 62 58 83 59
REMARK SMILES IDX 50 60 34 61 35 62 43 63 36 64 42 65 44 66 41 67 37 68 38 69
REMARK SMILES IDX 39 70 40 71 66 72 67 73 75 74 68 75 74 76 76 77 73 78 69 79
REMARK SMILES IDX 70 80 71 81 72 82 51 83 52 84 60 85 53 86 59 87 61 88 58 89
REMARK SMILES IDX 54 90 55 91 56 92 57 93
REMARK H PARENT 17 5 7 13 10 15 22 27 81 46 49 57
REMARK Flexibility Score: inf
ROOT
ATOM      1  C   UNL A   1      32.302  29.495  27.042  1.00  0.00     0.116 C 
ENDROOT
BRANCH   1   2
ATOM      2  N   UNL A   1      31.538  28.264  27.036  1.00  0.00    -0.354 N 
ATOM      3  C   UNL A   1      31.969  27.029  26.643  1.00  0.00     0.245 C 
ATOM      4  O   UNL A   1      31.210  26.065  26.717  1.00  0.00    -0.272 OA
ATOM      5  H   UNL A   1      30.606  28.324  27.351  1.00  0.00     0.163 HD
BRANCH   3   6
ATOM      6  C   UNL A   1      33.399  26.896  26.116  1.00  0.00     0.260 C 
BRANCH   6   7
ATOM      7  O   UNL A   1      33.551  26.207  24.883  1.00  0.00    -0.370 OA
BRANCH   7   8
ATOM      8  C   UNL A   1      34.185  24.925  24.977  1.00  0.00     0.182 C 
BRANCH   8   9
ATOM      9  C   UNL A   1      33.410  23.836  24.234  1.00  0.00     0.146 C 
BRANCH   9  10
ATOM     10  N   UNL A   1      32.439  23.154  25.079  1.00  0.00    -0.336 N 
ATOM     11  N   UNL A   1      30.277  23.975  24.608  1.00  0.00    -0.329 N 
ATOM     12  C   UNL A   1      31.128  23.227  25.304  1.00  0.00     0.315 C 
ATOM     13  H   UNL A   1      29.357  23.905  24.951  1.00  0.00     0.165 HD
ATOM     14  O   UNL A   1      30.657  22.491  26.172  1.00  0.00    -0.249 OA
ATOM     15  H   UNL A   1      32.863  22.456  25.629  1.00  0.00     0.165 HD
BRANCH  11  16
ATOM     16  C   UNL A   1      30.368  24.866  23.473  1.00  0.00     0.218 C 
BRANCH  16  17
ATOM     17  C   UNL A   1      29.707  26.262  23.557  1.00  0.00     0.241 C 
ATOM     18  C   UNL A   1      29.598  28.662  23.258  1.00  0.00     0.146 C 
ATOM     19  N   UNL A   1      30.301  27.409  23.043  1.00  0.00    -0.347 N 
ATOM     20  C   UNL A   1      31.592  27.490  22.387  1.00  0.00     0.146 C 
ATOM     21  O   UNL A   1      28.671  26.362  24.232  1.00  0.00    -0.273 OA
ENDBRANCH  16  17
ENDBRANCH  11  16
ENDBRANCH   9  10
ENDBRANCH   8   9
ENDBRANCH   7   8
ENDBRANCH   6   7
ENDBRANCH   3   6
ENDBRANCH   1   2
BRANCH   1  22
ATOM     22  C   UNL A   1      31.744  30.521  26.061  1.00  0.00     0.023 C 
BRANCH  22  23
ATOM     23  C   UNL A   1      31.554  31.921  26.647  1.00  0.00     0.023 C 
BRANCH  23  24
ATOM     24  C   UNL A   1      32.818  32.565  27.206  1.00  0.00     0.116 C 
BRANCH  24  25
ATOM     25  N   UNL A   1      32.603  33.926  27.672  1.00  0.00    -0.352 N 
ATOM     26  C   UNL A   1      33.260  34.609  28.666  1.00  0.00     0.251 C 
ATOM     27  H   UNL A   1      31.890  34.425  27.212  1.00  0.00     0.163 HD
ATOM     28  O   UNL A   1      32.852  35.713  29.019  1.00  0.00    -0.269 OA
BRANCH  26  29
ATOM     29  C   UNL A   1      34.426  33.990  29.329  1.00  0.00     0.039 A 
ATOM     30  C   UNL A   1      34.207  33.077  30.361  1.00  0.00     0.014 A 
ATOM     31  C   UNL A   1      35.728  34.284  28.911  1.00  0.00     0.014 A 
ATOM     32  C   UNL A   1      35.293  32.410  30.933  1.00  0.00     0.010 A 
ATOM     33  C   UNL A   1      36.799  33.559  29.427  1.00  0.00     0.010 A 
ATOM     34  C   UNL A   1      36.594  32.618  30.447  1.00  0.00    -0.014 A 
BRANCH  34  35
ATOM     35  C   UNL A   1      37.750  31.866  31.002  1.00  0.00     0.031 A 
ATOM     36  C   UNL A   1      38.263  32.182  32.381  1.00  0.00     0.074 A 
ATOM     37  C   UNL A   1      38.365  30.933  30.247  1.00  0.00     0.049 A 
ATOM     38  N   UNL A   1      39.285  31.675  33.021  1.00  0.00    -0.248 NA
ATOM     39  C   UNL A   1      37.550  33.231  33.126  1.00  0.00     0.031 C 
ATOM     40  C   UNL A   1      37.986  30.570  28.880  1.00  0.00     0.029 A 
ATOM     41  N   UNL A   1      39.439  30.123  30.518  1.00  0.00    -0.354 N 
ATOM     42  C   UNL A   1      39.344  32.349  34.236  1.00  0.00     0.074 A 
ATOM     43  C   UNL A   1      38.296  33.346  34.213  1.00  0.00     0.031 C 
ATOM     44  C   UNL A   1      38.795  29.590  28.444  1.00  0.00     0.029 A 
ATOM     45  C   UNL A   1      39.779  29.287  29.478  1.00  0.00     0.049 A 
ATOM     46  H   UNL A   1      39.922  30.138  31.375  1.00  0.00     0.167 HD
ATOM     47  C   UNL A   1      40.178  32.136  35.285  1.00  0.00     0.034 A 
ATOM     48  C   UNL A   1      40.776  28.387  29.367  1.00  0.00     0.034 A 
ATOM     49  C   UNL A   1      41.211  31.128  35.294  1.00  0.00     0.049 A 
ATOM     50  C   UNL A   1      41.705  28.184  30.538  1.00  0.00     0.074 A 
ATOM     51  C   UNL A   1      42.077  30.792  36.320  1.00  0.00     0.029 A 
ATOM     52  N   UNL A   1      41.527  30.301  34.223  1.00  0.00    -0.354 N 
ATOM     53  N   UNL A   1      41.712  28.791  31.703  1.00  0.00    -0.248 NA
ATOM     54  C   UNL A   1      42.750  27.165  30.384  1.00  0.00     0.031 C 
ATOM     55  C   UNL A   1      42.963  29.819  35.846  1.00  0.00     0.029 A 
ATOM     56  C   UNL A   1      42.596  29.480  34.554  1.00  0.00     0.049 A 
ATOM     57  H   UNL A   1      41.061  30.297  33.356  1.00  0.00     0.167 HD
ATOM     58  C   UNL A   1      42.741  28.200  32.432  1.00  0.00     0.074 A 
ATOM     59  C   UNL A   1      43.317  27.178  31.580  1.00  0.00     0.031 C 
ATOM     60  C   UNL A   1      43.168  28.472  33.692  1.00  0.00     0.034 A 
BRANCH  47  61
ATOM     61  C   UNL A   1      40.020  33.031  36.493  1.00  0.00     0.023 A 
ATOM     62  C   UNL A   1      39.296  32.622  37.628  1.00  0.00     0.031 A 
ATOM     63  C   UNL A   1      40.579  34.320  36.503  1.00  0.00     0.131 A 
ATOM     64  C   UNL A   1      39.085  33.518  38.687  1.00  0.00     0.055 A 
ATOM     65  C   UNL A   1      40.440  35.176  37.597  1.00  0.00     0.041 A 
ATOM     66  F   UNL A   1      41.261  34.779  35.441  1.00  0.00    -0.206 F 
ATOM     67  C   UNL A   1      39.676  34.783  38.691  1.00  0.00     0.022 A 
BRANCH  64  68
ATOM     68  S   UNL A   1      37.903  33.062  39.985  1.00  0.00     0.124 S 
ATOM     69  O   UNL A   1      37.870  34.279  40.793  1.00  0.00    -0.237 OA
ATOM     70  O   UNL A   1      36.694  32.769  39.222  1.00  0.00    -0.237 OA
ATOM     71  O   UNL A   1      38.529  31.910  40.630  1.00  0.00    -0.744 OA
ENDBRANCH  64  68
ENDBRANCH  47  61
BRANCH  48  72
ATOM     72  C   UNL A   1      40.960  27.614  28.104  1.00  0.00     0.023 A 
ATOM     73  C   UNL A   1      40.635  26.249  28.035  1.00  0.00     0.031 A 
ATOM     74  C   UNL A   1      41.509  28.218  26.959  1.00  0.00     0.131 A 
ATOM     75  C   UNL A   1      40.910  25.523  26.865  1.00  0.00     0.055 A 
ATOM     76  C   UNL A   1      41.725  27.505  25.779  1.00  0.00     0.041 A 
ATOM     77  F   UNL A   1      41.835  29.520  26.969  1.00  0.00    -0.206 F 
ATOM     78  C   UNL A   1      41.438  26.144  25.732  1.00  0.00     0.022 A 
BRANCH  75  79
ATOM     79  S   UNL A   1      40.652  23.726  26.877  1.00  0.00     0.124 S 
ATOM     80  O   UNL A   1      40.969  23.390  28.259  1.00  0.00    -0.237 OA
ATOM     81  O   UNL A   1      39.247  23.621  26.496  1.00  0.00    -0.237 OA
ATOM     82  O   UNL A   1      41.603  23.240  25.880  1.00  0.00    -0.744 OA
ENDBRANCH  75  79
ENDBRANCH  48  72
BRANCH  60  83
ATOM     83  C   UNL A   1      44.282  27.611  34.241  1.00  0.00     0.023 A 
ATOM     84  C   UNL A   1      44.040  26.339  34.789  1.00  0.00     0.031 A 
ATOM     85  C   UNL A   1      45.608  28.082  34.230  1.00  0.00     0.131 A 
ATOM     86  C   UNL A   1      45.094  25.612  35.364  1.00  0.00     0.055 A 
ATOM     87  C   UNL A   1      46.663  27.324  34.739  1.00  0.00     0.041 A 
ATOM     88  F   UNL A   1      45.899  29.291  33.723  1.00  0.00    -0.206 F 
ATOM     89  C   UNL A   1      46.407  26.088  35.324  1.00  0.00     0.022 A 
BRANCH  86  90
ATOM     90  S   UNL A   1      44.710  24.086  36.265  1.00  0.00     0.124 S 
ATOM     91  O   UNL A   1      43.430  23.702  35.678  1.00  0.00    -0.237 OA
ATOM     92  O   UNL A   1      45.846  23.232  35.932  1.00  0.00    -0.237 OA
ATOM     93  O   UNL A   1      44.647  24.518  37.660  1.00  0.00    -0.744 OA
ENDBRANCH  86  90
ENDBRANCH  60  83
ENDBRANCH  34  35
ENDBRANCH  26  29
ENDBRANCH  24  25
ENDBRANCH  23  24
ENDBRANCH  22  23
ENDBRANCH   1  22
TORSDOF 20
ENDMDL
MODEL 2
REMARK VINA RESULT:     -10.0      5.745      9.371
REMARK SMILES CN(C)C(=O)CNC(=O)NCCOCC(=O)NCCCCNC(=O)c1ccc(-c2c3nc(c(-c4cc(S(=O)(=O)[O-])ccc4F)c4ccc([nH]4)c(-c4cc(S(=O)(=O)[O-])ccc4F)c4nc(c(-c5cc(S(=O)(=O)[O-])ccc5F)c5ccc2[nH]5)C=C4)C=C3)cc1
REMARK SMILES IDX 18 1 17 2 15 3 16 4 14 6 13 7 12 8 11 9 10 10 7 11 8 12 9 14
REMARK SMILES IDX 6 16 4 17 1 18 2 19 3 20 5 21 19 22 20 23 21 24 22 25 23 26
REMARK SMILES IDX 24 28 25 29 26 30 87 31 27 32 86 33 28 34 29 35 30 36 80 37
REMARK SMILES IDX 31 38 85 39 79 40 81 41 32 42 84 43 78 44 77 45 33 47 65 48
REMARK SMILES IDX 45 49 64 50 46 51 49 52 63 53 82 54 47 55 48 56 62 58 83 59
REMARK SMILES IDX 50 60 34 61 35 62 43 63 36 64 42 65 44 66 41 67 37 68 38 69
REMARK SMILES IDX 39 70 40 71 66 72 67 73 75 74 68 75 74 76 76 77 73 78 69 79
REMARK SMILES IDX 70 80 71 81 72 82 51 83 52 84 60 85 53 86 59 87 61 88 58 89
REMARK SMILES IDX 54 90 55 91 56 92 57 93
REMARK H PARENT 17 5 7 13 10 15 22 27 81 46 49 57
REMARK Flexibility Score: inf
ROOT
ATOM      1  C   UNL A   1      36.399  21.949  25.766  1.00  0.00     0.116 C 
ENDROOT
BRANCH   1   2
ATOM      2  N   UNL A   1      35.479  21.944  26.885  1.00  0.00    -0.354 N 
ATOM      3  C   UNL A   1      34.207  22.442  26.908  1.00  0.00     0.245 C 
ATOM      4  O   UNL A   1      33.531  22.344  27.929  1.00  0.00    -0.272 OA
ATOM      5  H   UNL A   1      35.805  21.536  27.720  1.00  0.00     0.163 HD
BRANCH   3   6
ATOM      6  C   UNL A   1      33.671  23.114  25.642  1.00  0.00     0.260 C 
BRANCH   6   7
ATOM      7  O   UNL A   1      33.301  22.246  24.581  1.00  0.00    -0.370 OA
BRANCH   7   8
ATOM      8  C   UNL A   1      32.520  22.852  23.544  1.00  0.00     0.182 C 
BRANCH   8   9
ATOM      9  C   UNL A   1      32.903  24.314  23.306  1.00  0.00     0.146 C 
BRANCH   9  10
ATOM     10  N   UNL A   1      33.080  24.631  21.895  1.00  0.00    -0.336 N 
ATOM     11  N   UNL A   1      32.054  26.703  21.423  1.00  0.00    -0.329 N 
ATOM     12  C   UNL A   1      32.689  25.593  21.060  1.00  0.00     0.315 C 
ATOM     13  H   UNL A   1      31.833  27.272  20.650  1.00  0.00     0.165 HD
ATOM     14  O   UNL A   1      33.005  25.482  19.875  1.00  0.00    -0.249 OA
ATOM     15  H   UNL A   1      33.634  23.957  21.438  1.00  0.00     0.165 HD
BRANCH  11  16
ATOM     16  C   UNL A   1      31.607  27.282  22.670  1.00  0.00     0.218 C 
BRANCH  16  17
ATOM     17  C   UNL A   1      30.093  27.496  22.901  1.00  0.00     0.241 C 
ATOM     18  C   UNL A   1      28.028  28.760  22.902  1.00  0.00     0.146 C 
ATOM     19  N   UNL A   1      29.438  28.674  22.561  1.00  0.00    -0.347 N 
ATOM     20  C   UNL A   1      30.040  29.857  21.976  1.00  0.00     0.146 C 
ATOM     21  O   UNL A   1      29.485  26.623  23.539  1.00  0.00    -0.273 OA
ENDBRANCH  16  17
ENDBRANCH  11  16
ENDBRANCH   9  10
ENDBRANCH   8   9
ENDBRANCH   7   8
ENDBRANCH   6   7
ENDBRANCH   3   6
ENDBRANCH   1   2
BRANCH   1  22
ATOM     22  C   UNL A   1      36.408  20.616  25.025  1.00  0.00     0.023 C 
BRANCH  22  23
ATOM     23  C   UNL A   1      37.804  20.072  24.714  1.00  0.00     0.023 C 
BRANCH  23  24
ATOM     24  C   UNL A   1      38.878  20.424  25.736  1.00  0.00     0.116 C 
BRANCH  24  25
ATOM     25  N   UNL A   1      39.863  19.368  25.911  1.00  0.00    -0.352 N 
ATOM     26  C   UNL A   1      41.205  19.479  26.179  1.00  0.00     0.251 C 
ATOM     27  H   UNL A   1      39.521  18.449  25.824  1.00  0.00     0.163 HD
ATOM     28  O   UNL A   1      41.916  18.478  26.159  1.00  0.00    -0.269 OA
BRANCH  26  29
ATOM     29  C   UNL A   1      41.787  20.810  26.450  1.00  0.00     0.039 A 
ATOM     30  C   UNL A   1      41.953  21.700  25.388  1.00  0.00     0.014 A 
ATOM     31  C   UNL A   1      42.136  21.190  27.749  1.00  0.00     0.014 A 
ATOM     32  C   UNL A   1      42.411  22.996  25.639  1.00  0.00     0.010 A 
ATOM     33  C   UNL A   1      42.515  22.505  28.007  1.00  0.00     0.010 A 
ATOM     34  C   UNL A   1      42.661  23.421  26.955  1.00  0.00    -0.014 A 
BRANCH  34  35
ATOM     35  C   UNL A   1      43.085  24.816  27.242  1.00  0.00     0.031 A 
ATOM     36  C   UNL A   1      42.133  25.771  27.909  1.00  0.00     0.074 A 
ATOM     37  C   UNL A   1      44.309  25.234  26.860  1.00  0.00     0.049 A 
ATOM     38  N   UNL A   1      42.296  27.036  28.199  1.00  0.00    -0.248 NA
ATOM     39  C   UNL A   1      40.810  25.240  28.269  1.00  0.00     0.031 C 
ATOM     40  C   UNL A   1      45.304  24.413  26.166  1.00  0.00     0.029 A 
ATOM     41  N   UNL A   1      44.925  26.453  26.996  1.00  0.00    -0.354 N 
ATOM     42  C   UNL A   1      41.097  27.454  28.764  1.00  0.00     0.074 A 
ATOM     43  C   UNL A   1      40.194  26.324  28.713  1.00  0.00     0.031 C 
ATOM     44  C   UNL A   1      46.414  25.142  25.965  1.00  0.00     0.029 A 
ATOM     45  C   UNL A   1      46.197  26.494  26.470  1.00  0.00     0.049 A 
ATOM     46  H   UNL A   1      44.498  27.227  27.428  1.00  0.00     0.167 HD
ATOM     47  C   UNL A   1      40.786  28.660  29.301  1.00  0.00     0.034 A 
ATOM     48  C   UNL A   1      47.083  27.507  26.394  1.00  0.00     0.034 A 
ATOM     49  C   UNL A   1      41.704  29.774  29.352  1.00  0.00     0.049 A 
ATOM     50  C   UNL A   1      46.706  28.845  26.977  1.00  0.00     0.074 A 
ATOM     51  C   UNL A   1      41.511  31.022  29.918  1.00  0.00     0.029 A 
ATOM     52  N   UNL A   1      42.982  29.778  28.809  1.00  0.00    -0.354 N 
ATOM     53  N   UNL A   1      45.586  29.208  27.559  1.00  0.00    -0.248 NA
ATOM     54  C   UNL A   1      47.718  29.906  26.905  1.00  0.00     0.031 C 
ATOM     55  C   UNL A   1      42.641  31.803  29.651  1.00  0.00     0.029 A 
ATOM     56  C   UNL A   1      43.576  31.018  28.998  1.00  0.00     0.049 A 
ATOM     57  H   UNL A   1      43.406  29.013  28.356  1.00  0.00     0.167 HD
ATOM     58  C   UNL A   1      45.776  30.530  27.954  1.00  0.00     0.074 A 
ATOM     59  C   UNL A   1      47.122  30.891  27.559  1.00  0.00     0.031 C 
ATOM     60  C   UNL A   1      44.917  31.369  28.590  1.00  0.00     0.034 A 
BRANCH  47  61
ATOM     61  C   UNL A   1      39.388  28.841  29.847  1.00  0.00     0.023 A 
ATOM     62  C   UNL A   1      38.344  29.353  29.055  1.00  0.00     0.031 A 
ATOM     63  C   UNL A   1      39.098  28.519  31.184  1.00  0.00     0.131 A 
ATOM     64  C   UNL A   1      37.087  29.603  29.626  1.00  0.00     0.055 A 
ATOM     65  C   UNL A   1      37.820  28.687  31.723  1.00  0.00     0.041 A 
ATOM     66  F   UNL A   1      40.056  28.048  31.998  1.00  0.00    -0.206 F 
ATOM     67  C   UNL A   1      36.810  29.246  30.948  1.00  0.00     0.022 A 
BRANCH  64  68
ATOM     68  S   UNL A   1      35.867  30.538  28.662  1.00  0.00     0.124 S 
ATOM     69  O   UNL A   1      35.227  31.343  29.699  1.00  0.00    -0.237 OA
ATOM     70  O   UNL A   1      36.705  31.265  27.715  1.00  0.00    -0.237 OA
ATOM     71  O   UNL A   1      35.022  29.499  28.078  1.00  0.00    -0.744 OA
ENDBRANCH  64  68
ENDBRANCH  47  61
BRANCH  48  72
ATOM     72  C   UNL A   1      48.407  27.306  25.735  1.00  0.00     0.023 A 
ATOM     73  C   UNL A   1      48.568  27.501  24.354  1.00  0.00     0.031 A 
ATOM     74  C   UNL A   1      49.522  26.869  26.471  1.00  0.00     0.131 A 
ATOM     75  C   UNL A   1      49.798  27.210  23.745  1.00  0.00     0.055 A 
ATOM     76  C   UNL A   1      50.761  26.639  25.871  1.00  0.00     0.041 A 
ATOM     77  F   UNL A   1      49.426  26.669  27.796  1.00  0.00    -0.206 F 
ATOM     78  C   UNL A   1      50.900  26.795  24.495  1.00  0.00     0.022 A 
BRANCH  75  79
ATOM     79  S   UNL A   1      49.913  27.294  21.935  1.00  0.00     0.124 S 
ATOM     80  O   UNL A   1      51.268  26.810  21.701  1.00  0.00    -0.237 OA
ATOM     81  O   UNL A   1      48.833  26.404  21.523  1.00  0.00    -0.237 OA
ATOM     82  O   UNL A   1      49.695  28.709  21.646  1.00  0.00    -0.744 OA
ENDBRANCH  75  79
ENDBRANCH  48  72
BRANCH  60  83
ATOM     83  C   UNL A   1      45.435  32.744  28.944  1.00  0.00     0.023 A 
ATOM     84  C   UNL A   1      46.074  33.007  30.169  1.00  0.00     0.031 A 
ATOM     85  C   UNL A   1      45.269  33.812  28.044  1.00  0.00     0.131 A 
ATOM     86  C   UNL A   1      46.461  34.318  30.488  1.00  0.00     0.055 A 
ATOM     87  C   UNL A   1      45.721  35.099  28.338  1.00  0.00     0.041 A 
ATOM     88  F   UNL A   1      44.662  33.622  26.861  1.00  0.00    -0.206 F 
ATOM     89  C   UNL A   1      46.307  35.361  29.573  1.00  0.00     0.022 A 
BRANCH  86  90
ATOM     90  S   UNL A   1      47.068  34.662  32.163  1.00  0.00     0.124 S 
ATOM     91  O   UNL A   1      48.433  35.108  31.904  1.00  0.00    -0.237 OA
ATOM     92  O   UNL A   1      46.140  35.689  32.626  1.00  0.00    -0.237 OA
ATOM     93  O   UNL A   1      46.954  33.373  32.840  1.00  0.00    -0.744 OA
ENDBRANCH  86  90
ENDBRANCH  60  83
ENDBRANCH  34  35
ENDBRANCH  26  29
ENDBRANCH  24  25
ENDBRANCH  23  24
ENDBRANCH  22  23
ENDBRANCH   1  22
TORSDOF 20
ENDMDL
MODEL 3
REMARK VINA RESULT:      -9.9      5.357     10.561
REMARK SMILES CN(C)C(=O)CNC(=O)NCCOCC(=O)NCCCCNC(=O)c1ccc(-c2c3nc(c(-c4cc(S(=O)(=O)[O-])ccc4F)c4ccc([nH]4)c(-c4cc(S(=O)(=O)[O-])ccc4F)c4nc(c(-c5cc(S(=O)(=O)[O-])ccc5F)c5ccc2[nH]5)C=C4)C=C3)cc1
REMARK SMILES IDX 18 1 17 2 15 3 16 4 14 6 13 7 12 8 11 9 10 10 7 11 8 12 9 14
REMARK SMILES IDX 6 16 4 17 1 18 2 19 3 20 5 21 19 22 20 23 21 24 22 25 23 26
REMARK SMILES IDX 24 28 25 29 26 30 87 31 27 32 86 33 28 34 29 35 30 36 80 37
REMARK SMILES IDX 31 38 85 39 79 40 81 41 32 42 84 43 78 44 77 45 33 47 65 48
REMARK SMILES IDX 45 49 64 50 46 51 49 52 63 53 82 54 47 55 48 56 62 58 83 59
REMARK SMILES IDX 50 60 34 61 35 62 43 63 36 64 42 65 44 66 41 67 37 68 38 69
REMARK SMILES IDX 39 70 40 71 66 72 67 73 75 74 68 75 74 76 76 77 73 78 69 79
REMARK SMILES IDX 70 80 71 81 72 82 51 83 52 84 60 85 53 86 59 87 61 88 58 89
REMARK SMILES IDX 54 90 55 91 56 92 57 93
REMARK H PARENT 17 5 7 13 10 15 22 27 81 46 49 57
REMARK Flexibility Score: inf
ROOT
ATOM      1  C   UNL A   1      33.167  22.077  23.873  1.00  0.00     0.116 C 
ENDROOT
BRANCH   1   2
ATOM      2  N   UNL A   1      33.687  23.164  23.069  1.00  0.00    -0.354 N 
ATOM      3  C   UNL A   1      32.980  24.201  22.529  1.00  0.00     0.245 C 
ATOM      4  O   UNL A   1      33.565  25.069  21.886  1.00  0.00    -0.272 OA
ATOM      5  H   UNL A   1      34.656  23.155  22.893  1.00  0.00     0.163 HD
BRANCH   3   6
ATOM      6  C   UNL A   1      31.467  24.236  22.749  1.00  0.00     0.260 C 
BRANCH   6   7
ATOM      7  O   UNL A   1      30.969  25.335  23.499  1.00  0.00    -0.370 OA
BRANCH   7   8
ATOM      8  C   UNL A   1      30.432  26.410  22.717  1.00  0.00     0.182 C 
BRANCH   8   9
ATOM      9  C   UNL A   1      31.110  27.746  23.022  1.00  0.00     0.146 C 
BRANCH   9  10
ATOM     10  N   UNL A   1      32.347  27.938  22.276  1.00  0.00    -0.336 N 
ATOM     11  N   UNL A   1      34.161  28.052  23.782  1.00  0.00    -0.329 N 
ATOM     12  C   UNL A   1      33.633  28.128  22.563  1.00  0.00     0.315 C 
ATOM     13  H   UNL A   1      35.125  28.251  23.780  1.00  0.00     0.165 HD
ATOM     14  O   UNL A   1      34.406  28.315  21.621  1.00  0.00    -0.249 OA
ATOM     15  H   UNL A   1      32.190  27.924  21.304  1.00  0.00     0.165 HD
BRANCH  11  16
ATOM     16  C   UNL A   1      33.670  27.752  25.108  1.00  0.00     0.218 C 
BRANCH  16  17
ATOM     17  C   UNL A   1      33.465  26.275  25.518  1.00  0.00     0.241 C 
ATOM     18  C   UNL A   1      32.326  24.434  26.601  1.00  0.00     0.146 C 
ATOM     19  N   UNL A   1      32.350  25.835  26.220  1.00  0.00    -0.347 N 
ATOM     20  C   UNL A   1      31.246  26.655  26.684  1.00  0.00     0.146 C 
ATOM     21  O   UNL A   1      34.409  25.494  25.322  1.00  0.00    -0.273 OA
ENDBRANCH  16  17
ENDBRANCH  11  16
ENDBRANCH   9  10
ENDBRANCH   8   9
ENDBRANCH   7   8
ENDBRANCH   6   7
ENDBRANCH   3   6
ENDBRANCH   1   2
BRANCH   1  22
ATOM     22  C   UNL A   1      34.237  21.467  24.773  1.00  0.00     0.023 C 
BRANCH  22  23
ATOM     23  C   UNL A   1      35.670  21.864  24.414  1.00  0.00     0.023 C 
BRANCH  23  24
ATOM     24  C   UNL A   1      36.601  22.072  25.602  1.00  0.00     0.116 C 
BRANCH  24  25
ATOM     25  N   UNL A   1      37.584  21.009  25.745  1.00  0.00    -0.352 N 
ATOM     26  C   UNL A   1      38.900  21.099  26.125  1.00  0.00     0.251 C 
ATOM     27  H   UNL A   1      37.261  20.101  25.542  1.00  0.00     0.163 HD
ATOM     28  O   UNL A   1      39.623  20.107  26.061  1.00  0.00    -0.269 OA
BRANCH  26  29
ATOM     29  C   UNL A   1      39.443  22.399  26.571  1.00  0.00     0.039 A 
ATOM     30  C   UNL A   1      40.540  22.410  27.433  1.00  0.00     0.014 A 
ATOM     31  C   UNL A   1      38.894  23.600  26.113  1.00  0.00     0.014 A 
ATOM     32  C   UNL A   1      41.126  23.627  27.788  1.00  0.00     0.010 A 
ATOM     33  C   UNL A   1      39.528  24.805  26.403  1.00  0.00     0.010 A 
ATOM     34  C   UNL A   1      40.648  24.832  27.247  1.00  0.00    -0.014 A 
BRANCH  34  35
ATOM     35  C   UNL A   1      41.304  26.128  27.564  1.00  0.00     0.031 A 
ATOM     36  C   UNL A   1      42.717  26.387  27.117  1.00  0.00     0.074 A 
ATOM     37  C   UNL A   1      40.644  27.049  28.294  1.00  0.00     0.049 A 
ATOM     38  N   UNL A   1      43.478  27.428  27.335  1.00  0.00    -0.248 NA
ATOM     39  C   UNL A   1      43.372  25.318  26.348  1.00  0.00     0.031 C 
ATOM     40  C   UNL A   1      39.287  26.895  28.823  1.00  0.00     0.029 A 
ATOM     41  N   UNL A   1      41.025  28.297  28.723  1.00  0.00    -0.354 N 
ATOM     42  C   UNL A   1      44.701  27.137  26.742  1.00  0.00     0.074 A 
ATOM     43  C   UNL A   1      44.600  25.793  26.214  1.00  0.00     0.031 C 
ATOM     44  C   UNL A   1      38.939  28.015  29.477  1.00  0.00     0.029 A 
ATOM     45  C   UNL A   1      40.060  28.949  29.459  1.00  0.00     0.049 A 
ATOM     46  H   UNL A   1      41.905  28.689  28.524  1.00  0.00     0.167 HD
ATOM     47  C   UNL A   1      45.797  27.927  26.625  1.00  0.00     0.034 A 
ATOM     48  C   UNL A   1      40.081  30.156  30.058  1.00  0.00     0.034 A 
ATOM     49  C   UNL A   1      45.876  29.269  27.149  1.00  0.00     0.049 A 
ATOM     50  C   UNL A   1      41.320  31.007  29.933  1.00  0.00     0.074 A 
ATOM     51  C   UNL A   1      46.917  30.176  27.043  1.00  0.00     0.029 A 
ATOM     52  N   UNL A   1      44.881  29.896  27.889  1.00  0.00    -0.354 N 
ATOM     53  N   UNL A   1      42.449  30.738  29.319  1.00  0.00    -0.248 NA
ATOM     54  C   UNL A   1      41.280  32.329  30.569  1.00  0.00     0.031 C 
ATOM     55  C   UNL A   1      46.582  31.317  27.780  1.00  0.00     0.029 A 
ATOM     56  C   UNL A   1      45.297  31.163  28.272  1.00  0.00     0.049 A 
ATOM     57  H   UNL A   1      44.007  29.499  28.109  1.00  0.00     0.167 HD
ATOM     58  C   UNL A   1      43.240  31.875  29.467  1.00  0.00     0.074 A 
ATOM     59  C   UNL A   1      42.450  32.835  30.212  1.00  0.00     0.031 C 
ATOM     60  C   UNL A   1      44.503  32.107  29.024  1.00  0.00     0.034 A 
BRANCH  47  61
ATOM     61  C   UNL A   1      47.005  27.344  25.926  1.00  0.00     0.023 A 
ATOM     62  C   UNL A   1      48.009  26.656  26.632  1.00  0.00     0.031 A 
ATOM     63  C   UNL A   1      47.169  27.499  24.539  1.00  0.00     0.131 A 
ATOM     64  C   UNL A   1      49.163  26.220  25.965  1.00  0.00     0.055 A 
ATOM     65  C   UNL A   1      48.279  26.984  23.866  1.00  0.00     0.041 A 
ATOM     66  F   UNL A   1      46.259  28.166  23.811  1.00  0.00    -0.206 F 
ATOM     67  C   UNL A   1      49.292  26.354  24.581  1.00  0.00     0.022 A 
BRANCH  64  68
ATOM     68  S   UNL A   1      50.557  25.612  26.953  1.00  0.00     0.124 S 
ATOM     69  O   UNL A   1      50.842  26.767  27.802  1.00  0.00    -0.237 OA
ATOM     70  O   UNL A   1      49.985  24.451  27.625  1.00  0.00    -0.237 OA
ATOM     71  O   UNL A   1      51.582  25.314  25.955  1.00  0.00    -0.744 OA
ENDBRANCH  64  68
ENDBRANCH  47  61
BRANCH  48  72
ATOM     72  C   UNL A   1      38.902  30.633  30.838  1.00  0.00     0.023 A 
ATOM     73  C   UNL A   1      37.805  31.235  30.200  1.00  0.00     0.031 A 
ATOM     74  C   UNL A   1      38.875  30.538  32.240  1.00  0.00     0.131 A 
ATOM     75  C   UNL A   1      36.754  31.764  30.965  1.00  0.00     0.055 A 
ATOM     76  C   UNL A   1      37.800  31.012  32.993  1.00  0.00     0.041 A 
ATOM     77  F   UNL A   1      39.896  29.970  32.903  1.00  0.00    -0.206 F 
ATOM     78  C   UNL A   1      36.736  31.643  32.356  1.00  0.00     0.022 A 
BRANCH  75  79
ATOM     79  S   UNL A   1      35.448  32.698  30.119  1.00  0.00     0.124 S 
ATOM     80  O   UNL A   1      36.097  33.985  29.902  1.00  0.00    -0.237 OA
ATOM     81  O   UNL A   1      35.218  31.886  28.928  1.00  0.00    -0.237 OA
ATOM     82  O   UNL A   1      34.354  32.705  31.087  1.00  0.00    -0.744 OA
ENDBRANCH  75  79
ENDBRANCH  48  72
BRANCH  60  83
ATOM     83  C   UNL A   1      45.084  33.477  29.291  1.00  0.00     0.023 A 
ATOM     84  C   UNL A   1      44.950  34.534  28.374  1.00  0.00     0.031 A 
ATOM     85  C   UNL A   1      45.800  33.719  30.477  1.00  0.00     0.131 A 
ATOM     86  C   UNL A   1      45.580  35.763  28.626  1.00  0.00     0.055 A 
ATOM     87  C   UNL A   1      46.363  34.965  30.755  1.00  0.00     0.041 A 
ATOM     88  F   UNL A   1      45.964  32.746  31.388  1.00  0.00    -0.206 F 
ATOM     89  C   UNL A   1      46.268  35.991  29.820  1.00  0.00     0.022 A 
BRANCH  86  90
ATOM     90  S   UNL A   1      45.582  37.024  27.322  1.00  0.00     0.124 S 
ATOM     91  O   UNL A   1      46.150  36.293  26.195  1.00  0.00    -0.237 OA
ATOM     92  O   UNL A   1      44.166  37.363  27.213  1.00  0.00    -0.237 OA
ATOM     93  O   UNL A   1      46.431  38.080  27.869  1.00  0.00    -0.744 OA
ENDBRANCH  86  90
ENDBRANCH  60  83
ENDBRANCH  34  35
ENDBRANCH  26  29
ENDBRANCH  24  25
ENDBRANCH  23  24
ENDBRANCH  22  23
ENDBRANCH   1  22
TORSDOF 20
ENDMDL
