MODEL 1
REMARK VINA RESULT:     -12.4      0.000      0.000
REMARK SMILES O=C(NCCCCNC(=O)C1CCN(c2ccc(C(F)(F)F)cc2[N+](=O)[O-])CC1)c1ccc(-c2c3nc(c(-c4cc(S(=O)(=O)[O-])ccc4F)c4ccc([nH]4)c(-c4cc(S(=O)(=O)[O-])ccc4F)c4nc(c(-c5cc(S(=O)(=O)[O-])ccc5F)c5ccc2[nH]5)C=C4)C=C3)cc1
REMARK SMILES IDX 5 1 4 2 3 3 1 4 2 5 30 7 31 8 92 9 32 10 91 11 33 12 34 13
REMARK SMILES IDX 35 14 85 15 36 16 90 17 84 18 86 19 37 20 89 21 83 22 82 23
REMARK SMILES IDX 38 25 70 26 50 27 69 28 51 29 54 30 68 31 87 32 52 33 53 34
REMARK SMILES IDX 67 36 88 37 55 38 39 39 40 40 48 41 41 42 47 43 49 44 46 45
REMARK SMILES IDX 42 46 43 47 44 48 45 49 71 50 72 51 80 52 73 53 79 54 81 55
REMARK SMILES IDX 78 56 74 57 75 58 76 59 77 60 56 61 57 62 65 63 58 64 64 65
REMARK SMILES IDX 66 66 63 67 59 68 60 69 61 70 62 71 6 72 7 73 8 74 9 75
REMARK SMILES IDX 10 77 11 78 12 79 29 80 13 81 28 82 14 83 15 84 16 85 24 86
REMARK SMILES IDX 17 87 23 88 18 89 25 90 26 91 27 92 19 93 20 94 21 95 22 96
REMARK H PARENT 3 6 86 24 54 35 8 76
REMARK Flexibility Score: inf
ROOT
ATOM      1  C   UNL A   1      38.253  20.118  25.039  1.00  0.00     0.023 C 
ENDROOT
BRANCH   1   2
ATOM      2  C   UNL A   1      39.412  20.342  26.002  1.00  0.00     0.116 C 
BRANCH   2   3
ATOM      3  N   UNL A   1      40.385  19.258  26.012  1.00  0.00    -0.352 N 
ATOM      4  O   UNL A   1      42.443  18.327  26.051  1.00  0.00    -0.269 OA
ATOM      5  C   UNL A   1      41.752  19.336  26.149  1.00  0.00     0.251 C 
ATOM      6  H   UNL A   1      40.017  18.350  25.908  1.00  0.00     0.163 HD
BRANCH   5   7
ATOM      7  C   UNL A   1      42.373  20.656  26.378  1.00  0.00     0.039 A 
ATOM      8  C   UNL A   1      42.587  21.114  27.680  1.00  0.00     0.014 A 
ATOM      9  C   UNL A   1      42.691  21.461  25.281  1.00  0.00     0.014 A 
ATOM     10  C   UNL A   1      42.973  22.432  27.887  1.00  0.00     0.010 A 
ATOM     11  C   UNL A   1      43.164  22.759  25.494  1.00  0.00     0.010 A 
ATOM     12  C   UNL A   1      43.274  23.266  26.798  1.00  0.00    -0.014 A 
BRANCH  12  13
ATOM     13  C   UNL A   1      43.745  24.649  27.058  1.00  0.00     0.031 A 
ATOM     14  C   UNL A   1      42.818  25.697  27.606  1.00  0.00     0.074 A 
ATOM     15  C   UNL A   1      45.039  24.939  26.825  1.00  0.00     0.049 A 
ATOM     16  N   UNL A   1      43.069  26.948  27.901  1.00  0.00    -0.248 NA
ATOM     17  C   UNL A   1      41.425  25.292  27.845  1.00  0.00     0.031 C 
ATOM     18  C   UNL A   1      46.027  23.994  26.291  1.00  0.00     0.029 A 
ATOM     19  N   UNL A   1      45.755  26.089  27.022  1.00  0.00    -0.354 N 
ATOM     20  C   UNL A   1      41.865  27.487  28.344  1.00  0.00     0.074 A 
ATOM     21  C   UNL A   1      40.877  26.432  28.246  1.00  0.00     0.031 C 
ATOM     22  C   UNL A   1      47.226  24.590  26.250  1.00  0.00     0.029 A 
ATOM     23  C   UNL A   1      47.082  25.975  26.684  1.00  0.00     0.049 A 
ATOM     24  H   UNL A   1      45.357  26.919  27.371  1.00  0.00     0.167 HD
ATOM     25  C   UNL A   1      41.615  28.742  28.796  1.00  0.00     0.034 A 
ATOM     26  C   UNL A   1      48.071  26.887  26.698  1.00  0.00     0.034 A 
ATOM     27  C   UNL A   1      42.620  29.777  28.886  1.00  0.00     0.049 A 
ATOM     28  C   UNL A   1      47.759  28.281  27.162  1.00  0.00     0.074 A 
ATOM     29  C   UNL A   1      42.486  31.072  29.358  1.00  0.00     0.029 A 
ATOM     30  N   UNL A   1      43.943  29.642  28.482  1.00  0.00    -0.354 N 
ATOM     31  N   UNL A   1      46.618  28.772  27.587  1.00  0.00    -0.248 NA
ATOM     32  C   UNL A   1      48.867  29.242  27.147  1.00  0.00     0.031 C 
ATOM     33  C   UNL A   1      43.707  31.735  29.180  1.00  0.00     0.029 A 
ATOM     34  C   UNL A   1      44.625  30.837  28.664  1.00  0.00     0.049 A 
ATOM     35  H   UNL A   1      44.340  28.816  28.121  1.00  0.00     0.167 HD
ATOM     36  C   UNL A   1      46.874  30.102  27.901  1.00  0.00     0.074 A 
ATOM     37  C   UNL A   1      48.283  30.326  27.639  1.00  0.00     0.031 C 
ATOM     38  C   UNL A   1      46.023  31.052  28.366  1.00  0.00     0.034 A 
BRANCH  25  39
ATOM     39  C   UNL A   1      40.190  29.073  29.178  1.00  0.00     0.023 A 
ATOM     40  C   UNL A   1      39.776  29.136  30.520  1.00  0.00     0.031 A 
ATOM     41  C   UNL A   1      39.224  29.301  28.182  1.00  0.00     0.131 A 
ATOM     42  C   UNL A   1      38.422  29.343  30.827  1.00  0.00     0.055 A 
ATOM     43  C   UNL A   1      37.893  29.586  28.496  1.00  0.00     0.041 A 
ATOM     44  F   UNL A   1      39.553  29.235  26.882  1.00  0.00    -0.206 F 
ATOM     45  C   UNL A   1      37.482  29.593  29.825  1.00  0.00     0.022 A 
BRANCH  42  46
ATOM     46  S   UNL A   1      37.880  29.137  32.546  1.00  0.00     0.124 S 
ATOM     47  O   UNL A   1      38.948  29.816  33.277  1.00  0.00    -0.237 OA
ATOM     48  O   UNL A   1      36.582  29.801  32.551  1.00  0.00    -0.237 OA
ATOM     49  O   UNL A   1      37.842  27.686  32.723  1.00  0.00    -0.744 OA
ENDBRANCH  42  46
ENDBRANCH  25  39
BRANCH  26  50
ATOM     50  C   UNL A   1      49.432  26.513  26.223  1.00  0.00     0.023 A 
ATOM     51  C   UNL A   1      49.926  26.982  24.998  1.00  0.00     0.031 A 
ATOM     52  C   UNL A   1      50.259  25.679  26.996  1.00  0.00     0.131 A 
ATOM     53  C   UNL A   1      51.204  26.592  24.567  1.00  0.00     0.055 A 
ATOM     54  C   UNL A   1      51.547  25.333  26.587  1.00  0.00     0.041 A 
ATOM     55  F   UNL A   1      49.834  25.211  28.182  1.00  0.00    -0.206 F 
ATOM     56  C   UNL A   1      52.022  25.783  25.361  1.00  0.00     0.022 A 
BRANCH  53  57
ATOM     57  S   UNL A   1      51.763  27.114  22.924  1.00  0.00     0.124 S 
ATOM     58  O   UNL A   1      52.431  28.375  23.224  1.00  0.00    -0.237 OA
ATOM     59  O   UNL A   1      52.629  26.007  22.532  1.00  0.00    -0.237 OA
ATOM     60  O   UNL A   1      50.520  27.230  22.163  1.00  0.00    -0.744 OA
ENDBRANCH  53  57
ENDBRANCH  26  50
BRANCH  38  61
ATOM     61  C   UNL A   1      46.617  32.411  28.636  1.00  0.00     0.023 A 
ATOM     62  C   UNL A   1      46.584  33.432  27.670  1.00  0.00     0.031 A 
ATOM     63  C   UNL A   1      47.255  32.676  29.860  1.00  0.00     0.131 A 
ATOM     64  C   UNL A   1      47.230  34.652  27.921  1.00  0.00     0.055 A 
ATOM     65  C   UNL A   1      47.846  33.911  30.126  1.00  0.00     0.041 A 
ATOM     66  F   UNL A   1      47.318  31.734  30.815  1.00  0.00    -0.206 F 
ATOM     67  C   UNL A   1      47.849  34.903  29.148  1.00  0.00     0.022 A 
BRANCH  64  68
ATOM     68  S   UNL A   1      47.336  35.872  26.584  1.00  0.00     0.124 S 
ATOM     69  O   UNL A   1      47.207  37.131  27.311  1.00  0.00    -0.237 OA
ATOM     70  O   UNL A   1      48.651  35.598  26.014  1.00  0.00    -0.237 OA
ATOM     71  O   UNL A   1      46.205  35.535  25.721  1.00  0.00    -0.744 OA
ENDBRANCH  64  68
ENDBRANCH  38  61
ENDBRANCH  12  13
ENDBRANCH   5   7
ENDBRANCH   2   3
ENDBRANCH   1   2
BRANCH   1  72
ATOM     72  C   UNL A   1      37.438  21.362  24.696  1.00  0.00     0.023 C 
BRANCH  72  73
ATOM     73  C   UNL A   1      36.434  21.792  25.762  1.00  0.00     0.116 C 
BRANCH  73  74
ATOM     74  N   UNL A   1      35.206  21.008  25.745  1.00  0.00    -0.356 N 
ATOM     75  C   UNL A   1      34.013  21.292  25.127  1.00  0.00     0.223 C 
ATOM     76  H   UNL A   1      35.235  20.161  26.245  1.00  0.00     0.163 HD
ATOM     77  O   UNL A   1      33.099  20.472  25.157  1.00  0.00    -0.275 OA
BRANCH  75  78
ATOM     78  C   UNL A   1      33.856  22.659  24.476  1.00  0.00     0.082 C 
ATOM     79  C   UNL A   1      33.313  23.637  25.529  1.00  0.00     0.035 C 
ATOM     80  C   UNL A   1      33.097  22.628  23.136  1.00  0.00     0.035 C 
ATOM     81  C   UNL A   1      31.799  23.772  25.490  1.00  0.00     0.117 C 
ATOM     82  C   UNL A   1      31.606  22.964  23.192  1.00  0.00     0.117 C 
ATOM     83  N   UNL A   1      31.388  24.070  24.122  1.00  0.00    -0.366 N 
BRANCH  83  84
ATOM     84  C   UNL A   1      31.034  25.350  23.742  1.00  0.00     0.116 A 
ATOM     85  C   UNL A   1      29.714  25.800  23.945  1.00  0.00     0.034 A 
ATOM     86  C   UNL A   1      31.886  26.283  23.121  1.00  0.00     0.293 A 
ATOM     87  C   UNL A   1      29.268  27.074  23.561  1.00  0.00     0.016 A 
ATOM     88  C   UNL A   1      31.456  27.571  22.725  1.00  0.00     0.101 A 
ATOM     89  C   UNL A   1      30.134  27.973  22.938  1.00  0.00     0.062 A 
BRANCH  86  90
ATOM     90  N   UNL A   1      33.251  25.938  22.765  1.00  0.00     0.064 N 
ATOM     91  O   UNL A   1      34.110  26.096  23.647  1.00  0.00    -0.258 OA
ATOM     92  O   UNL A   1      33.481  25.585  21.601  1.00  0.00    -0.258 OA
ENDBRANCH  86  90
BRANCH  89  93
ATOM     93  C   UNL A   1      29.626  29.322  22.495  1.00  0.00     0.416 C 
ATOM     94  F   UNL A   1      29.474  30.186  23.536  1.00  0.00    -0.166 F 
ATOM     95  F   UNL A   1      30.471  29.936  21.620  1.00  0.00    -0.166 F 
ATOM     96  F   UNL A   1      28.416  29.269  21.873  1.00  0.00    -0.166 F 
ENDBRANCH  89  93
ENDBRANCH  83  84
ENDBRANCH  75  78
ENDBRANCH  73  74
ENDBRANCH  72  73
ENDBRANCH   1  72
TORSDOF 17
ENDMDL
MODEL 2
REMARK VINA RESULT:     -12.3      1.407      1.812
REMARK SMILES O=C(NCCCCNC(=O)C1CCN(c2ccc(C(F)(F)F)cc2[N+](=O)[O-])CC1)c1ccc(-c2c3nc(c(-c4cc(S(=O)(=O)[O-])ccc4F)c4ccc([nH]4)c(-c4cc(S(=O)(=O)[O-])ccc4F)c4nc(c(-c5cc(S(=O)(=O)[O-])ccc5F)c5ccc2[nH]5)C=C4)C=C3)cc1
REMARK SMILES IDX 5 1 4 2 3 3 1 4 2 5 30 7 31 8 92 9 32 10 91 11 33 12 34 13
REMARK SMILES IDX 35 14 85 15 36 16 90 17 84 18 86 19 37 20 89 21 83 22 82 23
REMARK SMILES IDX 38 25 70 26 50 27 69 28 51 29 54 30 68 31 87 32 52 33 53 34
REMARK SMILES IDX 67 36 88 37 55 38 39 39 40 40 48 41 41 42 47 43 49 44 46 45
REMARK SMILES IDX 42 46 43 47 44 48 45 49 71 50 72 51 80 52 73 53 79 54 81 55
REMARK SMILES IDX 78 56 74 57 75 58 76 59 77 60 56 61 57 62 65 63 58 64 64 65
REMARK SMILES IDX 66 66 63 67 59 68 60 69 61 70 62 71 6 72 7 73 8 74 9 75
REMARK SMILES IDX 10 77 11 78 12 79 29 80 13 81 28 82 14 83 15 84 16 85 24 86
REMARK SMILES IDX 17 87 23 88 18 89 25 90 26 91 27 92 19 93 20 94 21 95 22 96
REMARK H PARENT 3 6 86 24 54 35 8 76
REMARK Flexibility Score: inf
ROOT
ATOM      1  C   UNL A   1      38.129  19.994  24.887  1.00  0.00     0.023 C 
ENDROOT
BRANCH   1   2
ATOM      2  C   UNL A   1      39.191  20.212  25.957  1.00  0.00     0.116 C 
BRANCH   2   3
ATOM      3  N   UNL A   1      40.234  19.194  25.966  1.00  0.00    -0.352 N 
ATOM      4  O   UNL A   1      42.348  18.402  26.024  1.00  0.00    -0.269 OA
ATOM      5  C   UNL A   1      41.590  19.361  26.126  1.00  0.00     0.251 C 
ATOM      6  H   UNL A   1      39.929  18.266  25.842  1.00  0.00     0.163 HD
BRANCH   5   7
ATOM      7  C   UNL A   1      42.119  20.715  26.385  1.00  0.00     0.039 A 
ATOM      8  C   UNL A   1      42.271  21.169  27.697  1.00  0.00     0.014 A 
ATOM      9  C   UNL A   1      42.411  21.553  25.306  1.00  0.00     0.014 A 
ATOM     10  C   UNL A   1      42.566  22.506  27.929  1.00  0.00     0.010 A 
ATOM     11  C   UNL A   1      42.793  22.875  25.545  1.00  0.00     0.010 A 
ATOM     12  C   UNL A   1      42.838  23.372  26.857  1.00  0.00    -0.014 A 
BRANCH  12  13
ATOM     13  C   UNL A   1      43.212  24.779  27.144  1.00  0.00     0.031 A 
ATOM     14  C   UNL A   1      42.256  25.714  27.829  1.00  0.00     0.074 A 
ATOM     15  C   UNL A   1      44.449  25.194  26.808  1.00  0.00     0.049 A 
ATOM     16  N   UNL A   1      42.426  26.969  28.164  1.00  0.00    -0.248 NA
ATOM     17  C   UNL A   1      40.933  25.176  28.173  1.00  0.00     0.031 C 
ATOM     18  C   UNL A   1      45.457  24.367  26.137  1.00  0.00     0.029 A 
ATOM     19  N   UNL A   1      45.079  26.394  26.998  1.00  0.00    -0.354 N 
ATOM     20  C   UNL A   1      41.230  27.377  28.744  1.00  0.00     0.074 A 
ATOM     21  C   UNL A   1      40.331  26.243  28.682  1.00  0.00     0.031 C 
ATOM     22  C   UNL A   1      46.592  25.069  26.017  1.00  0.00     0.029 A 
ATOM     23  C   UNL A   1      46.372  26.415  26.534  1.00  0.00     0.049 A 
ATOM     24  H   UNL A   1      44.647  27.169  27.425  1.00  0.00     0.167 HD
ATOM     25  C   UNL A   1      40.918  28.584  29.281  1.00  0.00     0.034 A 
ATOM     26  C   UNL A   1      47.277  27.410  26.504  1.00  0.00     0.034 A 
ATOM     27  C   UNL A   1      41.834  29.701  29.332  1.00  0.00     0.049 A 
ATOM     28  C   UNL A   1      46.893  28.749  27.067  1.00  0.00     0.074 A 
ATOM     29  C   UNL A   1      41.637  30.956  29.881  1.00  0.00     0.029 A 
ATOM     30  N   UNL A   1      43.120  29.703  28.802  1.00  0.00    -0.354 N 
ATOM     31  N   UNL A   1      45.760  29.117  27.620  1.00  0.00    -0.248 NA
ATOM     32  C   UNL A   1      47.908  29.806  27.000  1.00  0.00     0.031 C 
ATOM     33  C   UNL A   1      42.773  31.734  29.626  1.00  0.00     0.029 A 
ATOM     34  C   UNL A   1      43.711  30.945  28.982  1.00  0.00     0.049 A 
ATOM     35  H   UNL A   1      43.549  28.933  28.363  1.00  0.00     0.167 HD
ATOM     36  C   UNL A   1      45.931  30.449  27.978  1.00  0.00     0.074 A 
ATOM     37  C   UNL A   1      47.284  30.810  27.599  1.00  0.00     0.031 C 
ATOM     38  C   UNL A   1      45.051  31.297  28.567  1.00  0.00     0.034 A 
BRANCH  25  39
ATOM     39  C   UNL A   1      39.513  28.769  29.809  1.00  0.00     0.023 A 
ATOM     40  C   UNL A   1      38.471  29.246  28.995  1.00  0.00     0.031 A 
ATOM     41  C   UNL A   1      39.219  28.491  31.156  1.00  0.00     0.131 A 
ATOM     42  C   UNL A   1      37.207  29.502  29.551  1.00  0.00     0.055 A 
ATOM     43  C   UNL A   1      37.939  28.672  31.684  1.00  0.00     0.041 A 
ATOM     44  F   UNL A   1      40.176  28.051  31.988  1.00  0.00    -0.206 F 
ATOM     45  C   UNL A   1      36.927  29.195  30.884  1.00  0.00     0.022 A 
BRANCH  42  46
ATOM     46  S   UNL A   1      35.977  30.378  28.545  1.00  0.00     0.124 S 
ATOM     47  O   UNL A   1      35.143  29.276  28.070  1.00  0.00    -0.237 OA
ATOM     48  O   UNL A   1      35.358  31.275  29.513  1.00  0.00    -0.237 OA
ATOM     49  O   UNL A   1      36.779  31.029  27.512  1.00  0.00    -0.744 OA
ENDBRANCH  42  46
ENDBRANCH  25  39
BRANCH  26  50
ATOM     50  C   UNL A   1      48.613  27.182  25.887  1.00  0.00     0.023 A 
ATOM     51  C   UNL A   1      48.828  27.412  24.521  1.00  0.00     0.031 A 
ATOM     52  C   UNL A   1      49.695  26.730  26.663  1.00  0.00     0.131 A 
ATOM     53  C   UNL A   1      50.093  27.163  23.965  1.00  0.00     0.055 A 
ATOM     54  C   UNL A   1      50.962  26.531  26.117  1.00  0.00     0.041 A 
ATOM     55  F   UNL A   1      49.540  26.504  27.978  1.00  0.00    -0.206 F 
ATOM     56  C   UNL A   1      51.164  26.739  24.757  1.00  0.00     0.022 A 
BRANCH  53  57
ATOM     57  S   UNL A   1      50.306  27.351  22.175  1.00  0.00     0.124 S 
ATOM     58  O   UNL A   1      49.230  26.514  21.657  1.00  0.00    -0.237 OA
ATOM     59  O   UNL A   1      50.141  28.791  22.000  1.00  0.00    -0.237 OA
ATOM     60  O   UNL A   1      51.659  26.850  21.939  1.00  0.00    -0.744 OA
ENDBRANCH  53  57
ENDBRANCH  26  50
BRANCH  38  61
ATOM     61  C   UNL A   1      45.549  32.692  28.852  1.00  0.00     0.023 A 
ATOM     62  C   UNL A   1      45.363  33.740  27.934  1.00  0.00     0.031 A 
ATOM     63  C   UNL A   1      46.251  32.966  30.039  1.00  0.00     0.131 A 
ATOM     64  C   UNL A   1      45.924  35.000  28.191  1.00  0.00     0.055 A 
ATOM     65  C   UNL A   1      46.757  34.236  30.315  1.00  0.00     0.041 A 
ATOM     66  F   UNL A   1      46.459  31.999  30.947  1.00  0.00    -0.206 F 
ATOM     67  C   UNL A   1      46.607  35.258  29.381  1.00  0.00     0.022 A 
BRANCH  64  68
ATOM     68  S   UNL A   1      45.833  36.272  26.901  1.00  0.00     0.124 S 
ATOM     69  O   UNL A   1      46.403  35.579  25.750  1.00  0.00    -0.237 OA
ATOM     70  O   UNL A   1      44.402  36.547  26.834  1.00  0.00    -0.237 OA
ATOM     71  O   UNL A   1      46.649  37.361  27.435  1.00  0.00    -0.744 OA
ENDBRANCH  64  68
ENDBRANCH  38  61
ENDBRANCH  12  13
ENDBRANCH   5   7
ENDBRANCH   2   3
ENDBRANCH   1   2
BRANCH   1  72
ATOM     72  C   UNL A   1      37.186  21.171  24.652  1.00  0.00     0.023 C 
BRANCH  72  73
ATOM     73  C   UNL A   1      36.233  21.475  25.804  1.00  0.00     0.116 C 
BRANCH  73  74
ATOM     74  N   UNL A   1      34.975  20.744  25.719  1.00  0.00    -0.356 N 
ATOM     75  C   UNL A   1      33.803  21.118  25.109  1.00  0.00     0.223 C 
ATOM     76  H   UNL A   1      34.964  19.865  26.159  1.00  0.00     0.163 HD
ATOM     77  O   UNL A   1      32.857  20.335  25.072  1.00  0.00    -0.275 OA
BRANCH  75  78
ATOM     78  C   UNL A   1      33.708  22.531  24.552  1.00  0.00     0.082 C 
ATOM     79  C   UNL A   1      33.097  23.437  25.633  1.00  0.00     0.035 C 
ATOM     80  C   UNL A   1      33.051  22.612  23.162  1.00  0.00     0.035 C 
ATOM     81  C   UNL A   1      31.592  23.597  25.493  1.00  0.00     0.117 C 
ATOM     82  C   UNL A   1      31.564  22.965  23.133  1.00  0.00     0.117 C 
ATOM     83  N   UNL A   1      31.287  24.002  24.125  1.00  0.00    -0.366 N 
BRANCH  83  84
ATOM     84  C   UNL A   1      30.976  25.313  23.817  1.00  0.00     0.116 A 
ATOM     85  C   UNL A   1      29.639  25.753  23.908  1.00  0.00     0.034 A 
ATOM     86  C   UNL A   1      31.889  26.289  23.377  1.00  0.00     0.293 A 
ATOM     87  C   UNL A   1      29.237  27.058  23.586  1.00  0.00     0.016 A 
ATOM     88  C   UNL A   1      31.504  27.609  23.045  1.00  0.00     0.101 A 
ATOM     89  C   UNL A   1      30.165  28.000  23.142  1.00  0.00     0.062 A 
BRANCH  86  90
ATOM     90  N   UNL A   1      33.287  25.965  23.148  1.00  0.00     0.064 N 
ATOM     91  O   UNL A   1      34.049  26.087  24.121  1.00  0.00    -0.258 OA
ATOM     92  O   UNL A   1      33.638  25.664  22.000  1.00  0.00    -0.258 OA
ENDBRANCH  86  90
BRANCH  89  93
ATOM     93  C   UNL A   1      29.707  29.386  22.760  1.00  0.00     0.416 C 
ATOM     94  F   UNL A   1      30.284  29.823  21.608  1.00  0.00    -0.166 F 
ATOM     95  F   UNL A   1      28.362  29.450  22.552  1.00  0.00    -0.166 F 
ATOM     96  F   UNL A   1      29.986  30.329  23.701  1.00  0.00    -0.166 F 
ENDBRANCH  89  93
ENDBRANCH  83  84
ENDBRANCH  75  78
ENDBRANCH  73  74
ENDBRANCH  72  73
ENDBRANCH   1  72
TORSDOF 17
ENDMDL
MODEL 3
REMARK VINA RESULT:     -12.3      6.143     11.858
REMARK SMILES O=C(NCCCCNC(=O)C1CCN(c2ccc(C(F)(F)F)cc2[N+](=O)[O-])CC1)c1ccc(-c2c3nc(c(-c4cc(S(=O)(=O)[O-])ccc4F)c4ccc([nH]4)c(-c4cc(S(=O)(=O)[O-])ccc4F)c4nc(c(-c5cc(S(=O)(=O)[O-])ccc5F)c5ccc2[nH]5)C=C4)C=C3)cc1
REMARK SMILES IDX 5 1 4 2 3 3 1 4 2 5 30 7 31 8 92 9 32 10 91 11 33 12 34 13
REMARK SMILES IDX 35 14 85 15 36 16 90 17 84 18 86 19 37 20 89 21 83 22 82 23
REMARK SMILES IDX 38 25 70 26 50 27 69 28 51 29 54 30 68 31 87 32 52 33 53 34
REMARK SMILES IDX 67 36 88 37 55 38 39 39 40 40 48 41 41 42 47 43 49 44 46 45
REMARK SMILES IDX 42 46 43 47 44 48 45 49 71 50 72 51 80 52 73 53 79 54 81 55
REMARK SMILES IDX 78 56 74 57 75 58 76 59 77 60 56 61 57 62 65 63 58 64 64 65
REMARK SMILES IDX 66 66 63 67 59 68 60 69 61 70 62 71 6 72 7 73 8 74 9 75
REMARK SMILES IDX 10 77 11 78 12 79 29 80 13 81 28 82 14 83 15 84 16 85 24 86
REMARK SMILES IDX 17 87 23 88 18 89 25 90 26 91 27 92 19 93 20 94 21 95 22 96
REMARK H PARENT 3 6 86 24 54 35 8 76
REMARK Flexibility Score: inf
ROOT
ATOM      1  C   UNL A   1      31.956  31.683  26.809  1.00  0.00     0.023 C 
ENDROOT
BRANCH   1   2
ATOM      2  C   UNL A   1      33.094  32.516  27.385  1.00  0.00     0.116 C 
BRANCH   2   3
ATOM      3  N   UNL A   1      32.695  33.858  27.788  1.00  0.00    -0.352 N 
ATOM      4  O   UNL A   1      32.681  35.711  29.080  1.00  0.00    -0.269 OA
ATOM      5  C   UNL A   1      33.188  34.625  28.818  1.00  0.00     0.251 C 
ATOM      6  H   UNL A   1      31.978  34.271  27.254  1.00  0.00     0.163 HD
BRANCH   5   7
ATOM      7  C   UNL A   1      34.311  34.104  29.623  1.00  0.00     0.039 A 
ATOM      8  C   UNL A   1      35.624  34.465  29.312  1.00  0.00     0.014 A 
ATOM      9  C   UNL A   1      34.050  33.205  30.660  1.00  0.00     0.014 A 
ATOM     10  C   UNL A   1      36.679  33.810  29.933  1.00  0.00     0.010 A 
ATOM     11  C   UNL A   1      35.114  32.614  31.344  1.00  0.00     0.010 A 
ATOM     12  C   UNL A   1      36.437  32.884  30.961  1.00  0.00    -0.014 A 
BRANCH  12  13
ATOM     13  C   UNL A   1      37.591  32.251  31.647  1.00  0.00     0.031 A 
ATOM     14  C   UNL A   1      38.408  31.185  30.974  1.00  0.00     0.074 A 
ATOM     15  C   UNL A   1      37.917  32.682  32.882  1.00  0.00     0.049 A 
ATOM     16  N   UNL A   1      39.452  30.537  31.425  1.00  0.00    -0.248 NA
ATOM     17  C   UNL A   1      37.993  30.785  29.622  1.00  0.00     0.031 C 
ATOM     18  C   UNL A   1      37.189  33.713  33.629  1.00  0.00     0.029 A 
ATOM     19  N   UNL A   1      38.943  32.330  33.716  1.00  0.00    -0.354 N 
ATOM     20  C   UNL A   1      39.812  29.642  30.423  1.00  0.00     0.074 A 
ATOM     21  C   UNL A   1      38.849  29.808  29.354  1.00  0.00     0.031 C 
ATOM     22  C   UNL A   1      37.821  33.943  34.787  1.00  0.00     0.029 A 
ATOM     23  C   UNL A   1      38.952  33.030  34.900  1.00  0.00     0.049 A 
ATOM     24  H   UNL A   1      39.610  31.642  33.492  1.00  0.00     0.167 HD
ATOM     25  C   UNL A   1      40.851  28.769  30.400  1.00  0.00     0.034 A 
ATOM     26  C   UNL A   1      39.764  32.934  35.968  1.00  0.00     0.034 A 
ATOM     27  C   UNL A   1      41.799  28.622  31.481  1.00  0.00     0.049 A 
ATOM     28  C   UNL A   1      40.882  31.931  35.935  1.00  0.00     0.074 A 
ATOM     29  C   UNL A   1      42.908  27.796  31.551  1.00  0.00     0.029 A 
ATOM     30  N   UNL A   1      41.746  29.310  32.689  1.00  0.00    -0.354 N 
ATOM     31  N   UNL A   1      41.214  31.098  34.976  1.00  0.00    -0.248 NA
ATOM     32  C   UNL A   1      41.732  31.855  37.128  1.00  0.00     0.031 C 
ATOM     33  C   UNL A   1      43.482  27.935  32.821  1.00  0.00     0.029 A 
ATOM     34  C   UNL A   1      42.779  28.901  33.520  1.00  0.00     0.049 A 
ATOM     35  H   UNL A   1      41.072  29.989  32.920  1.00  0.00     0.167 HD
ATOM     36  C   UNL A   1      42.322  30.404  35.447  1.00  0.00     0.074 A 
ATOM     37  C   UNL A   1      42.614  30.934  36.765  1.00  0.00     0.031 C 
ATOM     38  C   UNL A   1      43.035  29.418  34.846  1.00  0.00     0.034 A 
BRANCH  25  39
ATOM     39  C   UNL A   1      40.982  27.875  29.188  1.00  0.00     0.023 A 
ATOM     40  C   UNL A   1      41.973  28.085  28.213  1.00  0.00     0.031 A 
ATOM     41  C   UNL A   1      40.083  26.811  28.991  1.00  0.00     0.131 A 
ATOM     42  C   UNL A   1      41.993  27.296  27.052  1.00  0.00     0.055 A 
ATOM     43  C   UNL A   1      40.158  25.979  27.872  1.00  0.00     0.041 A 
ATOM     44  F   UNL A   1      39.103  26.572  29.877  1.00  0.00    -0.206 F 
ATOM     45  C   UNL A   1      41.108  26.228  26.886  1.00  0.00     0.022 A 
BRANCH  42  46
ATOM     46  S   UNL A   1      43.098  27.775  25.695  1.00  0.00     0.124 S 
ATOM     47  O   UNL A   1      42.148  28.260  24.696  1.00  0.00    -0.237 OA
ATOM     48  O   UNL A   1      43.941  28.789  26.318  1.00  0.00    -0.237 OA
ATOM     49  O   UNL A   1      43.775  26.528  25.345  1.00  0.00    -0.744 OA
ENDBRANCH  42  46
ENDBRANCH  25  39
BRANCH  26  50
ATOM     50  C   UNL A   1      39.521  33.787  37.164  1.00  0.00     0.023 A 
ATOM     51  C   UNL A   1      38.839  33.287  38.282  1.00  0.00     0.031 A 
ATOM     52  C   UNL A   1      39.974  35.118  37.202  1.00  0.00     0.131 A 
ATOM     53  C   UNL A   1      38.604  34.124  39.385  1.00  0.00     0.055 A 
ATOM     54  C   UNL A   1      39.781  35.930  38.319  1.00  0.00     0.041 A 
ATOM     55  F   UNL A   1      40.640  35.638  36.159  1.00  0.00    -0.206 F 
ATOM     56  C   UNL A   1      39.084  35.436  39.416  1.00  0.00     0.022 A 
BRANCH  53  57
ATOM     57  S   UNL A   1      37.612  33.487  40.762  1.00  0.00     0.124 S 
ATOM     58  O   UNL A   1      38.554  32.587  41.417  1.00  0.00    -0.237 OA
ATOM     59  O   UNL A   1      37.282  34.709  41.488  1.00  0.00    -0.237 OA
ATOM     60  O   UNL A   1      36.485  32.838  40.097  1.00  0.00    -0.744 OA
ENDBRANCH  53  57
ENDBRANCH  26  50
BRANCH  38  61
ATOM     61  C   UNL A   1      44.213  28.875  35.615  1.00  0.00     0.023 A 
ATOM     62  C   UNL A   1      44.082  27.772  36.476  1.00  0.00     0.031 A 
ATOM     63  C   UNL A   1      45.472  29.492  35.512  1.00  0.00     0.131 A 
ATOM     64  C   UNL A   1      45.178  27.356  37.248  1.00  0.00     0.055 A 
ATOM     65  C   UNL A   1      46.572  29.037  36.239  1.00  0.00     0.041 A 
ATOM     66  F   UNL A   1      45.650  30.552  34.707  1.00  0.00    -0.206 F 
ATOM     67  C   UNL A   1      46.425  27.972  37.124  1.00  0.00     0.022 A 
BRANCH  64  68
ATOM     68  S   UNL A   1      44.925  26.058  38.489  1.00  0.00     0.124 S 
ATOM     69  O   UNL A   1      46.293  25.754  38.895  1.00  0.00    -0.237 OA
ATOM     70  O   UNL A   1      44.100  26.734  39.485  1.00  0.00    -0.237 OA
ATOM     71  O   UNL A   1      44.250  24.996  37.743  1.00  0.00    -0.744 OA
ENDBRANCH  64  68
ENDBRANCH  38  61
ENDBRANCH  12  13
ENDBRANCH   5   7
ENDBRANCH   2   3
ENDBRANCH   1   2
BRANCH   1  72
ATOM     72  C   UNL A   1      32.155  30.171  26.875  1.00  0.00     0.023 C 
BRANCH  72  73
ATOM     73  C   UNL A   1      33.063  29.591  25.794  1.00  0.00     0.116 C 
BRANCH  73  74
ATOM     74  N   UNL A   1      32.410  29.465  24.499  1.00  0.00    -0.356 N 
ATOM     75  C   UNL A   1      31.868  28.346  23.914  1.00  0.00     0.223 C 
ATOM     76  H   UNL A   1      32.348  30.293  23.971  1.00  0.00     0.163 HD
ATOM     77  O   UNL A   1      31.284  28.442  22.837  1.00  0.00    -0.275 OA
BRANCH  75  78
ATOM     78  C   UNL A   1      32.075  27.008  24.608  1.00  0.00     0.082 C 
ATOM     79  C   UNL A   1      33.280  26.308  23.961  1.00  0.00     0.035 C 
ATOM     80  C   UNL A   1      30.794  26.162  24.728  1.00  0.00     0.035 C 
ATOM     81  C   UNL A   1      32.883  25.340  22.858  1.00  0.00     0.117 C 
ATOM     82  C   UNL A   1      30.589  25.086  23.661  1.00  0.00     0.117 C 
ATOM     83  N   UNL A   1      31.865  24.432  23.374  1.00  0.00    -0.366 N 
BRANCH  83  84
ATOM     84  C   UNL A   1      32.177  23.137  23.743  1.00  0.00     0.116 A 
ATOM     85  C   UNL A   1      32.062  22.095  22.801  1.00  0.00     0.034 A 
ATOM     86  C   UNL A   1      32.591  22.730  25.025  1.00  0.00     0.293 A 
ATOM     87  C   UNL A   1      32.333  20.752  23.104  1.00  0.00     0.016 A 
ATOM     88  C   UNL A   1      32.867  21.381  25.352  1.00  0.00     0.101 A 
ATOM     89  C   UNL A   1      32.731  20.378  24.388  1.00  0.00     0.062 A 
BRANCH  86  90
ATOM     90  N   UNL A   1      32.672  23.673  26.127  1.00  0.00     0.064 N 
ATOM     91  O   UNL A   1      33.773  24.218  26.308  1.00  0.00    -0.258 OA
ATOM     92  O   UNL A   1      31.677  23.817  26.849  1.00  0.00    -0.258 OA
ENDBRANCH  86  90
BRANCH  89  93
ATOM     93  C   UNL A   1      32.976  18.924  24.705  1.00  0.00     0.416 C 
ATOM     94  F   UNL A   1      34.301  18.610  24.704  1.00  0.00    -0.166 F 
ATOM     95  F   UNL A   1      32.510  18.573  25.936  1.00  0.00    -0.166 F 
ATOM     96  F   UNL A   1      32.388  18.069  23.824  1.00  0.00    -0.166 F 
ENDBRANCH  89  93
ENDBRANCH  83  84
ENDBRANCH  75  78
ENDBRANCH  73  74
ENDBRANCH  72  73
ENDBRANCH   1  72
TORSDOF 17
ENDMDL
