MODEL 1
REMARK VINA RESULT:     -12.9      0.000      0.000
REMARK SMILES O=C(NCCCCNC(=O)c1ccc2nc(C3CCCCC3)[nH]c2c1)c1ccc(-c2c3nc(c(-c4cc(S(=O)(=O)[O-])ccc4F)c4ccc([nH]4)c(-c4cc(S(=O)(=O)[O-])ccc4F)c4nc(c(-c5cc(S(=O)(=O)[O-])ccc5F)c5ccc2[nH]5)C=C4)C=C3)cc1
REMARK SMILES IDX 4 1 3 2 1 3 2 4 26 6 27 7 88 8 28 9 87 10 29 11 30 12 31 13
REMARK SMILES IDX 81 14 32 15 86 16 80 17 82 18 33 19 85 20 79 21 78 22 34 24
REMARK SMILES IDX 66 25 46 26 65 27 47 28 50 29 64 30 83 31 48 32 49 33 63 35
REMARK SMILES IDX 84 36 51 37 35 38 36 39 44 40 37 41 43 42 45 43 42 44 38 45
REMARK SMILES IDX 39 46 40 47 41 48 67 49 68 50 76 51 69 52 75 53 77 54 74 55
REMARK SMILES IDX 70 56 71 57 72 58 73 59 52 60 53 61 61 62 54 63 60 64 62 65
REMARK SMILES IDX 59 66 55 67 56 68 57 69 58 70 5 71 6 72 7 73 8 74 9 75 10 77
REMARK SMILES IDX 11 78 12 79 25 80 13 81 24 82 14 83 23 84 15 85 16 86 17 88
REMARK SMILES IDX 18 89 22 90 19 91 21 92 20 93
REMARK H PARENT 3 5 82 23 50 34 8 76 23 87
REMARK Flexibility Score: inf
ROOT
ATOM      1  C   UNL A   1      36.575  22.122  25.470  1.00  0.00     0.116 C 
ENDROOT
BRANCH   1   2
ATOM      2  N   UNL A   1      37.515  21.026  25.652  1.00  0.00    -0.352 N 
ATOM      3  O   UNL A   1      39.513  20.051  26.032  1.00  0.00    -0.269 OA
ATOM      4  C   UNL A   1      38.831  21.072  26.051  1.00  0.00     0.251 C 
ATOM      5  H   UNL A   1      37.160  20.128  25.466  1.00  0.00     0.163 HD
BRANCH   4   6
ATOM      6  C   UNL A   1      39.426  22.359  26.471  1.00  0.00     0.039 A 
ATOM      7  C   UNL A   1      38.882  23.569  26.035  1.00  0.00     0.014 A 
ATOM      8  C   UNL A   1      40.553  22.354  27.298  1.00  0.00     0.014 A 
ATOM      9  C   UNL A   1      39.548  24.759  26.299  1.00  0.00     0.010 A 
ATOM     10  C   UNL A   1      41.172  23.562  27.634  1.00  0.00     0.010 A 
ATOM     11  C   UNL A   1      40.695  24.772  27.110  1.00  0.00    -0.014 A 
BRANCH  11  12
ATOM     12  C   UNL A   1      41.340  26.070  27.435  1.00  0.00     0.031 A 
ATOM     13  C   UNL A   1      42.700  26.421  26.899  1.00  0.00     0.074 A 
ATOM     14  C   UNL A   1      40.665  26.949  28.203  1.00  0.00     0.049 A 
ATOM     15  N   UNL A   1      43.401  27.512  27.079  1.00  0.00    -0.248 NA
ATOM     16  C   UNL A   1      43.366  25.412  26.063  1.00  0.00     0.031 C 
ATOM     17  C   UNL A   1      39.341  26.709  28.786  1.00  0.00     0.029 A 
ATOM     18  N   UNL A   1      40.982  28.218  28.613  1.00  0.00    -0.354 N 
ATOM     19  C   UNL A   1      44.596  27.317  26.395  1.00  0.00     0.074 A 
ATOM     20  C   UNL A   1      44.535  25.989  25.822  1.00  0.00     0.031 C 
ATOM     21  C   UNL A   1      38.944  27.809  29.442  1.00  0.00     0.029 A 
ATOM     22  C   UNL A   1      40.007  28.805  29.384  1.00  0.00     0.049 A 
ATOM     23  H   UNL A   1      41.827  28.665  28.378  1.00  0.00     0.167 HD
ATOM     24  C   UNL A   1      45.642  28.172  26.258  1.00  0.00     0.034 A 
ATOM     25  C   UNL A   1      39.978  30.002  29.999  1.00  0.00     0.034 A 
ATOM     26  C   UNL A   1      45.680  29.498  26.832  1.00  0.00     0.049 A 
ATOM     27  C   UNL A   1      41.158  30.922  29.848  1.00  0.00     0.074 A 
ATOM     28  C   UNL A   1      46.670  30.459  26.719  1.00  0.00     0.029 A 
ATOM     29  N   UNL A   1      44.687  30.047  27.636  1.00  0.00    -0.354 N 
ATOM     30  N   UNL A   1      42.272  30.727  29.182  1.00  0.00    -0.248 NA
ATOM     31  C   UNL A   1      41.073  32.219  30.527  1.00  0.00     0.031 C 
ATOM     32  C   UNL A   1      46.307  31.559  27.505  1.00  0.00     0.029 A 
ATOM     33  C   UNL A   1      45.057  31.319  28.052  1.00  0.00     0.049 A 
ATOM     34  H   UNL A   1      43.844  29.599  27.876  1.00  0.00     0.167 HD
ATOM     35  C   UNL A   1      43.020  31.888  29.354  1.00  0.00     0.074 A 
ATOM     36  C   UNL A   1      42.217  32.782  30.164  1.00  0.00     0.031 C 
ATOM     37  C   UNL A   1      44.257  32.187  28.884  1.00  0.00     0.034 A 
BRANCH  24  38
ATOM     38  C   UNL A   1      46.851  27.681  25.497  1.00  0.00     0.023 A 
ATOM     39  C   UNL A   1      47.076  28.025  24.152  1.00  0.00     0.031 A 
ATOM     40  C   UNL A   1      47.792  26.845  26.128  1.00  0.00     0.131 A 
ATOM     41  C   UNL A   1      48.178  27.487  23.466  1.00  0.00     0.055 A 
ATOM     42  C   UNL A   1      48.923  26.372  25.460  1.00  0.00     0.041 A 
ATOM     43  F   UNL A   1      47.621  26.467  27.403  1.00  0.00    -0.206 F 
ATOM     44  C   UNL A   1      49.114  26.681  24.117  1.00  0.00     0.022 A 
BRANCH  41  45
ATOM     45  S   UNL A   1      48.301  27.754  21.675  1.00  0.00     0.124 S 
ATOM     46  O   UNL A   1      46.951  28.206  21.349  1.00  0.00    -0.237 OA
ATOM     47  O   UNL A   1      49.353  28.759  21.578  1.00  0.00    -0.237 OA
ATOM     48  O   UNL A   1      48.650  26.433  21.155  1.00  0.00    -0.744 OA
ENDBRANCH  41  45
ENDBRANCH  24  38
BRANCH  25  49
ATOM     49  C   UNL A   1      38.808  30.378  30.840  1.00  0.00     0.023 A 
ATOM     50  C   UNL A   1      37.738  31.114  30.313  1.00  0.00     0.031 A 
ATOM     51  C   UNL A   1      38.751  30.003  32.196  1.00  0.00     0.131 A 
ATOM     52  C   UNL A   1      36.668  31.481  31.144  1.00  0.00     0.055 A 
ATOM     53  C   UNL A   1      37.663  30.329  33.004  1.00  0.00     0.041 A 
ATOM     54  F   UNL A   1      39.747  29.292  32.746  1.00  0.00    -0.206 F 
ATOM     55  C   UNL A   1      36.617  31.081  32.482  1.00  0.00     0.022 A 
BRANCH  52  56
ATOM     56  S   UNL A   1      35.367  32.547  30.465  1.00  0.00     0.124 S 
ATOM     57  O   UNL A   1      36.101  33.776  30.189  1.00  0.00    -0.237 OA
ATOM     58  O   UNL A   1      34.929  31.785  29.300  1.00  0.00    -0.237 OA
ATOM     59  O   UNL A   1      34.395  32.631  31.553  1.00  0.00    -0.744 OA
ENDBRANCH  52  56
ENDBRANCH  25  49
BRANCH  37  60
ATOM     60  C   UNL A   1      44.796  33.554  29.223  1.00  0.00     0.023 A 
ATOM     61  C   UNL A   1      44.451  34.689  28.468  1.00  0.00     0.031 A 
ATOM     62  C   UNL A   1      45.690  33.717  30.296  1.00  0.00     0.131 A 
ATOM     63  C   UNL A   1      45.042  35.927  28.760  1.00  0.00     0.055 A 
ATOM     64  C   UNL A   1      46.231  34.963  30.616  1.00  0.00     0.041 A 
ATOM     65  F   UNL A   1      46.055  32.665  31.047  1.00  0.00    -0.206 F 
ATOM     66  C   UNL A   1      45.918  36.074  29.839  1.00  0.00     0.022 A 
BRANCH  63  67
ATOM     67  S   UNL A   1      44.724  37.328  27.652  1.00  0.00     0.124 S 
ATOM     68  O   UNL A   1      45.975  37.416  26.908  1.00  0.00    -0.237 OA
ATOM     69  O   UNL A   1      43.563  36.870  26.896  1.00  0.00    -0.237 OA
ATOM     70  O   UNL A   1      44.467  38.438  28.567  1.00  0.00    -0.744 OA
ENDBRANCH  63  67
ENDBRANCH  37  60
ENDBRANCH  11  12
ENDBRANCH   4   6
ENDBRANCH   1   2
BRANCH   1  71
ATOM     71  C   UNL A   1      35.487  21.815  24.450  1.00  0.00     0.023 C 
BRANCH  71  72
ATOM     72  C   UNL A   1      34.535  20.682  24.829  1.00  0.00     0.023 C 
BRANCH  72  73
ATOM     73  C   UNL A   1      33.098  21.105  25.111  1.00  0.00     0.116 C 
BRANCH  73  74
ATOM     74  N   UNL A   1      32.854  21.363  26.521  1.00  0.00    -0.352 N 
ATOM     75  C   UNL A   1      32.659  22.564  27.155  1.00  0.00     0.251 C 
ATOM     76  H   UNL A   1      32.824  20.568  27.099  1.00  0.00     0.163 HD
ATOM     77  O   UNL A   1      32.588  22.632  28.378  1.00  0.00    -0.269 OA
BRANCH  75  78
ATOM     78  C   UNL A   1      32.567  23.798  26.352  1.00  0.00     0.042 A 
ATOM     79  C   UNL A   1      33.724  24.522  26.032  1.00  0.00     0.016 A 
ATOM     80  C   UNL A   1      31.296  24.208  25.932  1.00  0.00     0.042 A 
ATOM     81  C   UNL A   1      33.631  25.732  25.333  1.00  0.00     0.031 A 
ATOM     82  C   UNL A   1      31.241  25.414  25.234  1.00  0.00     0.066 A 
ATOM     83  C   UNL A   1      32.362  26.182  24.940  1.00  0.00     0.089 A 
ATOM     84  N   UNL A   1      30.198  26.117  24.693  1.00  0.00    -0.342 N 
ATOM     85  N   UNL A   1      32.010  27.321  24.261  1.00  0.00    -0.233 NA
ATOM     86  C   UNL A   1      30.701  27.260  24.115  1.00  0.00     0.110 A 
ATOM     87  H   UNL A   1      29.250  25.853  24.714  1.00  0.00     0.168 HD
BRANCH  86  88
ATOM     88  C   UNL A   1      29.856  28.249  23.376  1.00  0.00     0.055 C 
ATOM     89  C   UNL A   1      28.371  27.874  23.478  1.00  0.00     0.011 C 
ATOM     90  C   UNL A   1      30.100  29.691  23.845  1.00  0.00     0.011 C 
ATOM     91  C   UNL A   1      27.491  28.866  22.724  1.00  0.00     0.001 C 
ATOM     92  C   UNL A   1      29.212  30.679  23.091  1.00  0.00     0.001 C 
ATOM     93  C   UNL A   1      27.738  30.298  23.189  1.00  0.00     0.000 C 
ENDBRANCH  86  88
ENDBRANCH  75  78
ENDBRANCH  73  74
ENDBRANCH  72  73
ENDBRANCH  71  72
ENDBRANCH   1  71
TORSDOF 15
ENDMDL
MODEL 2
REMARK VINA RESULT:     -12.8      5.097     10.669
REMARK SMILES O=C(NCCCCNC(=O)c1ccc2nc(C3CCCCC3)[nH]c2c1)c1ccc(-c2c3nc(c(-c4cc(S(=O)(=O)[O-])ccc4F)c4ccc([nH]4)c(-c4cc(S(=O)(=O)[O-])ccc4F)c4nc(c(-c5cc(S(=O)(=O)[O-])ccc5F)c5ccc2[nH]5)C=C4)C=C3)cc1
REMARK SMILES IDX 4 1 3 2 1 3 2 4 26 6 27 7 88 8 28 9 87 10 29 11 30 12 31 13
REMARK SMILES IDX 81 14 32 15 86 16 80 17 82 18 33 19 85 20 79 21 78 22 34 24
REMARK SMILES IDX 66 25 46 26 65 27 47 28 50 29 64 30 83 31 48 32 49 33 63 35
REMARK SMILES IDX 84 36 51 37 35 38 36 39 44 40 37 41 43 42 45 43 42 44 38 45
REMARK SMILES IDX 39 46 40 47 41 48 67 49 68 50 76 51 69 52 75 53 77 54 74 55
REMARK SMILES IDX 70 56 71 57 72 58 73 59 52 60 53 61 61 62 54 63 60 64 62 65
REMARK SMILES IDX 59 66 55 67 56 68 57 69 58 70 5 71 6 72 7 73 8 74 9 75 10 77
REMARK SMILES IDX 11 78 12 79 25 80 13 81 24 82 14 83 23 84 15 85 16 86 17 88
REMARK SMILES IDX 18 89 22 90 19 91 21 92 20 93
REMARK H PARENT 3 5 82 23 50 34 8 76 23 87
REMARK Flexibility Score: inf
ROOT
ATOM      1  C   UNL A   1      32.813  29.638  25.657  1.00  0.00     0.116 C 
ENDROOT
BRANCH   1   2
ATOM      2  N   UNL A   1      32.412  30.967  26.094  1.00  0.00    -0.352 N 
ATOM      3  O   UNL A   1      32.438  32.822  27.377  1.00  0.00    -0.269 OA
ATOM      4  C   UNL A   1      32.987  31.775  27.049  1.00  0.00     0.251 C 
ATOM      5  H   UNL A   1      31.620  31.340  25.645  1.00  0.00     0.163 HD
BRANCH   4   6
ATOM      6  C   UNL A   1      34.250  31.360  27.697  1.00  0.00     0.039 A 
ATOM      7  C   UNL A   1      34.451  30.030  28.073  1.00  0.00     0.014 A 
ATOM      8  C   UNL A   1      35.237  32.317  27.946  1.00  0.00     0.014 A 
ATOM      9  C   UNL A   1      35.566  29.689  28.828  1.00  0.00     0.010 A 
ATOM     10  C   UNL A   1      36.400  31.952  28.632  1.00  0.00     0.010 A 
ATOM     11  C   UNL A   1      36.559  30.642  29.108  1.00  0.00    -0.014 A 
BRANCH  11  12
ATOM     12  C   UNL A   1      37.776  30.227  29.853  1.00  0.00     0.031 A 
ATOM     13  C   UNL A   1      37.989  30.633  31.285  1.00  0.00     0.074 A 
ATOM     14  C   UNL A   1      38.679  29.448  29.226  1.00  0.00     0.049 A 
ATOM     15  N   UNL A   1      38.988  30.350  32.082  1.00  0.00    -0.248 NA
ATOM     16  C   UNL A   1      36.953  31.476  31.899  1.00  0.00     0.031 C 
ATOM     17  C   UNL A   1      38.578  29.001  27.833  1.00  0.00     0.029 A 
ATOM     18  N   UNL A   1      39.845  28.880  29.671  1.00  0.00    -0.354 N 
ATOM     19  C   UNL A   1      38.714  30.992  33.285  1.00  0.00     0.074 A 
ATOM     20  C   UNL A   1      37.467  31.704  33.100  1.00  0.00     0.031 C 
ATOM     21  C   UNL A   1      39.615  28.198  27.553  1.00  0.00     0.029 A 
ATOM     22  C   UNL A   1      40.486  28.125  28.719  1.00  0.00     0.049 A 
ATOM     23  H   UNL A   1      40.189  29.003  30.585  1.00  0.00     0.167 HD
ATOM     24  C   UNL A   1      39.437  30.982  34.434  1.00  0.00     0.034 A 
ATOM     25  C   UNL A   1      41.658  27.464  28.767  1.00  0.00     0.034 A 
ATOM     26  C   UNL A   1      40.676  30.257  34.600  1.00  0.00     0.049 A 
ATOM     27  C   UNL A   1      42.449  27.486  30.045  1.00  0.00     0.074 A 
ATOM     28  C   UNL A   1      41.465  30.146  35.732  1.00  0.00     0.029 A 
ATOM     29  N   UNL A   1      41.314  29.529  33.602  1.00  0.00    -0.354 N 
ATOM     30  N   UNL A   1      42.164  28.084  31.178  1.00  0.00    -0.248 NA
ATOM     31  C   UNL A   1      43.713  26.742  30.051  1.00  0.00     0.031 C 
ATOM     32  C   UNL A   1      42.608  29.407  35.401  1.00  0.00     0.029 A 
ATOM     33  C   UNL A   1      42.501  28.994  34.084  1.00  0.00     0.049 A 
ATOM     34  H   UNL A   1      40.974  29.410  32.686  1.00  0.00     0.167 HD
ATOM     35  C   UNL A   1      43.213  27.778  32.038  1.00  0.00     0.074 A 
ATOM     36  C   UNL A   1      44.120  26.923  31.299  1.00  0.00     0.031 C 
ATOM     37  C   UNL A   1      43.409  28.167  33.324  1.00  0.00     0.034 A 
BRANCH  24  38
ATOM     38  C   UNL A   1      38.929  31.817  35.586  1.00  0.00     0.023 A 
ATOM     39  C   UNL A   1      38.296  31.241  36.702  1.00  0.00     0.031 A 
ATOM     40  C   UNL A   1      39.075  33.217  35.562  1.00  0.00     0.131 A 
ATOM     41  C   UNL A   1      37.778  32.065  37.716  1.00  0.00     0.055 A 
ATOM     42  C   UNL A   1      38.622  34.024  36.608  1.00  0.00     0.041 A 
ATOM     43  F   UNL A   1      39.654  33.824  34.516  1.00  0.00    -0.206 F 
ATOM     44  C   UNL A   1      37.957  33.449  37.687  1.00  0.00     0.022 A 
BRANCH  41  45
ATOM     45  S   UNL A   1      36.756  31.310  39.012  1.00  0.00     0.124 S 
ATOM     46  O   UNL A   1      37.671  31.316  40.151  1.00  0.00    -0.237 OA
ATOM     47  O   UNL A   1      35.625  32.226  39.095  1.00  0.00    -0.237 OA
ATOM     48  O   UNL A   1      36.449  29.984  38.478  1.00  0.00    -0.744 OA
ENDBRANCH  41  45
ENDBRANCH  24  38
BRANCH  25  49
ATOM     49  C   UNL A   1      42.166  26.763  27.555  1.00  0.00     0.023 A 
ATOM     50  C   UNL A   1      41.976  25.385  27.377  1.00  0.00     0.031 A 
ATOM     51  C   UNL A   1      42.859  27.471  26.555  1.00  0.00     0.131 A 
ATOM     52  C   UNL A   1      42.499  24.751  26.240  1.00  0.00     0.055 A 
ATOM     53  C   UNL A   1      43.334  26.844  25.404  1.00  0.00     0.041 A 
ATOM     54  F   UNL A   1      43.061  28.792  26.675  1.00  0.00    -0.206 F 
ATOM     55  C   UNL A   1      43.164  25.473  25.246  1.00  0.00     0.022 A 
BRANCH  52  56
ATOM     56  S   UNL A   1      42.352  22.948  26.107  1.00  0.00     0.124 S 
ATOM     57  O   UNL A   1      42.817  22.710  24.746  1.00  0.00    -0.237 OA
ATOM     58  O   UNL A   1      43.235  22.492  27.176  1.00  0.00    -0.237 OA
ATOM     59  O   UNL A   1      40.928  22.706  26.332  1.00  0.00    -0.744 OA
ENDBRANCH  52  56
ENDBRANCH  25  49
BRANCH  37  60
ATOM     60  C   UNL A   1      44.646  27.642  34.008  1.00  0.00     0.023 A 
ATOM     61  C   UNL A   1      44.628  26.443  34.743  1.00  0.00     0.031 A 
ATOM     62  C   UNL A   1      45.849  28.367  33.948  1.00  0.00     0.131 A 
ATOM     63  C   UNL A   1      45.776  26.034  35.438  1.00  0.00     0.055 A 
ATOM     64  C   UNL A   1      47.004  27.925  34.596  1.00  0.00     0.041 A 
ATOM     65  F   UNL A   1      45.920  29.520  33.264  1.00  0.00    -0.206 F 
ATOM     66  C   UNL A   1      46.968  26.759  35.357  1.00  0.00     0.022 A 
BRANCH  63  67
ATOM     67  S   UNL A   1      45.665  24.589  36.528  1.00  0.00     0.124 S 
ATOM     68  O   UNL A   1      44.526  24.932  37.372  1.00  0.00    -0.237 OA
ATOM     69  O   UNL A   1      45.452  23.500  35.580  1.00  0.00    -0.237 OA
ATOM     70  O   UNL A   1      46.958  24.571  37.208  1.00  0.00    -0.744 OA
ENDBRANCH  63  67
ENDBRANCH  37  60
ENDBRANCH  11  12
ENDBRANCH   4   6
ENDBRANCH   1   2
BRANCH   1  71
ATOM     71  C   UNL A   1      31.643  28.676  25.512  1.00  0.00     0.023 C 
BRANCH  71  72
ATOM     72  C   UNL A   1      30.776  28.882  24.270  1.00  0.00     0.023 C 
BRANCH  72  73
ATOM     73  C   UNL A   1      30.931  27.822  23.185  1.00  0.00     0.116 C 
BRANCH  73  74
ATOM     74  N   UNL A   1      32.103  28.038  22.351  1.00  0.00    -0.352 N 
ATOM     75  C   UNL A   1      33.259  27.303  22.287  1.00  0.00     0.251 C 
ATOM     76  H   UNL A   1      32.060  28.817  21.752  1.00  0.00     0.163 HD
ATOM     77  O   UNL A   1      34.216  27.685  21.621  1.00  0.00    -0.269 OA
BRANCH  75  78
ATOM     78  C   UNL A   1      33.365  26.051  23.060  1.00  0.00     0.042 A 
ATOM     79  C   UNL A   1      33.904  26.061  24.353  1.00  0.00     0.016 A 
ATOM     80  C   UNL A   1      32.909  24.873  22.454  1.00  0.00     0.042 A 
ATOM     81  C   UNL A   1      34.072  24.863  25.058  1.00  0.00     0.031 A 
ATOM     82  C   UNL A   1      33.087  23.701  23.188  1.00  0.00     0.066 A 
ATOM     83  C   UNL A   1      33.662  23.667  24.453  1.00  0.00     0.089 A 
ATOM     84  N   UNL A   1      32.785  22.392  22.918  1.00  0.00    -0.342 N 
ATOM     85  N   UNL A   1      33.724  22.381  24.927  1.00  0.00    -0.233 NA
ATOM     86  C   UNL A   1      33.183  21.628  23.990  1.00  0.00     0.110 A 
ATOM     87  H   UNL A   1      32.357  22.055  22.098  1.00  0.00     0.168 HD
BRANCH  86  88
ATOM     88  C   UNL A   1      32.963  20.150  24.074  1.00  0.00     0.055 C 
ATOM     89  C   UNL A   1      32.454  19.603  22.732  1.00  0.00     0.011 C 
ATOM     90  C   UNL A   1      34.217  19.398  24.542  1.00  0.00     0.011 C 
ATOM     91  C   UNL A   1      32.215  18.097  22.798  1.00  0.00     0.001 C 
ATOM     92  C   UNL A   1      33.973  17.891  24.600  1.00  0.00     0.001 C 
ATOM     93  C   UNL A   1      33.461  17.353  23.267  1.00  0.00     0.000 C 
ENDBRANCH  86  88
ENDBRANCH  75  78
ENDBRANCH  73  74
ENDBRANCH  72  73
ENDBRANCH  71  72
ENDBRANCH   1  71
TORSDOF 15
ENDMDL
MODEL 3
REMARK VINA RESULT:     -12.6      0.567      7.546
REMARK SMILES O=C(NCCCCNC(=O)c1ccc2nc(C3CCCCC3)[nH]c2c1)c1ccc(-c2c3nc(c(-c4cc(S(=O)(=O)[O-])ccc4F)c4ccc([nH]4)c(-c4cc(S(=O)(=O)[O-])ccc4F)c4nc(c(-c5cc(S(=O)(=O)[O-])ccc5F)c5ccc2[nH]5)C=C4)C=C3)cc1
REMARK SMILES IDX 4 1 3 2 1 3 2 4 26 6 27 7 88 8 28 9 87 10 29 11 30 12 31 13
REMARK SMILES IDX 81 14 32 15 86 16 80 17 82 18 33 19 85 20 79 21 78 22 34 24
REMARK SMILES IDX 66 25 46 26 65 27 47 28 50 29 64 30 83 31 48 32 49 33 63 35
REMARK SMILES IDX 84 36 51 37 35 38 36 39 44 40 37 41 43 42 45 43 42 44 38 45
REMARK SMILES IDX 39 46 40 47 41 48 67 49 68 50 76 51 69 52 75 53 77 54 74 55
REMARK SMILES IDX 70 56 71 57 72 58 73 59 52 60 53 61 61 62 54 63 60 64 62 65
REMARK SMILES IDX 59 66 55 67 56 68 57 69 58 70 5 71 6 72 7 73 8 74 9 75 10 77
REMARK SMILES IDX 11 78 12 79 25 80 13 81 24 82 14 83 23 84 15 85 16 86 17 88
REMARK SMILES IDX 18 89 22 90 19 91 21 92 20 93
REMARK H PARENT 3 5 82 23 50 34 8 76 23 87
REMARK Flexibility Score: inf
ROOT
ATOM      1  C   UNL A   1      36.881  21.632  25.131  1.00  0.00     0.116 C 
ENDROOT
BRANCH   1   2
ATOM      2  N   UNL A   1      37.803  20.540  25.402  1.00  0.00    -0.352 N 
ATOM      3  O   UNL A   1      39.770  19.573  25.936  1.00  0.00    -0.269 OA
ATOM      4  C   UNL A   1      39.091  20.594  25.885  1.00  0.00     0.251 C 
ATOM      5  H   UNL A   1      37.459  19.638  25.216  1.00  0.00     0.163 HD
BRANCH   4   6
ATOM      6  C   UNL A   1      39.661  21.891  26.311  1.00  0.00     0.039 A 
ATOM      7  C   UNL A   1      39.031  23.090  25.969  1.00  0.00     0.014 A 
ATOM      8  C   UNL A   1      40.849  21.907  27.046  1.00  0.00     0.014 A 
ATOM      9  C   UNL A   1      39.663  24.299  26.230  1.00  0.00     0.010 A 
ATOM     10  C   UNL A   1      41.440  23.129  27.383  1.00  0.00     0.010 A 
ATOM     11  C   UNL A   1      40.870  24.335  26.949  1.00  0.00    -0.014 A 
BRANCH  11  12
ATOM     12  C   UNL A   1      41.481  25.648  27.277  1.00  0.00     0.031 A 
ATOM     13  C   UNL A   1      40.759  26.653  28.131  1.00  0.00     0.074 A 
ATOM     14  C   UNL A   1      42.719  25.914  26.816  1.00  0.00     0.049 A 
ATOM     15  N   UNL A   1      41.152  27.840  28.519  1.00  0.00    -0.248 NA
ATOM     16  C   UNL A   1      39.416  26.283  28.601  1.00  0.00     0.031 C 
ATOM     17  C   UNL A   1      43.510  25.015  25.970  1.00  0.00     0.029 A 
ATOM     18  N   UNL A   1      43.537  26.998  27.000  1.00  0.00    -0.354 N 
ATOM     19  C   UNL A   1      40.102  28.368  29.263  1.00  0.00     0.074 A 
ATOM     20  C   UNL A   1      39.043  27.381  29.246  1.00  0.00     0.031 C 
ATOM     21  C   UNL A   1      44.711  25.567  25.744  1.00  0.00     0.029 A 
ATOM     22  C   UNL A   1      44.753  26.882  26.370  1.00  0.00     0.049 A 
ATOM     23  H   UNL A   1      43.278  27.785  27.533  1.00  0.00     0.167 HD
ATOM     24  C   UNL A   1      40.035  29.564  29.902  1.00  0.00     0.034 A 
ATOM     25  C   UNL A   1      45.782  27.746  26.283  1.00  0.00     0.034 A 
ATOM     26  C   UNL A   1      41.108  30.533  29.913  1.00  0.00     0.049 A 
ATOM     27  C   UNL A   1      45.674  29.072  26.982  1.00  0.00     0.074 A 
ATOM     28  C   UNL A   1      41.160  31.754  30.562  1.00  0.00     0.029 A 
ATOM     29  N   UNL A   1      42.313  30.395  29.235  1.00  0.00    -0.354 N 
ATOM     30  N   UNL A   1      44.680  29.547  27.697  1.00  0.00    -0.248 NA
ATOM     31  C   UNL A   1      46.825  29.974  26.867  1.00  0.00     0.031 C 
ATOM     32  C   UNL A   1      42.366  32.381  30.226  1.00  0.00     0.029 A 
ATOM     33  C   UNL A   1      43.101  31.523  29.424  1.00  0.00     0.049 A 
ATOM     34  H   UNL A   1      42.572  29.612  28.698  1.00  0.00     0.167 HD
ATOM     35  C   UNL A   1      45.093  30.803  28.127  1.00  0.00     0.074 A 
ATOM     36  C   UNL A   1      46.434  30.998  27.612  1.00  0.00     0.031 C 
ATOM     37  C   UNL A   1      44.425  31.714  28.880  1.00  0.00     0.034 A 
BRANCH  24  38
ATOM     38  C   UNL A   1      38.742  29.911  30.601  1.00  0.00     0.023 A 
ATOM     39  C   UNL A   1      37.733  30.663  29.973  1.00  0.00     0.031 A 
ATOM     40  C   UNL A   1      38.518  29.488  31.925  1.00  0.00     0.131 A 
ATOM     41  C   UNL A   1      36.578  31.020  30.687  1.00  0.00     0.055 A 
ATOM     42  C   UNL A   1      37.335  29.785  32.605  1.00  0.00     0.041 A 
ATOM     43  F   UNL A   1      39.451  28.783  32.582  1.00  0.00    -0.206 F 
ATOM     44  C   UNL A   1      36.362  30.567  31.990  1.00  0.00     0.022 A 
BRANCH  41  45
ATOM     45  S   UNL A   1      35.416  32.192  29.931  1.00  0.00     0.124 S 
ATOM     46  O   UNL A   1      36.296  33.310  29.599  1.00  0.00    -0.237 OA
ATOM     47  O   UNL A   1      34.893  31.433  28.801  1.00  0.00    -0.237 OA
ATOM     48  O   UNL A   1      34.456  32.461  31.000  1.00  0.00    -0.744 OA
ENDBRANCH  41  45
ENDBRANCH  24  38
BRANCH  25  49
ATOM     49  C   UNL A   1      46.981  27.395  25.472  1.00  0.00     0.023 A 
ATOM     50  C   UNL A   1      47.090  27.781  24.129  1.00  0.00     0.031 A 
ATOM     51  C   UNL A   1      48.038  26.658  26.038  1.00  0.00     0.131 A 
ATOM     52  C   UNL A   1      48.218  27.403  23.385  1.00  0.00     0.055 A 
ATOM     53  C   UNL A   1      49.178  26.326  25.308  1.00  0.00     0.041 A 
ATOM     54  F   UNL A   1      47.983  26.270  27.322  1.00  0.00    -0.206 F 
ATOM     55  C   UNL A   1      49.269  26.690  23.969  1.00  0.00     0.022 A 
BRANCH  52  56
ATOM     56  S   UNL A   1      48.266  27.803  21.616  1.00  0.00     0.124 S 
ATOM     57  O   UNL A   1      49.346  28.781  21.561  1.00  0.00    -0.237 OA
ATOM     58  O   UNL A   1      48.548  26.502  21.019  1.00  0.00    -0.237 OA
ATOM     59  O   UNL A   1      46.930  28.332  21.351  1.00  0.00    -0.744 OA
ENDBRANCH  52  56
ENDBRANCH  25  49
BRANCH  37  60
ATOM     60  C   UNL A   1      45.158  32.990  29.205  1.00  0.00     0.023 A 
ATOM     61  C   UNL A   1      45.061  34.126  28.381  1.00  0.00     0.031 A 
ATOM     62  C   UNL A   1      45.990  33.061  30.337  1.00  0.00     0.131 A 
ATOM     63  C   UNL A   1      45.829  35.264  28.668  1.00  0.00     0.055 A 
ATOM     64  C   UNL A   1      46.708  34.217  30.648  1.00  0.00     0.041 A 
ATOM     65  F   UNL A   1      46.122  32.004  31.155  1.00  0.00    -0.206 F 
ATOM     66  C   UNL A   1      46.639  35.322  29.804  1.00  0.00     0.022 A 
BRANCH  63  67
ATOM     67  S   UNL A   1      45.826  36.638  27.484  1.00  0.00     0.124 S 
ATOM     68  O   UNL A   1      47.106  36.457  26.806  1.00  0.00    -0.237 OA
ATOM     69  O   UNL A   1      44.637  36.359  26.685  1.00  0.00    -0.237 OA
ATOM     70  O   UNL A   1      45.736  37.823  28.333  1.00  0.00    -0.744 OA
ENDBRANCH  63  67
ENDBRANCH  37  60
ENDBRANCH  11  12
ENDBRANCH   4   6
ENDBRANCH   1   2
BRANCH   1  71
ATOM     71  C   UNL A   1      35.483  21.387  25.682  1.00  0.00     0.023 C 
BRANCH  71  72
ATOM     72  C   UNL A   1      34.464  20.863  24.673  1.00  0.00     0.023 C 
BRANCH  72  73
ATOM     73  C   UNL A   1      33.006  21.164  25.003  1.00  0.00     0.116 C 
BRANCH  73  74
ATOM     74  N   UNL A   1      32.786  21.389  26.423  1.00  0.00    -0.352 N 
ATOM     75  C   UNL A   1      32.595  22.575  27.086  1.00  0.00     0.251 C 
ATOM     76  H   UNL A   1      32.772  20.581  26.984  1.00  0.00     0.163 HD
ATOM     77  O   UNL A   1      32.547  22.615  28.311  1.00  0.00    -0.269 OA
BRANCH  75  78
ATOM     78  C   UNL A   1      32.482  23.825  26.312  1.00  0.00     0.042 A 
ATOM     79  C   UNL A   1      33.618  24.606  26.058  1.00  0.00     0.016 A 
ATOM     80  C   UNL A   1      31.211  24.192  25.852  1.00  0.00     0.042 A 
ATOM     81  C   UNL A   1      33.499  25.830  25.387  1.00  0.00     0.031 A 
ATOM     82  C   UNL A   1      31.131  25.413  25.183  1.00  0.00     0.066 A 
ATOM     83  C   UNL A   1      32.229  26.236  24.955  1.00  0.00     0.089 A 
ATOM     84  N   UNL A   1      30.081  26.086  24.619  1.00  0.00    -0.342 N 
ATOM     85  N   UNL A   1      31.854  27.377  24.292  1.00  0.00    -0.233 NA
ATOM     86  C   UNL A   1      30.556  27.264  24.091  1.00  0.00     0.110 A 
ATOM     87  H   UNL A   1      29.145  25.781  24.595  1.00  0.00     0.168 HD
BRANCH  86  88
ATOM     88  C   UNL A   1      29.698  28.237  23.345  1.00  0.00     0.055 C 
ATOM     89  C   UNL A   1      28.211  27.926  23.566  1.00  0.00     0.011 C 
ATOM     90  C   UNL A   1      30.021  29.694  23.702  1.00  0.00     0.011 C 
ATOM     91  C   UNL A   1      27.317  28.902  22.806  1.00  0.00     0.001 C 
ATOM     92  C   UNL A   1      29.120  30.666  22.943  1.00  0.00     0.001 C 
ATOM     93  C   UNL A   1      27.643  30.350  23.160  1.00  0.00     0.000 C 
ENDBRANCH  86  88
ENDBRANCH  75  78
ENDBRANCH  73  74
ENDBRANCH  72  73
ENDBRANCH  71  72
ENDBRANCH   1  71
TORSDOF 15
ENDMDL
