MODEL 1
REMARK VINA RESULT:     -13.3      0.000      0.000
REMARK SMILES O=C1O[C@@H](c2ccc(O)c(O)c2)[C@H](C(=O)NCCCCNC(=O)c2ccc(-c3c4nc(c(-c5cc(S(=O)(=O)[O-])ccc5F)c5ccc([nH]5)c(-c5cc(S(=O)(=O)[O-])ccc5F)c5nc(c(-c6cc(S(=O)(=O)[O-])ccc6F)c6ccc3[nH]6)C=C5)C=C4)cc2)/C1=C\c1ccc(O)c(O)c1
REMARK SMILES IDX 19 1 18 2 17 3 16 4 14 5 15 6 13 8 1 9 2 10 3 11 87 12 4 13
REMARK SMILES IDX 88 14 5 15 6 16 12 17 7 18 10 19 8 20 11 21 9 23 89 25 90 26
REMARK SMILES IDX 96 27 91 28 94 29 92 30 95 31 93 33 20 35 21 36 22 37 23 39
REMARK SMILES IDX 24 40 25 41 86 42 26 43 85 44 27 45 28 46 29 47 79 48 30 49
REMARK SMILES IDX 84 50 78 51 80 52 31 53 83 54 77 55 76 56 32 58 64 59 44 60
REMARK SMILES IDX 63 61 45 62 48 63 62 64 81 65 46 66 47 67 61 69 82 70 49 71
REMARK SMILES IDX 33 72 34 73 42 74 35 75 41 76 43 77 40 78 36 79 37 80 38 81
REMARK SMILES IDX 39 82 65 83 66 84 74 85 67 86 73 87 75 88 72 89 68 90 69 91
REMARK SMILES IDX 70 92 71 93 50 94 51 95 59 96 52 97 58 98 60 99 57 100
REMARK SMILES IDX 53 101 54 102 55 103 56 104
REMARK H PARENT 16 7 11 22 9 24 95 32 93 34 21 38 80 57 48 68
REMARK Flexibility Score: inf
ROOT
ATOM      1  C   UNL A   1      31.857  28.449  25.385  1.00  0.00     0.023 C 
ENDROOT
BRANCH   1   2
ATOM      2  C   UNL A   1      31.477  27.457  26.476  1.00  0.00     0.023 C 
BRANCH   2   3
ATOM      3  C   UNL A   1      32.236  26.140  26.423  1.00  0.00     0.116 C 
BRANCH   3   4
ATOM      4  N   UNL A   1      31.472  24.997  26.884  1.00  0.00    -0.355 N 
ATOM      5  C   UNL A   1      31.729  23.656  26.801  1.00  0.00     0.231 C 
ATOM      6  O   UNL A   1      30.988  22.909  27.442  1.00  0.00    -0.274 OA
ATOM      7  H   UNL A   1      30.625  25.224  27.331  1.00  0.00     0.163 HD
BRANCH   5   8
ATOM      8  C   UNL A   1      32.820  23.123  25.862  1.00  0.00     0.161 C 
ATOM      9  O   UNL A   1      31.835  19.945  24.540  1.00  0.00    -0.247 OA
ATOM     10  C   UNL A   1      32.360  20.888  25.107  1.00  0.00     0.335 C 
ATOM     11  O   UNL A   1      33.204  20.793  26.161  1.00  0.00    -0.453 OA
ATOM     12  C   UNL A   1      32.237  22.312  24.752  1.00  0.00     0.054 C 
ATOM     13  C   UNL A   1      33.727  22.085  26.517  1.00  0.00     0.224 C 
ATOM     14  C   UNL A   1      31.704  22.655  23.570  1.00  0.00     0.020 C 
BRANCH  13  15
ATOM     15  C   UNL A   1      35.209  22.216  26.147  1.00  0.00    -0.002 A 
ATOM     16  C   UNL A   1      35.912  23.428  26.349  1.00  0.00     0.012 A 
ATOM     17  C   UNL A   1      35.938  21.110  25.684  1.00  0.00     0.057 A 
ATOM     18  C   UNL A   1      37.289  23.530  26.123  1.00  0.00     0.050 A 
ATOM     19  C   UNL A   1      37.301  21.226  25.438  1.00  0.00     0.157 A 
ATOM     20  C   UNL A   1      37.977  22.420  25.668  1.00  0.00     0.157 A 
BRANCH  19  21
ATOM     21  O   UNL A   1      37.989  20.141  24.975  1.00  0.00    -0.504 OA
ATOM     22  H   UNL A   1      37.847  19.834  24.101  1.00  0.00     0.293 HD
ENDBRANCH  19  21
BRANCH  20  23
ATOM     23  O   UNL A   1      39.323  22.454  25.436  1.00  0.00    -0.504 OA
ATOM     24  H   UNL A   1      39.733  21.764  24.950  1.00  0.00     0.293 HD
ENDBRANCH  20  23
ENDBRANCH  13  15
BRANCH  14  25
ATOM     25  C   UNL A   1      31.556  24.028  23.093  1.00  0.00    -0.021 A 
ATOM     26  C   UNL A   1      30.471  24.824  23.495  1.00  0.00     0.012 A 
ATOM     27  C   UNL A   1      32.540  24.568  22.258  1.00  0.00     0.058 A 
ATOM     28  C   UNL A   1      30.348  26.139  23.039  1.00  0.00     0.051 A 
ATOM     29  C   UNL A   1      32.415  25.879  21.820  1.00  0.00     0.157 A 
ATOM     30  C   UNL A   1      31.324  26.657  22.198  1.00  0.00     0.157 A 
BRANCH  29  31
ATOM     31  O   UNL A   1      33.379  26.403  21.007  1.00  0.00    -0.504 OA
ATOM     32  H   UNL A   1      33.443  27.331  20.895  1.00  0.00     0.293 HD
ENDBRANCH  29  31
BRANCH  30  33
ATOM     33  O   UNL A   1      31.259  27.935  21.717  1.00  0.00    -0.504 OA
ATOM     34  H   UNL A   1      31.453  28.107  20.817  1.00  0.00     0.293 HD
ENDBRANCH  30  33
ENDBRANCH  14  25
ENDBRANCH   5   8
ENDBRANCH   3   4
ENDBRANCH   2   3
ENDBRANCH   1   2
BRANCH   1  35
ATOM     35  C   UNL A   1      32.952  29.435  25.769  1.00  0.00     0.116 C 
BRANCH  35  36
ATOM     36  N   UNL A   1      32.439  30.727  26.207  1.00  0.00    -0.352 N 
ATOM     37  C   UNL A   1      33.020  31.608  27.092  1.00  0.00     0.251 C 
ATOM     38  H   UNL A   1      31.574  31.002  25.825  1.00  0.00     0.163 HD
ATOM     39  O   UNL A   1      32.413  32.601  27.476  1.00  0.00    -0.269 OA
BRANCH  37  40
ATOM     40  C   UNL A   1      34.375  31.297  27.594  1.00  0.00     0.039 A 
ATOM     41  C   UNL A   1      35.301  32.329  27.754  1.00  0.00     0.014 A 
ATOM     42  C   UNL A   1      34.668  30.000  28.020  1.00  0.00     0.014 A 
ATOM     43  C   UNL A   1      36.498  32.073  28.428  1.00  0.00     0.010 A 
ATOM     44  C   UNL A   1      35.813  29.774  28.770  1.00  0.00     0.010 A 
ATOM     45  C   UNL A   1      36.742  30.806  28.984  1.00  0.00    -0.014 A 
BRANCH  45  46
ATOM     46  C   UNL A   1      37.970  30.507  29.765  1.00  0.00     0.031 A 
ATOM     47  C   UNL A   1      39.004  29.584  29.176  1.00  0.00     0.074 A 
ATOM     48  C   UNL A   1      38.119  30.978  31.021  1.00  0.00     0.049 A 
ATOM     49  N   UNL A   1      40.052  29.044  29.739  1.00  0.00    -0.248 NA
ATOM     50  C   UNL A   1      38.801  29.188  27.774  1.00  0.00     0.031 C 
ATOM     51  C   UNL A   1      37.184  31.870  31.709  1.00  0.00     0.029 A 
ATOM     52  N   UNL A   1      39.107  30.757  31.949  1.00  0.00    -0.354 N 
ATOM     53  C   UNL A   1      40.622  28.229  28.767  1.00  0.00     0.074 A 
ATOM     54  C   UNL A   1      39.760  28.292  27.607  1.00  0.00     0.031 C 
ATOM     55  C   UNL A   1      37.654  32.136  32.940  1.00  0.00     0.029 A 
ATOM     56  C   UNL A   1      38.888  31.385  33.154  1.00  0.00     0.049 A 
ATOM     57  H   UNL A   1      39.898  30.199  31.769  1.00  0.00     0.167 HD
ATOM     58  C   UNL A   1      41.773  27.517  28.826  1.00  0.00     0.034 A 
ATOM     59  C   UNL A   1      39.588  31.341  34.307  1.00  0.00     0.034 A 
ATOM     60  C   UNL A   1      42.627  27.474  29.986  1.00  0.00     0.049 A 
ATOM     61  C   UNL A   1      40.835  30.488  34.372  1.00  0.00     0.074 A 
ATOM     62  C   UNL A   1      43.829  26.808  30.146  1.00  0.00     0.029 A 
ATOM     63  N   UNL A   1      42.368  28.122  31.187  1.00  0.00    -0.354 N 
ATOM     64  N   UNL A   1      41.370  29.735  33.438  1.00  0.00    -0.248 NA
ATOM     65  C   UNL A   1      41.573  30.483  35.642  1.00  0.00     0.031 C 
ATOM     66  C   UNL A   1      44.257  26.989  31.464  1.00  0.00     0.029 A 
ATOM     67  C   UNL A   1      43.375  27.849  32.099  1.00  0.00     0.049 A 
ATOM     68  H   UNL A   1      41.585  28.691  31.365  1.00  0.00     0.167 HD
ATOM     69  C   UNL A   1      42.536  29.212  33.995  1.00  0.00     0.074 A 
ATOM     70  C   UNL A   1      42.622  29.732  35.343  1.00  0.00     0.031 C 
ATOM     71  C   UNL A   1      43.457  28.387  33.436  1.00  0.00     0.034 A 
BRANCH  58  72
ATOM     72  C   UNL A   1      42.153  26.711  27.607  1.00  0.00     0.023 A 
ATOM     73  C   UNL A   1      41.981  25.316  27.563  1.00  0.00     0.031 A 
ATOM     74  C   UNL A   1      42.725  27.338  26.486  1.00  0.00     0.131 A 
ATOM     75  C   UNL A   1      42.452  24.587  26.462  1.00  0.00     0.055 A 
ATOM     76  C   UNL A   1      43.106  26.616  25.353  1.00  0.00     0.041 A 
ATOM     77  F   UNL A   1      42.939  28.663  26.477  1.00  0.00    -0.206 F 
ATOM     78  C   UNL A   1      42.986  25.229  25.343  1.00  0.00     0.022 A 
BRANCH  75  79
ATOM     79  S   UNL A   1      42.505  22.778  26.587  1.00  0.00     0.124 S 
ATOM     80  O   UNL A   1      43.839  22.562  27.141  1.00  0.00    -0.237 OA
ATOM     81  O   UNL A   1      41.389  22.490  27.479  1.00  0.00    -0.237 OA
ATOM     82  O   UNL A   1      42.332  22.335  25.205  1.00  0.00    -0.744 OA
ENDBRANCH  75  79
ENDBRANCH  58  72
BRANCH  59  83
ATOM     83  C   UNL A   1      39.135  32.107  35.506  1.00  0.00     0.023 A 
ATOM     84  C   UNL A   1      38.500  31.459  36.578  1.00  0.00     0.031 A 
ATOM     85  C   UNL A   1      39.265  33.507  35.571  1.00  0.00     0.131 A 
ATOM     86  C   UNL A   1      37.967  32.210  37.637  1.00  0.00     0.055 A 
ATOM     87  C   UNL A   1      38.791  34.243  36.658  1.00  0.00     0.041 A 
ATOM     88  F   UNL A   1      39.863  34.181  34.576  1.00  0.00    -0.206 F 
ATOM     89  C   UNL A   1      38.121  33.597  37.692  1.00  0.00     0.022 A 
BRANCH  86  90
ATOM     90  S   UNL A   1      36.963  31.359  38.885  1.00  0.00     0.124 S 
ATOM     91  O   UNL A   1      37.839  31.409  40.050  1.00  0.00    -0.237 OA
ATOM     92  O   UNL A   1      35.772  32.199  38.939  1.00  0.00    -0.237 OA
ATOM     93  O   UNL A   1      36.762  30.031  38.311  1.00  0.00    -0.744 OA
ENDBRANCH  86  90
ENDBRANCH  59  83
BRANCH  71  94
ATOM     94  C   UNL A   1      44.690  28.064  34.246  1.00  0.00     0.023 A 
ATOM     95  C   UNL A   1      44.751  26.965  35.119  1.00  0.00     0.031 A 
ATOM     96  C   UNL A   1      45.838  28.867  34.111  1.00  0.00     0.131 A 
ATOM     97  C   UNL A   1      45.924  26.722  35.853  1.00  0.00     0.055 A 
ATOM     98  C   UNL A   1      47.021  28.583  34.795  1.00  0.00     0.041 A 
ATOM     99  F   UNL A   1      45.834  29.934  33.296  1.00  0.00    -0.206 F 
ATOM    100  C   UNL A   1      47.065  27.511  35.680  1.00  0.00     0.022 A 
BRANCH  97 101
ATOM    101  S   UNL A   1      45.918  25.404  37.099  1.00  0.00     0.124 S 
ATOM    102  O   UNL A   1      46.727  24.374  36.455  1.00  0.00    -0.237 OA
ATOM    103  O   UNL A   1      46.522  26.061  38.253  1.00  0.00    -0.237 OA
ATOM    104  O   UNL A   1      44.500  25.077  37.246  1.00  0.00    -0.744 OA
ENDBRANCH  97 101
ENDBRANCH  71  94
ENDBRANCH  45  46
ENDBRANCH  37  40
ENDBRANCH  35  36
ENDBRANCH   1  35
TORSDOF 20
ENDMDL
MODEL 2
REMARK VINA RESULT:     -13.1      4.892     10.161
REMARK SMILES O=C1O[C@@H](c2ccc(O)c(O)c2)[C@H](C(=O)NCCCCNC(=O)c2ccc(-c3c4nc(c(-c5cc(S(=O)(=O)[O-])ccc5F)c5ccc([nH]5)c(-c5cc(S(=O)(=O)[O-])ccc5F)c5nc(c(-c6cc(S(=O)(=O)[O-])ccc6F)c6ccc3[nH]6)C=C5)C=C4)cc2)/C1=C\c1ccc(O)c(O)c1
REMARK SMILES IDX 19 1 18 2 17 3 16 4 14 5 15 6 13 8 1 9 2 10 3 11 87 12 4 13
REMARK SMILES IDX 88 14 5 15 6 16 12 17 7 18 10 19 8 20 11 21 9 23 89 25 90 26
REMARK SMILES IDX 96 27 91 28 94 29 92 30 95 31 93 33 20 35 21 36 22 37 23 39
REMARK SMILES IDX 24 40 25 41 86 42 26 43 85 44 27 45 28 46 29 47 79 48 30 49
REMARK SMILES IDX 84 50 78 51 80 52 31 53 83 54 77 55 76 56 32 58 64 59 44 60
REMARK SMILES IDX 63 61 45 62 48 63 62 64 81 65 46 66 47 67 61 69 82 70 49 71
REMARK SMILES IDX 33 72 34 73 42 74 35 75 41 76 43 77 40 78 36 79 37 80 38 81
REMARK SMILES IDX 39 82 65 83 66 84 74 85 67 86 73 87 75 88 72 89 68 90 69 91
REMARK SMILES IDX 70 92 71 93 50 94 51 95 59 96 52 97 58 98 60 99 57 100
REMARK SMILES IDX 53 101 54 102 55 103 56 104
REMARK H PARENT 16 7 11 22 9 24 95 32 93 34 21 38 80 57 48 68
REMARK Flexibility Score: inf
ROOT
ATOM      1  C   UNL A   1      36.316  22.740  23.783  1.00  0.00     0.023 C 
ENDROOT
BRANCH   1   2
ATOM      2  C   UNL A   1      34.836  22.959  23.497  1.00  0.00     0.023 C 
BRANCH   2   3
ATOM      3  C   UNL A   1      34.399  24.416  23.520  1.00  0.00     0.116 C 
BRANCH   3   4
ATOM      4  N   UNL A   1      33.402  24.751  22.522  1.00  0.00    -0.355 N 
ATOM      5  C   UNL A   1      32.420  25.704  22.523  1.00  0.00     0.231 C 
ATOM      6  O   UNL A   1      31.826  25.887  21.459  1.00  0.00    -0.274 OA
ATOM      7  H   UNL A   1      33.436  24.200  21.708  1.00  0.00     0.163 HD
BRANCH   5   8
ATOM      8  C   UNL A   1      32.018  26.416  23.821  1.00  0.00     0.161 C 
ATOM      9  O   UNL A   1      28.454  26.703  23.994  1.00  0.00    -0.247 OA
ATOM     10  C   UNL A   1      29.660  26.867  23.921  1.00  0.00     0.335 C 
ATOM     11  O   UNL A   1      30.268  27.992  23.478  1.00  0.00    -0.453 OA
ATOM     12  C   UNL A   1      30.707  25.918  24.334  1.00  0.00     0.054 C 
ATOM     13  C   UNL A   1      31.695  27.894  23.625  1.00  0.00     0.224 C 
ATOM     14  C   UNL A   1      30.377  24.854  25.083  1.00  0.00     0.020 C 
BRANCH  13  15
ATOM     15  C   UNL A   1      32.214  28.808  24.742  1.00  0.00    -0.002 A 
ATOM     16  C   UNL A   1      31.401  29.826  25.296  1.00  0.00     0.012 A 
ATOM     17  C   UNL A   1      33.479  28.603  25.313  1.00  0.00     0.057 A 
ATOM     18  C   UNL A   1      31.818  30.592  26.389  1.00  0.00     0.050 A 
ATOM     19  C   UNL A   1      33.897  29.385  26.384  1.00  0.00     0.157 A 
ATOM     20  C   UNL A   1      33.071  30.363  26.929  1.00  0.00     0.157 A 
BRANCH  19  21
ATOM     21  O   UNL A   1      35.137  29.178  26.916  1.00  0.00    -0.504 OA
ATOM     22  H   UNL A   1      35.690  29.908  27.115  1.00  0.00     0.293 HD
ENDBRANCH  19  21
BRANCH  20  23
ATOM     23  O   UNL A   1      33.533  31.072  28.001  1.00  0.00    -0.504 OA
ATOM     24  H   UNL A   1      32.928  31.445  28.613  1.00  0.00     0.293 HD
ENDBRANCH  20  23
ENDBRANCH  13  15
BRANCH  14  25
ATOM     25  C   UNL A   1      31.328  23.861  25.578  1.00  0.00    -0.021 A 
ATOM     26  C   UNL A   1      32.383  24.226  26.429  1.00  0.00     0.012 A 
ATOM     27  C   UNL A   1      31.150  22.518  25.230  1.00  0.00     0.058 A 
ATOM     28  C   UNL A   1      33.279  23.263  26.902  1.00  0.00     0.051 A 
ATOM     29  C   UNL A   1      32.037  21.567  25.715  1.00  0.00     0.157 A 
ATOM     30  C   UNL A   1      33.100  21.935  26.537  1.00  0.00     0.157 A 
BRANCH  29  31
ATOM     31  O   UNL A   1      31.859  20.257  25.375  1.00  0.00    -0.504 OA
ATOM     32  H   UNL A   1      31.864  20.002  24.474  1.00  0.00     0.293 HD
ENDBRANCH  29  31
BRANCH  30  33
ATOM     33  O   UNL A   1      33.942  20.948  26.966  1.00  0.00    -0.504 OA
ATOM     34  H   UNL A   1      34.418  20.435  26.342  1.00  0.00     0.293 HD
ENDBRANCH  30  33
ENDBRANCH  14  25
ENDBRANCH   5   8
ENDBRANCH   3   4
ENDBRANCH   2   3
ENDBRANCH   1   2
BRANCH   1  35
ATOM     35  C   UNL A   1      36.642  22.369  25.223  1.00  0.00     0.116 C 
BRANCH  35  36
ATOM     36  N   UNL A   1      37.479  21.181  25.339  1.00  0.00    -0.352 N 
ATOM     37  C   UNL A   1      38.760  21.099  25.839  1.00  0.00     0.251 C 
ATOM     38  H   UNL A   1      37.082  20.338  25.021  1.00  0.00     0.163 HD
ATOM     39  O   UNL A   1      39.399  20.057  25.752  1.00  0.00    -0.269 OA
BRANCH  37  40
ATOM     40  C   UNL A   1      39.350  22.311  26.442  1.00  0.00     0.039 A 
ATOM     41  C   UNL A   1      40.433  22.187  27.314  1.00  0.00     0.014 A 
ATOM     42  C   UNL A   1      38.902  23.570  26.033  1.00  0.00     0.014 A 
ATOM     43  C   UNL A   1      41.126  23.334  27.711  1.00  0.00     0.010 A 
ATOM     44  C   UNL A   1      39.649  24.694  26.352  1.00  0.00     0.010 A 
ATOM     45  C   UNL A   1      40.769  24.591  27.194  1.00  0.00    -0.014 A 
BRANCH  45  46
ATOM     46  C   UNL A   1      41.518  25.829  27.535  1.00  0.00     0.031 A 
ATOM     47  C   UNL A   1      40.839  26.890  28.359  1.00  0.00     0.074 A 
ATOM     48  C   UNL A   1      42.754  26.044  27.039  1.00  0.00     0.049 A 
ATOM     49  N   UNL A   1      41.224  28.110  28.622  1.00  0.00    -0.248 NA
ATOM     50  C   UNL A   1      39.528  26.535  28.927  1.00  0.00     0.031 C 
ATOM     51  C   UNL A   1      43.515  25.100  26.218  1.00  0.00     0.029 A 
ATOM     52  N   UNL A   1      43.582  27.136  27.139  1.00  0.00    -0.354 N 
ATOM     53  C   UNL A   1      40.196  28.676  29.370  1.00  0.00     0.074 A 
ATOM     54  C   UNL A   1      39.143  27.687  29.451  1.00  0.00     0.031 C 
ATOM     55  C   UNL A   1      44.704  25.646  25.909  1.00  0.00     0.029 A 
ATOM     56  C   UNL A   1      44.767  27.000  26.452  1.00  0.00     0.049 A 
ATOM     57  H   UNL A   1      43.349  27.942  27.655  1.00  0.00     0.167 HD
ATOM     58  C   UNL A   1      40.147  29.895  29.958  1.00  0.00     0.034 A 
ATOM     59  C   UNL A   1      45.777  27.874  26.261  1.00  0.00     0.034 A 
ATOM     60  C   UNL A   1      41.210  30.864  29.876  1.00  0.00     0.049 A 
ATOM     61  C   UNL A   1      45.673  29.253  26.872  1.00  0.00     0.074 A 
ATOM     62  C   UNL A   1      41.278  32.119  30.456  1.00  0.00     0.029 A 
ATOM     63  N   UNL A   1      42.393  30.688  29.168  1.00  0.00    -0.354 N 
ATOM     64  N   UNL A   1      44.700  29.768  27.591  1.00  0.00    -0.248 NA
ATOM     65  C   UNL A   1      46.802  30.167  26.651  1.00  0.00     0.031 C 
ATOM     66  C   UNL A   1      42.462  32.730  30.037  1.00  0.00     0.029 A 
ATOM     67  C   UNL A   1      43.181  31.822  29.276  1.00  0.00     0.049 A 
ATOM     68  H   UNL A   1      42.635  29.879  28.664  1.00  0.00     0.167 HD
ATOM     69  C   UNL A   1      45.129  31.045  27.949  1.00  0.00     0.074 A 
ATOM     70  C   UNL A   1      46.442  31.221  27.368  1.00  0.00     0.031 C 
ATOM     71  C   UNL A   1      44.498  31.980  28.703  1.00  0.00     0.034 A 
BRANCH  58  72
ATOM     72  C   UNL A   1      38.890  30.249  30.716  1.00  0.00     0.023 A 
ATOM     73  C   UNL A   1      37.890  31.059  30.148  1.00  0.00     0.031 A 
ATOM     74  C   UNL A   1      38.700  29.800  32.035  1.00  0.00     0.131 A 
ATOM     75  C   UNL A   1      36.793  31.462  30.921  1.00  0.00     0.055 A 
ATOM     76  C   UNL A   1      37.558  30.129  32.768  1.00  0.00     0.041 A 
ATOM     77  F   UNL A   1      39.630  29.046  32.641  1.00  0.00    -0.206 F 
ATOM     78  C   UNL A   1      36.604  30.979  32.217  1.00  0.00     0.022 A 
BRANCH  75  79
ATOM     79  S   UNL A   1      35.705  32.756  30.262  1.00  0.00     0.124 S 
ATOM     80  O   UNL A   1      34.403  32.329  30.768  1.00  0.00    -0.237 OA
ATOM     81  O   UNL A   1      36.256  33.967  30.859  1.00  0.00    -0.237 OA
ATOM     82  O   UNL A   1      35.873  32.640  28.815  1.00  0.00    -0.744 OA
ENDBRANCH  75  79
ENDBRANCH  58  72
BRANCH  59  83
ATOM     83  C   UNL A   1      46.972  27.497  25.449  1.00  0.00     0.023 A 
ATOM     84  C   UNL A   1      47.097  27.915  24.115  1.00  0.00     0.031 A 
ATOM     85  C   UNL A   1      47.973  26.656  25.970  1.00  0.00     0.131 A 
ATOM     86  C   UNL A   1      48.161  27.446  23.329  1.00  0.00     0.055 A 
ATOM     87  C   UNL A   1      49.064  26.244  25.202  1.00  0.00     0.041 A 
ATOM     88  F   UNL A   1      47.906  26.223  27.239  1.00  0.00    -0.206 F 
ATOM     89  C   UNL A   1      49.154  26.626  23.868  1.00  0.00     0.022 A 
BRANCH  86  90
ATOM     90  S   UNL A   1      48.164  27.830  21.555  1.00  0.00     0.124 S 
ATOM     91  O   UNL A   1      49.201  28.853  21.478  1.00  0.00    -0.237 OA
ATOM     92  O   UNL A   1      48.493  26.536  20.968  1.00  0.00    -0.237 OA
ATOM     93  O   UNL A   1      46.803  28.298  21.307  1.00  0.00    -0.744 OA
ENDBRANCH  86  90
ENDBRANCH  59  83
BRANCH  71  94
ATOM     94  C   UNL A   1      45.253  33.247  29.024  1.00  0.00     0.023 A 
ATOM     95  C   UNL A   1      45.153  34.404  28.232  1.00  0.00     0.031 A 
ATOM     96  C   UNL A   1      46.069  33.298  30.169  1.00  0.00     0.131 A 
ATOM     97  C   UNL A   1      45.890  35.550  28.576  1.00  0.00     0.055 A 
ATOM     98  C   UNL A   1      46.747  34.459  30.541  1.00  0.00     0.041 A 
ATOM     99  F   UNL A   1      46.206  32.221  30.959  1.00  0.00    -0.206 F 
ATOM    100  C   UNL A   1      46.667  35.591  29.736  1.00  0.00     0.022 A 
BRANCH  97 101
ATOM    101  S   UNL A   1      45.879  36.967  27.444  1.00  0.00     0.124 S 
ATOM    102  O   UNL A   1      46.982  36.645  26.544  1.00  0.00    -0.237 OA
ATOM    103  O   UNL A   1      44.542  36.895  26.864  1.00  0.00    -0.237 OA
ATOM    104  O   UNL A   1      46.110  38.111  28.324  1.00  0.00    -0.744 OA
ENDBRANCH  97 101
ENDBRANCH  71  94
ENDBRANCH  45  46
ENDBRANCH  37  40
ENDBRANCH  35  36
ENDBRANCH   1  35
TORSDOF 20
ENDMDL
MODEL 3
REMARK VINA RESULT:     -13.0      2.005      7.411
REMARK SMILES O=C1O[C@@H](c2ccc(O)c(O)c2)[C@H](C(=O)NCCCCNC(=O)c2ccc(-c3c4nc(c(-c5cc(S(=O)(=O)[O-])ccc5F)c5ccc([nH]5)c(-c5cc(S(=O)(=O)[O-])ccc5F)c5nc(c(-c6cc(S(=O)(=O)[O-])ccc6F)c6ccc3[nH]6)C=C5)C=C4)cc2)/C1=C\c1ccc(O)c(O)c1
REMARK SMILES IDX 19 1 18 2 17 3 16 4 14 5 15 6 13 8 1 9 2 10 3 11 87 12 4 13
REMARK SMILES IDX 88 14 5 15 6 16 12 17 7 18 10 19 8 20 11 21 9 23 89 25 90 26
REMARK SMILES IDX 96 27 91 28 94 29 92 30 95 31 93 33 20 35 21 36 22 37 23 39
REMARK SMILES IDX 24 40 25 41 86 42 26 43 85 44 27 45 28 46 29 47 79 48 30 49
REMARK SMILES IDX 84 50 78 51 80 52 31 53 83 54 77 55 76 56 32 58 64 59 44 60
REMARK SMILES IDX 63 61 45 62 48 63 62 64 81 65 46 66 47 67 61 69 82 70 49 71
REMARK SMILES IDX 33 72 34 73 42 74 35 75 41 76 43 77 40 78 36 79 37 80 38 81
REMARK SMILES IDX 39 82 65 83 66 84 74 85 67 86 73 87 75 88 72 89 68 90 69 91
REMARK SMILES IDX 70 92 71 93 50 94 51 95 59 96 52 97 58 98 60 99 57 100
REMARK SMILES IDX 53 101 54 102 55 103 56 104
REMARK H PARENT 16 7 11 22 9 24 95 32 93 34 21 38 80 57 48 68
REMARK Flexibility Score: inf
ROOT
ATOM      1  C   UNL A   1      32.054  28.788  25.938  1.00  0.00     0.023 C 
ENDROOT
BRANCH   1   2
ATOM      2  C   UNL A   1      31.295  27.563  26.430  1.00  0.00     0.023 C 
BRANCH   2   3
ATOM      3  C   UNL A   1      32.102  26.274  26.418  1.00  0.00     0.116 C 
BRANCH   3   4
ATOM      4  N   UNL A   1      31.391  25.124  26.940  1.00  0.00    -0.355 N 
ATOM      5  C   UNL A   1      31.685  23.789  26.885  1.00  0.00     0.231 C 
ATOM      6  O   UNL A   1      30.991  23.041  27.575  1.00  0.00    -0.274 OA
ATOM      7  H   UNL A   1      30.555  25.340  27.413  1.00  0.00     0.163 HD
BRANCH   5   8
ATOM      8  C   UNL A   1      32.755  23.260  25.921  1.00  0.00     0.161 C 
ATOM      9  O   UNL A   1      31.717  20.113  24.567  1.00  0.00    -0.247 OA
ATOM     10  C   UNL A   1      32.261  21.041  25.139  1.00  0.00     0.335 C 
ATOM     11  O   UNL A   1      33.121  20.922  26.178  1.00  0.00    -0.453 OA
ATOM     12  C   UNL A   1      32.146  22.472  24.808  1.00  0.00     0.054 C 
ATOM     13  C   UNL A   1      33.662  22.203  26.544  1.00  0.00     0.224 C 
ATOM     14  C   UNL A   1      31.597  22.838  23.640  1.00  0.00     0.020 C 
BRANCH  13  15
ATOM     15  C   UNL A   1      35.139  22.327  26.153  1.00  0.00    -0.002 A 
ATOM     16  C   UNL A   1      35.839  23.548  26.298  1.00  0.00     0.012 A 
ATOM     17  C   UNL A   1      35.868  21.206  25.725  1.00  0.00     0.057 A 
ATOM     18  C   UNL A   1      37.212  23.647  26.052  1.00  0.00     0.050 A 
ATOM     19  C   UNL A   1      37.228  21.317  25.459  1.00  0.00     0.157 A 
ATOM     20  C   UNL A   1      37.900  22.523  25.633  1.00  0.00     0.157 A 
BRANCH  19  21
ATOM     21  O   UNL A   1      37.915  20.218  25.031  1.00  0.00    -0.504 OA
ATOM     22  H   UNL A   1      37.509  19.609  24.446  1.00  0.00     0.293 HD
ENDBRANCH  19  21
BRANCH  20  23
ATOM     23  O   UNL A   1      39.243  22.553  25.384  1.00  0.00    -0.504 OA
ATOM     24  H   UNL A   1      39.729  21.752  25.331  1.00  0.00     0.293 HD
ENDBRANCH  20  23
ENDBRANCH  13  15
BRANCH  14  25
ATOM     25  C   UNL A   1      31.455  24.220  23.187  1.00  0.00    -0.021 A 
ATOM     26  C   UNL A   1      30.343  24.994  23.555  1.00  0.00     0.012 A 
ATOM     27  C   UNL A   1      32.470  24.789  22.411  1.00  0.00     0.058 A 
ATOM     28  C   UNL A   1      30.225  26.318  23.122  1.00  0.00     0.051 A 
ATOM     29  C   UNL A   1      32.350  26.108  21.996  1.00  0.00     0.157 A 
ATOM     30  C   UNL A   1      31.233  26.866  22.339  1.00  0.00     0.157 A 
BRANCH  29  31
ATOM     31  O   UNL A   1      33.343  26.660  21.240  1.00  0.00    -0.504 OA
ATOM     32  H   UNL A   1      34.235  26.416  21.388  1.00  0.00     0.293 HD
ENDBRANCH  29  31
BRANCH  30  33
ATOM     33  O   UNL A   1      31.175  28.153  21.884  1.00  0.00    -0.504 OA
ATOM     34  H   UNL A   1      30.956  28.324  20.988  1.00  0.00     0.293 HD
ENDBRANCH  30  33
ENDBRANCH  14  25
ENDBRANCH   5   8
ENDBRANCH   3   4
ENDBRANCH   2   3
ENDBRANCH   1   2
BRANCH   1  35
ATOM     35  C   UNL A   1      33.315  29.119  26.724  1.00  0.00     0.116 C 
BRANCH  35  36
ATOM     36  N   UNL A   1      33.463  30.541  27.009  1.00  0.00    -0.352 N 
ATOM     37  C   UNL A   1      34.497  31.164  27.672  1.00  0.00     0.251 C 
ATOM     38  H   UNL A   1      32.736  31.125  26.691  1.00  0.00     0.163 HD
ATOM     39  O   UNL A   1      34.428  32.352  27.962  1.00  0.00    -0.269 OA
BRANCH  37  40
ATOM     40  C   UNL A   1      35.667  30.348  28.058  1.00  0.00     0.039 A 
ATOM     41  C   UNL A   1      36.783  30.310  27.221  1.00  0.00     0.014 A 
ATOM     42  C   UNL A   1      35.691  29.731  29.311  1.00  0.00     0.014 A 
ATOM     43  C   UNL A   1      37.964  29.721  27.683  1.00  0.00     0.010 A 
ATOM     44  C   UNL A   1      36.890  29.234  29.801  1.00  0.00     0.010 A 
ATOM     45  C   UNL A   1      38.041  29.222  28.994  1.00  0.00    -0.014 A 
BRANCH  45  46
ATOM     46  C   UNL A   1      39.293  28.648  29.551  1.00  0.00     0.031 A 
ATOM     47  C   UNL A   1      39.970  29.349  30.698  1.00  0.00     0.074 A 
ATOM     48  C   UNL A   1      39.868  27.568  28.983  1.00  0.00     0.049 A 
ATOM     49  N   UNL A   1      41.149  29.138  31.221  1.00  0.00    -0.248 NA
ATOM     50  C   UNL A   1      39.231  30.466  31.309  1.00  0.00     0.031 C 
ATOM     51  C   UNL A   1      39.318  26.807  27.859  1.00  0.00     0.029 A 
ATOM     52  N   UNL A   1      41.053  26.932  29.262  1.00  0.00    -0.354 N 
ATOM     53  C   UNL A   1      41.301  30.106  32.208  1.00  0.00     0.074 A 
ATOM     54  C   UNL A   1      40.125  30.947  32.156  1.00  0.00     0.031 C 
ATOM     55  C   UNL A   1      40.153  25.797  27.561  1.00  0.00     0.029 A 
ATOM     56  C   UNL A   1      41.328  25.874  28.426  1.00  0.00     0.049 A 
ATOM     57  H   UNL A   1      41.651  27.209  29.993  1.00  0.00     0.167 HD
ATOM     58  C   UNL A   1      42.314  30.263  33.094  1.00  0.00     0.034 A 
ATOM     59  C   UNL A   1      42.412  25.075  28.348  1.00  0.00     0.034 A 
ATOM     60  C   UNL A   1      43.473  29.408  33.139  1.00  0.00     0.049 A 
ATOM     61  C   UNL A   1      43.560  25.307  29.304  1.00  0.00     0.074 A 
ATOM     62  C   UNL A   1      44.546  29.458  34.012  1.00  0.00     0.029 A 
ATOM     63  N   UNL A   1      43.714  28.350  32.272  1.00  0.00    -0.354 N 
ATOM     64  N   UNL A   1      43.682  26.218  30.243  1.00  0.00    -0.248 NA
ATOM     65  C   UNL A   1      44.712  24.403  29.193  1.00  0.00     0.031 C 
ATOM     66  C   UNL A   1      45.469  28.482  33.627  1.00  0.00     0.029 A 
ATOM     67  C   UNL A   1      44.930  27.758  32.575  1.00  0.00     0.049 A 
ATOM     68  H   UNL A   1      43.112  28.062  31.550  1.00  0.00     0.167 HD
ATOM     69  C   UNL A   1      44.901  25.959  30.867  1.00  0.00     0.074 A 
ATOM     70  C   UNL A   1      45.475  24.812  30.197  1.00  0.00     0.031 C 
ATOM     71  C   UNL A   1      45.485  26.603  31.908  1.00  0.00     0.034 A 
BRANCH  58  72
ATOM     72  C   UNL A   1      42.215  31.415  34.064  1.00  0.00     0.023 A 
ATOM     73  C   UNL A   1      41.345  31.376  35.168  1.00  0.00     0.031 A 
ATOM     74  C   UNL A   1      42.975  32.581  33.868  1.00  0.00     0.131 A 
ATOM     75  C   UNL A   1      41.194  32.508  35.981  1.00  0.00     0.055 A 
ATOM     76  C   UNL A   1      42.889  33.671  34.737  1.00  0.00     0.041 A 
ATOM     77  F   UNL A   1      43.804  32.690  32.818  1.00  0.00    -0.206 F 
ATOM     78  C   UNL A   1      41.981  33.645  35.792  1.00  0.00     0.022 A 
BRANCH  75  79
ATOM     79  S   UNL A   1      39.837  32.529  37.185  1.00  0.00     0.124 S 
ATOM     80  O   UNL A   1      39.071  31.351  36.783  1.00  0.00    -0.237 OA
ATOM     81  O   UNL A   1      40.541  32.428  38.457  1.00  0.00    -0.237 OA
ATOM     82  O   UNL A   1      39.177  33.808  36.934  1.00  0.00    -0.744 OA
ENDBRANCH  75  79
ENDBRANCH  58  72
BRANCH  59  83
ATOM     83  C   UNL A   1      42.488  23.987  27.328  1.00  0.00     0.023 A 
ATOM     84  C   UNL A   1      41.868  22.747  27.550  1.00  0.00     0.031 A 
ATOM     85  C   UNL A   1      43.237  24.144  26.147  1.00  0.00     0.131 A 
ATOM     86  C   UNL A   1      42.057  21.695  26.640  1.00  0.00     0.055 A 
ATOM     87  C   UNL A   1      43.368  23.114  25.213  1.00  0.00     0.041 A 
ATOM     88  F   UNL A   1      43.852  25.307  25.881  1.00  0.00    -0.206 F 
ATOM     89  C   UNL A   1      42.790  21.874  25.465  1.00  0.00     0.022 A 
BRANCH  86  90
ATOM     90  S   UNL A   1      41.426  20.049  27.074  1.00  0.00     0.124 S 
ATOM     91  O   UNL A   1      42.654  19.263  27.105  1.00  0.00    -0.237 OA
ATOM     92  O   UNL A   1      40.791  20.300  28.363  1.00  0.00    -0.237 OA
ATOM     93  O   UNL A   1      40.511  19.737  25.979  1.00  0.00    -0.744 OA
ENDBRANCH  86  90
ENDBRANCH  59  83
BRANCH  71  94
ATOM     94  C   UNL A   1      46.772  26.031  32.453  1.00  0.00     0.023 A 
ATOM     95  C   UNL A   1      46.793  25.060  33.469  1.00  0.00     0.031 A 
ATOM     96  C   UNL A   1      48.001  26.454  31.916  1.00  0.00     0.131 A 
ATOM     97  C   UNL A   1      48.023  24.574  33.942  1.00  0.00     0.055 A 
ATOM     98  C   UNL A   1      49.217  25.920  32.345  1.00  0.00     0.041 A 
ATOM     99  F   UNL A   1      48.040  27.383  30.947  1.00  0.00    -0.206 F 
ATOM    100  C   UNL A   1      49.232  24.981  33.371  1.00  0.00     0.022 A 
BRANCH  97 101
ATOM    101  S   UNL A   1      48.029  23.454  35.369  1.00  0.00     0.124 S 
ATOM    102  O   UNL A   1      49.288  22.739  35.187  1.00  0.00    -0.237 OA
ATOM    103  O   UNL A   1      47.980  24.381  36.494  1.00  0.00    -0.237 OA
ATOM    104  O   UNL A   1      46.825  22.648  35.178  1.00  0.00    -0.744 OA
ENDBRANCH  97 101
ENDBRANCH  71  94
ENDBRANCH  45  46
ENDBRANCH  37  40
ENDBRANCH  35  36
ENDBRANCH   1  35
TORSDOF 20
ENDMDL
