MODEL 1
REMARK VINA RESULT:     -12.0      0.000      0.000
REMARK SMILES Cc1cc([C@@H]([NH3+])C[C@H](C)CC(=O)NCCCCNC(=O)c2ccc(-c3c4nc(c(-c5cc(S(=O)(=O)[O-])ccc5F)c5ccc([nH]5)c(-c5cc(S(=O)(=O)[O-])ccc5F)c5nc(c(-c6cc(S(=O)(=O)[O-])ccc6F)c6ccc3[nH]6)C=C5)C=C4)cc2)ccc1F
REMARK SMILES IDX 15 1 14 2 13 3 11 4 12 5 10 7 8 8 9 9 7 10 5 11 4 12 1 13
REMARK SMILES IDX 2 14 3 15 86 16 85 17 87 18 84 19 6 20 16 24 17 25 18 26
REMARK SMILES IDX 19 27 20 29 21 30 22 31 83 32 23 33 82 34 24 35 25 36 26 37
REMARK SMILES IDX 76 38 27 39 81 40 75 41 77 42 28 43 80 44 74 45 73 46 29 48
REMARK SMILES IDX 61 49 41 50 60 51 42 52 45 53 59 54 78 55 43 56 44 57 58 59
REMARK SMILES IDX 79 60 46 61 30 62 31 63 39 64 32 65 38 66 40 67 37 68 33 69
REMARK SMILES IDX 34 70 35 71 36 72 62 73 63 74 71 75 64 76 70 77 72 78 69 79
REMARK SMILES IDX 65 80 66 81 67 82 68 83 47 84 48 85 56 86 49 87 55 88 57 89
REMARK SMILES IDX 54 90 50 91 51 92 52 93 53 94
REMARK H PARENT 13 6 6 21 6 22 6 23 18 28 77 47 45 58
REMARK Flexibility Score: inf
ROOT
ATOM      1  C   UNL A   1      33.033  29.901  25.759  1.00  0.00     0.023 C 
ENDROOT
BRANCH   1   2
ATOM      2  C   UNL A   1      31.504  29.983  25.685  1.00  0.00     0.116 C 
BRANCH   2   3
ATOM      3  N   UNL A   1      31.050  30.032  24.307  1.00  0.00    -0.356 N 
ATOM      4  C   UNL A   1      31.006  29.055  23.358  1.00  0.00     0.220 C 
ATOM      5  O   UNL A   1      30.643  29.366  22.221  1.00  0.00    -0.275 OA
ATOM      6  H   UNL A   1      30.720  30.911  24.012  1.00  0.00     0.163 HD
BRANCH   4   7
ATOM      7  C   UNL A   1      31.347  27.601  23.684  1.00  0.00     0.103 C 
BRANCH   7   8
ATOM      8  C   UNL A   1      32.557  27.038  22.911  1.00  0.00     0.001 C 
ATOM      9  C   UNL A   1      33.607  28.139  22.662  1.00  0.00     0.008 C 
BRANCH   8  10
ATOM     10  C   UNL A   1      33.231  25.810  23.583  1.00  0.00     0.074 C 
BRANCH  10  11
ATOM     11  C   UNL A   1      33.654  24.701  22.575  1.00  0.00     0.212 C 
BRANCH  11  12
ATOM     12  C   UNL A   1      34.136  23.409  23.215  1.00  0.00     0.010 A 
ATOM     13  C   UNL A   1      37.405  22.028  24.649  1.00  0.00     0.047 C 
ATOM     14  C   UNL A   1      35.964  22.157  24.259  1.00  0.00    -0.015 A 
ATOM     15  C   UNL A   1      35.504  23.256  23.521  1.00  0.00     0.016 A 
ATOM     16  C   UNL A   1      35.044  21.188  24.657  1.00  0.00     0.126 A 
ATOM     17  C   UNL A   1      33.696  21.295  24.331  1.00  0.00     0.040 A 
ATOM     18  F   UNL A   1      35.454  20.137  25.381  1.00  0.00    -0.207 F 
ATOM     19  C   UNL A   1      33.242  22.401  23.609  1.00  0.00     0.013 A 
ENDBRANCH  11  12
BRANCH  11  20
ATOM     20  N   UNL A   1      32.546  24.444  21.645  1.00  0.00    -0.351 N 
ATOM     21  H   UNL A   1      31.800  23.947  22.133  1.00  0.00     0.345 HD
ATOM     22  H   UNL A   1      32.881  23.875  20.867  1.00  0.00     0.345 HD
ATOM     23  H   UNL A   1      32.188  25.330  21.289  1.00  0.00     0.345 HD
ENDBRANCH  11  20
ENDBRANCH  10  11
ENDBRANCH   8  10
ENDBRANCH   7   8
ENDBRANCH   4   7
ENDBRANCH   2   3
ENDBRANCH   1   2
BRANCH   1  24
ATOM     24  C   UNL A   1      33.589  28.680  26.491  1.00  0.00     0.023 C 
BRANCH  24  25
ATOM     25  C   UNL A   1      35.037  28.866  26.898  1.00  0.00     0.116 C 
BRANCH  25  26
ATOM     26  N   UNL A   1      35.303  30.216  27.395  1.00  0.00    -0.352 N 
ATOM     27  C   UNL A   1      36.424  30.648  28.076  1.00  0.00     0.251 C 
ATOM     28  H   UNL A   1      34.606  30.890  27.227  1.00  0.00     0.163 HD
ATOM     29  O   UNL A   1      36.502  31.762  28.545  1.00  0.00    -0.269 OA
BRANCH  27  30
ATOM     30  C   UNL A   1      37.546  29.707  28.073  1.00  0.00     0.039 A 
ATOM     31  C   UNL A   1      38.479  29.652  27.035  1.00  0.00     0.014 A 
ATOM     32  C   UNL A   1      37.711  29.015  29.268  1.00  0.00     0.014 A 
ATOM     33  C   UNL A   1      39.627  28.884  27.210  1.00  0.00     0.010 A 
ATOM     34  C   UNL A   1      38.901  28.398  29.493  1.00  0.00     0.010 A 
ATOM     35  C   UNL A   1      39.827  28.274  28.445  1.00  0.00    -0.014 A 
BRANCH  35  36
ATOM     36  C   UNL A   1      40.936  27.405  28.786  1.00  0.00     0.031 A 
ATOM     37  C   UNL A   1      40.853  25.952  28.574  1.00  0.00     0.074 A 
ATOM     38  C   UNL A   1      42.085  28.082  29.013  1.00  0.00     0.049 A 
ATOM     39  N   UNL A   1      41.702  25.116  29.054  1.00  0.00    -0.248 NA
ATOM     40  C   UNL A   1      39.795  25.304  27.799  1.00  0.00     0.031 C 
ATOM     41  C   UNL A   1      43.463  27.648  28.915  1.00  0.00     0.029 A 
ATOM     42  N   UNL A   1      42.190  29.406  29.471  1.00  0.00    -0.354 N 
ATOM     43  C   UNL A   1      41.522  23.919  28.388  1.00  0.00     0.074 A 
ATOM     44  C   UNL A   1      40.245  24.043  27.728  1.00  0.00     0.031 C 
ATOM     45  C   UNL A   1      44.237  28.532  29.573  1.00  0.00     0.029 A 
ATOM     46  C   UNL A   1      43.339  29.458  30.254  1.00  0.00     0.049 A 
ATOM     47  H   UNL A   1      41.573  30.148  29.277  1.00  0.00     0.167 HD
ATOM     48  C   UNL A   1      42.575  23.053  28.322  1.00  0.00     0.034 A 
ATOM     49  C   UNL A   1      43.260  29.643  31.607  1.00  0.00     0.034 A 
ATOM     50  C   UNL A   1      43.700  23.596  29.089  1.00  0.00     0.049 A 
ATOM     51  C   UNL A   1      43.782  28.419  32.321  1.00  0.00     0.074 A 
ATOM     52  C   UNL A   1      44.802  24.339  28.699  1.00  0.00     0.029 A 
ATOM     53  N   UNL A   1      43.584  23.752  30.466  1.00  0.00    -0.354 N 
ATOM     54  N   UNL A   1      43.724  27.211  31.828  1.00  0.00    -0.248 NA
ATOM     55  C   UNL A   1      44.491  28.475  33.593  1.00  0.00     0.031 C 
ATOM     56  C   UNL A   1      45.297  25.016  29.845  1.00  0.00     0.029 A 
ATOM     57  C   UNL A   1      44.506  24.676  30.931  1.00  0.00     0.049 A 
ATOM     58  H   UNL A   1      42.936  23.273  31.032  1.00  0.00     0.167 HD
ATOM     59  C   UNL A   1      44.409  26.350  32.644  1.00  0.00     0.074 A 
ATOM     60  C   UNL A   1      44.860  27.191  33.740  1.00  0.00     0.031 C 
ATOM     61  C   UNL A   1      44.582  25.027  32.348  1.00  0.00     0.034 A 
BRANCH  48  62
ATOM     62  C   UNL A   1      42.712  21.899  27.339  1.00  0.00     0.023 A 
ATOM     63  C   UNL A   1      43.746  21.763  26.386  1.00  0.00     0.031 A 
ATOM     64  C   UNL A   1      41.780  20.832  27.367  1.00  0.00     0.131 A 
ATOM     65  C   UNL A   1      43.858  20.606  25.579  1.00  0.00     0.055 A 
ATOM     66  C   UNL A   1      41.877  19.699  26.549  1.00  0.00     0.041 A 
ATOM     67  F   UNL A   1      40.746  20.818  28.220  1.00  0.00    -0.206 F 
ATOM     68  C   UNL A   1      42.926  19.574  25.658  1.00  0.00     0.022 A 
BRANCH  65  69
ATOM     69  S   UNL A   1      45.252  20.366  24.436  1.00  0.00     0.124 S 
ATOM     70  O   UNL A   1      46.288  21.211  25.027  1.00  0.00    -0.237 OA
ATOM     71  O   UNL A   1      45.494  18.930  24.530  1.00  0.00    -0.237 OA
ATOM     72  O   UNL A   1      44.737  20.837  23.152  1.00  0.00    -0.744 OA
ENDBRANCH  65  69
ENDBRANCH  48  62
BRANCH  49  73
ATOM     73  C   UNL A   1      42.096  30.488  32.029  1.00  0.00     0.023 A 
ATOM     74  C   UNL A   1      40.965  29.943  32.668  1.00  0.00     0.031 A 
ATOM     75  C   UNL A   1      41.945  31.732  31.372  1.00  0.00     0.131 A 
ATOM     76  C   UNL A   1      39.714  30.581  32.525  1.00  0.00     0.055 A 
ATOM     77  C   UNL A   1      40.696  32.334  31.200  1.00  0.00     0.041 A 
ATOM     78  F   UNL A   1      43.000  32.310  30.775  1.00  0.00    -0.206 F 
ATOM     79  C   UNL A   1      39.567  31.735  31.745  1.00  0.00     0.022 A 
BRANCH  76  80
ATOM     80  S   UNL A   1      38.209  29.864  33.256  1.00  0.00     0.124 S 
ATOM     81  O   UNL A   1      38.352  30.255  34.655  1.00  0.00    -0.237 OA
ATOM     82  O   UNL A   1      37.136  30.538  32.530  1.00  0.00    -0.237 OA
ATOM     83  O   UNL A   1      38.343  28.441  32.973  1.00  0.00    -0.744 OA
ENDBRANCH  76  80
ENDBRANCH  49  73
BRANCH  61  84
ATOM     84  C   UNL A   1      44.951  23.940  33.335  1.00  0.00     0.023 A 
ATOM     85  C   UNL A   1      46.278  23.899  33.831  1.00  0.00     0.031 A 
ATOM     86  C   UNL A   1      44.139  22.845  33.672  1.00  0.00     0.131 A 
ATOM     87  C   UNL A   1      46.748  22.812  34.577  1.00  0.00     0.055 A 
ATOM     88  C   UNL A   1      44.578  21.813  34.507  1.00  0.00     0.041 A 
ATOM     89  F   UNL A   1      42.914  22.680  33.156  1.00  0.00    -0.206 F 
ATOM     90  C   UNL A   1      45.893  21.783  34.948  1.00  0.00     0.022 A 
BRANCH  87  91
ATOM     91  S   UNL A   1      48.521  22.624  34.917  1.00  0.00     0.124 S 
ATOM     92  O   UNL A   1      48.703  21.184  34.754  1.00  0.00    -0.237 OA
ATOM     93  O   UNL A   1      49.122  23.454  33.873  1.00  0.00    -0.237 OA
ATOM     94  O   UNL A   1      48.671  23.135  36.273  1.00  0.00    -0.744 OA
ENDBRANCH  87  91
ENDBRANCH  61  84
ENDBRANCH  35  36
ENDBRANCH  27  30
ENDBRANCH  25  26
ENDBRANCH  24  25
ENDBRANCH   1  24
TORSDOF 19
ENDMDL
MODEL 2
REMARK VINA RESULT:     -11.7      2.210      2.848
REMARK SMILES Cc1cc([C@@H]([NH3+])C[C@H](C)CC(=O)NCCCCNC(=O)c2ccc(-c3c4nc(c(-c5cc(S(=O)(=O)[O-])ccc5F)c5ccc([nH]5)c(-c5cc(S(=O)(=O)[O-])ccc5F)c5nc(c(-c6cc(S(=O)(=O)[O-])ccc6F)c6ccc3[nH]6)C=C5)C=C4)cc2)ccc1F
REMARK SMILES IDX 15 1 14 2 13 3 11 4 12 5 10 7 8 8 9 9 7 10 5 11 4 12 1 13
REMARK SMILES IDX 2 14 3 15 86 16 85 17 87 18 84 19 6 20 16 24 17 25 18 26
REMARK SMILES IDX 19 27 20 29 21 30 22 31 83 32 23 33 82 34 24 35 25 36 26 37
REMARK SMILES IDX 76 38 27 39 81 40 75 41 77 42 28 43 80 44 74 45 73 46 29 48
REMARK SMILES IDX 61 49 41 50 60 51 42 52 45 53 59 54 78 55 43 56 44 57 58 59
REMARK SMILES IDX 79 60 46 61 30 62 31 63 39 64 32 65 38 66 40 67 37 68 33 69
REMARK SMILES IDX 34 70 35 71 36 72 62 73 63 74 71 75 64 76 70 77 72 78 69 79
REMARK SMILES IDX 65 80 66 81 67 82 68 83 47 84 48 85 56 86 49 87 55 88 57 89
REMARK SMILES IDX 54 90 50 91 51 92 52 93 53 94
REMARK H PARENT 13 6 6 21 6 22 6 23 18 28 77 47 45 58
REMARK Flexibility Score: inf
ROOT
ATOM      1  C   UNL A   1      32.962  28.304  25.103  1.00  0.00     0.023 C 
ENDROOT
BRANCH   1   2
ATOM      2  C   UNL A   1      31.918  27.352  24.508  1.00  0.00     0.116 C 
BRANCH   2   3
ATOM      3  N   UNL A   1      32.547  26.334  23.686  1.00  0.00    -0.356 N 
ATOM      4  C   UNL A   1      33.511  25.422  23.996  1.00  0.00     0.220 C 
ATOM      5  O   UNL A   1      33.944  24.703  23.093  1.00  0.00    -0.275 OA
ATOM      6  H   UNL A   1      32.226  26.297  22.756  1.00  0.00     0.163 HD
BRANCH   4   7
ATOM      7  C   UNL A   1      34.023  25.248  25.426  1.00  0.00     0.103 C 
BRANCH   7   8
ATOM      8  C   UNL A   1      33.404  24.058  26.189  1.00  0.00     0.001 C 
ATOM      9  C   UNL A   1      31.882  23.992  25.954  1.00  0.00     0.008 C 
BRANCH   8  10
ATOM     10  C   UNL A   1      34.047  22.683  25.862  1.00  0.00     0.074 C 
BRANCH  10  11
ATOM     11  C   UNL A   1      33.069  21.482  26.024  1.00  0.00     0.212 C 
BRANCH  11  12
ATOM     12  C   UNL A   1      32.929  20.604  24.791  1.00  0.00     0.010 A 
ATOM     13  C   UNL A   1      33.239  16.887  23.933  1.00  0.00     0.047 C 
ATOM     14  C   UNL A   1      32.974  18.357  23.817  1.00  0.00    -0.015 A 
ATOM     15  C   UNL A   1      33.244  19.232  24.877  1.00  0.00     0.016 A 
ATOM     16  C   UNL A   1      32.418  18.876  22.649  1.00  0.00     0.126 A 
ATOM     17  C   UNL A   1      32.138  20.233  22.523  1.00  0.00     0.040 A 
ATOM     18  F   UNL A   1      32.130  18.058  21.626  1.00  0.00    -0.207 F 
ATOM     19  C   UNL A   1      32.395  21.096  23.590  1.00  0.00     0.013 A 
ENDBRANCH  11  12
BRANCH  11  20
ATOM     20  N   UNL A   1      33.468  20.687  27.192  1.00  0.00    -0.351 N 
ATOM     21  H   UNL A   1      32.775  19.957  27.360  1.00  0.00     0.345 HD
ATOM     22  H   UNL A   1      33.528  21.292  28.011  1.00  0.00     0.345 HD
ATOM     23  H   UNL A   1      34.377  20.258  27.019  1.00  0.00     0.345 HD
ENDBRANCH  11  20
ENDBRANCH  10  11
ENDBRANCH   8  10
ENDBRANCH   7   8
ENDBRANCH   4   7
ENDBRANCH   2   3
ENDBRANCH   1   2
BRANCH   1  24
ATOM     24  C   UNL A   1      32.779  28.632  26.585  1.00  0.00     0.023 C 
BRANCH  24  25
ATOM     25  C   UNL A   1      34.103  28.844  27.292  1.00  0.00     0.116 C 
BRANCH  25  26
ATOM     26  N   UNL A   1      34.155  30.125  27.996  1.00  0.00    -0.352 N 
ATOM     27  C   UNL A   1      35.213  30.633  28.725  1.00  0.00     0.251 C 
ATOM     28  H   UNL A   1      33.348  30.685  27.946  1.00  0.00     0.163 HD
ATOM     29  O   UNL A   1      35.119  31.657  29.366  1.00  0.00    -0.269 OA
BRANCH  27  30
ATOM     30  C   UNL A   1      36.477  29.914  28.558  1.00  0.00     0.039 A 
ATOM     31  C   UNL A   1      37.245  30.002  27.395  1.00  0.00     0.014 A 
ATOM     32  C   UNL A   1      36.937  29.296  29.716  1.00  0.00     0.014 A 
ATOM     33  C   UNL A   1      38.528  29.462  27.400  1.00  0.00     0.010 A 
ATOM     34  C   UNL A   1      38.240  28.914  29.764  1.00  0.00     0.010 A 
ATOM     35  C   UNL A   1      39.013  28.933  28.592  1.00  0.00    -0.014 A 
BRANCH  35  36
ATOM     36  C   UNL A   1      40.301  28.291  28.767  1.00  0.00     0.031 A 
ATOM     37  C   UNL A   1      40.445  26.832  28.641  1.00  0.00     0.074 A 
ATOM     38  C   UNL A   1      41.332  29.167  28.752  1.00  0.00     0.049 A 
ATOM     39  N   UNL A   1      41.498  26.190  28.998  1.00  0.00    -0.248 NA
ATOM     40  C   UNL A   1      39.403  25.959  28.100  1.00  0.00     0.031 C 
ATOM     41  C   UNL A   1      42.728  28.963  28.427  1.00  0.00     0.029 A 
ATOM     42  N   UNL A   1      41.275  30.521  29.122  1.00  0.00    -0.354 N 
ATOM     43  C   UNL A   1      41.425  24.933  28.431  1.00  0.00     0.074 A 
ATOM     44  C   UNL A   1      40.053  24.789  28.007  1.00  0.00     0.031 C 
ATOM     45  C   UNL A   1      43.433  30.013  28.893  1.00  0.00     0.029 A 
ATOM     46  C   UNL A   1      42.512  30.825  29.682  1.00  0.00     0.049 A 
ATOM     47  H   UNL A   1      40.512  31.131  29.008  1.00  0.00     0.167 HD
ATOM     48  C   UNL A   1      42.589  24.253  28.216  1.00  0.00     0.034 A 
ATOM     49  C   UNL A   1      42.631  31.097  31.017  1.00  0.00     0.034 A 
ATOM     50  C   UNL A   1      43.712  25.035  28.742  1.00  0.00     0.049 A 
ATOM     51  C   UNL A   1      43.478  30.037  31.681  1.00  0.00     0.074 A 
ATOM     52  C   UNL A   1      44.581  25.920  28.126  1.00  0.00     0.029 A 
ATOM     53  N   UNL A   1      43.805  25.275  30.109  1.00  0.00    -0.354 N 
ATOM     54  N   UNL A   1      43.554  28.802  31.263  1.00  0.00    -0.248 NA
ATOM     55  C   UNL A   1      44.370  30.309  32.800  1.00  0.00     0.031 C 
ATOM     56  C   UNL A   1      45.134  26.756  29.131  1.00  0.00     0.029 A 
ATOM     57  C   UNL A   1      44.612  26.373  30.357  1.00  0.00     0.049 A 
ATOM     58  H   UNL A   1      43.358  24.738  30.804  1.00  0.00     0.167 HD
ATOM     59  C   UNL A   1      44.510  28.134  31.981  1.00  0.00     0.074 A 
ATOM     60  C   UNL A   1      44.982  29.121  32.937  1.00  0.00     0.031 C 
ATOM     61  C   UNL A   1      44.864  26.840  31.720  1.00  0.00     0.034 A 
BRANCH  48  62
ATOM     62  C   UNL A   1      42.761  23.067  27.279  1.00  0.00     0.023 A 
ATOM     63  C   UNL A   1      43.702  22.993  26.227  1.00  0.00     0.031 A 
ATOM     64  C   UNL A   1      41.971  21.904  27.457  1.00  0.00     0.131 A 
ATOM     65  C   UNL A   1      43.868  21.811  25.468  1.00  0.00     0.055 A 
ATOM     66  C   UNL A   1      42.118  20.744  26.686  1.00  0.00     0.041 A 
ATOM     67  F   UNL A   1      41.038  21.824  28.417  1.00  0.00    -0.206 F 
ATOM     68  C   UNL A   1      43.078  20.686  25.694  1.00  0.00     0.022 A 
BRANCH  65  69
ATOM     69  S   UNL A   1      45.157  21.664  24.193  1.00  0.00     0.124 S 
ATOM     70  O   UNL A   1      46.369  21.502  24.994  1.00  0.00    -0.237 OA
ATOM     71  O   UNL A   1      44.738  20.475  23.456  1.00  0.00    -0.237 OA
ATOM     72  O   UNL A   1      45.070  22.925  23.461  1.00  0.00    -0.744 OA
ENDBRANCH  65  69
ENDBRANCH  48  62
BRANCH  49  73
ATOM     73  C   UNL A   1      41.423  31.765  31.602  1.00  0.00     0.023 A 
ATOM     74  C   UNL A   1      40.508  31.076  32.422  1.00  0.00     0.031 A 
ATOM     75  C   UNL A   1      40.973  32.940  30.956  1.00  0.00     0.131 A 
ATOM     76  C   UNL A   1      39.163  31.501  32.467  1.00  0.00     0.055 A 
ATOM     77  C   UNL A   1      39.631  33.328  30.973  1.00  0.00     0.041 A 
ATOM     78  F   UNL A   1      41.816  33.652  30.189  1.00  0.00    -0.206 F 
ATOM     79  C   UNL A   1      38.712  32.583  31.700  1.00  0.00     0.022 A 
BRANCH  76  80
ATOM     80  S   UNL A   1      37.925  30.587  33.439  1.00  0.00     0.124 S 
ATOM     81  O   UNL A   1      38.080  31.200  34.755  1.00  0.00    -0.237 OA
ATOM     82  O   UNL A   1      36.673  30.897  32.755  1.00  0.00    -0.237 OA
ATOM     83  O   UNL A   1      38.362  29.202  33.324  1.00  0.00    -0.744 OA
ENDBRANCH  76  80
ENDBRANCH  49  73
BRANCH  61  84
ATOM     84  C   UNL A   1      45.583  25.910  32.672  1.00  0.00     0.023 A 
ATOM     85  C   UNL A   1      44.809  25.063  33.505  1.00  0.00     0.031 A 
ATOM     86  C   UNL A   1      46.960  25.935  32.942  1.00  0.00     0.131 A 
ATOM     87  C   UNL A   1      45.387  24.332  34.549  1.00  0.00     0.055 A 
ATOM     88  C   UNL A   1      47.551  25.123  33.915  1.00  0.00     0.041 A 
ATOM     89  F   UNL A   1      47.790  26.793  32.333  1.00  0.00    -0.206 F 
ATOM     90  C   UNL A   1      46.763  24.332  34.737  1.00  0.00     0.022 A 
BRANCH  87  91
ATOM     91  S   UNL A   1      44.347  23.523  35.796  1.00  0.00     0.124 S 
ATOM     92  O   UNL A   1      45.167  23.654  36.997  1.00  0.00    -0.237 OA
ATOM     93  O   UNL A   1      43.139  24.348  35.769  1.00  0.00    -0.237 OA
ATOM     94  O   UNL A   1      44.179  22.169  35.283  1.00  0.00    -0.744 OA
ENDBRANCH  87  91
ENDBRANCH  61  84
ENDBRANCH  35  36
ENDBRANCH  27  30
ENDBRANCH  25  26
ENDBRANCH  24  25
ENDBRANCH   1  24
TORSDOF 19
ENDMDL
MODEL 3
REMARK VINA RESULT:     -11.6      1.858      2.262
REMARK SMILES Cc1cc([C@@H]([NH3+])C[C@H](C)CC(=O)NCCCCNC(=O)c2ccc(-c3c4nc(c(-c5cc(S(=O)(=O)[O-])ccc5F)c5ccc([nH]5)c(-c5cc(S(=O)(=O)[O-])ccc5F)c5nc(c(-c6cc(S(=O)(=O)[O-])ccc6F)c6ccc3[nH]6)C=C5)C=C4)cc2)ccc1F
REMARK SMILES IDX 15 1 14 2 13 3 11 4 12 5 10 7 8 8 9 9 7 10 5 11 4 12 1 13
REMARK SMILES IDX 2 14 3 15 86 16 85 17 87 18 84 19 6 20 16 24 17 25 18 26
REMARK SMILES IDX 19 27 20 29 21 30 22 31 83 32 23 33 82 34 24 35 25 36 26 37
REMARK SMILES IDX 76 38 27 39 81 40 75 41 77 42 28 43 80 44 74 45 73 46 29 48
REMARK SMILES IDX 61 49 41 50 60 51 42 52 45 53 59 54 78 55 43 56 44 57 58 59
REMARK SMILES IDX 79 60 46 61 30 62 31 63 39 64 32 65 38 66 40 67 37 68 33 69
REMARK SMILES IDX 34 70 35 71 36 72 62 73 63 74 71 75 64 76 70 77 72 78 69 79
REMARK SMILES IDX 65 80 66 81 67 82 68 83 47 84 48 85 56 86 49 87 55 88 57 89
REMARK SMILES IDX 54 90 50 91 51 92 52 93 53 94
REMARK H PARENT 13 6 6 21 6 22 6 23 18 28 77 47 45 58
REMARK Flexibility Score: inf
ROOT
ATOM      1  C   UNL A   1      32.987  29.804  25.485  1.00  0.00     0.023 C 
ENDROOT
BRANCH   1   2
ATOM      2  C   UNL A   1      31.487  29.514  25.360  1.00  0.00     0.116 C 
BRANCH   2   3
ATOM      3  N   UNL A   1      31.049  29.611  23.980  1.00  0.00    -0.356 N 
ATOM      4  C   UNL A   1      30.475  28.677  23.170  1.00  0.00     0.220 C 
ATOM      5  O   UNL A   1      30.259  28.980  21.994  1.00  0.00    -0.275 OA
ATOM      6  H   UNL A   1      31.188  30.491  23.562  1.00  0.00     0.163 HD
BRANCH   4   7
ATOM      7  C   UNL A   1      30.061  27.302  23.695  1.00  0.00     0.103 C 
BRANCH   7   8
ATOM      8  C   UNL A   1      31.230  26.321  23.918  1.00  0.00     0.001 C 
ATOM      9  C   UNL A   1      31.213  25.768  25.357  1.00  0.00     0.008 C 
BRANCH   8  10
ATOM     10  C   UNL A   1      31.282  25.146  22.903  1.00  0.00     0.074 C 
BRANCH  10  11
ATOM     11  C   UNL A   1      32.717  24.837  22.380  1.00  0.00     0.212 C 
BRANCH  11  12
ATOM     12  C   UNL A   1      33.392  23.647  23.040  1.00  0.00     0.010 A 
ATOM     13  C   UNL A   1      36.904  22.714  24.243  1.00  0.00     0.047 C 
ATOM     14  C   UNL A   1      35.430  22.664  23.979  1.00  0.00    -0.015 A 
ATOM     15  C   UNL A   1      34.789  23.659  23.229  1.00  0.00     0.016 A 
ATOM     16  C   UNL A   1      34.661  21.628  24.507  1.00  0.00     0.126 A 
ATOM     17  C   UNL A   1      33.287  21.570  24.298  1.00  0.00     0.040 A 
ATOM     18  F   UNL A   1      35.245  20.673  25.245  1.00  0.00    -0.207 F 
ATOM     19  C   UNL A   1      32.653  22.575  23.565  1.00  0.00     0.013 A 
ENDBRANCH  11  12
BRANCH  11  20
ATOM     20  N   UNL A   1      32.675  24.674  20.921  1.00  0.00    -0.351 N 
ATOM     21  H   UNL A   1      32.555  25.587  20.480  1.00  0.00     0.345 HD
ATOM     22  H   UNL A   1      31.892  24.070  20.669  1.00  0.00     0.345 HD
ATOM     23  H   UNL A   1      33.546  24.254  20.599  1.00  0.00     0.345 HD
ENDBRANCH  11  20
ENDBRANCH  10  11
ENDBRANCH   8  10
ENDBRANCH   7   8
ENDBRANCH   4   7
ENDBRANCH   2   3
ENDBRANCH   1   2
BRANCH   1  24
ATOM     24  C   UNL A   1      33.863  28.593  25.804  1.00  0.00     0.023 C 
BRANCH  24  25
ATOM     25  C   UNL A   1      34.366  28.611  27.234  1.00  0.00     0.116 C 
BRANCH  25  26
ATOM     26  N   UNL A   1      34.434  29.967  27.780  1.00  0.00    -0.352 N 
ATOM     27  C   UNL A   1      35.486  30.537  28.469  1.00  0.00     0.251 C 
ATOM     28  H   UNL A   1      33.643  30.535  27.640  1.00  0.00     0.163 HD
ATOM     29  O   UNL A   1      35.403  31.632  28.979  1.00  0.00    -0.269 OA
BRANCH  27  30
ATOM     30  C   UNL A   1      36.735  29.775  28.424  1.00  0.00     0.039 A 
ATOM     31  C   UNL A   1      37.626  29.852  27.351  1.00  0.00     0.014 A 
ATOM     32  C   UNL A   1      37.047  29.123  29.612  1.00  0.00     0.014 A 
ATOM     33  C   UNL A   1      38.882  29.267  27.483  1.00  0.00     0.010 A 
ATOM     34  C   UNL A   1      38.324  28.693  29.792  1.00  0.00     0.010 A 
ATOM     35  C   UNL A   1      39.218  28.702  28.710  1.00  0.00    -0.014 A 
BRANCH  35  36
ATOM     36  C   UNL A   1      40.457  28.012  29.008  1.00  0.00     0.031 A 
ATOM     37  C   UNL A   1      40.627  26.586  28.687  1.00  0.00     0.074 A 
ATOM     38  C   UNL A   1      41.470  28.855  29.311  1.00  0.00     0.049 A 
ATOM     39  N   UNL A   1      41.603  25.873  29.121  1.00  0.00    -0.248 NA
ATOM     40  C   UNL A   1      39.703  25.830  27.842  1.00  0.00     0.031 C 
ATOM     41  C   UNL A   1      42.903  28.672  29.211  1.00  0.00     0.029 A 
ATOM     42  N   UNL A   1      41.342  30.138  29.869  1.00  0.00    -0.354 N 
ATOM     43  C   UNL A   1      41.638  24.719  28.363  1.00  0.00     0.074 A 
ATOM     44  C   UNL A   1      40.364  24.673  27.686  1.00  0.00     0.031 C 
ATOM     45  C   UNL A   1      43.508  29.622  29.950  1.00  0.00     0.029 A 
ATOM     46  C   UNL A   1      42.458  30.325  30.679  1.00  0.00     0.049 A 
ATOM     47  H   UNL A   1      40.609  30.776  29.718  1.00  0.00     0.167 HD
ATOM     48  C   UNL A   1      42.824  24.053  28.255  1.00  0.00     0.034 A 
ATOM     49  C   UNL A   1      42.336  30.387  32.040  1.00  0.00     0.034 A 
ATOM     50  C   UNL A   1      43.832  24.719  29.086  1.00  0.00     0.049 A 
ATOM     51  C   UNL A   1      43.056  29.219  32.671  1.00  0.00     0.074 A 
ATOM     52  C   UNL A   1      44.793  25.667  28.777  1.00  0.00     0.029 A 
ATOM     53  N   UNL A   1      43.679  24.746  30.467  1.00  0.00    -0.354 N 
ATOM     54  N   UNL A   1      43.210  28.061  32.088  1.00  0.00    -0.248 NA
ATOM     55  C   UNL A   1      43.733  29.297  33.959  1.00  0.00     0.031 C 
ATOM     56  C   UNL A   1      45.154  26.328  29.981  1.00  0.00     0.029 A 
ATOM     57  C   UNL A   1      44.424  25.774  31.020  1.00  0.00     0.049 A 
ATOM     58  H   UNL A   1      43.118  24.120  30.982  1.00  0.00     0.167 HD
ATOM     59  C   UNL A   1      44.026  27.269  32.852  1.00  0.00     0.074 A 
ATOM     60  C   UNL A   1      44.316  28.087  34.017  1.00  0.00     0.031 C 
ATOM     61  C   UNL A   1      44.427  26.023  32.462  1.00  0.00     0.034 A 
BRANCH  48  62
ATOM     62  C   UNL A   1      43.166  23.019  27.192  1.00  0.00     0.023 A 
ATOM     63  C   UNL A   1      42.788  21.659  27.229  1.00  0.00     0.031 A 
ATOM     64  C   UNL A   1      43.884  23.409  26.033  1.00  0.00     0.131 A 
ATOM     65  C   UNL A   1      43.058  20.788  26.147  1.00  0.00     0.055 A 
ATOM     66  C   UNL A   1      44.174  22.539  24.975  1.00  0.00     0.041 A 
ATOM     67  F   UNL A   1      44.307  24.668  25.854  1.00  0.00    -0.206 F 
ATOM     68  C   UNL A   1      43.751  21.224  25.021  1.00  0.00     0.022 A 
BRANCH  65  69
ATOM     69  S   UNL A   1      42.470  19.067  26.132  1.00  0.00     0.124 S 
ATOM     70  O   UNL A   1      41.058  19.224  25.785  1.00  0.00    -0.237 OA
ATOM     71  O   UNL A   1      43.299  18.459  25.096  1.00  0.00    -0.237 OA
ATOM     72  O   UNL A   1      42.717  18.601  27.494  1.00  0.00    -0.744 OA
ENDBRANCH  65  69
ENDBRANCH  48  62
BRANCH  49  73
ATOM     73  C   UNL A   1      41.041  30.986  32.498  1.00  0.00     0.023 A 
ATOM     74  C   UNL A   1      40.930  32.341  32.870  1.00  0.00     0.031 A 
ATOM     75  C   UNL A   1      40.065  30.088  32.989  1.00  0.00     0.131 A 
ATOM     76  C   UNL A   1      39.945  32.724  33.804  1.00  0.00     0.055 A 
ATOM     77  C   UNL A   1      39.120  30.467  33.945  1.00  0.00     0.041 A 
ATOM     78  F   UNL A   1      40.107  28.791  32.637  1.00  0.00    -0.206 F 
ATOM     79  C   UNL A   1      39.084  31.784  34.387  1.00  0.00     0.022 A 
BRANCH  76  80
ATOM     80  S   UNL A   1      39.823  34.445  34.384  1.00  0.00     0.124 S 
ATOM     81  O   UNL A   1      39.804  34.262  35.832  1.00  0.00    -0.237 OA
ATOM     82  O   UNL A   1      41.037  35.060  33.853  1.00  0.00    -0.237 OA
ATOM     83  O   UNL A   1      38.582  34.916  33.783  1.00  0.00    -0.744 OA
ENDBRANCH  76  80
ENDBRANCH  49  73
BRANCH  61  84
ATOM     84  C   UNL A   1      44.968  24.941  33.372  1.00  0.00     0.023 A 
ATOM     85  C   UNL A   1      46.349  24.955  33.692  1.00  0.00     0.031 A 
ATOM     86  C   UNL A   1      44.257  23.805  33.790  1.00  0.00     0.131 A 
ATOM     87  C   UNL A   1      46.960  23.882  34.351  1.00  0.00     0.055 A 
ATOM     88  C   UNL A   1      44.846  22.784  34.541  1.00  0.00     0.041 A 
ATOM     89  F   UNL A   1      42.983  23.590  33.433  1.00  0.00    -0.206 F 
ATOM     90  C   UNL A   1      46.207  22.809  34.809  1.00  0.00     0.022 A 
BRANCH  87  91
ATOM     91  S   UNL A   1      48.768  23.773  34.455  1.00  0.00     0.124 S 
ATOM     92  O   UNL A   1      49.183  24.862  33.576  1.00  0.00    -0.237 OA
ATOM     93  O   UNL A   1      49.006  23.993  35.881  1.00  0.00    -0.237 OA
ATOM     94  O   UNL A   1      49.063  22.426  33.982  1.00  0.00    -0.744 OA
ENDBRANCH  87  91
ENDBRANCH  61  84
ENDBRANCH  35  36
ENDBRANCH  27  30
ENDBRANCH  25  26
ENDBRANCH  24  25
ENDBRANCH   1  24
TORSDOF 19
ENDMDL
