MODEL 1
REMARK VINA RESULT:     -11.9      0.000      0.000
REMARK SMILES C[C@@H]1CCCN(c2ccc(NC(=O)Cc3cccs3)c(C(=O)NCCCCNC(=O)c3ccc(-c4c5nc(c(-c6cc(S(=O)(=O)[O-])ccc6F)c6ccc([nH]6)c(-c6cc(S(=O)(=O)[O-])ccc6F)c6nc(c(-c7cc(S(=O)(=O)[O-])ccc7F)c7ccc4[nH]7)C=C6)C=C5)cc3)c2)C1
REMARK SMILES IDX 25 1 24 2 23 3 21 4 22 5 20 7 7 8 8 9 94 10 9 11 10 12 6 13
REMARK SMILES IDX 1 14 2 15 3 16 95 17 4 18 5 19 11 20 12 21 13 23 14 24 15 25
REMARK SMILES IDX 16 26 19 27 17 28 18 29 26 30 27 31 28 32 29 33 30 35 31 36
REMARK SMILES IDX 32 37 93 38 33 39 92 40 34 41 35 42 36 43 86 44 37 45 91 46
REMARK SMILES IDX 85 47 87 48 38 49 90 50 84 51 83 52 39 54 71 55 51 56 70 57
REMARK SMILES IDX 52 58 55 59 69 60 88 61 53 62 54 63 68 65 89 66 56 67 40 68
REMARK SMILES IDX 41 69 49 70 42 71 48 72 50 73 47 74 43 75 44 76 45 77 46 78
REMARK SMILES IDX 72 79 73 80 81 81 74 82 80 83 82 84 79 85 75 86 76 87 77 88
REMARK SMILES IDX 78 89 57 90 58 91 66 92 59 93 65 94 67 95 64 96 60 97 61 98
REMARK SMILES IDX 62 99 63 100
REMARK H PARENT 23 6 11 22 28 34 87 53 55 64
REMARK Flexibility Score: inf
ROOT
ATOM      1  C   UNL A   1      36.868  22.312  23.479  1.00  0.00     0.023 C 
ENDROOT
BRANCH   1   2
ATOM      2  C   UNL A   1      35.767  23.328  23.757  1.00  0.00     0.116 C 
BRANCH   2   3
ATOM      3  N   UNL A   1      35.300  23.396  25.133  1.00  0.00    -0.352 N 
ATOM      4  C   UNL A   1      34.046  23.680  25.642  1.00  0.00     0.253 C 
ATOM      5  O   UNL A   1      33.890  23.653  26.863  1.00  0.00    -0.269 OA
ATOM      6  H   UNL A   1      35.988  23.210  25.811  1.00  0.00     0.163 HD
BRANCH   4   7
ATOM      7  C   UNL A   1      32.895  24.096  24.778  1.00  0.00     0.065 A 
ATOM      8  C   UNL A   1      31.800  25.912  23.571  1.00  0.00     0.038 A 
ATOM      9  C   UNL A   1      30.657  25.120  23.496  1.00  0.00     0.028 A 
ATOM     10  C   UNL A   1      32.945  25.327  24.104  1.00  0.00     0.042 A 
ATOM     11  C   UNL A   1      30.636  23.813  23.997  1.00  0.00     0.029 A 
ATOM     12  C   UNL A   1      31.724  23.298  24.701  1.00  0.00     0.054 A 
BRANCH   8  13
ATOM     13  N   UNL A   1      31.755  27.241  23.197  1.00  0.00    -0.371 N 
ATOM     14  C   UNL A   1      28.529  29.147  22.438  1.00  0.00     0.009 C 
ATOM     15  C   UNL A   1      29.677  28.580  23.273  1.00  0.00     0.005 C 
ATOM     16  C   UNL A   1      30.478  29.715  23.924  1.00  0.00     0.007 C 
ATOM     17  C   UNL A   1      30.597  27.692  22.413  1.00  0.00     0.119 C 
ATOM     18  C   UNL A   1      31.640  29.153  24.742  1.00  0.00     0.022 C 
ATOM     19  C   UNL A   1      32.538  28.265  23.883  1.00  0.00     0.116 C 
ENDBRANCH   8  13
BRANCH  12  20
ATOM     20  N   UNL A   1      31.699  22.040  25.348  1.00  0.00    -0.325 N 
ATOM     21  C   UNL A   1      32.210  20.800  25.089  1.00  0.00     0.229 C 
ATOM     22  H   UNL A   1      31.189  22.064  26.190  1.00  0.00     0.169 HD
ATOM     23  O   UNL A   1      31.995  19.916  25.930  1.00  0.00    -0.274 OA
BRANCH  21  24
ATOM     24  C   UNL A   1      33.020  20.451  23.860  1.00  0.00     0.147 C 
BRANCH  24  25
ATOM     25  C   UNL A   1      33.518  19.029  23.820  1.00  0.00     0.014 A 
ATOM     26  C   UNL A   1      34.586  18.417  24.452  1.00  0.00     0.016 A 
ATOM     27  S   UNL A   1      32.646  17.891  22.864  1.00  0.00    -0.148 S 
ATOM     28  C   UNL A   1      34.658  17.019  24.189  1.00  0.00     0.012 A 
ATOM     29  C   UNL A   1      33.675  16.607  23.320  1.00  0.00     0.065 A 
ENDBRANCH  24  25
ENDBRANCH  21  24
ENDBRANCH  12  20
ENDBRANCH   4   7
ENDBRANCH   2   3
ENDBRANCH   1   2
BRANCH   1  30
ATOM     30  C   UNL A   1      37.024  21.169  24.478  1.00  0.00     0.023 C 
BRANCH  30  31
ATOM     31  C   UNL A   1      37.850  21.458  25.727  1.00  0.00     0.116 C 
BRANCH  31  32
ATOM     32  N   UNL A   1      39.016  20.599  25.882  1.00  0.00    -0.352 N 
ATOM     33  C   UNL A   1      40.249  20.861  26.443  1.00  0.00     0.251 C 
ATOM     34  H   UNL A   1      38.908  19.687  25.529  1.00  0.00     0.163 HD
ATOM     35  O   UNL A   1      41.121  20.001  26.410  1.00  0.00    -0.269 OA
BRANCH  33  36
ATOM     36  C   UNL A   1      40.534  22.191  27.029  1.00  0.00     0.039 A 
ATOM     37  C   UNL A   1      41.431  22.277  28.098  1.00  0.00     0.014 A 
ATOM     38  C   UNL A   1      39.960  23.350  26.506  1.00  0.00     0.014 A 
ATOM     39  C   UNL A   1      41.847  23.531  28.556  1.00  0.00     0.010 A 
ATOM     40  C   UNL A   1      40.436  24.597  26.907  1.00  0.00     0.010 A 
ATOM     41  C   UNL A   1      41.404  24.701  27.918  1.00  0.00    -0.014 A 
BRANCH  41  42
ATOM     42  C   UNL A   1      41.968  26.037  28.254  1.00  0.00     0.031 A 
ATOM     43  C   UNL A   1      41.101  27.085  28.895  1.00  0.00     0.074 A 
ATOM     44  C   UNL A   1      43.229  26.340  27.885  1.00  0.00     0.049 A 
ATOM     45  N   UNL A   1      41.359  28.345  29.129  1.00  0.00    -0.248 NA
ATOM     46  C   UNL A   1      39.752  26.661  29.296  1.00  0.00     0.031 C 
ATOM     47  C   UNL A   1      44.160  25.425  27.220  1.00  0.00     0.029 A 
ATOM     48  N   UNL A   1      43.943  27.508  27.999  1.00  0.00    -0.354 N 
ATOM     49  C   UNL A   1      40.200  28.874  29.687  1.00  0.00     0.074 A 
ATOM     50  C   UNL A   1      39.222  27.805  29.700  1.00  0.00     0.031 C 
ATOM     51  C   UNL A   1      45.324  26.059  27.003  1.00  0.00     0.029 A 
ATOM     52  C   UNL A   1      45.208  27.439  27.461  1.00  0.00     0.049 A 
ATOM     53  H   UNL A   1      43.583  28.319  28.426  1.00  0.00     0.167 HD
ATOM     54  C   UNL A   1      39.978  30.124  30.162  1.00  0.00     0.034 A 
ATOM     55  C   UNL A   1      46.161  28.384  27.331  1.00  0.00     0.034 A 
ATOM     56  C   UNL A   1      40.968  31.175  30.153  1.00  0.00     0.049 A 
ATOM     57  C   UNL A   1      45.881  29.778  27.834  1.00  0.00     0.074 A 
ATOM     58  C   UNL A   1      40.867  32.460  30.660  1.00  0.00     0.029 A 
ATOM     59  N   UNL A   1      42.238  31.066  29.602  1.00  0.00    -0.354 N 
ATOM     60  N   UNL A   1      44.792  30.249  28.395  1.00  0.00    -0.248 NA
ATOM     61  C   UNL A   1      46.960  30.763  27.688  1.00  0.00     0.031 C 
ATOM     62  C   UNL A   1      42.051  33.145  30.362  1.00  0.00     0.029 A 
ATOM     63  C   UNL A   1      42.919  32.268  29.729  1.00  0.00     0.049 A 
ATOM     64  H   UNL A   1      42.602  30.255  29.181  1.00  0.00     0.167 HD
ATOM     65  C   UNL A   1      45.067  31.580  28.695  1.00  0.00     0.074 A 
ATOM     66  C   UNL A   1      46.426  31.832  28.261  1.00  0.00     0.031 C 
ATOM     67  C   UNL A   1      44.270  32.509  29.281  1.00  0.00     0.034 A 
BRANCH  54  68
ATOM     68  C   UNL A   1      38.602  30.422  30.707  1.00  0.00     0.023 A 
ATOM     69  C   UNL A   1      37.619  31.052  29.922  1.00  0.00     0.031 A 
ATOM     70  C   UNL A   1      38.277  30.109  32.039  1.00  0.00     0.131 A 
ATOM     71  C   UNL A   1      36.396  31.428  30.497  1.00  0.00     0.055 A 
ATOM     72  C   UNL A   1      37.026  30.409  32.582  1.00  0.00     0.041 A 
ATOM     73  F   UNL A   1      39.178  29.523  32.843  1.00  0.00    -0.206 F 
ATOM     74  C   UNL A   1      36.083  31.089  31.815  1.00  0.00     0.022 A 
BRANCH  71  75
ATOM     75  S   UNL A   1      35.290  32.503  29.544  1.00  0.00     0.124 S 
ATOM     76  O   UNL A   1      34.974  31.656  28.396  1.00  0.00    -0.237 OA
ATOM     77  O   UNL A   1      34.198  32.741  30.481  1.00  0.00    -0.237 OA
ATOM     78  O   UNL A   1      36.120  33.666  29.241  1.00  0.00    -0.744 OA
ENDBRANCH  71  75
ENDBRANCH  54  68
BRANCH  55  79
ATOM     79  C   UNL A   1      47.463  28.061  26.683  1.00  0.00     0.023 A 
ATOM     80  C   UNL A   1      47.563  27.942  25.287  1.00  0.00     0.031 A 
ATOM     81  C   UNL A   1      48.618  27.827  27.450  1.00  0.00     0.131 A 
ATOM     82  C   UNL A   1      48.780  27.559  24.703  1.00  0.00     0.055 A 
ATOM     83  C   UNL A   1      49.839  27.492  26.860  1.00  0.00     0.041 A 
ATOM     84  F   UNL A   1      48.578  27.934  28.788  1.00  0.00    -0.206 F 
ATOM     85  C   UNL A   1      49.921  27.345  25.479  1.00  0.00     0.022 A 
BRANCH  82  86
ATOM     86  S   UNL A   1      48.832  27.273  22.912  1.00  0.00     0.124 S 
ATOM     87  O   UNL A   1      50.258  27.393  22.633  1.00  0.00    -0.237 OA
ATOM     88  O   UNL A   1      48.266  25.933  22.804  1.00  0.00    -0.237 OA
ATOM     89  O   UNL A   1      47.998  28.345  22.373  1.00  0.00    -0.744 OA
ENDBRANCH  82  86
ENDBRANCH  55  79
BRANCH  67  90
ATOM     90  C   UNL A   1      44.872  33.870  29.527  1.00  0.00     0.023 A 
ATOM     91  C   UNL A   1      45.556  34.173  30.717  1.00  0.00     0.031 A 
ATOM     92  C   UNL A   1      44.750  34.879  28.556  1.00  0.00     0.131 A 
ATOM     93  C   UNL A   1      46.055  35.468  30.925  1.00  0.00     0.055 A 
ATOM     94  C   UNL A   1      45.295  36.150  28.746  1.00  0.00     0.041 A 
ATOM     95  F   UNL A   1      44.104  34.644  27.403  1.00  0.00    -0.206 F 
ATOM     96  C   UNL A   1      45.942  36.453  29.940  1.00  0.00     0.022 A 
BRANCH  93  97
ATOM     97  S   UNL A   1      46.794  35.871  32.531  1.00  0.00     0.124 S 
ATOM     98  O   UNL A   1      45.723  35.516  33.456  1.00  0.00    -0.237 OA
ATOM     99  O   UNL A   1      47.972  35.011  32.560  1.00  0.00    -0.237 OA
ATOM    100  O   UNL A   1      47.076  37.302  32.429  1.00  0.00    -0.744 OA
ENDBRANCH  93  97
ENDBRANCH  67  90
ENDBRANCH  41  42
ENDBRANCH  33  36
ENDBRANCH  31  32
ENDBRANCH  30  31
ENDBRANCH   1  30
TORSDOF 18
ENDMDL
MODEL 2
REMARK VINA RESULT:     -11.9      1.802      2.199
REMARK SMILES C[C@@H]1CCCN(c2ccc(NC(=O)Cc3cccs3)c(C(=O)NCCCCNC(=O)c3ccc(-c4c5nc(c(-c6cc(S(=O)(=O)[O-])ccc6F)c6ccc([nH]6)c(-c6cc(S(=O)(=O)[O-])ccc6F)c6nc(c(-c7cc(S(=O)(=O)[O-])ccc7F)c7ccc4[nH]7)C=C6)C=C5)cc3)c2)C1
REMARK SMILES IDX 25 1 24 2 23 3 21 4 22 5 20 7 7 8 8 9 94 10 9 11 10 12 6 13
REMARK SMILES IDX 1 14 2 15 3 16 95 17 4 18 5 19 11 20 12 21 13 23 14 24 15 25
REMARK SMILES IDX 16 26 19 27 17 28 18 29 26 30 27 31 28 32 29 33 30 35 31 36
REMARK SMILES IDX 32 37 93 38 33 39 92 40 34 41 35 42 36 43 86 44 37 45 91 46
REMARK SMILES IDX 85 47 87 48 38 49 90 50 84 51 83 52 39 54 71 55 51 56 70 57
REMARK SMILES IDX 52 58 55 59 69 60 88 61 53 62 54 63 68 65 89 66 56 67 40 68
REMARK SMILES IDX 41 69 49 70 42 71 48 72 50 73 47 74 43 75 44 76 45 77 46 78
REMARK SMILES IDX 72 79 73 80 81 81 74 82 80 83 82 84 79 85 75 86 76 87 77 88
REMARK SMILES IDX 78 89 57 90 58 91 66 92 59 93 65 94 67 95 64 96 60 97 61 98
REMARK SMILES IDX 62 99 63 100
REMARK H PARENT 23 6 11 22 28 34 87 53 55 64
REMARK Flexibility Score: inf
ROOT
ATOM      1  C   UNL A   1      37.799  21.858  25.171  1.00  0.00     0.023 C 
ENDROOT
BRANCH   1   2
ATOM      2  C   UNL A   1      36.311  22.184  25.162  1.00  0.00     0.116 C 
BRANCH   2   3
ATOM      3  N   UNL A   1      35.654  22.185  26.460  1.00  0.00    -0.352 N 
ATOM      4  C   UNL A   1      34.422  22.683  26.842  1.00  0.00     0.253 C 
ATOM      5  O   UNL A   1      34.071  22.540  28.013  1.00  0.00    -0.269 OA
ATOM      6  H   UNL A   1      36.170  21.763  27.183  1.00  0.00     0.163 HD
BRANCH   4   7
ATOM      7  C   UNL A   1      33.537  23.457  25.914  1.00  0.00     0.065 A 
ATOM      8  C   UNL A   1      32.948  25.642  25.003  1.00  0.00     0.038 A 
ATOM      9  C   UNL A   1      31.759  25.085  24.540  1.00  0.00     0.028 A 
ATOM     10  C   UNL A   1      33.876  24.776  25.573  1.00  0.00     0.042 A 
ATOM     11  C   UNL A   1      31.474  23.725  24.702  1.00  0.00     0.029 A 
ATOM     12  C   UNL A   1      32.320  22.899  25.443  1.00  0.00     0.054 A 
BRANCH   8  13
ATOM     13  N   UNL A   1      33.144  27.009  24.956  1.00  0.00    -0.371 N 
ATOM     14  C   UNL A   1      30.464  29.525  23.906  1.00  0.00     0.009 C 
ATOM     15  C   UNL A   1      31.274  28.623  24.837  1.00  0.00     0.005 C 
ATOM     16  C   UNL A   1      31.978  29.459  25.915  1.00  0.00     0.007 C 
ATOM     17  C   UNL A   1      32.298  27.790  24.042  1.00  0.00     0.119 C 
ATOM     18  C   UNL A   1      32.807  28.563  26.834  1.00  0.00     0.022 C 
ATOM     19  C   UNL A   1      33.809  27.733  26.035  1.00  0.00     0.116 C 
ENDBRANCH   8  13
BRANCH  12  20
ATOM     20  N   UNL A   1      32.007  21.555  25.755  1.00  0.00    -0.325 N 
ATOM     21  C   UNL A   1      32.396  20.331  25.293  1.00  0.00     0.229 C 
ATOM     22  H   UNL A   1      31.348  21.486  26.484  1.00  0.00     0.169 HD
ATOM     23  O   UNL A   1      31.909  19.337  25.850  1.00  0.00    -0.274 OA
BRANCH  21  24
ATOM     24  C   UNL A   1      33.383  20.119  24.165  1.00  0.00     0.147 C 
BRANCH  24  25
ATOM     25  C   UNL A   1      33.747  18.678  23.912  1.00  0.00     0.014 A 
ATOM     26  C   UNL A   1      33.159  17.714  23.113  1.00  0.00     0.016 A 
ATOM     27  S   UNL A   1      35.143  18.045  24.699  1.00  0.00    -0.148 S 
ATOM     28  C   UNL A   1      33.875  16.484  23.111  1.00  0.00     0.012 A 
ATOM     29  C   UNL A   1      34.964  16.520  23.951  1.00  0.00     0.065 A 
ENDBRANCH  24  25
ENDBRANCH  21  24
ENDBRANCH  12  20
ENDBRANCH   4   7
ENDBRANCH   2   3
ENDBRANCH   1   2
BRANCH   1  30
ATOM     30  C   UNL A   1      38.189  20.395  24.984  1.00  0.00     0.023 C 
BRANCH  30  31
ATOM     31  C   UNL A   1      38.839  19.700  26.176  1.00  0.00     0.116 C 
BRANCH  31  32
ATOM     32  N   UNL A   1      40.148  19.130  25.892  1.00  0.00    -0.352 N 
ATOM     33  C   UNL A   1      41.404  19.696  25.971  1.00  0.00     0.251 C 
ATOM     34  H   UNL A   1      40.135  18.192  25.594  1.00  0.00     0.163 HD
ATOM     35  O   UNL A   1      42.381  19.046  25.618  1.00  0.00    -0.269 OA
BRANCH  33  36
ATOM     36  C   UNL A   1      41.563  21.096  26.426  1.00  0.00     0.039 A 
ATOM     37  C   UNL A   1      41.887  21.335  27.765  1.00  0.00     0.014 A 
ATOM     38  C   UNL A   1      41.441  22.164  25.537  1.00  0.00     0.014 A 
ATOM     39  C   UNL A   1      42.211  22.631  28.180  1.00  0.00     0.010 A 
ATOM     40  C   UNL A   1      41.842  23.439  25.931  1.00  0.00     0.010 A 
ATOM     41  C   UNL A   1      42.257  23.682  27.250  1.00  0.00    -0.014 A 
BRANCH  41  42
ATOM     42  C   UNL A   1      42.776  25.029  27.615  1.00  0.00     0.031 A 
ATOM     43  C   UNL A   1      41.861  26.052  28.228  1.00  0.00     0.074 A 
ATOM     44  C   UNL A   1      44.044  25.362  27.298  1.00  0.00     0.049 A 
ATOM     45  N   UNL A   1      42.082  27.317  28.479  1.00  0.00    -0.248 NA
ATOM     46  C   UNL A   1      40.508  25.595  28.574  1.00  0.00     0.031 C 
ATOM     47  C   UNL A   1      45.020  24.472  26.664  1.00  0.00     0.029 A 
ATOM     48  N   UNL A   1      44.726  26.545  27.446  1.00  0.00    -0.354 N 
ATOM     49  C   UNL A   1      40.890  27.815  28.994  1.00  0.00     0.074 A 
ATOM     50  C   UNL A   1      39.937  26.725  28.964  1.00  0.00     0.031 C 
ATOM     51  C   UNL A   1      46.177  25.134  26.495  1.00  0.00     0.029 A 
ATOM     52  C   UNL A   1      46.012  26.508  26.957  1.00  0.00     0.049 A 
ATOM     53  H   UNL A   1      44.331  27.345  27.863  1.00  0.00     0.167 HD
ATOM     54  C   UNL A   1      40.622  29.057  29.467  1.00  0.00     0.034 A 
ATOM     55  C   UNL A   1      46.947  27.475  26.869  1.00  0.00     0.034 A 
ATOM     56  C   UNL A   1      41.587  30.130  29.503  1.00  0.00     0.049 A 
ATOM     57  C   UNL A   1      46.617  28.859  27.369  1.00  0.00     0.074 A 
ATOM     58  C   UNL A   1      41.438  31.409  30.012  1.00  0.00     0.029 A 
ATOM     59  N   UNL A   1      42.880  30.053  29.001  1.00  0.00    -0.354 N 
ATOM     60  N   UNL A   1      45.496  29.302  27.889  1.00  0.00    -0.248 NA
ATOM     61  C   UNL A   1      47.678  29.869  27.270  1.00  0.00     0.031 C 
ATOM     62  C   UNL A   1      42.616  32.122  29.764  1.00  0.00     0.029 A 
ATOM     63  C   UNL A   1      43.528  31.269  29.161  1.00  0.00     0.049 A 
ATOM     64  H   UNL A   1      43.279  29.253  28.589  1.00  0.00     0.167 HD
ATOM     65  C   UNL A   1      45.730  30.637  28.207  1.00  0.00     0.074 A 
ATOM     66  C   UNL A   1      47.098  30.922  27.828  1.00  0.00     0.031 C 
ATOM     67  C   UNL A   1      44.889  31.543  28.767  1.00  0.00     0.034 A 
BRANCH  54  68
ATOM     68  C   UNL A   1      39.219  29.320  29.960  1.00  0.00     0.023 A 
ATOM     69  C   UNL A   1      38.287  30.033  29.184  1.00  0.00     0.031 A 
ATOM     70  C   UNL A   1      38.817  28.889  31.237  1.00  0.00     0.131 A 
ATOM     71  C   UNL A   1      37.037  30.370  29.723  1.00  0.00     0.055 A 
ATOM     72  C   UNL A   1      37.539  29.153  31.735  1.00  0.00     0.041 A 
ATOM     73  F   UNL A   1      39.666  28.219  32.031  1.00  0.00    -0.206 F 
ATOM     74  C   UNL A   1      36.647  29.913  30.984  1.00  0.00     0.022 A 
BRANCH  71  75
ATOM     75  S   UNL A   1      35.994  31.543  28.815  1.00  0.00     0.124 S 
ATOM     76  O   UNL A   1      36.930  32.637  28.566  1.00  0.00    -0.237 OA
ATOM     77  O   UNL A   1      35.591  30.768  27.647  1.00  0.00    -0.237 OA
ATOM     78  O   UNL A   1      34.923  31.852  29.760  1.00  0.00    -0.744 OA
ENDBRANCH  71  75
ENDBRANCH  54  68
BRANCH  55  79
ATOM     79  C   UNL A   1      48.281  27.185  26.270  1.00  0.00     0.023 A 
ATOM     80  C   UNL A   1      48.531  27.439  24.912  1.00  0.00     0.031 A 
ATOM     81  C   UNL A   1      49.312  26.614  27.035  1.00  0.00     0.131 A 
ATOM     82  C   UNL A   1      49.767  27.085  24.350  1.00  0.00     0.055 A 
ATOM     83  C   UNL A   1      50.558  26.307  26.483  1.00  0.00     0.041 A 
ATOM     84  F   UNL A   1      49.128  26.358  28.341  1.00  0.00    -0.206 F 
ATOM     85  C   UNL A   1      50.786  26.532  25.128  1.00  0.00     0.022 A 
BRANCH  82  86
ATOM     86  S   UNL A   1      49.999  27.292  22.563  1.00  0.00     0.124 S 
ATOM     87  O   UNL A   1      48.776  26.699  22.033  1.00  0.00    -0.237 OA
ATOM     88  O   UNL A   1      50.116  28.741  22.439  1.00  0.00    -0.237 OA
ATOM     89  O   UNL A   1      51.225  26.545  22.290  1.00  0.00    -0.744 OA
ENDBRANCH  82  86
ENDBRANCH  55  79
BRANCH  67  90
ATOM     90  C   UNL A   1      45.450  32.916  29.044  1.00  0.00     0.023 A 
ATOM     91  C   UNL A   1      45.421  33.936  28.077  1.00  0.00     0.031 A 
ATOM     92  C   UNL A   1      46.027  33.202  30.294  1.00  0.00     0.131 A 
ATOM     93  C   UNL A   1      46.001  35.182  28.361  1.00  0.00     0.055 A 
ATOM     94  C   UNL A   1      46.554  34.460  30.588  1.00  0.00     0.041 A 
ATOM     95  F   UNL A   1      46.082  32.263  31.252  1.00  0.00    -0.206 F 
ATOM     96  C   UNL A   1      46.553  35.455  29.616  1.00  0.00     0.022 A 
BRANCH  93  97
ATOM     97  S   UNL A   1      46.089  36.424  27.042  1.00  0.00     0.124 S 
ATOM     98  O   UNL A   1      44.759  37.020  27.098  1.00  0.00    -0.237 OA
ATOM     99  O   UNL A   1      47.189  37.275  27.485  1.00  0.00    -0.237 OA
ATOM    100  O   UNL A   1      46.364  35.633  25.843  1.00  0.00    -0.744 OA
ENDBRANCH  93  97
ENDBRANCH  67  90
ENDBRANCH  41  42
ENDBRANCH  33  36
ENDBRANCH  31  32
ENDBRANCH  30  31
ENDBRANCH   1  30
TORSDOF 18
ENDMDL
MODEL 3
REMARK VINA RESULT:     -11.5      5.725     11.364
REMARK SMILES C[C@@H]1CCCN(c2ccc(NC(=O)Cc3cccs3)c(C(=O)NCCCCNC(=O)c3ccc(-c4c5nc(c(-c6cc(S(=O)(=O)[O-])ccc6F)c6ccc([nH]6)c(-c6cc(S(=O)(=O)[O-])ccc6F)c6nc(c(-c7cc(S(=O)(=O)[O-])ccc7F)c7ccc4[nH]7)C=C6)C=C5)cc3)c2)C1
REMARK SMILES IDX 25 1 24 2 23 3 21 4 22 5 20 7 7 8 8 9 94 10 9 11 10 12 6 13
REMARK SMILES IDX 1 14 2 15 3 16 95 17 4 18 5 19 11 20 12 21 13 23 14 24 15 25
REMARK SMILES IDX 16 26 19 27 17 28 18 29 26 30 27 31 28 32 29 33 30 35 31 36
REMARK SMILES IDX 32 37 93 38 33 39 92 40 34 41 35 42 36 43 86 44 37 45 91 46
REMARK SMILES IDX 85 47 87 48 38 49 90 50 84 51 83 52 39 54 71 55 51 56 70 57
REMARK SMILES IDX 52 58 55 59 69 60 88 61 53 62 54 63 68 65 89 66 56 67 40 68
REMARK SMILES IDX 41 69 49 70 42 71 48 72 50 73 47 74 43 75 44 76 45 77 46 78
REMARK SMILES IDX 72 79 73 80 81 81 74 82 80 83 82 84 79 85 75 86 76 87 77 88
REMARK SMILES IDX 78 89 57 90 58 91 66 92 59 93 65 94 67 95 64 96 60 97 61 98
REMARK SMILES IDX 62 99 63 100
REMARK H PARENT 23 6 11 22 28 34 87 53 55 64
REMARK Flexibility Score: inf
ROOT
ATOM      1  C   UNL A   1      47.079  26.168  31.712  1.00  0.00     0.023 C 
ENDROOT
BRANCH   1   2
ATOM      2  C   UNL A   1      47.429  26.158  30.229  1.00  0.00     0.116 C 
BRANCH   2   3
ATOM      3  N   UNL A   1      46.471  25.497  29.356  1.00  0.00    -0.352 N 
ATOM      4  C   UNL A   1      45.926  25.903  28.152  1.00  0.00     0.253 C 
ATOM      5  O   UNL A   1      45.140  25.147  27.581  1.00  0.00    -0.269 OA
ATOM      6  H   UNL A   1      46.161  24.620  29.674  1.00  0.00     0.163 HD
BRANCH   4   7
ATOM      7  C   UNL A   1      46.187  27.253  27.557  1.00  0.00     0.065 A 
ATOM      8  C   UNL A   1      46.016  29.671  27.829  1.00  0.00     0.038 A 
ATOM      9  C   UNL A   1      46.253  29.802  26.463  1.00  0.00     0.028 A 
ATOM     10  C   UNL A   1      46.116  28.394  28.372  1.00  0.00     0.042 A 
ATOM     11  C   UNL A   1      46.513  28.690  25.654  1.00  0.00     0.029 A 
ATOM     12  C   UNL A   1      46.423  27.396  26.165  1.00  0.00     0.054 A 
BRANCH   8  13
ATOM     13  N   UNL A   1      45.625  30.765  28.578  1.00  0.00    -0.371 N 
ATOM     14  C   UNL A   1      44.263  34.010  27.085  1.00  0.00     0.009 C 
ATOM     15  C   UNL A   1      44.237  32.590  27.652  1.00  0.00     0.005 C 
ATOM     16  C   UNL A   1      43.386  32.537  28.928  1.00  0.00     0.007 C 
ATOM     17  C   UNL A   1      45.665  32.085  27.933  1.00  0.00     0.119 C 
ATOM     18  C   UNL A   1      43.376  31.124  29.509  1.00  0.00     0.022 C 
ATOM     19  C   UNL A   1      44.797  30.629  29.772  1.00  0.00     0.116 C 
ENDBRANCH   8  13
BRANCH  12  20
ATOM     20  N   UNL A   1      46.536  26.238  25.359  1.00  0.00    -0.325 N 
ATOM     21  C   UNL A   1      47.557  25.578  24.738  1.00  0.00     0.229 C 
ATOM     22  H   UNL A   1      45.666  25.802  25.210  1.00  0.00     0.169 HD
ATOM     23  O   UNL A   1      47.267  24.545  24.119  1.00  0.00    -0.274 OA
BRANCH  21  24
ATOM     24  C   UNL A   1      49.004  26.022  24.771  1.00  0.00     0.147 C 
BRANCH  24  25
ATOM     25  C   UNL A   1      49.437  26.839  23.581  1.00  0.00     0.014 A 
ATOM     26  C   UNL A   1      48.823  27.077  22.365  1.00  0.00     0.016 A 
ATOM     27  S   UNL A   1      50.939  27.678  23.677  1.00  0.00    -0.148 S 
ATOM     28  C   UNL A   1      49.556  27.978  21.541  1.00  0.00     0.012 A 
ATOM     29  C   UNL A   1      50.740  28.363  22.126  1.00  0.00     0.065 A 
ENDBRANCH  24  25
ENDBRANCH  21  24
ENDBRANCH  12  20
ENDBRANCH   4   7
ENDBRANCH   2   3
ENDBRANCH   1   2
BRANCH   1  30
ATOM     30  C   UNL A   1      48.054  25.473  32.658  1.00  0.00     0.023 C 
BRANCH  30  31
ATOM     31  C   UNL A   1      48.774  26.357  33.671  1.00  0.00     0.116 C 
BRANCH  31  32
ATOM     32  N   UNL A   1      48.602  25.937  35.055  1.00  0.00    -0.352 N 
ATOM     33  C   UNL A   1      47.527  26.089  35.906  1.00  0.00     0.251 C 
ATOM     34  H   UNL A   1      49.377  25.473  35.446  1.00  0.00     0.163 HD
ATOM     35  O   UNL A   1      47.621  25.713  37.068  1.00  0.00    -0.269 OA
BRANCH  33  36
ATOM     36  C   UNL A   1      46.290  26.753  35.434  1.00  0.00     0.039 A 
ATOM     37  C   UNL A   1      46.350  28.098  35.058  1.00  0.00     0.014 A 
ATOM     38  C   UNL A   1      45.092  26.049  35.315  1.00  0.00     0.014 A 
ATOM     39  C   UNL A   1      45.244  28.699  34.449  1.00  0.00     0.010 A 
ATOM     40  C   UNL A   1      44.018  26.623  34.636  1.00  0.00     0.010 A 
ATOM     41  C   UNL A   1      44.093  27.946  34.171  1.00  0.00    -0.014 A 
BRANCH  41  42
ATOM     42  C   UNL A   1      42.972  28.497  33.359  1.00  0.00     0.031 A 
ATOM     43  C   UNL A   1      41.934  29.374  34.001  1.00  0.00     0.074 A 
ATOM     44  C   UNL A   1      42.836  28.121  32.071  1.00  0.00     0.049 A 
ATOM     45  N   UNL A   1      40.811  29.828  33.505  1.00  0.00    -0.248 NA
ATOM     46  C   UNL A   1      42.178  29.763  35.397  1.00  0.00     0.031 C 
ATOM     47  C   UNL A   1      43.754  27.242  31.343  1.00  0.00     0.029 A 
ATOM     48  N   UNL A   1      41.861  28.414  31.148  1.00  0.00    -0.354 N 
ATOM     49  C   UNL A   1      40.203  30.541  34.533  1.00  0.00     0.074 A 
ATOM     50  C   UNL A   1      41.059  30.407  35.694  1.00  0.00     0.031 C 
ATOM     51  C   UNL A   1      43.310  27.083  30.086  1.00  0.00     0.029 A 
ATOM     52  C   UNL A   1      42.050  27.802  29.930  1.00  0.00     0.049 A 
ATOM     53  H   UNL A   1      41.099  29.007  31.341  1.00  0.00     0.167 HD
ATOM     54  C   UNL A   1      39.052  31.257  34.505  1.00  0.00     0.034 A 
ATOM     55  C   UNL A   1      41.285  27.799  28.820  1.00  0.00     0.034 A 
ATOM     56  C   UNL A   1      38.216  31.392  33.336  1.00  0.00     0.049 A 
ATOM     57  C   UNL A   1      39.991  28.574  28.822  1.00  0.00     0.074 A 
ATOM     58  C   UNL A   1      37.060  32.138  33.183  1.00  0.00     0.029 A 
ATOM     59  N   UNL A   1      38.442  30.759  32.121  1.00  0.00    -0.354 N 
ATOM     60  N   UNL A   1      39.451  29.275  29.791  1.00  0.00    -0.248 NA
ATOM     61  C   UNL A   1      39.207  28.556  27.581  1.00  0.00     0.031 C 
ATOM     62  C   UNL A   1      36.555  31.909  31.898  1.00  0.00     0.029 A 
ATOM     63  C   UNL A   1      37.431  31.073  31.224  1.00  0.00     0.049 A 
ATOM     64  H   UNL A   1      39.206  30.171  31.924  1.00  0.00     0.167 HD
ATOM     65  C   UNL A   1      38.278  29.806  29.265  1.00  0.00     0.074 A 
ATOM     66  C   UNL A   1      38.194  29.352  27.892  1.00  0.00     0.031 C 
ATOM     67  C   UNL A   1      37.355  30.603  29.861  1.00  0.00     0.034 A 
BRANCH  54  68
ATOM     68  C   UNL A   1      38.625  31.926  35.790  1.00  0.00     0.023 A 
ATOM     69  C   UNL A   1      38.066  31.193  36.852  1.00  0.00     0.031 A 
ATOM     70  C   UNL A   1      38.740  33.319  35.943  1.00  0.00     0.131 A 
ATOM     71  C   UNL A   1      37.563  31.861  37.978  1.00  0.00     0.055 A 
ATOM     72  C   UNL A   1      38.316  33.970  37.104  1.00  0.00     0.041 A 
ATOM     73  F   UNL A   1      39.250  34.076  34.959  1.00  0.00    -0.206 F 
ATOM     74  C   UNL A   1      37.706  33.242  38.122  1.00  0.00     0.022 A 
BRANCH  71  75
ATOM     75  S   UNL A   1      36.580  30.916  39.174  1.00  0.00     0.124 S 
ATOM     76  O   UNL A   1      35.424  31.790  39.361  1.00  0.00    -0.237 OA
ATOM     77  O   UNL A   1      36.330  29.669  38.461  1.00  0.00    -0.237 OA
ATOM     78  O   UNL A   1      37.464  30.808  40.333  1.00  0.00    -0.744 OA
ENDBRANCH  71  75
ENDBRANCH  54  68
BRANCH  55  79
ATOM     79  C   UNL A   1      41.704  27.028  27.615  1.00  0.00     0.023 A 
ATOM     80  C   UNL A   1      41.490  25.643  27.537  1.00  0.00     0.031 A 
ATOM     81  C   UNL A   1      42.358  27.657  26.541  1.00  0.00     0.131 A 
ATOM     82  C   UNL A   1      41.964  24.923  26.429  1.00  0.00     0.055 A 
ATOM     83  C   UNL A   1      42.784  26.944  25.418  1.00  0.00     0.041 A 
ATOM     84  F   UNL A   1      42.580  28.981  26.563  1.00  0.00    -0.206 F 
ATOM     85  C   UNL A   1      42.598  25.567  25.364  1.00  0.00     0.022 A 
BRANCH  82  86
ATOM     86  S   UNL A   1      41.800  23.117  26.433  1.00  0.00     0.124 S 
ATOM     87  O   UNL A   1      40.358  22.949  26.568  1.00  0.00    -0.237 OA
ATOM     88  O   UNL A   1      42.370  22.759  25.138  1.00  0.00    -0.237 OA
ATOM     89  O   UNL A   1      42.588  22.707  27.592  1.00  0.00    -0.744 OA
ENDBRANCH  82  86
ENDBRANCH  55  79
BRANCH  67  90
ATOM     90  C   UNL A   1      36.200  31.068  29.009  1.00  0.00     0.023 A 
ATOM     91  C   UNL A   1      35.259  30.167  28.481  1.00  0.00     0.031 A 
ATOM     92  C   UNL A   1      36.046  32.436  28.718  1.00  0.00     0.131 A 
ATOM     93  C   UNL A   1      34.231  30.639  27.651  1.00  0.00     0.055 A 
ATOM     94  C   UNL A   1      34.990  32.905  27.936  1.00  0.00     0.041 A 
ATOM     95  F   UNL A   1      36.918  33.338  29.196  1.00  0.00    -0.206 F 
ATOM     96  C   UNL A   1      34.082  32.004  27.389  1.00  0.00     0.022 A 
BRANCH  93  97
ATOM     97  S   UNL A   1      33.128  29.438  26.858  1.00  0.00     0.124 S 
ATOM     98  O   UNL A   1      33.163  29.867  25.464  1.00  0.00    -0.237 OA
ATOM     99  O   UNL A   1      33.784  28.168  27.152  1.00  0.00    -0.237 OA
ATOM    100  O   UNL A   1      31.850  29.644  27.539  1.00  0.00    -0.744 OA
ENDBRANCH  93  97
ENDBRANCH  67  90
ENDBRANCH  41  42
ENDBRANCH  33  36
ENDBRANCH  31  32
ENDBRANCH  30  31
ENDBRANCH   1  30
TORSDOF 18
ENDMDL
