MODEL 1
REMARK VINA RESULT:     -12.3      0.000      0.000
REMARK SMILES O=C(NCCCCNC(=O)[C@H]1Sc2[nH]c(=O)sc2[C@H]2c3cc(Br)cc(Br)c3OC(=O)[C@H]21)c1ccc(-c2c3nc(c(-c4cc(S(=O)(=O)[O-])ccc4F)c4ccc([nH]4)c(-c4cc(S(=O)(=O)[O-])ccc4F)c4nc(c(-c5cc(S(=O)(=O)[O-])ccc5F)c5ccc2[nH]5)C=C4)C=C3)cc1
REMARK SMILES IDX 4 1 3 2 1 3 2 4 32 6 33 7 94 8 34 9 93 10 35 11 36 12 37 13
REMARK SMILES IDX 87 14 38 15 92 16 86 17 88 18 39 19 91 20 85 21 84 22 40 24
REMARK SMILES IDX 72 25 52 26 71 27 53 28 56 29 70 30 89 31 54 32 55 33 69 35
REMARK SMILES IDX 90 36 57 37 41 38 42 39 50 40 43 41 49 42 51 43 48 44 44 45
REMARK SMILES IDX 45 46 46 47 47 48 73 49 74 50 82 51 75 52 81 53 83 54 80 55
REMARK SMILES IDX 76 56 77 57 78 58 79 59 58 60 59 61 67 62 60 63 66 64 68 65
REMARK SMILES IDX 65 66 61 67 62 68 63 69 64 70 5 71 6 72 7 73 8 74 9 75 10 77
REMARK SMILES IDX 11 78 12 79 31 80 13 81 19 82 29 83 14 84 18 85 20 86 28 87
REMARK SMILES IDX 30 88 15 89 17 91 21 92 27 93 16 94 22 95 25 96 23 97 24 98
REMARK SMILES IDX 26 99
REMARK H PARENT 3 5 88 23 56 34 8 76 14 90
REMARK Flexibility Score: inf
ROOT
ATOM      1  C   UNL A   1      36.390  30.645  30.969  1.00  0.00     0.116 C 
ENDROOT
BRANCH   1   2
ATOM      2  N   UNL A   1      35.887  30.347  29.644  1.00  0.00    -0.352 N 
ATOM      3  O   UNL A   1      35.502  29.255  27.762  1.00  0.00    -0.269 OA
ATOM      4  C   UNL A   1      36.343  29.572  28.608  1.00  0.00     0.251 C 
ATOM      5  H   UNL A   1      35.034  30.799  29.442  1.00  0.00     0.163 HD
BRANCH   4   6
ATOM      6  C   UNL A   1      37.755  29.147  28.406  1.00  0.00     0.039 A 
ATOM      7  C   UNL A   1      38.660  29.727  27.521  1.00  0.00     0.014 A 
ATOM      8  C   UNL A   1      38.188  28.049  29.180  1.00  0.00     0.014 A 
ATOM      9  C   UNL A   1      39.941  29.195  27.377  1.00  0.00     0.010 A 
ATOM     10  C   UNL A   1      39.473  27.520  29.049  1.00  0.00     0.010 A 
ATOM     11  C   UNL A   1      40.351  28.088  28.133  1.00  0.00    -0.014 A 
BRANCH  11  12
ATOM     12  C   UNL A   1      41.771  27.731  28.098  1.00  0.00     0.031 A 
ATOM     13  C   UNL A   1      42.050  26.502  27.307  1.00  0.00     0.074 A 
ATOM     14  C   UNL A   1      42.807  28.416  28.624  1.00  0.00     0.049 A 
ATOM     15  N   UNL A   1      42.353  25.332  27.765  1.00  0.00    -0.248 NA
ATOM     16  C   UNL A   1      41.824  26.536  25.857  1.00  0.00     0.031 C 
ATOM     17  C   UNL A   1      42.812  29.740  29.240  1.00  0.00     0.029 A 
ATOM     18  N   UNL A   1      44.127  28.053  28.665  1.00  0.00    -0.354 N 
ATOM     19  C   UNL A   1      42.573  24.525  26.655  1.00  0.00     0.074 A 
ATOM     20  C   UNL A   1      42.077  25.267  25.525  1.00  0.00     0.031 C 
ATOM     21  C   UNL A   1      44.092  30.145  29.432  1.00  0.00     0.029 A 
ATOM     22  C   UNL A   1      44.994  29.057  29.086  1.00  0.00     0.049 A 
ATOM     23  H   UNL A   1      44.438  27.152  28.416  1.00  0.00     0.167 HD
ATOM     24  C   UNL A   1      43.336  23.401  26.744  1.00  0.00     0.034 A 
ATOM     25  C   UNL A   1      46.353  28.990  29.166  1.00  0.00     0.034 A 
ATOM     26  C   UNL A   1      43.478  22.974  28.118  1.00  0.00     0.049 A 
ATOM     27  C   UNL A   1      46.688  27.561  29.369  1.00  0.00     0.074 A 
ATOM     28  C   UNL A   1      42.598  22.609  29.122  1.00  0.00     0.029 A 
ATOM     29  N   UNL A   1      44.668  23.233  28.760  1.00  0.00    -0.354 N 
ATOM     30  N   UNL A   1      46.343  26.888  30.433  1.00  0.00    -0.248 NA
ATOM     31  C   UNL A   1      47.039  26.759  28.210  1.00  0.00     0.031 C 
ATOM     32  C   UNL A   1      43.148  23.168  30.314  1.00  0.00     0.029 A 
ATOM     33  C   UNL A   1      44.356  23.782  29.978  1.00  0.00     0.049 A 
ATOM     34  H   UNL A   1      45.572  23.058  28.410  1.00  0.00     0.167 HD
ATOM     35  C   UNL A   1      46.020  25.626  29.964  1.00  0.00     0.074 A 
ATOM     36  C   UNL A   1      46.566  25.576  28.609  1.00  0.00     0.031 C 
ATOM     37  C   UNL A   1      45.117  24.839  30.615  1.00  0.00     0.034 A 
BRANCH  24  38
ATOM     38  C   UNL A   1      44.256  22.895  25.653  1.00  0.00     0.023 A 
ATOM     39  C   UNL A   1      44.319  21.501  25.455  1.00  0.00     0.031 A 
ATOM     40  C   UNL A   1      45.274  23.648  25.025  1.00  0.00     0.131 A 
ATOM     41  C   UNL A   1      45.403  20.912  24.781  1.00  0.00     0.055 A 
ATOM     42  C   UNL A   1      46.316  23.062  24.299  1.00  0.00     0.041 A 
ATOM     43  F   UNL A   1      45.375  24.975  25.148  1.00  0.00    -0.206 F 
ATOM     44  C   UNL A   1      46.406  21.684  24.204  1.00  0.00     0.022 A 
BRANCH  41  45
ATOM     45  S   UNL A   1      45.564  19.110  24.826  1.00  0.00     0.124 S 
ATOM     46  O   UNL A   1      44.402  18.733  25.624  1.00  0.00    -0.237 OA
ATOM     47  O   UNL A   1      45.509  18.766  23.409  1.00  0.00    -0.237 OA
ATOM     48  O   UNL A   1      46.860  18.901  25.468  1.00  0.00    -0.744 OA
ENDBRANCH  41  45
ENDBRANCH  24  38
BRANCH  25  49
ATOM     49  C   UNL A   1      47.370  30.019  28.794  1.00  0.00     0.023 A 
ATOM     50  C   UNL A   1      47.126  31.002  27.804  1.00  0.00     0.031 A 
ATOM     51  C   UNL A   1      48.502  30.223  29.612  1.00  0.00     0.131 A 
ATOM     52  C   UNL A   1      47.978  32.127  27.679  1.00  0.00     0.055 A 
ATOM     53  C   UNL A   1      49.339  31.337  29.484  1.00  0.00     0.041 A 
ATOM     54  F   UNL A   1      48.786  29.394  30.627  1.00  0.00    -0.206 F 
ATOM     55  C   UNL A   1      49.073  32.301  28.526  1.00  0.00     0.022 A 
BRANCH  52  56
ATOM     56  S   UNL A   1      47.602  33.460  26.491  1.00  0.00     0.124 S 
ATOM     57  O   UNL A   1      46.355  32.995  25.894  1.00  0.00    -0.237 OA
ATOM     58  O   UNL A   1      47.511  34.637  27.345  1.00  0.00    -0.237 OA
ATOM     59  O   UNL A   1      48.757  33.446  25.591  1.00  0.00    -0.744 OA
ENDBRANCH  52  56
ENDBRANCH  25  49
BRANCH  37  60
ATOM     60  C   UNL A   1      44.706  25.211  32.022  1.00  0.00     0.023 A 
ATOM     61  C   UNL A   1      43.960  26.361  32.365  1.00  0.00     0.031 A 
ATOM     62  C   UNL A   1      44.950  24.260  33.027  1.00  0.00     0.131 A 
ATOM     63  C   UNL A   1      43.483  26.518  33.684  1.00  0.00     0.055 A 
ATOM     64  C   UNL A   1      44.463  24.412  34.324  1.00  0.00     0.041 A 
ATOM     65  F   UNL A   1      45.625  23.133  32.747  1.00  0.00    -0.206 F 
ATOM     66  C   UNL A   1      43.726  25.542  34.657  1.00  0.00     0.022 A 
BRANCH  63  67
ATOM     67  S   UNL A   1      42.484  27.974  34.142  1.00  0.00     0.124 S 
ATOM     68  O   UNL A   1      43.285  28.612  35.181  1.00  0.00    -0.237 OA
ATOM     69  O   UNL A   1      42.369  28.701  32.882  1.00  0.00    -0.237 OA
ATOM     70  O   UNL A   1      41.227  27.391  34.616  1.00  0.00    -0.744 OA
ENDBRANCH  63  67
ENDBRANCH  37  60
ENDBRANCH  11  12
ENDBRANCH   4   6
ENDBRANCH   1   2
BRANCH   1  71
ATOM     71  C   UNL A   1      36.784  29.430  31.809  1.00  0.00     0.023 C 
BRANCH  71  72
ATOM     72  C   UNL A   1      38.121  29.539  32.539  1.00  0.00     0.023 C 
BRANCH  72  73
ATOM     73  C   UNL A   1      38.218  30.656  33.567  1.00  0.00     0.116 C 
BRANCH  73  74
ATOM     74  N   UNL A   1      37.814  30.290  34.901  1.00  0.00    -0.355 N 
ATOM     75  C   UNL A   1      38.242  30.766  36.103  1.00  0.00     0.234 C 
ATOM     76  H   UNL A   1      37.124  29.590  34.952  1.00  0.00     0.163 HD
ATOM     77  O   UNL A   1      37.738  30.275  37.118  1.00  0.00    -0.274 OA
BRANCH  75  78
ATOM     78  C   UNL A   1      39.353  31.827  36.224  1.00  0.00     0.157 C 
ATOM     79  S   UNL A   1      40.940  31.026  35.791  1.00  0.00    -0.093 SA
ATOM     80  C   UNL A   1      39.097  33.287  35.784  1.00  0.00     0.135 C 
ATOM     81  C   UNL A   1      41.570  32.031  34.586  1.00  0.00     0.091 A 
ATOM     82  C   UNL A   1      39.763  33.836  34.496  1.00  0.00     0.082 C 
ATOM     83  C   UNL A   1      37.626  33.655  35.909  1.00  0.00     0.317 C 
ATOM     84  N   UNL A   1      42.703  31.627  33.947  1.00  0.00    -0.307 N 
ATOM     85  C   UNL A   1      41.071  33.187  34.138  1.00  0.00     0.049 A 
ATOM     86  C   UNL A   1      38.741  33.927  33.372  1.00  0.00     0.007 A 
ATOM     87  O   UNL A   1      37.173  34.636  35.052  1.00  0.00    -0.425 OA
ATOM     88  O   UNL A   1      36.913  33.247  36.818  1.00  0.00    -0.251 OA
ATOM     89  C   UNL A   1      43.194  32.462  32.988  1.00  0.00     0.305 A 
ATOM     90  H   UNL A   1      43.145  30.775  34.167  1.00  0.00     0.171 HD
ATOM     91  S   UNL A   1      42.204  33.923  33.003  1.00  0.00    -0.078 S 
ATOM     92  C   UNL A   1      38.978  33.632  32.021  1.00  0.00     0.024 A 
ATOM     93  C   UNL A   1      37.465  34.378  33.714  1.00  0.00     0.148 A 
ATOM     94  O   UNL A   1      44.144  32.271  32.238  1.00  0.00    -0.257 OA
ATOM     95  C   UNL A   1      37.979  33.811  31.060  1.00  0.00     0.019 A 
ATOM     96  C   UNL A   1      36.464  34.569  32.753  1.00  0.00     0.062 A 
ATOM     97  Br  UNL A   1      38.370  33.422  29.253  1.00  0.00    -0.051 Br
ATOM     98  C   UNL A   1      36.720  34.277  31.416  1.00  0.00     0.035 A 
ATOM     99  Br  UNL A   1      34.745  35.206  33.230  1.00  0.00    -0.047 Br
ENDBRANCH  75  78
ENDBRANCH  73  74
ENDBRANCH  72  73
ENDBRANCH  71  72
ENDBRANCH   1  71
TORSDOF 14
ENDMDL
MODEL 2
REMARK VINA RESULT:     -12.3      8.325     14.272
REMARK SMILES O=C(NCCCCNC(=O)[C@H]1Sc2[nH]c(=O)sc2[C@H]2c3cc(Br)cc(Br)c3OC(=O)[C@H]21)c1ccc(-c2c3nc(c(-c4cc(S(=O)(=O)[O-])ccc4F)c4ccc([nH]4)c(-c4cc(S(=O)(=O)[O-])ccc4F)c4nc(c(-c5cc(S(=O)(=O)[O-])ccc5F)c5ccc2[nH]5)C=C4)C=C3)cc1
REMARK SMILES IDX 4 1 3 2 1 3 2 4 32 6 33 7 94 8 34 9 93 10 35 11 36 12 37 13
REMARK SMILES IDX 87 14 38 15 92 16 86 17 88 18 39 19 91 20 85 21 84 22 40 24
REMARK SMILES IDX 72 25 52 26 71 27 53 28 56 29 70 30 89 31 54 32 55 33 69 35
REMARK SMILES IDX 90 36 57 37 41 38 42 39 50 40 43 41 49 42 51 43 48 44 44 45
REMARK SMILES IDX 45 46 46 47 47 48 73 49 74 50 82 51 75 52 81 53 83 54 80 55
REMARK SMILES IDX 76 56 77 57 78 58 79 59 58 60 59 61 67 62 60 63 66 64 68 65
REMARK SMILES IDX 65 66 61 67 62 68 63 69 64 70 5 71 6 72 7 73 8 74 9 75 10 77
REMARK SMILES IDX 11 78 12 79 31 80 13 81 19 82 29 83 14 84 18 85 20 86 28 87
REMARK SMILES IDX 30 88 15 89 17 91 21 92 27 93 16 94 22 95 25 96 23 97 24 98
REMARK SMILES IDX 26 99
REMARK H PARENT 3 5 88 23 56 34 8 76 14 90
REMARK Flexibility Score: inf
ROOT
ATOM      1  C   UNL A   1      45.424  38.489  27.358  1.00  0.00     0.116 C 
ENDROOT
BRANCH   1   2
ATOM      2  N   UNL A   1      45.821  37.156  26.956  1.00  0.00    -0.352 N 
ATOM      3  O   UNL A   1      45.673  35.051  26.300  1.00  0.00    -0.269 OA
ATOM      4  C   UNL A   1      45.233  35.921  27.057  1.00  0.00     0.251 C 
ATOM      5  H   UNL A   1      46.702  37.130  26.516  1.00  0.00     0.163 HD
BRANCH   4   6
ATOM      6  C   UNL A   1      44.171  35.548  28.033  1.00  0.00     0.039 A 
ATOM      7  C   UNL A   1      43.289  36.430  28.651  1.00  0.00     0.014 A 
ATOM      8  C   UNL A   1      44.078  34.176  28.351  1.00  0.00     0.014 A 
ATOM      9  C   UNL A   1      42.378  35.963  29.598  1.00  0.00     0.010 A 
ATOM     10  C   UNL A   1      43.159  33.702  29.289  1.00  0.00     0.010 A 
ATOM     11  C   UNL A   1      42.312  34.601  29.926  1.00  0.00    -0.014 A 
BRANCH  11  12
ATOM     12  C   UNL A   1      41.186  34.155  30.748  1.00  0.00     0.031 A 
ATOM     13  C   UNL A   1      41.526  34.026  32.192  1.00  0.00     0.074 A 
ATOM     14  C   UNL A   1      39.915  33.934  30.356  1.00  0.00     0.049 A 
ATOM     15  N   UNL A   1      41.706  32.932  32.855  1.00  0.00    -0.248 NA
ATOM     16  C   UNL A   1      41.847  35.243  32.948  1.00  0.00     0.031 C 
ATOM     17  C   UNL A   1      39.295  34.203  29.061  1.00  0.00     0.029 A 
ATOM     18  N   UNL A   1      38.874  33.442  31.100  1.00  0.00    -0.354 N 
ATOM     19  C   UNL A   1      41.949  33.310  34.170  1.00  0.00     0.074 A 
ATOM     20  C   UNL A   1      42.185  34.731  34.133  1.00  0.00     0.031 C 
ATOM     21  C   UNL A   1      37.952  34.040  29.161  1.00  0.00     0.029 A 
ATOM     22  C   UNL A   1      37.630  33.519  30.481  1.00  0.00     0.049 A 
ATOM     23  H   UNL A   1      38.997  33.064  32.001  1.00  0.00     0.167 HD
ATOM     24  C   UNL A   1      41.728  32.449  35.202  1.00  0.00     0.034 A 
ATOM     25  C   UNL A   1      36.426  33.160  31.008  1.00  0.00     0.034 A 
ATOM     26  C   UNL A   1      41.656  31.082  34.734  1.00  0.00     0.049 A 
ATOM     27  C   UNL A   1      36.709  32.114  32.018  1.00  0.00     0.074 A 
ATOM     28  C   UNL A   1      42.513  30.240  34.047  1.00  0.00     0.029 A 
ATOM     29  N   UNL A   1      40.415  30.495  34.631  1.00  0.00    -0.354 N 
ATOM     30  N   UNL A   1      37.208  30.946  31.719  1.00  0.00    -0.248 NA
ATOM     31  C   UNL A   1      36.837  32.510  33.410  1.00  0.00     0.031 C 
ATOM     32  C   UNL A   1      41.673  29.508  33.156  1.00  0.00     0.029 A 
ATOM     33  C   UNL A   1      40.355  29.899  33.396  1.00  0.00     0.049 A 
ATOM     34  H   UNL A   1      39.706  30.502  35.314  1.00  0.00     0.167 HD
ATOM     35  C   UNL A   1      38.076  30.655  32.759  1.00  0.00     0.074 A 
ATOM     36  C   UNL A   1      37.727  31.602  33.817  1.00  0.00     0.031 C 
ATOM     37  C   UNL A   1      39.164  29.855  32.570  1.00  0.00     0.034 A 
BRANCH  24  38
ATOM     38  C   UNL A   1      41.211  32.853  36.566  1.00  0.00     0.023 A 
ATOM     39  C   UNL A   1      39.922  32.408  36.926  1.00  0.00     0.031 A 
ATOM     40  C   UNL A   1      41.756  33.869  37.382  1.00  0.00     0.131 A 
ATOM     41  C   UNL A   1      39.198  33.038  37.953  1.00  0.00     0.055 A 
ATOM     42  C   UNL A   1      41.058  34.448  38.446  1.00  0.00     0.041 A 
ATOM     43  F   UNL A   1      42.951  34.422  37.149  1.00  0.00    -0.206 F 
ATOM     44  C   UNL A   1      39.756  34.060  38.714  1.00  0.00     0.022 A 
BRANCH  41  45
ATOM     45  S   UNL A   1      37.451  32.612  38.157  1.00  0.00     0.124 S 
ATOM     46  O   UNL A   1      37.203  33.046  39.528  1.00  0.00    -0.237 OA
ATOM     47  O   UNL A   1      36.822  33.407  37.107  1.00  0.00    -0.237 OA
ATOM     48  O   UNL A   1      37.427  31.167  37.943  1.00  0.00    -0.744 OA
ENDBRANCH  41  45
ENDBRANCH  24  38
BRANCH  25  49
ATOM     49  C   UNL A   1      35.107  33.855  30.904  1.00  0.00     0.023 A 
ATOM     50  C   UNL A   1      34.677  34.809  31.858  1.00  0.00     0.031 A 
ATOM     51  C   UNL A   1      34.368  33.793  29.704  1.00  0.00     0.131 A 
ATOM     52  C   UNL A   1      33.573  35.653  31.585  1.00  0.00     0.055 A 
ATOM     53  C   UNL A   1      33.279  34.631  29.440  1.00  0.00     0.041 A 
ATOM     54  F   UNL A   1      34.731  32.977  28.703  1.00  0.00    -0.206 F 
ATOM     55  C   UNL A   1      32.885  35.574  30.374  1.00  0.00     0.022 A 
BRANCH  52  56
ATOM     56  S   UNL A   1      33.088  36.968  32.754  1.00  0.00     0.124 S 
ATOM     57  O   UNL A   1      34.098  36.837  33.798  1.00  0.00    -0.237 OA
ATOM     58  O   UNL A   1      33.156  38.171  31.934  1.00  0.00    -0.237 OA
ATOM     59  O   UNL A   1      31.734  36.581  33.156  1.00  0.00    -0.744 OA
ENDBRANCH  52  56
ENDBRANCH  25  49
BRANCH  37  60
ATOM     60  C   UNL A   1      39.250  29.027  31.308  1.00  0.00     0.023 A 
ATOM     61  C   UNL A   1      40.007  29.374  30.167  1.00  0.00     0.031 A 
ATOM     62  C   UNL A   1      38.662  27.751  31.346  1.00  0.00     0.131 A 
ATOM     63  C   UNL A   1      40.154  28.445  29.115  1.00  0.00     0.055 A 
ATOM     64  C   UNL A   1      38.824  26.830  30.312  1.00  0.00     0.041 A 
ATOM     65  F   UNL A   1      37.960  27.357  32.421  1.00  0.00    -0.206 F 
ATOM     66  C   UNL A   1      39.573  27.174  29.193  1.00  0.00     0.022 A 
BRANCH  63  67
ATOM     67  S   UNL A   1      41.159  28.854  27.649  1.00  0.00     0.124 S 
ATOM     68  O   UNL A   1      42.045  29.905  28.136  1.00  0.00    -0.237 OA
ATOM     69  O   UNL A   1      41.792  27.580  27.320  1.00  0.00    -0.237 OA
ATOM     70  O   UNL A   1      40.167  29.302  26.668  1.00  0.00    -0.744 OA
ENDBRANCH  63  67
ENDBRANCH  37  60
ENDBRANCH  11  12
ENDBRANCH   4   6
ENDBRANCH   1   2
BRANCH   1  71
ATOM     71  C   UNL A   1      44.264  39.095  26.568  1.00  0.00     0.023 C 
BRANCH  71  72
ATOM     72  C   UNL A   1      44.355  40.598  26.311  1.00  0.00     0.023 C 
BRANCH  72  73
ATOM     73  C   UNL A   1      43.203  41.199  25.521  1.00  0.00     0.116 C 
BRANCH  73  74
ATOM     74  N   UNL A   1      43.304  42.617  25.284  1.00  0.00    -0.355 N 
ATOM     75  C   UNL A   1      43.445  43.297  24.112  1.00  0.00     0.234 C 
ATOM     76  H   UNL A   1      43.264  43.180  26.089  1.00  0.00     0.163 HD
ATOM     77  O   UNL A   1      43.517  44.528  24.178  1.00  0.00    -0.274 OA
BRANCH  75  78
ATOM     78  C   UNL A   1      43.577  42.583  22.753  1.00  0.00     0.157 C 
ATOM     79  S   UNL A   1      41.952  42.666  21.917  1.00  0.00    -0.093 SA
ATOM     80  C   UNL A   1      44.868  42.724  21.913  1.00  0.00     0.135 C 
ATOM     81  C   UNL A   1      42.320  43.336  20.410  1.00  0.00     0.091 A 
ATOM     82  C   UNL A   1      44.858  43.566  20.612  1.00  0.00     0.082 C 
ATOM     83  C   UNL A   1      46.079  42.989  22.796  1.00  0.00     0.317 C 
ATOM     84  N   UNL A   1      41.285  43.659  19.585  1.00  0.00    -0.307 N 
ATOM     85  C   UNL A   1      43.526  43.634  19.917  1.00  0.00     0.049 A 
ATOM     86  C   UNL A   1      45.550  44.901  20.843  1.00  0.00     0.007 A 
ATOM     87  O   UNL A   1      47.113  43.688  22.210  1.00  0.00    -0.425 OA
ATOM     88  O   UNL A   1      46.223  42.477  23.899  1.00  0.00    -0.251 OA
ATOM     89  C   UNL A   1      41.612  44.188  18.372  1.00  0.00     0.305 A 
ATOM     90  H   UNL A   1      40.347  43.518  19.852  1.00  0.00     0.171 HD
ATOM     91  S   UNL A   1      43.371  44.143  18.234  1.00  0.00    -0.078 S 
ATOM     92  C   UNL A   1      45.150  46.137  20.312  1.00  0.00     0.024 A 
ATOM     93  C   UNL A   1      46.707  44.885  21.623  1.00  0.00     0.148 A 
ATOM     94  O   UNL A   1      40.856  44.620  17.511  1.00  0.00    -0.257 OA
ATOM     95  C   UNL A   1      45.899  47.294  20.539  1.00  0.00     0.019 A 
ATOM     96  C   UNL A   1      47.467  46.041  21.845  1.00  0.00     0.062 A 
ATOM     97  Br  UNL A   1      45.322  48.922  19.773  1.00  0.00    -0.051 Br
ATOM     98  C   UNL A   1      47.057  47.257  21.305  1.00  0.00     0.035 A 
ATOM     99  Br  UNL A   1      49.049  45.998  22.888  1.00  0.00    -0.047 Br
ENDBRANCH  75  78
ENDBRANCH  73  74
ENDBRANCH  72  73
ENDBRANCH  71  72
ENDBRANCH   1  71
TORSDOF 14
ENDMDL
MODEL 3
REMARK VINA RESULT:     -12.2      7.750     13.038
REMARK SMILES O=C(NCCCCNC(=O)[C@H]1Sc2[nH]c(=O)sc2[C@H]2c3cc(Br)cc(Br)c3OC(=O)[C@H]21)c1ccc(-c2c3nc(c(-c4cc(S(=O)(=O)[O-])ccc4F)c4ccc([nH]4)c(-c4cc(S(=O)(=O)[O-])ccc4F)c4nc(c(-c5cc(S(=O)(=O)[O-])ccc5F)c5ccc2[nH]5)C=C4)C=C3)cc1
REMARK SMILES IDX 4 1 3 2 1 3 2 4 32 6 33 7 94 8 34 9 93 10 35 11 36 12 37 13
REMARK SMILES IDX 87 14 38 15 92 16 86 17 88 18 39 19 91 20 85 21 84 22 40 24
REMARK SMILES IDX 72 25 52 26 71 27 53 28 56 29 70 30 89 31 54 32 55 33 69 35
REMARK SMILES IDX 90 36 57 37 41 38 42 39 50 40 43 41 49 42 51 43 48 44 44 45
REMARK SMILES IDX 45 46 46 47 47 48 73 49 74 50 82 51 75 52 81 53 83 54 80 55
REMARK SMILES IDX 76 56 77 57 78 58 79 59 58 60 59 61 67 62 60 63 66 64 68 65
REMARK SMILES IDX 65 66 61 67 62 68 63 69 64 70 5 71 6 72 7 73 8 74 9 75 10 77
REMARK SMILES IDX 11 78 12 79 31 80 13 81 19 82 29 83 14 84 18 85 20 86 28 87
REMARK SMILES IDX 30 88 15 89 17 91 21 92 27 93 16 94 22 95 25 96 23 97 24 98
REMARK SMILES IDX 26 99
REMARK H PARENT 3 5 88 23 56 34 8 76 14 90
REMARK Flexibility Score: inf
ROOT
ATOM      1  C   UNL A   1      45.659  22.605  37.057  1.00  0.00     0.116 C 
ENDROOT
BRANCH   1   2
ATOM      2  N   UNL A   1      45.479  24.024  37.283  1.00  0.00    -0.352 N 
ATOM      3  O   UNL A   1      44.721  26.087  37.052  1.00  0.00    -0.269 OA
ATOM      4  C   UNL A   1      45.132  25.076  36.474  1.00  0.00     0.251 C 
ATOM      5  H   UNL A   1      45.640  24.292  38.217  1.00  0.00     0.163 HD
BRANCH   4   6
ATOM      6  C   UNL A   1      45.268  25.106  34.992  1.00  0.00     0.039 A 
ATOM      7  C   UNL A   1      46.305  24.536  34.259  1.00  0.00     0.014 A 
ATOM      8  C   UNL A   1      44.251  25.790  34.290  1.00  0.00     0.014 A 
ATOM      9  C   UNL A   1      46.353  24.688  32.873  1.00  0.00     0.010 A 
ATOM     10  C   UNL A   1      44.287  25.935  32.903  1.00  0.00     0.010 A 
ATOM     11  C   UNL A   1      45.350  25.392  32.190  1.00  0.00    -0.014 A 
BRANCH  11  12
ATOM     12  C   UNL A   1      45.343  25.314  30.728  1.00  0.00     0.031 A 
ATOM     13  C   UNL A   1      46.451  26.077  30.092  1.00  0.00     0.074 A 
ATOM     14  C   UNL A   1      44.516  24.592  29.945  1.00  0.00     0.049 A 
ATOM     15  N   UNL A   1      46.362  27.203  29.464  1.00  0.00    -0.248 NA
ATOM     16  C   UNL A   1      47.829  25.617  30.303  1.00  0.00     0.031 C 
ATOM     17  C   UNL A   1      43.510  23.607  30.336  1.00  0.00     0.029 A 
ATOM     18  N   UNL A   1      44.450  24.573  28.577  1.00  0.00    -0.354 N 
ATOM     19  C   UNL A   1      47.641  27.493  29.004  1.00  0.00     0.074 A 
ATOM     20  C   UNL A   1      48.521  26.578  29.685  1.00  0.00     0.031 C 
ATOM     21  C   UNL A   1      43.061  22.958  29.233  1.00  0.00     0.029 A 
ATOM     22  C   UNL A   1      43.637  23.574  28.047  1.00  0.00     0.049 A 
ATOM     23  H   UNL A   1      44.939  25.214  28.012  1.00  0.00     0.167 HD
ATOM     24  C   UNL A   1      47.835  28.328  27.946  1.00  0.00     0.034 A 
ATOM     25  C   UNL A   1      43.436  23.290  26.730  1.00  0.00     0.034 A 
ATOM     26  C   UNL A   1      46.663  29.139  27.699  1.00  0.00     0.049 A 
ATOM     27  C   UNL A   1      43.666  24.554  25.992  1.00  0.00     0.074 A 
ATOM     28  C   UNL A   1      45.932  30.047  28.444  1.00  0.00     0.029 A 
ATOM     29  N   UNL A   1      45.847  28.797  26.645  1.00  0.00    -0.354 N 
ATOM     30  N   UNL A   1      42.918  25.614  26.135  1.00  0.00    -0.248 NA
ATOM     31  C   UNL A   1      44.976  24.789  25.409  1.00  0.00     0.031 C 
ATOM     32  C   UNL A   1      44.571  29.797  28.095  1.00  0.00     0.029 A 
ATOM     33  C   UNL A   1      44.559  28.801  27.117  1.00  0.00     0.049 A 
ATOM     34  H   UNL A   1      46.134  28.590  25.726  1.00  0.00     0.167 HD
ATOM     35  C   UNL A   1      43.800  26.681  26.068  1.00  0.00     0.074 A 
ATOM     36  C   UNL A   1      45.031  26.118  25.517  1.00  0.00     0.031 C 
ATOM     37  C   UNL A   1      43.538  27.857  26.707  1.00  0.00     0.034 A 
BRANCH  24  38
ATOM     38  C   UNL A   1      48.923  28.163  26.906  1.00  0.00     0.023 A 
ATOM     39  C   UNL A   1      48.517  27.932  25.576  1.00  0.00     0.031 A 
ATOM     40  C   UNL A   1      50.288  27.917  27.179  1.00  0.00     0.131 A 
ATOM     41  C   UNL A   1      49.399  27.372  24.635  1.00  0.00     0.055 A 
ATOM     42  C   UNL A   1      51.178  27.422  26.222  1.00  0.00     0.041 A 
ATOM     43  F   UNL A   1      50.819  28.052  28.399  1.00  0.00    -0.206 F 
ATOM     44  C   UNL A   1      50.727  27.112  24.950  1.00  0.00     0.022 A 
BRANCH  41  45
ATOM     45  S   UNL A   1      48.725  26.831  23.045  1.00  0.00     0.124 S 
ATOM     46  O   UNL A   1      47.697  27.839  22.806  1.00  0.00    -0.237 OA
ATOM     47  O   UNL A   1      49.900  26.895  22.182  1.00  0.00    -0.237 OA
ATOM     48  O   UNL A   1      48.231  25.486  23.325  1.00  0.00    -0.744 OA
ENDBRANCH  41  45
ENDBRANCH  24  38
BRANCH  25  49
ATOM     49  C   UNL A   1      43.345  21.960  26.056  1.00  0.00     0.023 A 
ATOM     50  C   UNL A   1      44.475  21.315  25.498  1.00  0.00     0.031 A 
ATOM     51  C   UNL A   1      42.183  21.172  26.201  1.00  0.00     0.131 A 
ATOM     52  C   UNL A   1      44.417  19.949  25.131  1.00  0.00     0.055 A 
ATOM     53  C   UNL A   1      42.132  19.822  25.838  1.00  0.00     0.041 A 
ATOM     54  F   UNL A   1      41.078  21.660  26.784  1.00  0.00    -0.206 F 
ATOM     55  C   UNL A   1      43.254  19.200  25.314  1.00  0.00     0.022 A 
BRANCH  52  56
ATOM     56  S   UNL A   1      45.902  19.077  24.526  1.00  0.00     0.124 S 
ATOM     57  O   UNL A   1      45.530  18.754  23.154  1.00  0.00    -0.237 OA
ATOM     58  O   UNL A   1      46.952  20.074  24.695  1.00  0.00    -0.237 OA
ATOM     59  O   UNL A   1      46.006  17.924  25.423  1.00  0.00    -0.744 OA
ENDBRANCH  52  56
ENDBRANCH  25  49
BRANCH  37  60
ATOM     60  C   UNL A   1      42.139  28.109  27.224  1.00  0.00     0.023 A 
ATOM     61  C   UNL A   1      41.742  27.974  28.573  1.00  0.00     0.031 A 
ATOM     62  C   UNL A   1      41.221  28.671  26.321  1.00  0.00     0.131 A 
ATOM     63  C   UNL A   1      40.459  28.404  28.972  1.00  0.00     0.055 A 
ATOM     64  C   UNL A   1      39.961  29.110  26.722  1.00  0.00     0.041 A 
ATOM     65  F   UNL A   1      41.558  28.855  25.033  1.00  0.00    -0.206 F 
ATOM     66  C   UNL A   1      39.576  28.979  28.051  1.00  0.00     0.022 A 
BRANCH  63  67
ATOM     67  S   UNL A   1      39.937  28.276  30.715  1.00  0.00     0.124 S 
ATOM     68  O   UNL A   1      38.944  27.208  30.687  1.00  0.00    -0.237 OA
ATOM     69  O   UNL A   1      41.186  27.974  31.409  1.00  0.00    -0.237 OA
ATOM     70  O   UNL A   1      39.394  29.604  31.008  1.00  0.00    -0.744 OA
ENDBRANCH  63  67
ENDBRANCH  37  60
ENDBRANCH  11  12
ENDBRANCH   4   6
ENDBRANCH   1   2
BRANCH   1  71
ATOM     71  C   UNL A   1      46.066  21.791  38.286  1.00  0.00     0.023 C 
BRANCH  71  72
ATOM     72  C   UNL A   1      46.821  20.495  37.997  1.00  0.00     0.023 C 
BRANCH  72  73
ATOM     73  C   UNL A   1      45.985  19.225  38.048  1.00  0.00     0.116 C 
BRANCH  73  74
ATOM     74  N   UNL A   1      46.598  18.122  38.743  1.00  0.00    -0.355 N 
ATOM     75  C   UNL A   1      46.066  17.262  39.655  1.00  0.00     0.234 C 
ATOM     76  H   UNL A   1      47.545  17.965  38.526  1.00  0.00     0.163 HD
ATOM     77  O   UNL A   1      46.813  16.393  40.117  1.00  0.00    -0.274 OA
BRANCH  75  78
ATOM     78  C   UNL A   1      44.614  17.383  40.156  1.00  0.00     0.157 C 
ATOM     79  S   UNL A   1      43.603  16.161  39.243  1.00  0.00    -0.093 SA
ATOM     80  C   UNL A   1      44.317  17.645  41.651  1.00  0.00     0.135 C 
ATOM     81  C   UNL A   1      42.839  15.288  40.473  1.00  0.00     0.091 A 
ATOM     82  C   UNL A   1      43.723  16.517  42.532  1.00  0.00     0.082 C 
ATOM     83  C   UNL A   1      45.457  18.399  42.319  1.00  0.00     0.317 C 
ATOM     84  N   UNL A   1      42.106  14.195  40.119  1.00  0.00    -0.307 N 
ATOM     85  C   UNL A   1      42.887  15.512  41.790  1.00  0.00     0.049 A 
ATOM     86  C   UNL A   1      44.798  15.938  43.441  1.00  0.00     0.007 A 
ATOM     87  O   UNL A   1      45.608  18.190  43.673  1.00  0.00    -0.425 OA
ATOM     88  O   UNL A   1      46.102  19.272  41.750  1.00  0.00    -0.251 OA
ATOM     89  C   UNL A   1      41.493  13.518  41.130  1.00  0.00     0.305 A 
ATOM     90  H   UNL A   1      42.024  13.909  39.180  1.00  0.00     0.171 HD
ATOM     91  S   UNL A   1      41.771  14.425  42.618  1.00  0.00    -0.078 S 
ATOM     92  C   UNL A   1      44.948  14.584  43.778  1.00  0.00     0.024 A 
ATOM     93  C   UNL A   1      45.691  16.843  44.018  1.00  0.00     0.148 A 
ATOM     94  O   UNL A   1      40.856  12.474  41.059  1.00  0.00    -0.257 OA
ATOM     95  C   UNL A   1      45.936  14.171  44.675  1.00  0.00     0.019 A 
ATOM     96  C   UNL A   1      46.676  16.434  44.926  1.00  0.00     0.062 A 
ATOM     97  Br  UNL A   1      46.068  12.337  45.108  1.00  0.00    -0.051 Br
ATOM     98  C   UNL A   1      46.805  15.087  45.252  1.00  0.00     0.035 A 
ATOM     99  Br  UNL A   1      47.865  17.678  45.719  1.00  0.00    -0.047 Br
ENDBRANCH  75  78
ENDBRANCH  73  74
ENDBRANCH  72  73
ENDBRANCH  71  72
ENDBRANCH   1  71
TORSDOF 14
ENDMDL
