MODEL 1
REMARK VINA RESULT:      -9.6      0.000      0.000
REMARK SMILES O=C(CCCN1C(=O)/C(=C/c2ccccc2Cl)SC1=S)Nc1cccc(C(=O)NCCCCNC(=O)c2ccc(-c3c4nc(c(-c5cc(S(=O)(=O)[O-])ccc5F)c5ccc([nH]5)c(-c5cc(S(=O)(=O)[O-])ccc5F)c5nc(c(-c6cc(S(=O)(=O)[O-])ccc6F)c6ccc3[nH]6)C=C5)C=C4)cc2)c1
REMARK SMILES IDX 30 1 29 2 27 3 28 4 26 6 22 7 23 8 100 9 24 10 25 11 21 12
REMARK SMILES IDX 1 13 2 14 3 16 4 17 5 18 6 19 7 20 19 21 8 22 9 23 18 24
REMARK SMILES IDX 20 25 10 26 11 27 12 28 16 29 13 30 15 31 17 32 14 33 31 34
REMARK SMILES IDX 32 35 33 36 34 37 35 38 36 40 37 41 38 42 99 43 39 44 98 45
REMARK SMILES IDX 40 46 41 47 42 48 92 49 43 50 97 51 91 52 93 53 44 54 96 55
REMARK SMILES IDX 90 56 89 57 45 59 77 60 57 61 76 62 58 63 61 64 75 65 94 66
REMARK SMILES IDX 59 67 60 68 74 70 95 71 62 72 46 73 47 74 55 75 48 76 54 77
REMARK SMILES IDX 56 78 53 79 49 80 50 81 51 82 52 83 78 84 79 85 87 86 80 87
REMARK SMILES IDX 86 88 88 89 85 90 81 91 82 92 83 93 84 94 63 95 64 96 72 97
REMARK SMILES IDX 65 98 71 99 73 100 70 101 66 102 67 103 68 104 69 105
REMARK H PARENT 29 5 21 15 34 39 93 58 61 69
REMARK Flexibility Score: inf
ROOT
ATOM      1  C   UNL A   1      36.657  34.592  32.266  1.00  0.00     0.116 C 
ENDROOT
BRANCH   1   2
ATOM      2  N   UNL A   1      37.790  34.830  31.380  1.00  0.00    -0.352 N 
ATOM      3  C   UNL A   1      38.121  34.213  30.189  1.00  0.00     0.251 C 
ATOM      4  O   UNL A   1      39.139  34.546  29.588  1.00  0.00    -0.269 OA
ATOM      5  H   UNL A   1      38.412  35.533  31.674  1.00  0.00     0.163 HD
BRANCH   3   6
ATOM      6  C   UNL A   1      37.305  33.087  29.668  1.00  0.00     0.041 A 
ATOM      7  C   UNL A   1      37.044  30.711  29.347  1.00  0.00     0.041 A 
ATOM      8  C   UNL A   1      36.119  30.965  28.327  1.00  0.00     0.026 A 
ATOM      9  C   UNL A   1      37.524  31.778  30.101  1.00  0.00     0.040 A 
ATOM     10  C   UNL A   1      35.763  32.276  28.000  1.00  0.00     0.003 A 
ATOM     11  C   UNL A   1      36.386  33.342  28.647  1.00  0.00     0.014 A 
BRANCH   7  12
ATOM     12  N   UNL A   1      37.607  29.414  29.424  1.00  0.00    -0.326 N 
ATOM     13  O   UNL A   1      37.027  28.754  31.572  1.00  0.00    -0.275 OA
ATOM     14  C   UNL A   1      37.725  28.648  30.567  1.00  0.00     0.224 C 
ATOM     15  H   UNL A   1      37.946  29.024  28.586  1.00  0.00     0.169 HD
BRANCH  14  16
ATOM     16  C   UNL A   1      38.921  27.708  30.579  1.00  0.00     0.102 C 
BRANCH  16  17
ATOM     17  C   UNL A   1      39.934  27.877  29.451  1.00  0.00     0.032 C 
BRANCH  17  18
ATOM     18  C   UNL A   1      39.574  27.217  28.111  1.00  0.00     0.128 C 
BRANCH  18  19
ATOM     19  N   UNL A   1      40.711  26.625  27.397  1.00  0.00    -0.293 N 
ATOM     20  C   UNL A   1      40.886  25.248  27.446  1.00  0.00     0.266 C 
ATOM     21  C   UNL A   1      41.597  27.323  26.600  1.00  0.00     0.148 C 
ATOM     22  O   UNL A   1      40.146  24.452  27.998  1.00  0.00    -0.268 OA
ATOM     23  C   UNL A   1      42.102  24.857  26.684  1.00  0.00     0.081 C 
ATOM     24  S   UNL A   1      42.802  26.235  25.937  1.00  0.00    -0.054 SA
ATOM     25  S   UNL A   1      41.598  28.949  26.237  1.00  0.00    -0.052 S 
ATOM     26  C   UNL A   1      42.543  23.593  26.626  1.00  0.00     0.031 C 
BRANCH  26  27
ATOM     27  C   UNL A   1      43.756  23.184  25.902  1.00  0.00    -0.006 A 
ATOM     28  C   UNL A   1      43.648  22.903  24.532  1.00  0.00     0.010 A 
ATOM     29  C   UNL A   1      45.019  23.121  26.513  1.00  0.00     0.048 A 
ATOM     30  C   UNL A   1      44.783  22.578  23.785  1.00  0.00     0.001 A 
ATOM     31  C   UNL A   1      46.152  22.795  25.762  1.00  0.00     0.021 A 
ATOM     32  Cl  UNL A   1      45.231  23.444  28.200  1.00  0.00    -0.084 Cl
ATOM     33  C   UNL A   1      46.033  22.529  24.398  1.00  0.00     0.002 A 
ENDBRANCH  26  27
ENDBRANCH  18  19
ENDBRANCH  17  18
ENDBRANCH  16  17
ENDBRANCH  14  16
ENDBRANCH   7  12
ENDBRANCH   3   6
ENDBRANCH   1   2
BRANCH   1  34
ATOM     34  C   UNL A   1      37.025  34.256  33.705  1.00  0.00     0.023 C 
BRANCH  34  35
ATOM     35  C   UNL A   1      38.499  34.377  34.069  1.00  0.00     0.023 C 
BRANCH  35  36
ATOM     36  C   UNL A   1      38.820  34.364  35.558  1.00  0.00     0.116 C 
BRANCH  36  37
ATOM     37  N   UNL A   1      38.095  33.344  36.304  1.00  0.00    -0.352 N 
ATOM     38  C   UNL A   1      38.178  31.971  36.216  1.00  0.00     0.251 C 
ATOM     39  H   UNL A   1      37.452  33.684  36.967  1.00  0.00     0.163 HD
ATOM     40  O   UNL A   1      37.401  31.268  36.856  1.00  0.00    -0.269 OA
BRANCH  38  41
ATOM     41  C   UNL A   1      39.172  31.352  35.311  1.00  0.00     0.039 A 
ATOM     42  C   UNL A   1      38.734  30.752  34.127  1.00  0.00     0.014 A 
ATOM     43  C   UNL A   1      40.536  31.401  35.607  1.00  0.00     0.014 A 
ATOM     44  C   UNL A   1      39.669  30.297  33.193  1.00  0.00     0.010 A 
ATOM     45  C   UNL A   1      41.465  31.025  34.641  1.00  0.00     0.010 A 
ATOM     46  C   UNL A   1      41.043  30.479  33.418  1.00  0.00    -0.014 A 
BRANCH  46  47
ATOM     47  C   UNL A   1      42.063  30.113  32.400  1.00  0.00     0.031 A 
ATOM     48  C   UNL A   1      42.811  28.813  32.525  1.00  0.00     0.074 A 
ATOM     49  C   UNL A   1      42.384  30.985  31.422  1.00  0.00     0.049 A 
ATOM     50  N   UNL A   1      43.838  28.375  31.842  1.00  0.00    -0.248 NA
ATOM     51  C   UNL A   1      42.361  27.903  33.588  1.00  0.00     0.031 C 
ATOM     52  C   UNL A   1      41.757  32.291  31.210  1.00  0.00     0.029 A 
ATOM     53  N   UNL A   1      43.331  30.911  30.430  1.00  0.00    -0.354 N 
ATOM     54  C   UNL A   1      44.173  27.150  32.409  1.00  0.00     0.074 A 
ATOM     55  C   UNL A   1      43.277  26.949  33.529  1.00  0.00     0.031 C 
ATOM     56  C   UNL A   1      42.321  32.884  30.146  1.00  0.00     0.029 A 
ATOM     57  C   UNL A   1      43.384  32.028  29.630  1.00  0.00     0.049 A 
ATOM     58  H   UNL A   1      43.919  30.130  30.305  1.00  0.00     0.167 HD
ATOM     59  C   UNL A   1      45.124  26.265  32.019  1.00  0.00     0.034 A 
ATOM     60  C   UNL A   1      44.207  32.336  28.606  1.00  0.00     0.034 A 
ATOM     61  C   UNL A   1      45.998  26.473  30.890  1.00  0.00     0.049 A 
ATOM     62  C   UNL A   1      45.274  31.350  28.206  1.00  0.00     0.074 A 
ATOM     63  C   UNL A   1      46.967  25.625  30.379  1.00  0.00     0.029 A 
ATOM     64  N   UNL A   1      46.012  27.612  30.095  1.00  0.00    -0.354 N 
ATOM     65  N   UNL A   1      45.563  30.184  28.734  1.00  0.00    -0.248 NA
ATOM     66  C   UNL A   1      46.123  31.721  27.065  1.00  0.00     0.031 C 
ATOM     67  C   UNL A   1      47.601  26.274  29.314  1.00  0.00     0.029 A 
ATOM     68  C   UNL A   1      46.985  27.498  29.113  1.00  0.00     0.049 A 
ATOM     69  H   UNL A   1      45.417  28.387  30.212  1.00  0.00     0.167 HD
ATOM     70  C   UNL A   1      46.603  29.666  27.966  1.00  0.00     0.074 A 
ATOM     71  C   UNL A   1      46.887  30.646  26.938  1.00  0.00     0.031 C 
ATOM     72  C   UNL A   1      47.257  28.484  28.096  1.00  0.00     0.034 A 
BRANCH  59  73
ATOM     73  C   UNL A   1      45.273  25.007  32.842  1.00  0.00     0.023 A 
ATOM     74  C   UNL A   1      46.186  24.929  33.908  1.00  0.00     0.031 A 
ATOM     75  C   UNL A   1      44.532  23.854  32.526  1.00  0.00     0.131 A 
ATOM     76  C   UNL A   1      46.404  23.706  34.556  1.00  0.00     0.055 A 
ATOM     77  C   UNL A   1      44.690  22.661  33.235  1.00  0.00     0.041 A 
ATOM     78  F   UNL A   1      43.658  23.860  31.507  1.00  0.00    -0.206 F 
ATOM     79  C   UNL A   1      45.644  22.576  34.246  1.00  0.00     0.022 A 
BRANCH  76  80
ATOM     80  S   UNL A   1      47.807  23.572  35.697  1.00  0.00     0.124 S 
ATOM     81  O   UNL A   1      47.667  24.796  36.482  1.00  0.00    -0.237 OA
ATOM     82  O   UNL A   1      47.525  22.326  36.401  1.00  0.00    -0.237 OA
ATOM     83  O   UNL A   1      48.969  23.539  34.810  1.00  0.00    -0.744 OA
ENDBRANCH  76  80
ENDBRANCH  59  73
BRANCH  60  84
ATOM     84  C   UNL A   1      44.067  33.635  27.890  1.00  0.00     0.023 A 
ATOM     85  C   UNL A   1      44.314  34.850  28.550  1.00  0.00     0.031 A 
ATOM     86  C   UNL A   1      43.649  33.686  26.549  1.00  0.00     0.131 A 
ATOM     87  C   UNL A   1      44.098  36.066  27.882  1.00  0.00     0.055 A 
ATOM     88  C   UNL A   1      43.482  34.896  25.874  1.00  0.00     0.041 A 
ATOM     89  F   UNL A   1      43.406  32.553  25.870  1.00  0.00    -0.206 F 
ATOM     90  C   UNL A   1      43.694  36.096  26.545  1.00  0.00     0.022 A 
BRANCH  87  91
ATOM     91  S   UNL A   1      44.281  37.611  28.812  1.00  0.00     0.124 S 
ATOM     92  O   UNL A   1      45.634  38.018  28.452  1.00  0.00    -0.237 OA
ATOM     93  O   UNL A   1      43.199  38.424  28.267  1.00  0.00    -0.237 OA
ATOM     94  O   UNL A   1      44.104  37.194  30.202  1.00  0.00    -0.744 OA
ENDBRANCH  87  91
ENDBRANCH  60  84
BRANCH  72  95
ATOM     95  C   UNL A   1      48.302  28.163  27.057  1.00  0.00     0.023 A 
ATOM     96  C   UNL A   1      47.959  27.766  25.754  1.00  0.00     0.031 A 
ATOM     97  C   UNL A   1      49.667  28.257  27.384  1.00  0.00     0.131 A 
ATOM     98  C   UNL A   1      48.968  27.433  24.837  1.00  0.00     0.055 A 
ATOM     99  C   UNL A   1      50.667  27.975  26.454  1.00  0.00     0.041 A 
ATOM    100  F   UNL A   1      50.049  28.630  28.617  1.00  0.00    -0.206 F 
ATOM    101  C   UNL A   1      50.319  27.551  25.174  1.00  0.00     0.022 A 
BRANCH  98 102
ATOM    102  S   UNL A   1      48.493  26.778  23.213  1.00  0.00     0.124 S 
ATOM    103  O   UNL A   1      49.774  26.734  22.516  1.00  0.00    -0.237 OA
ATOM    104  O   UNL A   1      47.909  25.485  23.556  1.00  0.00    -0.237 OA
ATOM    105  O   UNL A   1      47.544  27.769  22.708  1.00  0.00    -0.744 OA
ENDBRANCH  98 102
ENDBRANCH  72  95
ENDBRANCH  46  47
ENDBRANCH  38  41
ENDBRANCH  36  37
ENDBRANCH  35  36
ENDBRANCH  34  35
ENDBRANCH   1  34
TORSDOF 20
ENDMDL
MODEL 2
REMARK VINA RESULT:      -9.5      4.530     10.554
REMARK SMILES O=C(CCCN1C(=O)/C(=C/c2ccccc2Cl)SC1=S)Nc1cccc(C(=O)NCCCCNC(=O)c2ccc(-c3c4nc(c(-c5cc(S(=O)(=O)[O-])ccc5F)c5ccc([nH]5)c(-c5cc(S(=O)(=O)[O-])ccc5F)c5nc(c(-c6cc(S(=O)(=O)[O-])ccc6F)c6ccc3[nH]6)C=C5)C=C4)cc2)c1
REMARK SMILES IDX 30 1 29 2 27 3 28 4 26 6 22 7 23 8 100 9 24 10 25 11 21 12
REMARK SMILES IDX 1 13 2 14 3 16 4 17 5 18 6 19 7 20 19 21 8 22 9 23 18 24
REMARK SMILES IDX 20 25 10 26 11 27 12 28 16 29 13 30 15 31 17 32 14 33 31 34
REMARK SMILES IDX 32 35 33 36 34 37 35 38 36 40 37 41 38 42 99 43 39 44 98 45
REMARK SMILES IDX 40 46 41 47 42 48 92 49 43 50 97 51 91 52 93 53 44 54 96 55
REMARK SMILES IDX 90 56 89 57 45 59 77 60 57 61 76 62 58 63 61 64 75 65 94 66
REMARK SMILES IDX 59 67 60 68 74 70 95 71 62 72 46 73 47 74 55 75 48 76 54 77
REMARK SMILES IDX 56 78 53 79 49 80 50 81 51 82 52 83 78 84 79 85 87 86 80 87
REMARK SMILES IDX 86 88 88 89 85 90 81 91 82 92 83 93 84 94 63 95 64 96 72 97
REMARK SMILES IDX 65 98 71 99 73 100 70 101 66 102 67 103 68 104 69 105
REMARK H PARENT 29 5 21 15 34 39 93 58 61 69
REMARK Flexibility Score: inf
ROOT
ATOM      1  C   UNL A   1      37.906  22.958  26.008  1.00  0.00     0.116 C 
ENDROOT
BRANCH   1   2
ATOM      2  N   UNL A   1      37.734  23.032  24.563  1.00  0.00    -0.352 N 
ATOM      3  C   UNL A   1      36.593  22.867  23.802  1.00  0.00     0.251 C 
ATOM      4  O   UNL A   1      36.653  22.953  22.578  1.00  0.00    -0.269 OA
ATOM      5  H   UNL A   1      38.552  23.229  24.053  1.00  0.00     0.163 HD
BRANCH   3   6
ATOM      6  C   UNL A   1      35.305  22.497  24.441  1.00  0.00     0.041 A 
ATOM      7  C   UNL A   1      33.337  23.184  25.654  1.00  0.00     0.041 A 
ATOM      8  C   UNL A   1      33.146  21.861  26.067  1.00  0.00     0.026 A 
ATOM      9  C   UNL A   1      34.340  23.463  24.730  1.00  0.00     0.040 A 
ATOM     10  C   UNL A   1      34.014  20.851  25.642  1.00  0.00     0.003 A 
ATOM     11  C   UNL A   1      35.119  21.176  24.857  1.00  0.00     0.014 A 
BRANCH   7  12
ATOM     12  N   UNL A   1      32.645  24.203  26.353  1.00  0.00    -0.326 N 
ATOM     13  O   UNL A   1      31.134  24.953  24.758  1.00  0.00    -0.275 OA
ATOM     14  C   UNL A   1      31.767  25.115  25.798  1.00  0.00     0.224 C 
ATOM     15  H   UNL A   1      32.805  24.268  27.322  1.00  0.00     0.169 HD
BRANCH  14  16
ATOM     16  C   UNL A   1      31.726  26.463  26.501  1.00  0.00     0.102 C 
BRANCH  16  17
ATOM     17  C   UNL A   1      31.221  27.646  25.682  1.00  0.00     0.032 C 
BRANCH  17  18
ATOM     18  C   UNL A   1      32.290  28.627  25.175  1.00  0.00     0.128 C 
BRANCH  18  19
ATOM     19  N   UNL A   1      32.361  29.890  25.919  1.00  0.00    -0.293 N 
ATOM     20  C   UNL A   1      33.436  30.102  26.772  1.00  0.00     0.266 C 
ATOM     21  C   UNL A   1      31.476  30.941  25.782  1.00  0.00     0.148 C 
ATOM     22  O   UNL A   1      34.378  29.346  26.939  1.00  0.00    -0.268 OA
ATOM     23  C   UNL A   1      33.307  31.423  27.443  1.00  0.00     0.081 C 
ATOM     24  S   UNL A   1      31.926  32.255  26.852  1.00  0.00    -0.054 SA
ATOM     25  S   UNL A   1      30.159  31.056  24.767  1.00  0.00    -0.052 S 
ATOM     26  C   UNL A   1      34.173  31.850  28.372  1.00  0.00     0.031 C 
BRANCH  26  27
ATOM     27  C   UNL A   1      34.053  33.139  29.069  1.00  0.00    -0.006 A 
ATOM     28  C   UNL A   1      33.482  34.217  28.376  1.00  0.00     0.010 A 
ATOM     29  C   UNL A   1      34.432  33.315  30.410  1.00  0.00     0.048 A 
ATOM     30  C   UNL A   1      33.282  35.443  29.017  1.00  0.00     0.001 A 
ATOM     31  C   UNL A   1      34.230  34.543  31.046  1.00  0.00     0.021 A 
ATOM     32  Cl  UNL A   1      35.152  32.036  31.327  1.00  0.00    -0.084 Cl
ATOM     33  C   UNL A   1      33.651  35.603  30.351  1.00  0.00     0.002 A 
ENDBRANCH  26  27
ENDBRANCH  18  19
ENDBRANCH  17  18
ENDBRANCH  16  17
ENDBRANCH  14  16
ENDBRANCH   7  12
ENDBRANCH   3   6
ENDBRANCH   1   2
BRANCH   1  34
ATOM     34  C   UNL A   1      39.348  22.830  26.479  1.00  0.00     0.023 C 
BRANCH  34  35
ATOM     35  C   UNL A   1      39.788  21.444  26.933  1.00  0.00     0.023 C 
BRANCH  35  36
ATOM     36  C   UNL A   1      39.707  20.344  25.882  1.00  0.00     0.116 C 
BRANCH  36  37
ATOM     37  N   UNL A   1      40.704  19.296  26.056  1.00  0.00    -0.352 N 
ATOM     38  C   UNL A   1      42.059  19.405  26.277  1.00  0.00     0.251 C 
ATOM     39  H   UNL A   1      40.359  18.375  26.006  1.00  0.00     0.163 HD
ATOM     40  O   UNL A   1      42.761  18.399  26.290  1.00  0.00    -0.269 OA
BRANCH  38  41
ATOM     41  C   UNL A   1      42.669  20.743  26.452  1.00  0.00     0.039 A 
ATOM     42  C   UNL A   1      42.943  21.518  25.323  1.00  0.00     0.014 A 
ATOM     43  C   UNL A   1      42.930  21.248  27.729  1.00  0.00     0.014 A 
ATOM     44  C   UNL A   1      43.378  22.838  25.477  1.00  0.00     0.010 A 
ATOM     45  C   UNL A   1      43.281  22.586  27.881  1.00  0.00     0.010 A 
ATOM     46  C   UNL A   1      43.498  23.400  26.758  1.00  0.00    -0.014 A 
BRANCH  46  47
ATOM     47  C   UNL A   1      43.847  24.832  26.959  1.00  0.00     0.031 A 
ATOM     48  C   UNL A   1      45.258  25.298  26.721  1.00  0.00     0.074 A 
ATOM     49  C   UNL A   1      42.927  25.689  27.446  1.00  0.00     0.049 A 
ATOM     50  N   UNL A   1      45.807  26.456  26.983  1.00  0.00    -0.248 NA
ATOM     51  C   UNL A   1      46.181  24.310  26.143  1.00  0.00     0.031 C 
ATOM     52  C   UNL A   1      41.534  25.356  27.750  1.00  0.00     0.029 A 
ATOM     53  N   UNL A   1      43.029  27.016  27.787  1.00  0.00    -0.354 N 
ATOM     54  C   UNL A   1      47.145  26.330  26.626  1.00  0.00     0.074 A 
ATOM     55  C   UNL A   1      47.333  24.962  26.187  1.00  0.00     0.031 C 
ATOM     56  C   UNL A   1      40.908  26.450  28.211  1.00  0.00     0.029 A 
ATOM     57  C   UNL A   1      41.864  27.550  28.286  1.00  0.00     0.049 A 
ATOM     58  H   UNL A   1      43.859  27.536  27.683  1.00  0.00     0.167 HD
ATOM     59  C   UNL A   1      48.122  27.271  26.639  1.00  0.00     0.034 A 
ATOM     60  C   UNL A   1      41.600  28.782  28.767  1.00  0.00     0.034 A 
ATOM     61  C   UNL A   1      47.915  28.635  27.063  1.00  0.00     0.049 A 
ATOM     62  C   UNL A   1      42.705  29.806  28.799  1.00  0.00     0.074 A 
ATOM     63  C   UNL A   1      48.820  29.683  27.078  1.00  0.00     0.029 A 
ATOM     64  N   UNL A   1      46.716  29.142  27.551  1.00  0.00    -0.354 N 
ATOM     65  N   UNL A   1      43.960  29.680  28.433  1.00  0.00    -0.248 NA
ATOM     66  C   UNL A   1      42.357  31.142  29.303  1.00  0.00     0.031 C 
ATOM     67  C   UNL A   1      48.186  30.804  27.624  1.00  0.00     0.029 A 
ATOM     68  C   UNL A   1      46.866  30.479  27.887  1.00  0.00     0.049 A 
ATOM     69  H   UNL A   1      45.883  28.627  27.643  1.00  0.00     0.167 HD
ATOM     70  C   UNL A   1      44.540  30.931  28.630  1.00  0.00     0.074 A 
ATOM     71  C   UNL A   1      43.498  31.796  29.141  1.00  0.00     0.031 C 
ATOM     72  C   UNL A   1      45.817  31.329  28.398  1.00  0.00     0.034 A 
BRANCH  59  73
ATOM     73  C   UNL A   1      49.502  26.838  26.203  1.00  0.00     0.023 A 
ATOM     74  C   UNL A   1      50.057  27.269  24.986  1.00  0.00     0.031 A 
ATOM     75  C   UNL A   1      50.250  25.942  26.986  1.00  0.00     0.131 A 
ATOM     76  C   UNL A   1      51.275  26.735  24.543  1.00  0.00     0.055 A 
ATOM     77  C   UNL A   1      51.505  25.481  26.581  1.00  0.00     0.041 A 
ATOM     78  F   UNL A   1      49.765  25.479  28.150  1.00  0.00    -0.206 F 
ATOM     79  C   UNL A   1      52.017  25.863  25.344  1.00  0.00     0.022 A 
BRANCH  76  80
ATOM     80  S   UNL A   1      51.795  27.068  22.838  1.00  0.00     0.124 S 
ATOM     81  O   UNL A   1      50.587  26.730  22.090  1.00  0.00    -0.237 OA
ATOM     82  O   UNL A   1      52.142  28.484  22.885  1.00  0.00    -0.237 OA
ATOM     83  O   UNL A   1      52.920  26.156  22.637  1.00  0.00    -0.744 OA
ENDBRANCH  76  80
ENDBRANCH  59  73
BRANCH  60  84
ATOM     84  C   UNL A   1      40.238  29.122  29.267  1.00  0.00     0.023 A 
ATOM     85  C   UNL A   1      39.971  29.175  30.645  1.00  0.00     0.031 A 
ATOM     86  C   UNL A   1      39.174  29.361  28.380  1.00  0.00     0.131 A 
ATOM     87  C   UNL A   1      38.663  29.416  31.096  1.00  0.00     0.055 A 
ATOM     88  C   UNL A   1      37.886  29.648  28.833  1.00  0.00     0.041 A 
ATOM     89  F   UNL A   1      39.378  29.329  27.052  1.00  0.00    -0.206 F 
ATOM     90  C   UNL A   1      37.622  29.663  30.199  1.00  0.00     0.022 A 
BRANCH  87  91
ATOM     91  S   UNL A   1      38.330  29.327  32.876  1.00  0.00     0.124 S 
ATOM     92  O   UNL A   1      37.403  28.203  32.950  1.00  0.00    -0.237 OA
ATOM     93  O   UNL A   1      39.663  29.098  33.423  1.00  0.00    -0.237 OA
ATOM     94  O   UNL A   1      37.751  30.635  33.179  1.00  0.00    -0.744 OA
ENDBRANCH  87  91
ENDBRANCH  60  84
BRANCH  72  95
ATOM     95  C   UNL A   1      46.135  32.782  28.640  1.00  0.00     0.023 A 
ATOM     96  C   UNL A   1      46.062  33.741  27.616  1.00  0.00     0.031 A 
ATOM     97  C   UNL A   1      46.519  33.211  29.924  1.00  0.00     0.131 A 
ATOM     98  C   UNL A   1      46.413  35.074  27.880  1.00  0.00     0.055 A 
ATOM     99  C   UNL A   1      46.817  34.547  30.194  1.00  0.00     0.041 A 
ATOM    100  F   UNL A   1      46.607  32.335  30.938  1.00  0.00    -0.206 F 
ATOM    101  C   UNL A   1      46.775  35.485  29.166  1.00  0.00     0.022 A 
BRANCH  98 102
ATOM    102  S   UNL A   1      46.458  36.256  26.505  1.00  0.00     0.124 S 
ATOM    103  O   UNL A   1      47.858  36.665  26.501  1.00  0.00    -0.237 OA
ATOM    104  O   UNL A   1      46.029  35.438  25.375  1.00  0.00    -0.237 OA
ATOM    105  O   UNL A   1      45.510  37.292  26.912  1.00  0.00    -0.744 OA
ENDBRANCH  98 102
ENDBRANCH  72  95
ENDBRANCH  46  47
ENDBRANCH  38  41
ENDBRANCH  36  37
ENDBRANCH  35  36
ENDBRANCH  34  35
ENDBRANCH   1  34
TORSDOF 20
ENDMDL
MODEL 3
REMARK VINA RESULT:      -9.2      3.317      9.900
REMARK SMILES O=C(CCCN1C(=O)/C(=C/c2ccccc2Cl)SC1=S)Nc1cccc(C(=O)NCCCCNC(=O)c2ccc(-c3c4nc(c(-c5cc(S(=O)(=O)[O-])ccc5F)c5ccc([nH]5)c(-c5cc(S(=O)(=O)[O-])ccc5F)c5nc(c(-c6cc(S(=O)(=O)[O-])ccc6F)c6ccc3[nH]6)C=C5)C=C4)cc2)c1
REMARK SMILES IDX 30 1 29 2 27 3 28 4 26 6 22 7 23 8 100 9 24 10 25 11 21 12
REMARK SMILES IDX 1 13 2 14 3 16 4 17 5 18 6 19 7 20 19 21 8 22 9 23 18 24
REMARK SMILES IDX 20 25 10 26 11 27 12 28 16 29 13 30 15 31 17 32 14 33 31 34
REMARK SMILES IDX 32 35 33 36 34 37 35 38 36 40 37 41 38 42 99 43 39 44 98 45
REMARK SMILES IDX 40 46 41 47 42 48 92 49 43 50 97 51 91 52 93 53 44 54 96 55
REMARK SMILES IDX 90 56 89 57 45 59 77 60 57 61 76 62 58 63 61 64 75 65 94 66
REMARK SMILES IDX 59 67 60 68 74 70 95 71 62 72 46 73 47 74 55 75 48 76 54 77
REMARK SMILES IDX 56 78 53 79 49 80 50 81 51 82 52 83 78 84 79 85 87 86 80 87
REMARK SMILES IDX 86 88 88 89 85 90 81 91 82 92 83 93 84 94 63 95 64 96 72 97
REMARK SMILES IDX 65 98 71 99 73 100 70 101 66 102 67 103 68 104 69 105
REMARK H PARENT 29 5 21 15 34 39 93 58 61 69
REMARK Flexibility Score: inf
ROOT
ATOM      1  C   UNL A   1      43.554  23.501  28.932  1.00  0.00     0.116 C 
ENDROOT
BRANCH   1   2
ATOM      2  N   UNL A   1      43.295  22.144  28.469  1.00  0.00    -0.352 N 
ATOM      3  C   UNL A   1      42.329  21.680  27.598  1.00  0.00     0.251 C 
ATOM      4  O   UNL A   1      42.259  20.481  27.340  1.00  0.00    -0.269 OA
ATOM      5  H   UNL A   1      43.898  21.455  28.831  1.00  0.00     0.163 HD
BRANCH   3   6
ATOM      6  C   UNL A   1      41.313  22.604  27.035  1.00  0.00     0.041 A 
ATOM      7  C   UNL A   1      40.716  24.839  26.351  1.00  0.00     0.041 A 
ATOM      8  C   UNL A   1      39.364  24.494  26.453  1.00  0.00     0.026 A 
ATOM      9  C   UNL A   1      41.678  23.845  26.511  1.00  0.00     0.040 A 
ATOM     10  C   UNL A   1      38.985  23.198  26.813  1.00  0.00     0.003 A 
ATOM     11  C   UNL A   1      39.962  22.260  27.142  1.00  0.00     0.014 A 
BRANCH   7  12
ATOM     12  N   UNL A   1      41.048  26.214  26.303  1.00  0.00    -0.326 N 
ATOM     13  O   UNL A   1      41.505  26.687  28.529  1.00  0.00    -0.275 OA
ATOM     14  C   UNL A   1      41.211  27.048  27.393  1.00  0.00     0.224 C 
ATOM     15  H   UNL A   1      41.174  26.613  25.411  1.00  0.00     0.169 HD
BRANCH  14  16
ATOM     16  C   UNL A   1      40.848  28.503  27.136  1.00  0.00     0.102 C 
BRANCH  16  17
ATOM     17  C   UNL A   1      40.209  29.262  28.293  1.00  0.00     0.032 C 
BRANCH  17  18
ATOM     18  C   UNL A   1      38.847  28.740  28.778  1.00  0.00     0.128 C 
BRANCH  18  19
ATOM     19  N   UNL A   1      38.229  29.541  29.841  1.00  0.00    -0.293 N 
ATOM     20  C   UNL A   1      37.556  30.705  29.494  1.00  0.00     0.266 C 
ATOM     21  C   UNL A   1      38.190  29.190  31.176  1.00  0.00     0.148 C 
ATOM     22  O   UNL A   1      37.380  31.120  28.361  1.00  0.00    -0.268 OA
ATOM     23  C   UNL A   1      37.028  31.376  30.712  1.00  0.00     0.081 C 
ATOM     24  S   UNL A   1      37.358  30.425  32.103  1.00  0.00    -0.054 SA
ATOM     25  S   UNL A   1      38.793  27.816  31.901  1.00  0.00    -0.052 S 
ATOM     26  C   UNL A   1      36.397  32.557  30.670  1.00  0.00     0.031 C 
BRANCH  26  27
ATOM     27  C   UNL A   1      35.890  33.255  31.861  1.00  0.00    -0.006 A 
ATOM     28  C   UNL A   1      34.594  32.952  32.306  1.00  0.00     0.010 A 
ATOM     29  C   UNL A   1      36.669  34.162  32.599  1.00  0.00     0.048 A 
ATOM     30  C   UNL A   1      34.093  33.535  33.472  1.00  0.00     0.001 A 
ATOM     31  C   UNL A   1      36.163  34.743  33.765  1.00  0.00     0.021 A 
ATOM     32  Cl  UNL A   1      38.272  34.593  32.109  1.00  0.00    -0.084 Cl
ATOM     33  C   UNL A   1      34.878  34.425  34.203  1.00  0.00     0.002 A 
ENDBRANCH  26  27
ENDBRANCH  18  19
ENDBRANCH  17  18
ENDBRANCH  16  17
ENDBRANCH  14  16
ENDBRANCH   7  12
ENDBRANCH   3   6
ENDBRANCH   1   2
BRANCH   1  34
ATOM     34  C   UNL A   1      44.890  24.087  28.493  1.00  0.00     0.023 C 
BRANCH  34  35
ATOM     35  C   UNL A   1      45.603  23.362  27.360  1.00  0.00     0.023 C 
BRANCH  35  36
ATOM     36  C   UNL A   1      45.139  23.710  25.951  1.00  0.00     0.116 C 
BRANCH  36  37
ATOM     37  N   UNL A   1      46.199  24.228  25.097  1.00  0.00    -0.352 N 
ATOM     38  C   UNL A   1      46.725  25.500  25.031  1.00  0.00     0.251 C 
ATOM     39  H   UNL A   1      46.596  23.576  24.476  1.00  0.00     0.163 HD
ATOM     40  O   UNL A   1      47.548  25.778  24.164  1.00  0.00    -0.269 OA
BRANCH  38  41
ATOM     41  C   UNL A   1      46.259  26.538  25.978  1.00  0.00     0.039 A 
ATOM     42  C   UNL A   1      44.932  26.971  25.913  1.00  0.00     0.014 A 
ATOM     43  C   UNL A   1      47.116  27.051  26.954  1.00  0.00     0.014 A 
ATOM     44  C   UNL A   1      44.437  27.838  26.892  1.00  0.00     0.010 A 
ATOM     45  C   UNL A   1      46.601  27.845  27.974  1.00  0.00     0.010 A 
ATOM     46  C   UNL A   1      45.253  28.239  27.962  1.00  0.00    -0.014 A 
BRANCH  46  47
ATOM     47  C   UNL A   1      44.731  29.067  29.082  1.00  0.00     0.031 A 
ATOM     48  C   UNL A   1      44.417  28.422  30.405  1.00  0.00     0.074 A 
ATOM     49  C   UNL A   1      44.449  30.371  28.884  1.00  0.00     0.049 A 
ATOM     50  N   UNL A   1      43.816  28.923  31.453  1.00  0.00    -0.248 NA
ATOM     51  C   UNL A   1      44.803  27.010  30.549  1.00  0.00     0.031 C 
ATOM     52  C   UNL A   1      44.676  31.108  27.639  1.00  0.00     0.029 A 
ATOM     53  N   UNL A   1      43.895  31.306  29.723  1.00  0.00    -0.354 N 
ATOM     54  C   UNL A   1      43.728  27.883  32.372  1.00  0.00     0.074 A 
ATOM     55  C   UNL A   1      44.284  26.710  31.729  1.00  0.00     0.031 C 
ATOM     56  C   UNL A   1      44.284  32.381  27.802  1.00  0.00     0.029 A 
ATOM     57  C   UNL A   1      43.732  32.543  29.143  1.00  0.00     0.049 A 
ATOM     58  H   UNL A   1      43.639  31.109  30.653  1.00  0.00     0.167 HD
ATOM     59  C   UNL A   1      43.249  27.908  33.641  1.00  0.00     0.034 A 
ATOM     60  C   UNL A   1      43.182  33.674  29.630  1.00  0.00     0.034 A 
ATOM     61  C   UNL A   1      42.714  29.089  34.273  1.00  0.00     0.049 A 
ATOM     62  C   UNL A   1      42.632  33.673  31.033  1.00  0.00     0.074 A 
ATOM     63  C   UNL A   1      42.242  29.239  35.567  1.00  0.00     0.029 A 
ATOM     64  N   UNL A   1      42.577  30.327  33.657  1.00  0.00    -0.354 N 
ATOM     65  N   UNL A   1      42.579  32.689  31.900  1.00  0.00    -0.248 NA
ATOM     66  C   UNL A   1      42.072  34.939  31.526  1.00  0.00     0.031 C 
ATOM     67  C   UNL A   1      41.770  30.548  35.713  1.00  0.00     0.029 A 
ATOM     68  C   UNL A   1      42.009  31.237  34.536  1.00  0.00     0.049 A 
ATOM     69  H   UNL A   1      42.844  30.527  32.731  1.00  0.00     0.167 HD
ATOM     70  C   UNL A   1      42.013  33.228  33.053  1.00  0.00     0.074 A 
ATOM     71  C   UNL A   1      41.747  34.623  32.771  1.00  0.00     0.031 C 
ATOM     72  C   UNL A   1      41.748  32.625  34.239  1.00  0.00     0.034 A 
BRANCH  59  73
ATOM     73  C   UNL A   1      43.268  26.607  34.409  1.00  0.00     0.023 A 
ATOM     74  C   UNL A   1      44.474  25.971  34.750  1.00  0.00     0.031 A 
ATOM     75  C   UNL A   1      42.066  25.966  34.759  1.00  0.00     0.131 A 
ATOM     76  C   UNL A   1      44.455  24.696  35.332  1.00  0.00     0.055 A 
ATOM     77  C   UNL A   1      42.054  24.735  35.419  1.00  0.00     0.041 A 
ATOM     78  F   UNL A   1      40.881  26.513  34.443  1.00  0.00    -0.206 F 
ATOM     79  C   UNL A   1      43.253  24.083  35.693  1.00  0.00     0.022 A 
BRANCH  76  80
ATOM     80  S   UNL A   1      46.016  23.781  35.459  1.00  0.00     0.124 S 
ATOM     81  O   UNL A   1      45.748  22.897  36.591  1.00  0.00    -0.237 OA
ATOM     82  O   UNL A   1      46.113  23.138  34.154  1.00  0.00    -0.237 OA
ATOM     83  O   UNL A   1      47.006  24.826  35.715  1.00  0.00    -0.744 OA
ENDBRANCH  76  80
ENDBRANCH  59  73
BRANCH  60  84
ATOM     84  C   UNL A   1      43.112  34.902  28.790  1.00  0.00     0.023 A 
ATOM     85  C   UNL A   1      44.278  35.606  28.447  1.00  0.00     0.031 A 
ATOM     86  C   UNL A   1      41.879  35.415  28.350  1.00  0.00     0.131 A 
ATOM     87  C   UNL A   1      44.185  36.806  27.724  1.00  0.00     0.055 A 
ATOM     88  C   UNL A   1      41.795  36.583  27.590  1.00  0.00     0.041 A 
ATOM     89  F   UNL A   1      40.734  34.777  28.645  1.00  0.00    -0.206 F 
ATOM     90  C   UNL A   1      42.952  37.293  27.285  1.00  0.00     0.022 A 
BRANCH  87  91
ATOM     91  S   UNL A   1      45.698  37.762  27.432  1.00  0.00     0.124 S 
ATOM     92  O   UNL A   1      46.272  37.829  28.771  1.00  0.00    -0.237 OA
ATOM     93  O   UNL A   1      46.405  36.922  26.470  1.00  0.00    -0.237 OA
ATOM     94  O   UNL A   1      45.202  39.030  26.900  1.00  0.00    -0.744 OA
ENDBRANCH  87  91
ENDBRANCH  60  84
BRANCH  72  95
ATOM     95  C   UNL A   1      41.196  33.494  35.340  1.00  0.00     0.023 A 
ATOM     96  C   UNL A   1      42.031  34.202  36.221  1.00  0.00     0.031 A 
ATOM     97  C   UNL A   1      39.803  33.613  35.508  1.00  0.00     0.131 A 
ATOM     98  C   UNL A   1      41.469  34.961  37.258  1.00  0.00     0.055 A 
ATOM     99  C   UNL A   1      39.249  34.410  36.509  1.00  0.00     0.041 A 
ATOM    100  F   UNL A   1      38.960  32.956  34.695  1.00  0.00    -0.206 F 
ATOM    101  C   UNL A   1      40.084  35.082  37.397  1.00  0.00     0.022 A 
BRANCH  98 102
ATOM    102  S   UNL A   1      42.573  35.739  38.470  1.00  0.00     0.124 S 
ATOM    103  O   UNL A   1      43.862  35.146  38.131  1.00  0.00    -0.237 OA
ATOM    104  O   UNL A   1      42.423  37.158  38.165  1.00  0.00    -0.237 OA
ATOM    105  O   UNL A   1      42.017  35.321  39.757  1.00  0.00    -0.744 OA
ENDBRANCH  98 102
ENDBRANCH  72  95
ENDBRANCH  46  47
ENDBRANCH  38  41
ENDBRANCH  36  37
ENDBRANCH  35  36
ENDBRANCH  34  35
ENDBRANCH   1  34
TORSDOF 20
ENDMDL
