MODEL 1
REMARK VINA RESULT:     -13.9      0.000      0.000
REMARK SMILES Cc1ccccc1-c1c(Cl)ccc2c1C=C(C(=O)NCCCCNC(=O)c1ccc(-c3c4nc(c(-c5cc(S(=O)(=O)[O-])ccc5F)c5ccc([nH]5)c(-c5cc(S(=O)(=O)[O-])ccc5F)c5nc(c(-c6cc(S(=O)(=O)[O-])ccc6F)c6ccc3[nH]6)C=C5)C=C4)cc1)[C@@H](C(F)(F)F)O2
REMARK SMILES IDX 22 1 21 2 20 3 19 4 17 5 18 6 16 8 8 9 9 10 14 11 10 12
REMARK SMILES IDX 11 13 13 14 15 15 12 16 95 17 90 18 7 19 1 20 2 21 3 22 4 23
REMARK SMILES IDX 6 24 5 25 91 26 92 27 93 28 94 29 23 30 24 31 25 32 26 34
REMARK SMILES IDX 27 35 28 36 89 37 29 38 88 39 30 40 31 41 32 42 82 43 33 44
REMARK SMILES IDX 87 45 81 46 83 47 34 48 86 49 80 50 79 51 35 53 67 54 47 55
REMARK SMILES IDX 66 56 48 57 51 58 65 59 84 60 49 61 50 62 64 64 85 65 52 66
REMARK SMILES IDX 36 67 37 68 45 69 38 70 44 71 46 72 43 73 39 74 40 75 41 76
REMARK SMILES IDX 42 77 68 78 69 79 77 80 70 81 76 82 78 83 75 84 71 85 72 86
REMARK SMILES IDX 73 87 74 88 53 89 54 90 62 91 55 92 61 93 63 94 60 95 56 96
REMARK SMILES IDX 57 97 58 98 59 99
REMARK H PARENT 19 7 24 33 83 52 51 63
REMARK Flexibility Score: inf
ROOT
ATOM      1  C   UNL A   1      38.272  21.698  25.450  1.00  0.00     0.023 C 
ENDROOT
BRANCH   1   2
ATOM      2  C   UNL A   1      36.985  21.889  24.636  1.00  0.00     0.023 C 
BRANCH   2   3
ATOM      3  C   UNL A   1      36.027  22.978  25.141  1.00  0.00     0.116 C 
BRANCH   3   4
ATOM      4  N   UNL A   1      35.375  22.568  26.378  1.00  0.00    -0.352 N 
ATOM      5  C   UNL A   1      34.256  22.959  27.024  1.00  0.00     0.251 C 
ATOM      6  O   UNL A   1      34.144  22.598  28.199  1.00  0.00    -0.270 OA
ATOM      7  H   UNL A   1      35.857  21.848  26.845  1.00  0.00     0.163 HD
BRANCH   5   8
ATOM      8  C   UNL A   1      33.118  23.690  26.394  1.00  0.00     0.067 C 
ATOM      9  C   UNL A   1      33.372  26.802  24.371  1.00  0.00     0.012 A 
ATOM     10  C   UNL A   1      33.672  27.020  23.002  1.00  0.00     0.049 A 
ATOM     11  C   UNL A   1      33.100  25.464  24.773  1.00  0.00     0.027 A 
ATOM     12  Cl  UNL A   1      34.133  28.579  22.395  1.00  0.00    -0.084 Cl
ATOM     13  C   UNL A   1      33.629  25.983  22.063  1.00  0.00     0.025 A 
ATOM     14  C   UNL A   1      32.970  24.454  23.792  1.00  0.00     0.128 A 
ATOM     15  C   UNL A   1      33.247  25.008  26.177  1.00  0.00     0.026 C 
ATOM     16  C   UNL A   1      33.240  24.709  22.451  1.00  0.00     0.049 A 
ATOM     17  O   UNL A   1      32.648  23.147  24.067  1.00  0.00    -0.475 OA
ATOM     18  C   UNL A   1      32.283  22.875  25.439  1.00  0.00     0.314 C 
BRANCH   9  19
ATOM     19  C   UNL A   1      33.218  27.959  25.294  1.00  0.00    -0.013 A 
ATOM     20  C   UNL A   1      30.846  28.637  24.547  1.00  0.00     0.045 C 
ATOM     21  C   UNL A   1      32.093  28.804  25.368  1.00  0.00    -0.043 A 
ATOM     22  C   UNL A   1      32.102  29.893  26.265  1.00  0.00     0.004 A 
ATOM     23  C   UNL A   1      33.166  30.111  27.134  1.00  0.00     0.000 A 
ATOM     24  C   UNL A   1      34.288  28.209  26.187  1.00  0.00     0.009 A 
ATOM     25  C   UNL A   1      34.256  29.256  27.109  1.00  0.00     0.001 A 
ENDBRANCH   9  19
BRANCH  18  26
ATOM     26  C   UNL A   1      30.771  23.032  25.668  1.00  0.00     0.429 C 
ATOM     27  F   UNL A   1      30.187  23.680  24.626  1.00  0.00    -0.167 F 
ATOM     28  F   UNL A   1      30.154  21.826  25.757  1.00  0.00    -0.167 F 
ATOM     29  F   UNL A   1      30.459  23.724  26.785  1.00  0.00    -0.167 F 
ENDBRANCH  18  26
ENDBRANCH   5   8
ENDBRANCH   3   4
ENDBRANCH   2   3
ENDBRANCH   1   2
BRANCH   1  30
ATOM     30  C   UNL A   1      38.714  22.911  26.263  1.00  0.00     0.116 C 
BRANCH  30  31
ATOM     31  N   UNL A   1      40.135  22.942  26.576  1.00  0.00    -0.352 N 
ATOM     32  C   UNL A   1      40.949  24.022  26.902  1.00  0.00     0.251 C 
ATOM     33  H   UNL A   1      40.588  22.068  26.554  1.00  0.00     0.163 HD
ATOM     34  O   UNL A   1      42.146  23.889  27.013  1.00  0.00    -0.269 OA
BRANCH  32  35
ATOM     35  C   UNL A   1      40.315  25.333  27.213  1.00  0.00     0.039 A 
ATOM     36  C   UNL A   1      40.620  26.418  26.378  1.00  0.00     0.014 A 
ATOM     37  C   UNL A   1      39.599  25.538  28.387  1.00  0.00     0.014 A 
ATOM     38  C   UNL A   1      40.414  27.719  26.835  1.00  0.00     0.010 A 
ATOM     39  C   UNL A   1      39.488  26.819  28.885  1.00  0.00     0.010 A 
ATOM     40  C   UNL A   1      39.952  27.905  28.136  1.00  0.00    -0.014 A 
BRANCH  40  41
ATOM     41  C   UNL A   1      40.062  29.166  28.862  1.00  0.00     0.031 A 
ATOM     42  C   UNL A   1      38.992  30.180  28.812  1.00  0.00     0.074 A 
ATOM     43  C   UNL A   1      41.096  29.336  29.712  1.00  0.00     0.049 A 
ATOM     44  N   UNL A   1      39.141  31.418  29.142  1.00  0.00    -0.248 NA
ATOM     45  C   UNL A   1      37.653  29.877  28.327  1.00  0.00     0.031 C 
ATOM     46  C   UNL A   1      41.221  30.326  30.778  1.00  0.00     0.029 A 
ATOM     47  N   UNL A   1      42.365  28.779  29.608  1.00  0.00    -0.354 N 
ATOM     48  C   UNL A   1      37.888  31.978  29.244  1.00  0.00     0.074 A 
ATOM     49  C   UNL A   1      37.014  31.013  28.619  1.00  0.00     0.031 C 
ATOM     50  C   UNL A   1      42.521  30.498  31.060  1.00  0.00     0.029 A 
ATOM     51  C   UNL A   1      43.279  29.730  30.088  1.00  0.00     0.049 A 
ATOM     52  H   UNL A   1      42.583  27.885  29.261  1.00  0.00     0.167 HD
ATOM     53  C   UNL A   1      37.727  33.111  29.991  1.00  0.00     0.034 A 
ATOM     54  C   UNL A   1      44.254  30.234  29.277  1.00  0.00     0.034 A 
ATOM     55  C   UNL A   1      39.022  33.647  30.434  1.00  0.00     0.049 A 
ATOM     56  C   UNL A   1      44.152  31.729  29.090  1.00  0.00     0.074 A 
ATOM     57  C   UNL A   1      39.682  33.647  31.653  1.00  0.00     0.029 A 
ATOM     58  N   UNL A   1      39.957  34.065  29.488  1.00  0.00    -0.354 N 
ATOM     59  N   UNL A   1      43.084  32.428  29.364  1.00  0.00    -0.248 NA
ATOM     60  C   UNL A   1      45.241  32.554  28.582  1.00  0.00     0.031 C 
ATOM     61  C   UNL A   1      41.037  34.009  31.422  1.00  0.00     0.029 A 
ATOM     62  C   UNL A   1      41.196  34.258  30.069  1.00  0.00     0.049 A 
ATOM     63  H   UNL A   1      39.761  34.203  28.533  1.00  0.00     0.167 HD
ATOM     64  C   UNL A   1      43.311  33.752  29.088  1.00  0.00     0.074 A 
ATOM     65  C   UNL A   1      44.686  33.778  28.617  1.00  0.00     0.031 C 
ATOM     66  C   UNL A   1      42.340  34.699  29.273  1.00  0.00     0.034 A 
BRANCH  53  67
ATOM     67  C   UNL A   1      36.402  33.562  30.593  1.00  0.00     0.023 A 
ATOM     68  C   UNL A   1      35.473  34.249  29.778  1.00  0.00     0.031 A 
ATOM     69  C   UNL A   1      36.011  33.427  31.941  1.00  0.00     0.131 A 
ATOM     70  C   UNL A   1      34.313  34.849  30.314  1.00  0.00     0.055 A 
ATOM     71  C   UNL A   1      34.886  34.064  32.485  1.00  0.00     0.041 A 
ATOM     72  F   UNL A   1      36.654  32.624  32.792  1.00  0.00    -0.206 F 
ATOM     73  C   UNL A   1      34.035  34.793  31.674  1.00  0.00     0.022 A 
BRANCH  70  74
ATOM     74  S   UNL A   1      33.163  35.708  29.205  1.00  0.00     0.124 S 
ATOM     75  O   UNL A   1      32.526  34.600  28.501  1.00  0.00    -0.237 OA
ATOM     76  O   UNL A   1      32.325  36.449  30.140  1.00  0.00    -0.237 OA
ATOM     77  O   UNL A   1      34.042  36.536  28.380  1.00  0.00    -0.744 OA
ENDBRANCH  70  74
ENDBRANCH  53  67
BRANCH  54  78
ATOM     78  C   UNL A   1      44.737  29.244  28.271  1.00  0.00     0.023 A 
ATOM     79  C   UNL A   1      45.584  28.226  28.757  1.00  0.00     0.031 A 
ATOM     80  C   UNL A   1      44.070  29.020  27.061  1.00  0.00     0.131 A 
ATOM     81  C   UNL A   1      45.574  26.957  28.164  1.00  0.00     0.055 A 
ATOM     82  C   UNL A   1      44.150  27.779  26.410  1.00  0.00     0.041 A 
ATOM     83  F   UNL A   1      43.230  29.937  26.560  1.00  0.00    -0.206 F 
ATOM     84  C   UNL A   1      44.862  26.724  26.988  1.00  0.00     0.022 A 
BRANCH  81  85
ATOM     85  S   UNL A   1      46.232  25.571  29.142  1.00  0.00     0.124 S 
ATOM     86  O   UNL A   1      47.440  25.224  28.404  1.00  0.00    -0.237 OA
ATOM     87  O   UNL A   1      46.442  26.187  30.454  1.00  0.00    -0.237 OA
ATOM     88  O   UNL A   1      45.161  24.580  29.108  1.00  0.00    -0.744 OA
ENDBRANCH  81  85
ENDBRANCH  54  78
BRANCH  66  89
ATOM     89  C   UNL A   1      42.400  36.145  28.812  1.00  0.00     0.023 A 
ATOM     90  C   UNL A   1      43.035  37.167  29.531  1.00  0.00     0.031 A 
ATOM     91  C   UNL A   1      41.861  36.535  27.559  1.00  0.00     0.131 A 
ATOM     92  C   UNL A   1      43.048  38.496  29.066  1.00  0.00     0.055 A 
ATOM     93  C   UNL A   1      41.941  37.839  27.062  1.00  0.00     0.041 A 
ATOM     94  F   UNL A   1      41.243  35.663  26.750  1.00  0.00    -0.206 F 
ATOM     95  C   UNL A   1      42.523  38.837  27.824  1.00  0.00     0.022 A 
BRANCH  92  96
ATOM     96  S   UNL A   1      43.719  39.780  30.155  1.00  0.00     0.124 S 
ATOM     97  O   UNL A   1      44.138  39.001  31.318  1.00  0.00    -0.237 OA
ATOM     98  O   UNL A   1      44.798  40.342  29.350  1.00  0.00    -0.237 OA
ATOM     99  O   UNL A   1      42.583  40.671  30.382  1.00  0.00    -0.744 OA
ENDBRANCH  92  96
ENDBRANCH  66  89
ENDBRANCH  40  41
ENDBRANCH  32  35
ENDBRANCH  30  31
ENDBRANCH   1  30
TORSDOF 16
ENDMDL
MODEL 2
REMARK VINA RESULT:     -13.8      4.122     10.394
REMARK SMILES Cc1ccccc1-c1c(Cl)ccc2c1C=C(C(=O)NCCCCNC(=O)c1ccc(-c3c4nc(c(-c5cc(S(=O)(=O)[O-])ccc5F)c5ccc([nH]5)c(-c5cc(S(=O)(=O)[O-])ccc5F)c5nc(c(-c6cc(S(=O)(=O)[O-])ccc6F)c6ccc3[nH]6)C=C5)C=C4)cc1)[C@@H](C(F)(F)F)O2
REMARK SMILES IDX 22 1 21 2 20 3 19 4 17 5 18 6 16 8 8 9 9 10 14 11 10 12
REMARK SMILES IDX 11 13 13 14 15 15 12 16 95 17 90 18 7 19 1 20 2 21 3 22 4 23
REMARK SMILES IDX 6 24 5 25 91 26 92 27 93 28 94 29 23 30 24 31 25 32 26 34
REMARK SMILES IDX 27 35 28 36 89 37 29 38 88 39 30 40 31 41 32 42 82 43 33 44
REMARK SMILES IDX 87 45 81 46 83 47 34 48 86 49 80 50 79 51 35 53 67 54 47 55
REMARK SMILES IDX 66 56 48 57 51 58 65 59 84 60 49 61 50 62 64 64 85 65 52 66
REMARK SMILES IDX 36 67 37 68 45 69 38 70 44 71 46 72 43 73 39 74 40 75 41 76
REMARK SMILES IDX 42 77 68 78 69 79 77 80 70 81 76 82 78 83 75 84 71 85 72 86
REMARK SMILES IDX 73 87 74 88 53 89 54 90 62 91 55 92 61 93 63 94 60 95 56 96
REMARK SMILES IDX 57 97 58 98 59 99
REMARK H PARENT 19 7 24 33 83 52 51 63
REMARK Flexibility Score: inf
ROOT
ATOM      1  C   UNL A   1      32.839  30.951  27.135  1.00  0.00     0.023 C 
ENDROOT
BRANCH   1   2
ATOM      2  C   UNL A   1      32.087  29.915  26.288  1.00  0.00     0.023 C 
BRANCH   2   3
ATOM      3  C   UNL A   1      32.914  28.713  25.808  1.00  0.00     0.116 C 
BRANCH   3   4
ATOM      4  N   UNL A   1      33.523  28.981  24.512  1.00  0.00    -0.352 N 
ATOM      5  C   UNL A   1      33.949  28.203  23.495  1.00  0.00     0.251 C 
ATOM      6  O   UNL A   1      34.680  28.741  22.658  1.00  0.00    -0.270 OA
ATOM      7  H   UNL A   1      33.654  29.943  24.342  1.00  0.00     0.163 HD
BRANCH   5   8
ATOM      8  C   UNL A   1      33.515  26.795  23.259  1.00  0.00     0.067 C 
ATOM      9  C   UNL A   1      33.753  23.998  25.701  1.00  0.00     0.012 A 
ATOM     10  C   UNL A   1      32.907  23.596  26.767  1.00  0.00     0.049 A 
ATOM     11  C   UNL A   1      33.239  24.963  24.790  1.00  0.00     0.027 A 
ATOM     12  Cl  UNL A   1      33.443  22.515  28.013  1.00  0.00    -0.084 Cl
ATOM     13  C   UNL A   1      31.593  24.065  26.882  1.00  0.00     0.025 A 
ATOM     14  C   UNL A   1      31.881  25.347  24.875  1.00  0.00     0.128 A 
ATOM     15  C   UNL A   1      34.118  25.816  23.953  1.00  0.00     0.026 C 
ATOM     16  C   UNL A   1      31.068  24.909  25.914  1.00  0.00     0.049 A 
ATOM     17  O   UNL A   1      31.270  26.222  24.007  1.00  0.00    -0.475 OA
ATOM     18  C   UNL A   1      32.068  26.626  22.873  1.00  0.00     0.314 C 
BRANCH   9  19
ATOM     19  C   UNL A   1      35.059  23.319  25.490  1.00  0.00    -0.013 A 
ATOM     20  C   UNL A   1      34.130  21.211  24.334  1.00  0.00     0.045 C 
ATOM     21  C   UNL A   1      35.240  22.055  24.893  1.00  0.00    -0.043 A 
ATOM     22  C   UNL A   1      36.539  21.513  24.796  1.00  0.00     0.004 A 
ATOM     23  C   UNL A   1      37.659  22.229  25.209  1.00  0.00     0.000 A 
ATOM     24  C   UNL A   1      36.217  24.021  25.906  1.00  0.00     0.009 A 
ATOM     25  C   UNL A   1      37.500  23.495  25.749  1.00  0.00     0.001 A 
ENDBRANCH   9  19
BRANCH  18  26
ATOM     26  C   UNL A   1      31.866  25.688  21.670  1.00  0.00     0.429 C 
ATOM     27  F   UNL A   1      31.139  26.298  20.697  1.00  0.00    -0.167 F 
ATOM     28  F   UNL A   1      33.050  25.349  21.101  1.00  0.00    -0.167 F 
ATOM     29  F   UNL A   1      31.225  24.540  21.978  1.00  0.00    -0.167 F 
ENDBRANCH  18  26
ENDBRANCH   5   8
ENDBRANCH   3   4
ENDBRANCH   2   3
ENDBRANCH   1   2
BRANCH   1  30
ATOM     30  C   UNL A   1      34.153  30.467  27.740  1.00  0.00     0.116 C 
BRANCH  30  31
ATOM     31  N   UNL A   1      34.902  31.490  28.454  1.00  0.00    -0.352 N 
ATOM     32  C   UNL A   1      36.122  31.397  29.118  1.00  0.00     0.251 C 
ATOM     33  H   UNL A   1      34.483  32.380  28.471  1.00  0.00     0.163 HD
ATOM     34  O   UNL A   1      36.547  32.322  29.772  1.00  0.00    -0.269 OA
BRANCH  32  35
ATOM     35  C   UNL A   1      36.951  30.175  28.932  1.00  0.00     0.039 A 
ATOM     36  C   UNL A   1      37.039  29.279  30.007  1.00  0.00     0.014 A 
ATOM     37  C   UNL A   1      37.763  30.006  27.816  1.00  0.00     0.014 A 
ATOM     38  C   UNL A   1      38.093  28.367  30.059  1.00  0.00     0.010 A 
ATOM     39  C   UNL A   1      38.864  29.181  27.911  1.00  0.00     0.010 A 
ATOM     40  C   UNL A   1      39.062  28.406  29.059  1.00  0.00    -0.014 A 
BRANCH  40  41
ATOM     41  C   UNL A   1      40.385  27.805  29.188  1.00  0.00     0.031 A 
ATOM     42  C   UNL A   1      40.646  26.418  28.760  1.00  0.00     0.074 A 
ATOM     43  C   UNL A   1      41.418  28.586  29.568  1.00  0.00     0.049 A 
ATOM     44  N   UNL A   1      41.665  25.718  29.128  1.00  0.00    -0.248 NA
ATOM     45  C   UNL A   1      39.728  25.681  27.903  1.00  0.00     0.031 C 
ATOM     46  C   UNL A   1      42.844  28.309  29.427  1.00  0.00     0.029 A 
ATOM     47  N   UNL A   1      41.363  29.703  30.392  1.00  0.00    -0.354 N 
ATOM     48  C   UNL A   1      41.724  24.607  28.317  1.00  0.00     0.074 A 
ATOM     49  C   UNL A   1      40.441  24.578  27.657  1.00  0.00     0.031 C 
ATOM     50  C   UNL A   1      43.520  29.049  30.319  1.00  0.00     0.029 A 
ATOM     51  C   UNL A   1      42.540  29.716  31.157  1.00  0.00     0.049 A 
ATOM     52  H   UNL A   1      40.634  30.363  30.432  1.00  0.00     0.167 HD
ATOM     53  C   UNL A   1      42.913  23.947  28.185  1.00  0.00     0.034 A 
ATOM     54  C   UNL A   1      42.489  29.641  32.519  1.00  0.00     0.034 A 
ATOM     55  C   UNL A   1      43.924  24.472  29.114  1.00  0.00     0.049 A 
ATOM     56  C   UNL A   1      43.196  28.426  33.069  1.00  0.00     0.074 A 
ATOM     57  C   UNL A   1      45.034  25.286  28.947  1.00  0.00     0.029 A 
ATOM     58  N   UNL A   1      43.708  24.390  30.489  1.00  0.00    -0.354 N 
ATOM     59  N   UNL A   1      43.519  27.382  32.355  1.00  0.00    -0.248 NA
ATOM     60  C   UNL A   1      43.595  28.289  34.464  1.00  0.00     0.031 C 
ATOM     61  C   UNL A   1      45.446  25.740  30.229  1.00  0.00     0.029 A 
ATOM     62  C   UNL A   1      44.607  25.180  31.179  1.00  0.00     0.049 A 
ATOM     63  H   UNL A   1      43.009  23.841  30.911  1.00  0.00     0.167 HD
ATOM     64  C   UNL A   1      44.149  26.454  33.143  1.00  0.00     0.074 A 
ATOM     65  C   UNL A   1      44.187  27.081  34.455  1.00  0.00     0.031 C 
ATOM     66  C   UNL A   1      44.577  25.256  32.638  1.00  0.00     0.034 A 
BRANCH  53  67
ATOM     67  C   UNL A   1      43.269  23.047  27.008  1.00  0.00     0.023 A 
ATOM     68  C   UNL A   1      42.801  21.713  26.994  1.00  0.00     0.031 A 
ATOM     69  C   UNL A   1      44.102  23.387  25.922  1.00  0.00     0.131 A 
ATOM     70  C   UNL A   1      43.241  20.779  26.031  1.00  0.00     0.055 A 
ATOM     71  C   UNL A   1      44.579  22.450  24.993  1.00  0.00     0.041 A 
ATOM     72  F   UNL A   1      44.449  24.649  25.659  1.00  0.00    -0.206 F 
ATOM     73  C   UNL A   1      44.160  21.133  25.052  1.00  0.00     0.022 A 
BRANCH  70  74
ATOM     74  S   UNL A   1      42.591  19.086  26.072  1.00  0.00     0.124 S 
ATOM     75  O   UNL A   1      41.329  19.222  25.352  1.00  0.00    -0.237 OA
ATOM     76  O   UNL A   1      43.643  18.333  25.399  1.00  0.00    -0.237 OA
ATOM     77  O   UNL A   1      42.457  18.808  27.502  1.00  0.00    -0.744 OA
ENDBRANCH  70  74
ENDBRANCH  53  67
BRANCH  54  78
ATOM     78  C   UNL A   1      41.276  30.297  33.089  1.00  0.00     0.023 A 
ATOM     79  C   UNL A   1      41.282  31.707  33.107  1.00  0.00     0.031 A 
ATOM     80  C   UNL A   1      40.039  29.646  33.166  1.00  0.00     0.131 A 
ATOM     81  C   UNL A   1      40.084  32.420  32.978  1.00  0.00     0.055 A 
ATOM     82  C   UNL A   1      38.838  30.370  33.147  1.00  0.00     0.041 A 
ATOM     83  F   UNL A   1      39.964  28.307  33.125  1.00  0.00    -0.206 F 
ATOM     84  C   UNL A   1      38.856  31.761  33.000  1.00  0.00     0.022 A 
BRANCH  81  85
ATOM     85  S   UNL A   1      40.196  34.159  32.454  1.00  0.00     0.124 S 
ATOM     86  O   UNL A   1      39.404  34.836  33.474  1.00  0.00    -0.237 OA
ATOM     87  O   UNL A   1      41.639  34.406  32.500  1.00  0.00    -0.237 OA
ATOM     88  O   UNL A   1      39.629  34.156  31.109  1.00  0.00    -0.744 OA
ENDBRANCH  81  85
ENDBRANCH  54  78
BRANCH  66  89
ATOM     89  C   UNL A   1      45.092  24.076  33.445  1.00  0.00     0.023 A 
ATOM     90  C   UNL A   1      46.403  23.979  33.933  1.00  0.00     0.031 A 
ATOM     91  C   UNL A   1      44.229  23.014  33.816  1.00  0.00     0.131 A 
ATOM     92  C   UNL A   1      46.833  22.854  34.663  1.00  0.00     0.055 A 
ATOM     93  C   UNL A   1      44.637  21.934  34.607  1.00  0.00     0.041 A 
ATOM     94  F   UNL A   1      42.942  22.980  33.442  1.00  0.00    -0.206 F 
ATOM     95  C   UNL A   1      45.954  21.839  35.023  1.00  0.00     0.022 A 
BRANCH  92  96
ATOM     96  S   UNL A   1      48.592  22.726  35.082  1.00  0.00     0.124 S 
ATOM     97  O   UNL A   1      49.183  23.743  34.216  1.00  0.00    -0.237 OA
ATOM     98  O   UNL A   1      48.599  23.031  36.509  1.00  0.00    -0.237 OA
ATOM     99  O   UNL A   1      48.931  21.347  34.740  1.00  0.00    -0.744 OA
ENDBRANCH  92  96
ENDBRANCH  66  89
ENDBRANCH  40  41
ENDBRANCH  32  35
ENDBRANCH  30  31
ENDBRANCH   1  30
TORSDOF 16
ENDMDL
MODEL 3
REMARK VINA RESULT:     -13.3      2.448      3.666
REMARK SMILES Cc1ccccc1-c1c(Cl)ccc2c1C=C(C(=O)NCCCCNC(=O)c1ccc(-c3c4nc(c(-c5cc(S(=O)(=O)[O-])ccc5F)c5ccc([nH]5)c(-c5cc(S(=O)(=O)[O-])ccc5F)c5nc(c(-c6cc(S(=O)(=O)[O-])ccc6F)c6ccc3[nH]6)C=C5)C=C4)cc1)[C@@H](C(F)(F)F)O2
REMARK SMILES IDX 22 1 21 2 20 3 19 4 17 5 18 6 16 8 8 9 9 10 14 11 10 12
REMARK SMILES IDX 11 13 13 14 15 15 12 16 95 17 90 18 7 19 1 20 2 21 3 22 4 23
REMARK SMILES IDX 6 24 5 25 91 26 92 27 93 28 94 29 23 30 24 31 25 32 26 34
REMARK SMILES IDX 27 35 28 36 89 37 29 38 88 39 30 40 31 41 32 42 82 43 33 44
REMARK SMILES IDX 87 45 81 46 83 47 34 48 86 49 80 50 79 51 35 53 67 54 47 55
REMARK SMILES IDX 66 56 48 57 51 58 65 59 84 60 49 61 50 62 64 64 85 65 52 66
REMARK SMILES IDX 36 67 37 68 45 69 38 70 44 71 46 72 43 73 39 74 40 75 41 76
REMARK SMILES IDX 42 77 68 78 69 79 77 80 70 81 76 82 78 83 75 84 71 85 72 86
REMARK SMILES IDX 73 87 74 88 53 89 54 90 62 91 55 92 61 93 63 94 60 95 56 96
REMARK SMILES IDX 57 97 58 98 59 99
REMARK H PARENT 19 7 24 33 83 52 51 63
REMARK Flexibility Score: inf
ROOT
ATOM      1  C   UNL A   1      38.242  21.994  25.745  1.00  0.00     0.023 C 
ENDROOT
BRANCH   1   2
ATOM      2  C   UNL A   1      37.706  23.398  25.433  1.00  0.00     0.023 C 
BRANCH   2   3
ATOM      3  C   UNL A   1      36.182  23.517  25.287  1.00  0.00     0.116 C 
BRANCH   3   4
ATOM      4  N   UNL A   1      35.497  22.878  26.403  1.00  0.00    -0.352 N 
ATOM      5  C   UNL A   1      34.322  23.091  27.032  1.00  0.00     0.251 C 
ATOM      6  O   UNL A   1      34.175  22.543  28.128  1.00  0.00    -0.270 OA
ATOM      7  H   UNL A   1      36.005  22.125  26.783  1.00  0.00     0.163 HD
BRANCH   5   8
ATOM      8  C   UNL A   1      33.168  23.840  26.452  1.00  0.00     0.067 C 
ATOM      9  C   UNL A   1      33.375  26.993  24.488  1.00  0.00     0.012 A 
ATOM     10  C   UNL A   1      33.634  27.239  23.115  1.00  0.00     0.049 A 
ATOM     11  C   UNL A   1      33.110  25.649  24.870  1.00  0.00     0.027 A 
ATOM     12  Cl  UNL A   1      34.084  28.809  22.528  1.00  0.00    -0.084 Cl
ATOM     13  C   UNL A   1      33.558  26.222  22.157  1.00  0.00     0.025 A 
ATOM     14  C   UNL A   1      32.945  24.660  23.872  1.00  0.00     0.128 A 
ATOM     15  C   UNL A   1      33.297  25.162  26.259  1.00  0.00     0.026 C 
ATOM     16  C   UNL A   1      33.175  24.942  22.530  1.00  0.00     0.049 A 
ATOM     17  O   UNL A   1      32.626  23.348  24.130  1.00  0.00    -0.475 OA
ATOM     18  C   UNL A   1      32.302  23.049  25.506  1.00  0.00     0.314 C 
BRANCH   9  19
ATOM     19  C   UNL A   1      33.254  28.131  25.440  1.00  0.00    -0.013 A 
ATOM     20  C   UNL A   1      30.912  28.909  24.697  1.00  0.00     0.045 C 
ATOM     21  C   UNL A   1      32.158  29.012  25.529  1.00  0.00    -0.043 A 
ATOM     22  C   UNL A   1      32.198  30.077  26.454  1.00  0.00     0.004 A 
ATOM     23  C   UNL A   1      33.263  30.236  27.335  1.00  0.00     0.000 A 
ATOM     24  C   UNL A   1      34.326  28.322  26.345  1.00  0.00     0.009 A 
ATOM     25  C   UNL A   1      34.323  29.345  27.294  1.00  0.00     0.001 A 
ENDBRANCH   9  19
BRANCH  18  26
ATOM     26  C   UNL A   1      30.797  23.206  25.784  1.00  0.00     0.429 C 
ATOM     27  F   UNL A   1      30.587  23.853  26.962  1.00  0.00    -0.167 F 
ATOM     28  F   UNL A   1      30.191  23.955  24.829  1.00  0.00    -0.167 F 
ATOM     29  F   UNL A   1      30.132  22.033  25.857  1.00  0.00    -0.167 F 
ENDBRANCH  18  26
ENDBRANCH   5   8
ENDBRANCH   3   4
ENDBRANCH   2   3
ENDBRANCH   1   2
BRANCH   1  30
ATOM     30  C   UNL A   1      39.527  21.957  26.566  1.00  0.00     0.116 C 
BRANCH  30  31
ATOM     31  N   UNL A   1      40.496  20.964  26.125  1.00  0.00    -0.352 N 
ATOM     32  C   UNL A   1      41.886  21.022  26.120  1.00  0.00     0.251 C 
ATOM     33  H   UNL A   1      40.110  20.128  25.776  1.00  0.00     0.163 HD
ATOM     34  O   UNL A   1      42.544  20.150  25.598  1.00  0.00    -0.269 OA
BRANCH  32  35
ATOM     35  C   UNL A   1      42.564  22.124  26.857  1.00  0.00     0.039 A 
ATOM     36  C   UNL A   1      42.469  22.126  28.256  1.00  0.00     0.014 A 
ATOM     37  C   UNL A   1      43.111  23.216  26.194  1.00  0.00     0.014 A 
ATOM     38  C   UNL A   1      42.702  23.306  28.960  1.00  0.00     0.010 A 
ATOM     39  C   UNL A   1      43.243  24.410  26.872  1.00  0.00     0.010 A 
ATOM     40  C   UNL A   1      42.979  24.469  28.245  1.00  0.00    -0.014 A 
BRANCH  40  41
ATOM     41  C   UNL A   1      42.857  25.812  28.802  1.00  0.00     0.031 A 
ATOM     42  C   UNL A   1      41.658  26.638  28.566  1.00  0.00     0.074 A 
ATOM     43  C   UNL A   1      43.797  26.242  29.670  1.00  0.00     0.049 A 
ATOM     44  N   UNL A   1      41.604  27.915  28.735  1.00  0.00    -0.248 NA
ATOM     45  C   UNL A   1      40.412  26.078  28.061  1.00  0.00     0.031 C 
ATOM     46  C   UNL A   1      43.705  27.363  30.600  1.00  0.00     0.029 A 
ATOM     47  N   UNL A   1      45.136  25.875  29.702  1.00  0.00    -0.354 N 
ATOM     48  C   UNL A   1      40.279  28.287  28.702  1.00  0.00     0.074 A 
ATOM     49  C   UNL A   1      39.598  27.131  28.169  1.00  0.00     0.031 C 
ATOM     50  C   UNL A   1      44.945  27.764  30.919  1.00  0.00     0.029 A 
ATOM     51  C   UNL A   1      45.869  27.006  30.095  1.00  0.00     0.049 A 
ATOM     52  H   UNL A   1      45.503  24.988  29.488  1.00  0.00     0.167 HD
ATOM     53  C   UNL A   1      39.907  29.466  29.283  1.00  0.00     0.034 A 
ATOM     54  C   UNL A   1      46.814  27.547  29.273  1.00  0.00     0.034 A 
ATOM     55  C   UNL A   1      41.078  30.244  29.713  1.00  0.00     0.049 A 
ATOM     56  C   UNL A   1      46.510  28.974  28.884  1.00  0.00     0.074 A 
ATOM     57  C   UNL A   1      41.647  30.495  30.951  1.00  0.00     0.029 A 
ATOM     58  N   UNL A   1      42.005  30.678  28.766  1.00  0.00    -0.354 N 
ATOM     59  N   UNL A   1      45.337  29.532  29.011  1.00  0.00    -0.248 NA
ATOM     60  C   UNL A   1      47.500  29.885  28.324  1.00  0.00     0.031 C 
ATOM     61  C   UNL A   1      42.949  31.027  30.740  1.00  0.00     0.029 A 
ATOM     62  C   UNL A   1      43.161  31.128  29.375  1.00  0.00     0.049 A 
ATOM     63  H   UNL A   1      41.856  30.665  27.793  1.00  0.00     0.167 HD
ATOM     64  C   UNL A   1      45.388  30.830  28.573  1.00  0.00     0.074 A 
ATOM     65  C   UNL A   1      46.774  31.006  28.169  1.00  0.00     0.031 C 
ATOM     66  C   UNL A   1      44.280  31.635  28.584  1.00  0.00     0.034 A 
BRANCH  53  67
ATOM     67  C   UNL A   1      38.493  29.782  29.755  1.00  0.00     0.023 A 
ATOM     68  C   UNL A   1      37.834  30.923  29.242  1.00  0.00     0.031 A 
ATOM     69  C   UNL A   1      37.766  29.078  30.736  1.00  0.00     0.131 A 
ATOM     70  C   UNL A   1      36.604  31.372  29.768  1.00  0.00     0.055 A 
ATOM     71  C   UNL A   1      36.568  29.548  31.295  1.00  0.00     0.041 A 
ATOM     72  F   UNL A   1      38.135  27.868  31.164  1.00  0.00    -0.206 F 
ATOM     73  C   UNL A   1      35.986  30.710  30.821  1.00  0.00     0.022 A 
BRANCH  70  74
ATOM     74  S   UNL A   1      35.813  32.840  29.053  1.00  0.00     0.124 S 
ATOM     75  O   UNL A   1      36.675  33.918  29.530  1.00  0.00    -0.237 OA
ATOM     76  O   UNL A   1      35.862  32.555  27.624  1.00  0.00    -0.237 OA
ATOM     77  O   UNL A   1      34.472  32.821  29.637  1.00  0.00    -0.744 OA
ENDBRANCH  70  74
ENDBRANCH  53  67
BRANCH  54  78
ATOM     78  C   UNL A   1      47.501  26.525  28.431  1.00  0.00     0.023 A 
ATOM     79  C   UNL A   1      47.153  26.508  27.064  1.00  0.00     0.031 A 
ATOM     80  C   UNL A   1      48.719  25.943  28.804  1.00  0.00     0.131 A 
ATOM     81  C   UNL A   1      48.095  26.128  26.100  1.00  0.00     0.055 A 
ATOM     82  C   UNL A   1      49.617  25.462  27.839  1.00  0.00     0.041 A 
ATOM     83  F   UNL A   1      49.120  25.952  30.084  1.00  0.00    -0.206 F 
ATOM     84  C   UNL A   1      49.329  25.601  26.478  1.00  0.00     0.022 A 
BRANCH  81  85
ATOM     85  S   UNL A   1      47.793  26.648  24.383  1.00  0.00     0.124 S 
ATOM     86  O   UNL A   1      46.383  27.020  24.421  1.00  0.00    -0.237 OA
ATOM     87  O   UNL A   1      48.739  27.754  24.221  1.00  0.00    -0.237 OA
ATOM     88  O   UNL A   1      48.114  25.461  23.597  1.00  0.00    -0.744 OA
ENDBRANCH  81  85
ENDBRANCH  54  78
BRANCH  66  89
ATOM     89  C   UNL A   1      44.162  33.005  27.938  1.00  0.00     0.023 A 
ATOM     90  C   UNL A   1      44.142  34.207  28.659  1.00  0.00     0.031 A 
ATOM     91  C   UNL A   1      44.135  33.147  26.527  1.00  0.00     0.131 A 
ATOM     92  C   UNL A   1      44.015  35.451  28.011  1.00  0.00     0.055 A 
ATOM     93  C   UNL A   1      44.086  34.386  25.882  1.00  0.00     0.041 A 
ATOM     94  F   UNL A   1      44.171  32.087  25.706  1.00  0.00    -0.206 F 
ATOM     95  C   UNL A   1      44.007  35.552  26.624  1.00  0.00     0.022 A 
BRANCH  92  96
ATOM     96  S   UNL A   1      43.799  36.932  29.034  1.00  0.00     0.124 S 
ATOM     97  O   UNL A   1      43.272  36.368  30.274  1.00  0.00    -0.237 OA
ATOM     98  O   UNL A   1      45.157  37.462  29.108  1.00  0.00    -0.237 OA
ATOM     99  O   UNL A   1      42.855  37.746  28.272  1.00  0.00    -0.744 OA
ENDBRANCH  92  96
ENDBRANCH  66  89
ENDBRANCH  40  41
ENDBRANCH  32  35
ENDBRANCH  30  31
ENDBRANCH   1  30
TORSDOF 16
ENDMDL
