MODEL 1
REMARK VINA RESULT:     -13.5      0.000      0.000
REMARK SMILES Cc1ccc(NC(=O)[C@H]2CC=CC[C@H]2C(=O)NCCCCNC(=O)c2ccc(-c3c4nc(c(-c5cc(S(=O)(=O)[O-])ccc5F)c5ccc([nH]5)c(-c5cc(S(=O)(=O)[O-])ccc5F)c5nc(c(-c6cc(S(=O)(=O)[O-])ccc6F)c6ccc3[nH]6)C=C5)C=C4)cc2)cc1F
REMARK SMILES IDX 20 1 19 2 18 3 17 4 15 5 16 6 14 8 9 9 10 10 11 11 13 12
REMARK SMILES IDX 12 13 7 14 6 15 8 17 5 18 1 19 2 20 3 21 89 22 4 23 88 24
REMARK SMILES IDX 90 25 21 26 22 27 23 28 24 30 25 31 26 32 87 33 27 34 86 35
REMARK SMILES IDX 28 36 29 37 30 38 80 39 31 40 85 41 79 42 81 43 32 44 84 45
REMARK SMILES IDX 78 46 77 47 33 49 65 50 45 51 64 52 46 53 49 54 63 55 82 56
REMARK SMILES IDX 47 57 48 58 62 60 83 61 50 62 34 63 35 64 43 65 36 66 42 67
REMARK SMILES IDX 44 68 41 69 37 70 38 71 39 72 40 73 66 74 67 75 75 76 68 77
REMARK SMILES IDX 74 78 76 79 73 80 69 81 70 82 71 83 72 84 51 85 52 86 60 87
REMARK SMILES IDX 53 88 59 89 61 90 58 91 54 92 55 93 56 94 57 95
REMARK H PARENT 17 7 6 16 22 29 81 48 49 59
REMARK Flexibility Score: inf
ROOT
ATOM      1  C   UNL A   1      34.042  28.802  25.945  1.00  0.00     0.023 C 
ENDROOT
BRANCH   1   2
ATOM      2  C   UNL A   1      32.631  28.454  25.468  1.00  0.00     0.023 C 
BRANCH   2   3
ATOM      3  C   UNL A   1      32.081  27.091  25.890  1.00  0.00     0.116 C 
BRANCH   3   4
ATOM      4  N   UNL A   1      31.750  26.222  24.777  1.00  0.00    -0.356 N 
ATOM      5  C   UNL A   1      32.397  25.150  24.252  1.00  0.00     0.224 C 
ATOM      6  O   UNL A   1      31.817  24.509  23.371  1.00  0.00    -0.275 OA
ATOM      7  H   UNL A   1      30.907  26.449  24.322  1.00  0.00     0.163 HD
BRANCH   5   8
ATOM      8  C   UNL A   1      33.758  24.682  24.756  1.00  0.00     0.095 C 
ATOM      9  C   UNL A   1      33.818  23.831  26.058  1.00  0.00     0.095 C 
ATOM     10  C   UNL A   1      34.938  22.752  26.094  1.00  0.00     0.041 C 
ATOM     11  C   UNL A   1      35.691  22.467  24.840  1.00  0.00    -0.030 C 
ATOM     12  C   UNL A   1      34.583  24.259  23.521  1.00  0.00     0.041 C 
ATOM     13  C   UNL A   1      35.536  23.134  23.698  1.00  0.00    -0.030 C 
BRANCH   9  14
ATOM     14  C   UNL A   1      32.515  23.249  26.634  1.00  0.00     0.228 C 
ATOM     15  N   UNL A   1      32.077  21.979  26.410  1.00  0.00    -0.326 N 
ATOM     16  H   UNL A   1      31.446  21.665  27.098  1.00  0.00     0.169 HD
ATOM     17  O   UNL A   1      31.789  23.934  27.366  1.00  0.00    -0.274 OA
BRANCH  15  18
ATOM     18  C   UNL A   1      32.323  21.022  25.420  1.00  0.00     0.044 A 
ATOM     19  C   UNL A   1      32.904  17.843  22.570  1.00  0.00     0.047 C 
ATOM     20  C   UNL A   1      32.728  18.936  23.577  1.00  0.00    -0.015 A 
ATOM     21  C   UNL A   1      33.016  18.739  24.927  1.00  0.00     0.008 A 
ATOM     22  C   UNL A   1      32.246  20.181  23.171  1.00  0.00     0.128 A 
ATOM     23  C   UNL A   1      32.797  19.771  25.844  1.00  0.00     0.026 A 
ATOM     24  C   UNL A   1      32.042  21.219  24.076  1.00  0.00     0.065 A 
ATOM     25  F   UNL A   1      31.927  20.385  21.885  1.00  0.00    -0.207 F 
ENDBRANCH  15  18
ENDBRANCH   9  14
ENDBRANCH   5   8
ENDBRANCH   3   4
ENDBRANCH   2   3
ENDBRANCH   1   2
BRANCH   1  26
ATOM     26  C   UNL A   1      34.108  28.848  27.450  1.00  0.00     0.116 C 
BRANCH  26  27
ATOM     27  N   UNL A   1      34.088  30.230  27.920  1.00  0.00    -0.352 N 
ATOM     28  C   UNL A   1      35.048  30.900  28.654  1.00  0.00     0.251 C 
ATOM     29  H   UNL A   1      33.288  30.751  27.684  1.00  0.00     0.163 HD
ATOM     30  O   UNL A   1      34.789  31.971  29.152  1.00  0.00    -0.269 OA
BRANCH  28  31
ATOM     31  C   UNL A   1      36.361  30.240  28.751  1.00  0.00     0.039 A 
ATOM     32  C   UNL A   1      36.741  29.476  29.854  1.00  0.00     0.014 A 
ATOM     33  C   UNL A   1      37.164  30.323  27.621  1.00  0.00     0.014 A 
ATOM     34  C   UNL A   1      37.933  28.751  29.794  1.00  0.00     0.010 A 
ATOM     35  C   UNL A   1      38.200  29.449  27.480  1.00  0.00     0.010 A 
ATOM     36  C   UNL A   1      38.648  28.729  28.594  1.00  0.00    -0.014 A 
BRANCH  36  37
ATOM     37  C   UNL A   1      39.965  28.131  28.412  1.00  0.00     0.031 A 
ATOM     38  C   UNL A   1      40.169  26.688  28.286  1.00  0.00     0.074 A 
ATOM     39  C   UNL A   1      41.009  28.990  28.371  1.00  0.00     0.049 A 
ATOM     40  N   UNL A   1      41.223  26.091  28.720  1.00  0.00    -0.248 NA
ATOM     41  C   UNL A   1      39.194  25.790  27.678  1.00  0.00     0.031 C 
ATOM     42  C   UNL A   1      42.391  28.777  27.990  1.00  0.00     0.029 A 
ATOM     43  N   UNL A   1      40.990  30.306  28.849  1.00  0.00    -0.354 N 
ATOM     44  C   UNL A   1      41.215  24.822  28.191  1.00  0.00     0.074 A 
ATOM     45  C   UNL A   1      39.875  24.636  27.674  1.00  0.00     0.031 C 
ATOM     46  C   UNL A   1      43.126  29.795  28.478  1.00  0.00     0.029 A 
ATOM     47  C   UNL A   1      42.261  30.600  29.334  1.00  0.00     0.049 A 
ATOM     48  H   UNL A   1      40.217  30.916  28.841  1.00  0.00     0.167 HD
ATOM     49  C   UNL A   1      42.395  24.148  28.079  1.00  0.00     0.034 A 
ATOM     50  C   UNL A   1      42.454  30.933  30.644  1.00  0.00     0.034 A 
ATOM     51  C   UNL A   1      43.509  24.977  28.557  1.00  0.00     0.049 A 
ATOM     52  C   UNL A   1      43.332  29.925  31.354  1.00  0.00     0.074 A 
ATOM     53  C   UNL A   1      44.433  25.777  27.903  1.00  0.00     0.029 A 
ATOM     54  N   UNL A   1      43.580  25.331  29.894  1.00  0.00    -0.354 N 
ATOM     55  N   UNL A   1      43.802  28.846  30.797  1.00  0.00    -0.248 NA
ATOM     56  C   UNL A   1      43.639  29.992  32.780  1.00  0.00     0.031 C 
ATOM     57  C   UNL A   1      45.071  26.604  28.867  1.00  0.00     0.029 A 
ATOM     58  C   UNL A   1      44.554  26.295  30.110  1.00  0.00     0.049 A 
ATOM     59  H   UNL A   1      43.012  24.947  30.601  1.00  0.00     0.167 HD
ATOM     60  C   UNL A   1      44.350  28.035  31.752  1.00  0.00     0.074 A 
ATOM     61  C   UNL A   1      44.244  28.808  32.977  1.00  0.00     0.031 C 
ATOM     62  C   UNL A   1      44.788  26.774  31.469  1.00  0.00     0.034 A 
BRANCH  49  63
ATOM     63  C   UNL A   1      42.592  22.880  27.268  1.00  0.00     0.023 A 
ATOM     64  C   UNL A   1      43.497  22.755  26.192  1.00  0.00     0.031 A 
ATOM     65  C   UNL A   1      41.876  21.707  27.590  1.00  0.00     0.131 A 
ATOM     66  C   UNL A   1      43.749  21.508  25.582  1.00  0.00     0.055 A 
ATOM     67  C   UNL A   1      42.090  20.479  26.952  1.00  0.00     0.041 A 
ATOM     68  F   UNL A   1      40.954  21.683  28.563  1.00  0.00    -0.206 F 
ATOM     69  C   UNL A   1      43.049  20.367  25.960  1.00  0.00     0.022 A 
BRANCH  66  70
ATOM     70  S   UNL A   1      45.061  21.310  24.339  1.00  0.00     0.124 S 
ATOM     71  O   UNL A   1      44.887  22.503  23.512  1.00  0.00    -0.237 OA
ATOM     72  O   UNL A   1      46.271  21.290  25.155  1.00  0.00    -0.237 OA
ATOM     73  O   UNL A   1      44.726  20.053  23.674  1.00  0.00    -0.744 OA
ENDBRANCH  66  70
ENDBRANCH  49  63
BRANCH  50  74
ATOM     74  C   UNL A   1      41.260  31.592  31.275  1.00  0.00     0.023 A 
ATOM     75  C   UNL A   1      40.447  30.884  32.175  1.00  0.00     0.031 A 
ATOM     76  C   UNL A   1      40.714  32.742  30.662  1.00  0.00     0.131 A 
ATOM     77  C   UNL A   1      39.105  31.267  32.357  1.00  0.00     0.055 A 
ATOM     78  C   UNL A   1      39.369  33.093  30.814  1.00  0.00     0.041 A 
ATOM     79  F   UNL A   1      41.450  33.461  29.796  1.00  0.00    -0.206 F 
ATOM     80  C   UNL A   1      38.548  32.332  31.641  1.00  0.00     0.022 A 
BRANCH  77  81
ATOM     81  S   UNL A   1      38.042  30.289  33.458  1.00  0.00     0.124 S 
ATOM     82  O   UNL A   1      36.717  30.666  32.979  1.00  0.00    -0.237 OA
ATOM     83  O   UNL A   1      38.441  28.915  33.177  1.00  0.00    -0.237 OA
ATOM     84  O   UNL A   1      38.410  30.779  34.782  1.00  0.00    -0.744 OA
ENDBRANCH  77  81
ENDBRANCH  50  74
BRANCH  62  85
ATOM     85  C   UNL A   1      45.443  25.848  32.462  1.00  0.00     0.023 A 
ATOM     86  C   UNL A   1      44.642  25.031  33.291  1.00  0.00     0.031 A 
ATOM     87  C   UNL A   1      46.828  25.629  32.539  1.00  0.00     0.131 A 
ATOM     88  C   UNL A   1      45.200  24.110  34.181  1.00  0.00     0.055 A 
ATOM     89  C   UNL A   1      47.393  24.742  33.464  1.00  0.00     0.041 A 
ATOM     90  F   UNL A   1      47.675  26.215  31.678  1.00  0.00    -0.206 F 
ATOM     91  C   UNL A   1      46.580  23.982  34.295  1.00  0.00     0.022 A 
BRANCH  88  92
ATOM     92  S   UNL A   1      44.143  22.999  35.149  1.00  0.00     0.124 S 
ATOM     93  O   UNL A   1      42.812  23.354  34.661  1.00  0.00    -0.237 OA
ATOM     94  O   UNL A   1      44.631  21.686  34.735  1.00  0.00    -0.237 OA
ATOM     95  O   UNL A   1      44.422  23.365  36.532  1.00  0.00    -0.744 OA
ENDBRANCH  88  92
ENDBRANCH  62  85
ENDBRANCH  36  37
ENDBRANCH  28  31
ENDBRANCH  26  27
ENDBRANCH   1  26
TORSDOF 16
ENDMDL
MODEL 2
REMARK VINA RESULT:     -13.4      1.450      1.749
REMARK SMILES Cc1ccc(NC(=O)[C@H]2CC=CC[C@H]2C(=O)NCCCCNC(=O)c2ccc(-c3c4nc(c(-c5cc(S(=O)(=O)[O-])ccc5F)c5ccc([nH]5)c(-c5cc(S(=O)(=O)[O-])ccc5F)c5nc(c(-c6cc(S(=O)(=O)[O-])ccc6F)c6ccc3[nH]6)C=C5)C=C4)cc2)cc1F
REMARK SMILES IDX 20 1 19 2 18 3 17 4 15 5 16 6 14 8 9 9 10 10 11 11 13 12
REMARK SMILES IDX 12 13 7 14 6 15 8 17 5 18 1 19 2 20 3 21 89 22 4 23 88 24
REMARK SMILES IDX 90 25 21 26 22 27 23 28 24 30 25 31 26 32 87 33 27 34 86 35
REMARK SMILES IDX 28 36 29 37 30 38 80 39 31 40 85 41 79 42 81 43 32 44 84 45
REMARK SMILES IDX 78 46 77 47 33 49 65 50 45 51 64 52 46 53 49 54 63 55 82 56
REMARK SMILES IDX 47 57 48 58 62 60 83 61 50 62 34 63 35 64 43 65 36 66 42 67
REMARK SMILES IDX 44 68 41 69 37 70 38 71 39 72 40 73 66 74 67 75 75 76 68 77
REMARK SMILES IDX 74 78 76 79 73 80 69 81 70 82 71 83 72 84 51 85 52 86 60 87
REMARK SMILES IDX 53 88 59 89 61 90 58 91 54 92 55 93 56 94 57 95
REMARK H PARENT 17 7 6 16 22 29 81 48 49 59
REMARK Flexibility Score: inf
ROOT
ATOM      1  C   UNL A   1      34.028  28.710  25.817  1.00  0.00     0.023 C 
ENDROOT
BRANCH   1   2
ATOM      2  C   UNL A   1      32.568  28.434  26.180  1.00  0.00     0.023 C 
BRANCH   2   3
ATOM      3  C   UNL A   1      32.190  26.976  26.442  1.00  0.00     0.116 C 
BRANCH   3   4
ATOM      4  N   UNL A   1      31.775  26.254  25.254  1.00  0.00    -0.356 N 
ATOM      5  C   UNL A   1      32.367  25.247  24.563  1.00  0.00     0.224 C 
ATOM      6  O   UNL A   1      31.722  24.727  23.648  1.00  0.00    -0.275 OA
ATOM      7  H   UNL A   1      30.912  26.547  24.883  1.00  0.00     0.163 HD
BRANCH   5   8
ATOM      8  C   UNL A   1      33.745  24.702  24.922  1.00  0.00     0.095 C 
ATOM      9  C   UNL A   1      33.867  23.717  26.121  1.00  0.00     0.095 C 
ATOM     10  C   UNL A   1      34.958  22.618  25.969  1.00  0.00     0.041 C 
ATOM     11  C   UNL A   1      35.620  22.453  24.643  1.00  0.00    -0.030 C 
ATOM     12  C   UNL A   1      34.475  24.395  23.597  1.00  0.00     0.041 C 
ATOM     13  C   UNL A   1      35.408  23.239  23.590  1.00  0.00    -0.030 C 
BRANCH   9  14
ATOM     14  C   UNL A   1      32.590  23.103  26.721  1.00  0.00     0.228 C 
ATOM     15  N   UNL A   1      32.114  21.866  26.409  1.00  0.00    -0.326 N 
ATOM     16  H   UNL A   1      31.519  21.498  27.103  1.00  0.00     0.169 HD
ATOM     17  O   UNL A   1      31.924  23.728  27.557  1.00  0.00    -0.274 OA
BRANCH  15  18
ATOM     18  C   UNL A   1      32.280  21.002  25.322  1.00  0.00     0.044 A 
ATOM     19  C   UNL A   1      32.582  18.110  22.142  1.00  0.00     0.047 C 
ATOM     20  C   UNL A   1      32.501  19.098  23.262  1.00  0.00    -0.015 A 
ATOM     21  C   UNL A   1      32.720  18.721  24.587  1.00  0.00     0.008 A 
ATOM     22  C   UNL A   1      32.180  20.429  22.991  1.00  0.00     0.128 A 
ATOM     23  C   UNL A   1      32.592  19.664  25.611  1.00  0.00     0.026 A 
ATOM     24  C   UNL A   1      32.067  21.377  24.004  1.00  0.00     0.065 A 
ATOM     25  F   UNL A   1      31.929  20.810  21.730  1.00  0.00    -0.207 F 
ENDBRANCH  15  18
ENDBRANCH   9  14
ENDBRANCH   5   8
ENDBRANCH   3   4
ENDBRANCH   2   3
ENDBRANCH   1   2
BRANCH   1  26
ATOM     26  C   UNL A   1      34.877  28.842  27.055  1.00  0.00     0.116 C 
BRANCH  26  27
ATOM     27  N   UNL A   1      35.060  30.249  27.401  1.00  0.00    -0.352 N 
ATOM     28  C   UNL A   1      36.081  30.826  28.132  1.00  0.00     0.251 C 
ATOM     29  H   UNL A   1      34.367  30.865  27.072  1.00  0.00     0.163 HD
ATOM     30  O   UNL A   1      35.977  31.967  28.518  1.00  0.00    -0.269 OA
BRANCH  28  31
ATOM     31  C   UNL A   1      37.264  29.980  28.366  1.00  0.00     0.039 A 
ATOM     32  C   UNL A   1      37.369  29.119  29.458  1.00  0.00     0.014 A 
ATOM     33  C   UNL A   1      38.228  29.998  27.367  1.00  0.00     0.014 A 
ATOM     34  C   UNL A   1      38.447  28.232  29.516  1.00  0.00     0.010 A 
ATOM     35  C   UNL A   1      39.144  28.991  27.313  1.00  0.00     0.010 A 
ATOM     36  C   UNL A   1      39.321  28.163  28.428  1.00  0.00    -0.014 A 
BRANCH  36  37
ATOM     37  C   UNL A   1      40.556  27.389  28.392  1.00  0.00     0.031 A 
ATOM     38  C   UNL A   1      40.579  25.943  28.174  1.00  0.00     0.074 A 
ATOM     39  C   UNL A   1      41.701  28.086  28.578  1.00  0.00     0.049 A 
ATOM     40  N   UNL A   1      41.460  25.171  28.707  1.00  0.00    -0.248 NA
ATOM     41  C   UNL A   1      39.599  25.239  27.355  1.00  0.00     0.031 C 
ATOM     42  C   UNL A   1      43.084  27.696  28.387  1.00  0.00     0.029 A 
ATOM     43  N   UNL A   1      41.786  29.358  29.157  1.00  0.00    -0.354 N 
ATOM     44  C   UNL A   1      41.363  23.953  28.076  1.00  0.00     0.074 A 
ATOM     45  C   UNL A   1      40.109  23.999  27.354  1.00  0.00     0.031 C 
ATOM     46  C   UNL A   1      43.864  28.562  29.062  1.00  0.00     0.029 A 
ATOM     47  C   UNL A   1      42.993  29.429  29.847  1.00  0.00     0.049 A 
ATOM     48  H   UNL A   1      41.114  30.074  29.088  1.00  0.00     0.167 HD
ATOM     49  C   UNL A   1      42.444  23.121  28.081  1.00  0.00     0.034 A 
ATOM     50  C   UNL A   1      43.020  29.647  31.195  1.00  0.00     0.034 A 
ATOM     51  C   UNL A   1      43.570  23.745  28.787  1.00  0.00     0.049 A 
ATOM     52  C   UNL A   1      43.630  28.478  31.938  1.00  0.00     0.074 A 
ATOM     53  C   UNL A   1      44.686  24.439  28.347  1.00  0.00     0.029 A 
ATOM     54  N   UNL A   1      43.477  23.998  30.145  1.00  0.00    -0.354 N 
ATOM     55  N   UNL A   1      44.031  27.378  31.366  1.00  0.00    -0.248 NA
ATOM     56  C   UNL A   1      43.714  28.409  33.395  1.00  0.00     0.031 C 
ATOM     57  C   UNL A   1      45.271  25.100  29.461  1.00  0.00     0.029 A 
ATOM     58  C   UNL A   1      44.527  24.793  30.583  1.00  0.00     0.049 A 
ATOM     59  H   UNL A   1      42.758  23.659  30.725  1.00  0.00     0.167 HD
ATOM     60  C   UNL A   1      44.306  26.437  32.319  1.00  0.00     0.074 A 
ATOM     61  C   UNL A   1      44.114  27.138  33.577  1.00  0.00     0.031 C 
ATOM     62  C   UNL A   1      44.607  25.145  31.997  1.00  0.00     0.034 A 
BRANCH  49  63
ATOM     63  C   UNL A   1      42.592  21.891  27.204  1.00  0.00     0.023 A 
ATOM     64  C   UNL A   1      43.597  21.726  26.226  1.00  0.00     0.031 A 
ATOM     65  C   UNL A   1      41.715  20.794  27.356  1.00  0.00     0.131 A 
ATOM     66  C   UNL A   1      43.778  20.498  25.555  1.00  0.00     0.055 A 
ATOM     67  C   UNL A   1      41.865  19.592  26.654  1.00  0.00     0.041 A 
ATOM     68  F   UNL A   1      40.689  20.821  28.217  1.00  0.00    -0.206 F 
ATOM     69  C   UNL A   1      42.915  19.428  25.767  1.00  0.00     0.022 A 
BRANCH  66  70
ATOM     70  S   UNL A   1      45.196  20.223  24.452  1.00  0.00     0.124 S 
ATOM     71  O   UNL A   1      45.886  21.511  24.507  1.00  0.00    -0.237 OA
ATOM     72  O   UNL A   1      45.893  19.116  25.101  1.00  0.00    -0.237 OA
ATOM     73  O   UNL A   1      44.582  19.915  23.163  1.00  0.00    -0.744 OA
ENDBRANCH  66  70
ENDBRANCH  49  63
BRANCH  50  74
ATOM     74  C   UNL A   1      41.842  30.433  31.697  1.00  0.00     0.023 A 
ATOM     75  C   UNL A   1      40.810  29.798  32.407  1.00  0.00     0.031 A 
ATOM     76  C   UNL A   1      41.561  31.687  31.109  1.00  0.00     0.131 A 
ATOM     77  C   UNL A   1      39.521  30.362  32.422  1.00  0.00     0.055 A 
ATOM     78  C   UNL A   1      40.268  32.221  31.092  1.00  0.00     0.041 A 
ATOM     79  F   UNL A   1      42.513  32.343  30.424  1.00  0.00    -0.206 F 
ATOM     80  C   UNL A   1      39.233  31.539  31.724  1.00  0.00     0.022 A 
BRANCH  77  81
ATOM     81  S   UNL A   1      38.176  29.484  33.270  1.00  0.00     0.124 S 
ATOM     82  O   UNL A   1      38.461  29.809  34.663  1.00  0.00    -0.237 OA
ATOM     83  O   UNL A   1      36.974  30.097  32.718  1.00  0.00    -0.237 OA
ATOM     84  O   UNL A   1      38.396  28.096  32.876  1.00  0.00    -0.744 OA
ENDBRANCH  77  81
ENDBRANCH  50  74
BRANCH  62  85
ATOM     85  C   UNL A   1      44.966  24.072  32.994  1.00  0.00     0.023 A 
ATOM     86  C   UNL A   1      46.217  24.117  33.650  1.00  0.00     0.031 A 
ATOM     87  C   UNL A   1      44.078  23.077  33.433  1.00  0.00     0.131 A 
ATOM     88  C   UNL A   1      46.570  23.185  34.629  1.00  0.00     0.055 A 
ATOM     89  C   UNL A   1      44.447  22.112  34.378  1.00  0.00     0.041 A 
ATOM     90  F   UNL A   1      42.803  23.045  33.013  1.00  0.00    -0.206 F 
ATOM     91  C   UNL A   1      45.700  22.158  34.977  1.00  0.00     0.022 A 
BRANCH  88  92
ATOM     92  S   UNL A   1      48.136  23.337  35.531  1.00  0.00     0.124 S 
ATOM     93  O   UNL A   1      48.039  22.233  36.484  1.00  0.00    -0.237 OA
ATOM     94  O   UNL A   1      49.114  23.156  34.462  1.00  0.00    -0.237 OA
ATOM     95  O   UNL A   1      48.079  24.673  36.111  1.00  0.00    -0.744 OA
ENDBRANCH  88  92
ENDBRANCH  62  85
ENDBRANCH  36  37
ENDBRANCH  28  31
ENDBRANCH  26  27
ENDBRANCH   1  26
TORSDOF 16
ENDMDL
MODEL 3
REMARK VINA RESULT:     -13.2      2.604      4.207
REMARK SMILES Cc1ccc(NC(=O)[C@H]2CC=CC[C@H]2C(=O)NCCCCNC(=O)c2ccc(-c3c4nc(c(-c5cc(S(=O)(=O)[O-])ccc5F)c5ccc([nH]5)c(-c5cc(S(=O)(=O)[O-])ccc5F)c5nc(c(-c6cc(S(=O)(=O)[O-])ccc6F)c6ccc3[nH]6)C=C5)C=C4)cc2)cc1F
REMARK SMILES IDX 20 1 19 2 18 3 17 4 15 5 16 6 14 8 9 9 10 10 11 11 13 12
REMARK SMILES IDX 12 13 7 14 6 15 8 17 5 18 1 19 2 20 3 21 89 22 4 23 88 24
REMARK SMILES IDX 90 25 21 26 22 27 23 28 24 30 25 31 26 32 87 33 27 34 86 35
REMARK SMILES IDX 28 36 29 37 30 38 80 39 31 40 85 41 79 42 81 43 32 44 84 45
REMARK SMILES IDX 78 46 77 47 33 49 65 50 45 51 64 52 46 53 49 54 63 55 82 56
REMARK SMILES IDX 47 57 48 58 62 60 83 61 50 62 34 63 35 64 43 65 36 66 42 67
REMARK SMILES IDX 44 68 41 69 37 70 38 71 39 72 40 73 66 74 67 75 75 76 68 77
REMARK SMILES IDX 74 78 76 79 73 80 69 81 70 82 71 83 72 84 51 85 52 86 60 87
REMARK SMILES IDX 53 88 59 89 61 90 58 91 54 92 55 93 56 94 57 95
REMARK H PARENT 17 7 6 16 22 29 81 48 49 59
REMARK Flexibility Score: inf
ROOT
ATOM      1  C   UNL A   1      33.320  28.924  27.449  1.00  0.00     0.023 C 
ENDROOT
BRANCH   1   2
ATOM      2  C   UNL A   1      32.622  30.114  26.790  1.00  0.00     0.023 C 
BRANCH   2   3
ATOM      3  C   UNL A   1      32.088  29.898  25.373  1.00  0.00     0.116 C 
BRANCH   3   4
ATOM      4  N   UNL A   1      33.094  29.455  24.428  1.00  0.00    -0.356 N 
ATOM      5  C   UNL A   1      33.454  28.211  24.018  1.00  0.00     0.224 C 
ATOM      6  O   UNL A   1      34.270  28.129  23.096  1.00  0.00    -0.275 OA
ATOM      7  H   UNL A   1      33.607  30.183  24.009  1.00  0.00     0.163 HD
BRANCH   5   8
ATOM      8  C   UNL A   1      32.843  26.943  24.602  1.00  0.00     0.095 C 
ATOM      9  C   UNL A   1      31.806  26.155  23.749  1.00  0.00     0.095 C 
ATOM     10  C   UNL A   1      31.835  24.610  23.930  1.00  0.00     0.041 C 
ATOM     11  C   UNL A   1      32.960  24.005  24.698  1.00  0.00    -0.030 C 
ATOM     12  C   UNL A   1      33.971  26.185  25.335  1.00  0.00     0.041 C 
ATOM     13  C   UNL A   1      33.908  24.702  25.322  1.00  0.00    -0.030 C 
BRANCH   9  14
ATOM     14  C   UNL A   1      31.642  26.502  22.259  1.00  0.00     0.228 C 
ATOM     15  N   UNL A   1      31.009  27.615  21.795  1.00  0.00    -0.326 N 
ATOM     16  H   UNL A   1      31.285  27.859  20.881  1.00  0.00     0.169 HD
ATOM     17  O   UNL A   1      32.110  25.760  21.385  1.00  0.00    -0.274 OA
BRANCH  15  18
ATOM     18  C   UNL A   1      30.056  28.488  22.328  1.00  0.00     0.044 A 
ATOM     19  C   UNL A   1      27.139  31.364  23.667  1.00  0.00     0.047 C 
ATOM     20  C   UNL A   1      28.176  30.386  23.211  1.00  0.00    -0.015 A 
ATOM     21  C   UNL A   1      29.397  30.807  22.684  1.00  0.00     0.008 A 
ATOM     22  C   UNL A   1      27.920  29.016  23.292  1.00  0.00     0.128 A 
ATOM     23  C   UNL A   1      30.321  29.863  22.228  1.00  0.00     0.026 A 
ATOM     24  C   UNL A   1      28.843  28.070  22.857  1.00  0.00     0.065 A 
ATOM     25  F   UNL A   1      26.740  28.586  23.762  1.00  0.00    -0.207 F 
ENDBRANCH  15  18
ENDBRANCH   9  14
ENDBRANCH   5   8
ENDBRANCH   3   4
ENDBRANCH   2   3
ENDBRANCH   1   2
BRANCH   1  26
ATOM     26  C   UNL A   1      34.802  29.168  27.573  1.00  0.00     0.116 C 
BRANCH  26  27
ATOM     27  N   UNL A   1      35.060  30.311  28.445  1.00  0.00    -0.352 N 
ATOM     28  C   UNL A   1      36.187  30.577  29.199  1.00  0.00     0.251 C 
ATOM     29  H   UNL A   1      34.338  30.977  28.503  1.00  0.00     0.163 HD
ATOM     30  O   UNL A   1      36.161  31.450  30.036  1.00  0.00    -0.269 OA
BRANCH  28  31
ATOM     31  C   UNL A   1      37.375  29.762  28.891  1.00  0.00     0.039 A 
ATOM     32  C   UNL A   1      38.102  29.907  27.710  1.00  0.00     0.014 A 
ATOM     33  C   UNL A   1      37.806  28.916  29.904  1.00  0.00     0.014 A 
ATOM     34  C   UNL A   1      39.307  29.214  27.572  1.00  0.00     0.010 A 
ATOM     35  C   UNL A   1      39.076  28.423  29.860  1.00  0.00     0.010 A 
ATOM     36  C   UNL A   1      39.795  28.488  28.661  1.00  0.00    -0.014 A 
BRANCH  36  37
ATOM     37  C   UNL A   1      40.962  27.614  28.631  1.00  0.00     0.031 A 
ATOM     38  C   UNL A   1      40.868  26.176  28.376  1.00  0.00     0.074 A 
ATOM     39  C   UNL A   1      42.156  28.206  28.860  1.00  0.00     0.049 A 
ATOM     40  N   UNL A   1      41.669  25.320  28.907  1.00  0.00    -0.248 NA
ATOM     41  C   UNL A   1      39.853  25.578  27.518  1.00  0.00     0.031 C 
ATOM     42  C   UNL A   1      43.505  27.706  28.689  1.00  0.00     0.029 A 
ATOM     43  N   UNL A   1      42.334  29.452  29.475  1.00  0.00    -0.354 N 
ATOM     44  C   UNL A   1      41.484  24.130  28.242  1.00  0.00     0.074 A 
ATOM     45  C   UNL A   1      40.256  24.300  27.494  1.00  0.00     0.031 C 
ATOM     46  C   UNL A   1      44.340  28.486  29.404  1.00  0.00     0.029 A 
ATOM     47  C   UNL A   1      43.526  29.404  30.192  1.00  0.00     0.049 A 
ATOM     48  H   UNL A   1      41.727  30.224  29.410  1.00  0.00     0.167 HD
ATOM     49  C   UNL A   1      42.491  23.210  28.249  1.00  0.00     0.034 A 
ATOM     50  C   UNL A   1      43.539  29.586  31.546  1.00  0.00     0.034 A 
ATOM     51  C   UNL A   1      43.649  23.719  28.996  1.00  0.00     0.049 A 
ATOM     52  C   UNL A   1      44.030  28.352  32.271  1.00  0.00     0.074 A 
ATOM     53  C   UNL A   1      44.829  24.327  28.598  1.00  0.00     0.029 A 
ATOM     54  N   UNL A   1      43.545  23.946  30.357  1.00  0.00    -0.354 N 
ATOM     55  N   UNL A   1      44.351  27.236  31.679  1.00  0.00    -0.248 NA
ATOM     56  C   UNL A   1      44.074  28.240  33.726  1.00  0.00     0.031 C 
ATOM     57  C   UNL A   1      45.441  24.909  29.741  1.00  0.00     0.029 A 
ATOM     58  C   UNL A   1      44.647  24.638  30.839  1.00  0.00     0.049 A 
ATOM     59  H   UNL A   1      42.786  23.654  30.913  1.00  0.00     0.167 HD
ATOM     60  C   UNL A   1      44.524  26.252  32.613  1.00  0.00     0.074 A 
ATOM     61  C   UNL A   1      44.362  26.936  33.884  1.00  0.00     0.031 C 
ATOM     62  C   UNL A   1      44.723  24.948  32.263  1.00  0.00     0.034 A 
BRANCH  49  63
ATOM     63  C   UNL A   1      42.556  21.994  27.343  1.00  0.00     0.023 A 
ATOM     64  C   UNL A   1      43.576  21.761  26.395  1.00  0.00     0.031 A 
ATOM     65  C   UNL A   1      41.578  20.979  27.436  1.00  0.00     0.131 A 
ATOM     66  C   UNL A   1      43.667  20.538  25.696  1.00  0.00     0.055 A 
ATOM     67  C   UNL A   1      41.641  19.786  26.706  1.00  0.00     0.041 A 
ATOM     68  F   UNL A   1      40.529  21.080  28.264  1.00  0.00    -0.206 F 
ATOM     69  C   UNL A   1      42.702  19.548  25.850  1.00  0.00     0.022 A 
BRANCH  66  70
ATOM     70  S   UNL A   1      45.091  20.160  24.632  1.00  0.00     0.124 S 
ATOM     71  O   UNL A   1      45.233  18.715  24.808  1.00  0.00    -0.237 OA
ATOM     72  O   UNL A   1      44.626  20.583  23.315  1.00  0.00    -0.237 OA
ATOM     73  O   UNL A   1      46.176  20.953  25.205  1.00  0.00    -0.744 OA
ENDBRANCH  66  70
ENDBRANCH  49  63
BRANCH  50  74
ATOM     74  C   UNL A   1      42.420  30.456  32.043  1.00  0.00     0.023 A 
ATOM     75  C   UNL A   1      41.330  29.896  32.730  1.00  0.00     0.031 A 
ATOM     76  C   UNL A   1      42.246  31.736  31.468  1.00  0.00     0.131 A 
ATOM     77  C   UNL A   1      40.090  30.560  32.735  1.00  0.00     0.055 A 
ATOM     78  C   UNL A   1      41.000  32.370  31.441  1.00  0.00     0.041 A 
ATOM     79  F   UNL A   1      43.257  32.323  30.804  1.00  0.00    -0.206 F 
ATOM     80  C   UNL A   1      39.905  31.765  32.050  1.00  0.00     0.022 A 
BRANCH  77  81
ATOM     81  S   UNL A   1      38.668  29.780  33.554  1.00  0.00     0.124 S 
ATOM     82  O   UNL A   1      38.876  28.379  33.208  1.00  0.00    -0.237 OA
ATOM     83  O   UNL A   1      38.864  30.114  34.959  1.00  0.00    -0.237 OA
ATOM     84  O   UNL A   1      37.530  30.436  32.918  1.00  0.00    -0.744 OA
ENDBRANCH  77  81
ENDBRANCH  50  74
BRANCH  62  85
ATOM     85  C   UNL A   1      44.966  23.824  33.239  1.00  0.00     0.023 A 
ATOM     86  C   UNL A   1      46.290  23.483  33.596  1.00  0.00     0.031 A 
ATOM     87  C   UNL A   1      43.950  23.158  33.942  1.00  0.00     0.131 A 
ATOM     88  C   UNL A   1      46.567  22.495  34.544  1.00  0.00     0.055 A 
ATOM     89  C   UNL A   1      44.223  22.134  34.856  1.00  0.00     0.041 A 
ATOM     90  F   UNL A   1      42.663  23.521  33.818  1.00  0.00    -0.206 F 
ATOM     91  C   UNL A   1      45.536  21.793  35.157  1.00  0.00     0.022 A 
BRANCH  88  92
ATOM     92  S   UNL A   1      48.273  22.159  35.062  1.00  0.00     0.124 S 
ATOM     93  O   UNL A   1      48.934  23.424  34.747  1.00  0.00    -0.237 OA
ATOM     94  O   UNL A   1      48.103  21.880  36.485  1.00  0.00    -0.237 OA
ATOM     95  O   UNL A   1      48.672  21.023  34.241  1.00  0.00    -0.744 OA
ENDBRANCH  88  92
ENDBRANCH  62  85
ENDBRANCH  36  37
ENDBRANCH  28  31
ENDBRANCH  26  27
ENDBRANCH   1  26
TORSDOF 16
ENDMDL
