MODEL 1
REMARK VINA RESULT:     -11.8      0.000      0.000
REMARK SMILES C[C@@H]1[C@H](C(=O)NCCCCNC(=O)c2ccc(-c3c4nc(c(-c5cc(S(=O)(=O)[O-])ccc5F)c5ccc([nH]5)c(-c5cc(S(=O)(=O)[O-])ccc5F)c5nc(c(-c6cc(S(=O)(=O)[O-])ccc6F)c6ccc3[nH]6)C=C5)C=C4)cc2)CCN1C(=O)c1c(Cl)cccc1[N+](=O)[O-]
REMARK SMILES IDX 8 1 7 2 6 3 4 4 5 5 3 7 1 8 2 9 79 10 77 11 78 12 80 13
REMARK SMILES IDX 81 14 82 15 83 16 88 17 84 18 85 19 87 20 86 21 89 22 90 23
REMARK SMILES IDX 91 24 9 25 10 26 11 27 12 28 13 30 14 31 15 32 76 33 16 34
REMARK SMILES IDX 75 35 17 36 18 37 19 38 69 39 20 40 74 41 68 42 70 43 21 44
REMARK SMILES IDX 73 45 67 46 66 47 22 49 54 50 34 51 53 52 35 53 38 54 52 55
REMARK SMILES IDX 71 56 36 57 37 58 51 60 72 61 39 62 23 63 24 64 32 65 25 66
REMARK SMILES IDX 31 67 33 68 30 69 26 70 27 71 28 72 29 73 55 74 56 75 64 76
REMARK SMILES IDX 57 77 63 78 65 79 62 80 58 81 59 82 60 83 61 84 40 85 41 86
REMARK SMILES IDX 49 87 42 88 48 89 50 90 47 91 43 92 44 93 45 94 46 95
REMARK H PARENT 6 6 11 29 70 48 38 59
REMARK Flexibility Score: inf
ROOT
ATOM      1  C   UNL A   1      32.150  27.816  26.825  1.00  0.00     0.023 C 
ENDROOT
BRANCH   1   2
ATOM      2  C   UNL A   1      31.221  27.132  25.819  1.00  0.00     0.116 C 
BRANCH   2   3
ATOM      3  N   UNL A   1      30.942  27.970  24.665  1.00  0.00    -0.356 N 
ATOM      4  C   UNL A   1      30.779  27.675  23.349  1.00  0.00     0.225 C 
ATOM      5  O   UNL A   1      30.580  28.623  22.581  1.00  0.00    -0.275 OA
ATOM      6  H   UNL A   1      30.853  28.928  24.876  1.00  0.00     0.163 HD
BRANCH   4   7
ATOM      7  C   UNL A   1      30.847  26.263  22.783  1.00  0.00     0.102 C 
ATOM      8  C   UNL A   1      33.430  26.578  22.701  1.00  0.00     0.032 C 
ATOM      9  C   UNL A   1      32.232  25.690  22.409  1.00  0.00     0.094 C 
ATOM     10  N   UNL A   1      32.261  24.346  23.017  1.00  0.00    -0.335 N 
ATOM     11  C   UNL A   1      30.140  25.212  23.640  1.00  0.00     0.037 C 
ATOM     12  C   UNL A   1      30.928  23.938  23.420  1.00  0.00     0.121 C 
BRANCH  10  13
ATOM     13  C   UNL A   1      33.225  23.351  22.944  1.00  0.00     0.262 C 
ATOM     14  O   UNL A   1      34.146  23.351  22.131  1.00  0.00    -0.269 OA
BRANCH  13  15
ATOM     15  C   UNL A   1      33.178  22.213  23.867  1.00  0.00     0.136 A 
ATOM     16  C   UNL A   1      32.571  21.020  23.459  1.00  0.00     0.060 A 
ATOM     17  C   UNL A   1      33.674  22.310  25.174  1.00  0.00     0.283 A 
ATOM     18  Cl  UNL A   1      31.907  20.811  21.877  1.00  0.00    -0.083 Cl
ATOM     19  C   UNL A   1      32.503  19.929  24.337  1.00  0.00     0.022 A 
ATOM     20  C   UNL A   1      33.624  21.210  26.049  1.00  0.00     0.086 A 
ATOM     21  C   UNL A   1      33.036  20.021  25.624  1.00  0.00     0.009 A 
BRANCH  17  22
ATOM     22  N   UNL A   1      34.316  23.524  25.660  1.00  0.00     0.063 N 
ATOM     23  O   UNL A   1      33.591  24.329  26.262  1.00  0.00    -0.258 OA
ATOM     24  O   UNL A   1      35.517  23.689  25.431  1.00  0.00    -0.258 OA
ENDBRANCH  17  22
ENDBRANCH  13  15
ENDBRANCH  10  13
ENDBRANCH   4   7
ENDBRANCH   2   3
ENDBRANCH   1   2
BRANCH   1  25
ATOM     25  C   UNL A   1      33.642  27.701  26.541  1.00  0.00     0.023 C 
BRANCH  25  26
ATOM     26  C   UNL A   1      34.259  28.898  25.839  1.00  0.00     0.116 C 
BRANCH  26  27
ATOM     27  N   UNL A   1      33.792  30.173  26.364  1.00  0.00    -0.352 N 
ATOM     28  C   UNL A   1      34.296  30.922  27.404  1.00  0.00     0.251 C 
ATOM     29  H   UNL A   1      33.006  30.553  25.911  1.00  0.00     0.163 HD
ATOM     30  O   UNL A   1      33.694  31.914  27.792  1.00  0.00    -0.269 OA
BRANCH  28  31
ATOM     31  C   UNL A   1      35.544  30.491  28.070  1.00  0.00     0.039 A 
ATOM     32  C   UNL A   1      35.464  29.714  29.227  1.00  0.00     0.014 A 
ATOM     33  C   UNL A   1      36.788  30.816  27.525  1.00  0.00     0.014 A 
ATOM     34  C   UNL A   1      36.632  29.198  29.794  1.00  0.00     0.010 A 
ATOM     35  C   UNL A   1      37.936  30.221  28.029  1.00  0.00     0.010 A 
ATOM     36  C   UNL A   1      37.874  29.414  29.176  1.00  0.00    -0.014 A 
BRANCH  36  37
ATOM     37  C   UNL A   1      39.131  28.845  29.728  1.00  0.00     0.031 A 
ATOM     38  C   UNL A   1      39.717  29.432  30.984  1.00  0.00     0.074 A 
ATOM     39  C   UNL A   1      39.779  27.868  29.066  1.00  0.00     0.049 A 
ATOM     40  N   UNL A   1      40.857  29.174  31.568  1.00  0.00    -0.248 NA
ATOM     41  C   UNL A   1      38.930  30.486  31.644  1.00  0.00     0.031 C 
ATOM     42  C   UNL A   1      39.334  27.254  27.811  1.00  0.00     0.029 A 
ATOM     43  N   UNL A   1      40.957  27.225  29.348  1.00  0.00    -0.354 N 
ATOM     44  C   UNL A   1      40.937  30.051  32.646  1.00  0.00     0.074 A 
ATOM     45  C   UNL A   1      39.764  30.897  32.585  1.00  0.00     0.031 C 
ATOM     46  C   UNL A   1      40.213  26.305  27.451  1.00  0.00     0.029 A 
ATOM     47  C   UNL A   1      41.304  26.271  28.418  1.00  0.00     0.049 A 
ATOM     48  H   UNL A   1      41.503  27.427  30.141  1.00  0.00     0.167 HD
ATOM     49  C   UNL A   1      41.883  30.125  33.615  1.00  0.00     0.034 A 
ATOM     50  C   UNL A   1      42.384  25.467  28.354  1.00  0.00     0.034 A 
ATOM     51  C   UNL A   1      43.030  29.252  33.674  1.00  0.00     0.049 A 
ATOM     52  C   UNL A   1      43.421  25.557  29.445  1.00  0.00     0.074 A 
ATOM     53  C   UNL A   1      44.026  29.197  34.631  1.00  0.00     0.029 A 
ATOM     54  N   UNL A   1      43.331  28.275  32.732  1.00  0.00    -0.354 N 
ATOM     55  N   UNL A   1      43.463  26.364  30.481  1.00  0.00    -0.248 NA
ATOM     56  C   UNL A   1      44.547  24.618  29.366  1.00  0.00     0.031 C 
ATOM     57  C   UNL A   1      44.957  28.228  34.241  1.00  0.00     0.029 A 
ATOM     58  C   UNL A   1      44.506  27.626  33.076  1.00  0.00     0.049 A 
ATOM     59  H   UNL A   1      42.789  28.073  31.935  1.00  0.00     0.167 HD
ATOM     60  C   UNL A   1      44.601  26.004  31.196  1.00  0.00     0.074 A 
ATOM     61  C   UNL A   1      45.210  24.902  30.478  1.00  0.00     0.031 C 
ATOM     62  C   UNL A   1      45.097  26.530  32.346  1.00  0.00     0.034 A 
BRANCH  49  63
ATOM     63  C   UNL A   1      41.714  31.198  34.665  1.00  0.00     0.023 A 
ATOM     64  C   UNL A   1      40.678  31.144  35.614  1.00  0.00     0.031 A 
ATOM     65  C   UNL A   1      42.562  32.319  34.685  1.00  0.00     0.131 A 
ATOM     66  C   UNL A   1      40.454  32.231  36.473  1.00  0.00     0.055 A 
ATOM     67  C   UNL A   1      42.392  33.355  35.607  1.00  0.00     0.041 A 
ATOM     68  F   UNL A   1      43.559  32.440  33.793  1.00  0.00    -0.206 F 
ATOM     69  C   UNL A   1      41.321  33.325  36.494  1.00  0.00     0.022 A 
BRANCH  66  70
ATOM     70  S   UNL A   1      38.918  32.266  37.437  1.00  0.00     0.124 S 
ATOM     71  O   UNL A   1      38.269  33.465  36.913  1.00  0.00    -0.237 OA
ATOM     72  O   UNL A   1      38.295  30.996  37.086  1.00  0.00    -0.237 OA
ATOM     73  O   UNL A   1      39.384  32.372  38.819  1.00  0.00    -0.744 OA
ENDBRANCH  66  70
ENDBRANCH  49  63
BRANCH  50  74
ATOM     74  C   UNL A   1      42.542  24.501  27.229  1.00  0.00     0.023 A 
ATOM     75  C   UNL A   1      41.993  23.211  27.304  1.00  0.00     0.031 A 
ATOM     76  C   UNL A   1      43.274  24.841  26.078  1.00  0.00     0.131 A 
ATOM     77  C   UNL A   1      42.222  22.291  26.269  1.00  0.00     0.055 A 
ATOM     78  C   UNL A   1      43.458  23.937  25.028  1.00  0.00     0.041 A 
ATOM     79  F   UNL A   1      43.813  26.064  25.951  1.00  0.00    -0.206 F 
ATOM     80  C   UNL A   1      42.940  22.650  25.127  1.00  0.00     0.022 A 
BRANCH  77  81
ATOM     81  S   UNL A   1      41.629  20.589  26.473  1.00  0.00     0.124 S 
ATOM     82  O   UNL A   1      42.098  20.269  27.816  1.00  0.00    -0.237 OA
ATOM     83  O   UNL A   1      40.187  20.751  26.317  1.00  0.00    -0.237 OA
ATOM     84  O   UNL A   1      42.292  19.866  25.390  1.00  0.00    -0.744 OA
ENDBRANCH  77  81
ENDBRANCH  50  74
BRANCH  62  85
ATOM     85  C   UNL A   1      46.328  25.875  32.922  1.00  0.00     0.023 A 
ATOM     86  C   UNL A   1      46.243  24.810  33.836  1.00  0.00     0.031 A 
ATOM     87  C   UNL A   1      47.605  26.336  32.556  1.00  0.00     0.131 A 
ATOM     88  C   UNL A   1      47.414  24.278  34.396  1.00  0.00     0.055 A 
ATOM     89  C   UNL A   1      48.767  25.762  33.071  1.00  0.00     0.041 A 
ATOM     90  F   UNL A   1      47.742  27.351  31.689  1.00  0.00    -0.206 F 
ATOM     91  C   UNL A   1      48.677  24.737  34.007  1.00  0.00     0.022 A 
BRANCH  88  92
ATOM     92  S   UNL A   1      47.265  23.039  35.712  1.00  0.00     0.124 S 
ATOM     93  O   UNL A   1      47.724  21.827  35.042  1.00  0.00    -0.237 OA
ATOM     94  O   UNL A   1      48.150  23.571  36.744  1.00  0.00    -0.237 OA
ATOM     95  O   UNL A   1      45.842  23.062  36.046  1.00  0.00    -0.744 OA
ENDBRANCH  88  92
ENDBRANCH  62  85
ENDBRANCH  36  37
ENDBRANCH  28  31
ENDBRANCH  26  27
ENDBRANCH  25  26
ENDBRANCH   1  25
TORSDOF 17
ENDMDL
MODEL 2
REMARK VINA RESULT:     -11.6      2.150      7.812
REMARK SMILES C[C@@H]1[C@H](C(=O)NCCCCNC(=O)c2ccc(-c3c4nc(c(-c5cc(S(=O)(=O)[O-])ccc5F)c5ccc([nH]5)c(-c5cc(S(=O)(=O)[O-])ccc5F)c5nc(c(-c6cc(S(=O)(=O)[O-])ccc6F)c6ccc3[nH]6)C=C5)C=C4)cc2)CCN1C(=O)c1c(Cl)cccc1[N+](=O)[O-]
REMARK SMILES IDX 8 1 7 2 6 3 4 4 5 5 3 7 1 8 2 9 79 10 77 11 78 12 80 13
REMARK SMILES IDX 81 14 82 15 83 16 88 17 84 18 85 19 87 20 86 21 89 22 90 23
REMARK SMILES IDX 91 24 9 25 10 26 11 27 12 28 13 30 14 31 15 32 76 33 16 34
REMARK SMILES IDX 75 35 17 36 18 37 19 38 69 39 20 40 74 41 68 42 70 43 21 44
REMARK SMILES IDX 73 45 67 46 66 47 22 49 54 50 34 51 53 52 35 53 38 54 52 55
REMARK SMILES IDX 71 56 36 57 37 58 51 60 72 61 39 62 23 63 24 64 32 65 25 66
REMARK SMILES IDX 31 67 33 68 30 69 26 70 27 71 28 72 29 73 55 74 56 75 64 76
REMARK SMILES IDX 57 77 63 78 65 79 62 80 58 81 59 82 60 83 61 84 40 85 41 86
REMARK SMILES IDX 49 87 42 88 48 89 50 90 47 91 43 92 44 93 45 94 46 95
REMARK H PARENT 6 6 11 29 70 48 38 59
REMARK Flexibility Score: inf
ROOT
ATOM      1  C   UNL A   1      33.342  26.995  25.449  1.00  0.00     0.023 C 
ENDROOT
BRANCH   1   2
ATOM      2  C   UNL A   1      32.756  26.051  26.501  1.00  0.00     0.116 C 
BRANCH   2   3
ATOM      3  N   UNL A   1      31.304  26.104  26.547  1.00  0.00    -0.356 N 
ATOM      4  C   UNL A   1      30.357  25.138  26.429  1.00  0.00     0.225 C 
ATOM      5  O   UNL A   1      29.176  25.499  26.477  1.00  0.00    -0.275 OA
ATOM      6  H   UNL A   1      30.940  27.008  26.692  1.00  0.00     0.163 HD
BRANCH   4   7
ATOM      7  C   UNL A   1      30.674  23.663  26.223  1.00  0.00     0.102 C 
ATOM      8  C   UNL A   1      31.100  24.253  23.724  1.00  0.00     0.032 C 
ATOM      9  C   UNL A   1      31.034  23.182  24.799  1.00  0.00     0.094 C 
ATOM     10  N   UNL A   1      32.250  22.364  24.973  1.00  0.00    -0.335 N 
ATOM     11  C   UNL A   1      31.745  23.116  27.167  1.00  0.00     0.037 C 
ATOM     12  C   UNL A   1      32.451  22.039  26.373  1.00  0.00     0.121 C 
BRANCH  10  13
ATOM     13  C   UNL A   1      32.970  21.623  24.047  1.00  0.00     0.262 C 
ATOM     14  O   UNL A   1      32.508  21.231  22.979  1.00  0.00    -0.269 OA
BRANCH  13  15
ATOM     15  C   UNL A   1      34.364  21.261  24.321  1.00  0.00     0.136 A 
ATOM     16  C   UNL A   1      34.670  19.954  24.720  1.00  0.00     0.060 A 
ATOM     17  C   UNL A   1      35.394  22.207  24.250  1.00  0.00     0.283 A 
ATOM     18  Cl  UNL A   1      33.467  18.722  24.861  1.00  0.00    -0.083 Cl
ATOM     19  C   UNL A   1      35.995  19.597  25.001  1.00  0.00     0.022 A 
ATOM     20  C   UNL A   1      36.726  21.845  24.514  1.00  0.00     0.086 A 
ATOM     21  C   UNL A   1      37.022  20.537  24.890  1.00  0.00     0.009 A 
BRANCH  17  22
ATOM     22  N   UNL A   1      35.140  23.583  23.843  1.00  0.00     0.063 N 
ATOM     23  O   UNL A   1      35.281  24.452  24.715  1.00  0.00    -0.258 OA
ATOM     24  O   UNL A   1      34.787  23.799  22.681  1.00  0.00    -0.258 OA
ENDBRANCH  17  22
ENDBRANCH  13  15
ENDBRANCH  10  13
ENDBRANCH   4   7
ENDBRANCH   2   3
ENDBRANCH   1   2
BRANCH   1  25
ATOM     25  C   UNL A   1      32.458  28.164  25.035  1.00  0.00     0.023 C 
BRANCH  25  26
ATOM     26  C   UNL A   1      33.164  29.505  24.946  1.00  0.00     0.116 C 
BRANCH  26  27
ATOM     27  N   UNL A   1      32.465  30.570  25.650  1.00  0.00    -0.352 N 
ATOM     28  C   UNL A   1      32.802  31.204  26.825  1.00  0.00     0.251 C 
ATOM     29  H   UNL A   1      31.633  30.881  25.226  1.00  0.00     0.163 HD
ATOM     30  O   UNL A   1      32.023  31.994  27.341  1.00  0.00    -0.269 OA
BRANCH  28  31
ATOM     31  C   UNL A   1      34.092  30.886  27.476  1.00  0.00     0.039 A 
ATOM     32  C   UNL A   1      35.044  31.895  27.626  1.00  0.00     0.014 A 
ATOM     33  C   UNL A   1      34.337  29.606  27.976  1.00  0.00     0.014 A 
ATOM     34  C   UNL A   1      36.213  31.640  28.348  1.00  0.00     0.010 A 
ATOM     35  C   UNL A   1      35.449  29.383  28.778  1.00  0.00     0.010 A 
ATOM     36  C   UNL A   1      36.405  30.392  28.964  1.00  0.00    -0.014 A 
BRANCH  36  37
ATOM     37  C   UNL A   1      37.617  30.100  29.773  1.00  0.00     0.031 A 
ATOM     38  C   UNL A   1      38.685  29.204  29.207  1.00  0.00     0.074 A 
ATOM     39  C   UNL A   1      37.718  30.569  31.032  1.00  0.00     0.049 A 
ATOM     40  N   UNL A   1      39.756  28.722  29.780  1.00  0.00    -0.248 NA
ATOM     41  C   UNL A   1      38.493  28.752  27.820  1.00  0.00     0.031 C 
ATOM     42  C   UNL A   1      36.723  31.406  31.708  1.00  0.00     0.029 A 
ATOM     43  N   UNL A   1      38.700  30.400  31.974  1.00  0.00    -0.354 N 
ATOM     44  C   UNL A   1      40.349  27.891  28.835  1.00  0.00     0.074 A 
ATOM     45  C   UNL A   1      39.475  27.878  27.682  1.00  0.00     0.031 C 
ATOM     46  C   UNL A   1      37.162  31.700  32.942  1.00  0.00     0.029 A 
ATOM     47  C   UNL A   1      38.443  31.039  33.165  1.00  0.00     0.049 A 
ATOM     48  H   UNL A   1      39.514  29.870  31.812  1.00  0.00     0.167 HD
ATOM     49  C   UNL A   1      41.529  27.226  28.909  1.00  0.00     0.034 A 
ATOM     50  C   UNL A   1      39.158  31.080  34.307  1.00  0.00     0.034 A 
ATOM     51  C   UNL A   1      42.400  27.276  30.057  1.00  0.00     0.049 A 
ATOM     52  C   UNL A   1      40.471  30.341  34.366  1.00  0.00     0.074 A 
ATOM     53  C   UNL A   1      43.640  26.688  30.228  1.00  0.00     0.029 A 
ATOM     54  N   UNL A   1      42.120  27.962  31.233  1.00  0.00    -0.354 N 
ATOM     55  N   UNL A   1      41.040  29.592  33.450  1.00  0.00    -0.248 NA
ATOM     56  C   UNL A   1      41.245  30.466  35.608  1.00  0.00     0.031 C 
ATOM     57  C   UNL A   1      44.084  26.970  31.525  1.00  0.00     0.029 A 
ATOM     58  C   UNL A   1      43.155  27.795  32.140  1.00  0.00     0.049 A 
ATOM     59  H   UNL A   1      41.306  28.489  31.399  1.00  0.00     0.167 HD
ATOM     60  C   UNL A   1      42.256  29.187  33.992  1.00  0.00     0.074 A 
ATOM     61  C   UNL A   1      42.340  29.783  35.310  1.00  0.00     0.031 C 
ATOM     62  C   UNL A   1      43.220  28.398  33.450  1.00  0.00     0.034 A 
BRANCH  49  63
ATOM     63  C   UNL A   1      41.919  26.378  27.720  1.00  0.00     0.023 A 
ATOM     64  C   UNL A   1      41.502  25.041  27.598  1.00  0.00     0.031 A 
ATOM     65  C   UNL A   1      42.766  26.892  26.722  1.00  0.00     0.131 A 
ATOM     66  C   UNL A   1      42.009  24.237  26.566  1.00  0.00     0.055 A 
ATOM     67  C   UNL A   1      43.192  26.113  25.643  1.00  0.00     0.041 A 
ATOM     68  F   UNL A   1      43.216  28.156  26.790  1.00  0.00    -0.206 F 
ATOM     69  C   UNL A   1      42.830  24.772  25.572  1.00  0.00     0.022 A 
BRANCH  66  70
ATOM     70  S   UNL A   1      41.716  22.449  26.642  1.00  0.00     0.124 S 
ATOM     71  O   UNL A   1      40.261  22.395  26.766  1.00  0.00    -0.237 OA
ATOM     72  O   UNL A   1      42.267  21.983  25.376  1.00  0.00    -0.237 OA
ATOM     73  O   UNL A   1      42.451  22.031  27.836  1.00  0.00    -0.744 OA
ENDBRANCH  66  70
ENDBRANCH  49  63
BRANCH  50  74
ATOM     74  C   UNL A   1      38.662  31.851  35.483  1.00  0.00     0.023 A 
ATOM     75  C   UNL A   1      38.150  31.193  36.612  1.00  0.00     0.031 A 
ATOM     76  C   UNL A   1      38.661  33.257  35.481  1.00  0.00     0.131 A 
ATOM     77  C   UNL A   1      37.614  31.938  37.674  1.00  0.00     0.055 A 
ATOM     78  C   UNL A   1      38.172  33.995  36.562  1.00  0.00     0.041 A 
ATOM     79  F   UNL A   1      39.148  33.936  34.430  1.00  0.00    -0.206 F 
ATOM     80  C   UNL A   1      37.633  33.334  37.662  1.00  0.00     0.022 A 
BRANCH  77  81
ATOM     81  S   UNL A   1      36.821  31.052  39.045  1.00  0.00     0.124 S 
ATOM     82  O   UNL A   1      35.578  31.799  39.200  1.00  0.00    -0.237 OA
ATOM     83  O   UNL A   1      36.697  29.703  38.501  1.00  0.00    -0.237 OA
ATOM     84  O   UNL A   1      37.777  31.195  40.140  1.00  0.00    -0.744 OA
ENDBRANCH  77  81
ENDBRANCH  50  74
BRANCH  62  85
ATOM     85  C   UNL A   1      44.471  28.189  34.266  1.00  0.00     0.023 A 
ATOM     86  C   UNL A   1      44.609  27.105  35.150  1.00  0.00     0.031 A 
ATOM     87  C   UNL A   1      45.538  29.100  34.161  1.00  0.00     0.131 A 
ATOM     88  C   UNL A   1      45.765  26.990  35.936  1.00  0.00     0.055 A 
ATOM     89  C   UNL A   1      46.709  28.946  34.903  1.00  0.00     0.041 A 
ATOM     90  F   UNL A   1      45.457  30.154  33.333  1.00  0.00    -0.206 F 
ATOM     91  C   UNL A   1      46.823  27.895  35.806  1.00  0.00     0.022 A 
BRANCH  88  92
ATOM     92  S   UNL A   1      45.832  25.692  37.202  1.00  0.00     0.124 S 
ATOM     93  O   UNL A   1      46.441  24.587  36.473  1.00  0.00    -0.237 OA
ATOM     94  O   UNL A   1      46.659  26.307  38.236  1.00  0.00    -0.237 OA
ATOM     95  O   UNL A   1      44.429  25.497  37.568  1.00  0.00    -0.744 OA
ENDBRANCH  88  92
ENDBRANCH  62  85
ENDBRANCH  36  37
ENDBRANCH  28  31
ENDBRANCH  26  27
ENDBRANCH  25  26
ENDBRANCH   1  25
TORSDOF 17
ENDMDL
MODEL 3
REMARK VINA RESULT:     -11.6      3.202      8.510
REMARK SMILES C[C@@H]1[C@H](C(=O)NCCCCNC(=O)c2ccc(-c3c4nc(c(-c5cc(S(=O)(=O)[O-])ccc5F)c5ccc([nH]5)c(-c5cc(S(=O)(=O)[O-])ccc5F)c5nc(c(-c6cc(S(=O)(=O)[O-])ccc6F)c6ccc3[nH]6)C=C5)C=C4)cc2)CCN1C(=O)c1c(Cl)cccc1[N+](=O)[O-]
REMARK SMILES IDX 8 1 7 2 6 3 4 4 5 5 3 7 1 8 2 9 79 10 77 11 78 12 80 13
REMARK SMILES IDX 81 14 82 15 83 16 88 17 84 18 85 19 87 20 86 21 89 22 90 23
REMARK SMILES IDX 91 24 9 25 10 26 11 27 12 28 13 30 14 31 15 32 76 33 16 34
REMARK SMILES IDX 75 35 17 36 18 37 19 38 69 39 20 40 74 41 68 42 70 43 21 44
REMARK SMILES IDX 73 45 67 46 66 47 22 49 54 50 34 51 53 52 35 53 38 54 52 55
REMARK SMILES IDX 71 56 36 57 37 58 51 60 72 61 39 62 23 63 24 64 32 65 25 66
REMARK SMILES IDX 31 67 33 68 30 69 26 70 27 71 28 72 29 73 55 74 56 75 64 76
REMARK SMILES IDX 57 77 63 78 65 79 62 80 58 81 59 82 60 83 61 84 40 85 41 86
REMARK SMILES IDX 49 87 42 88 48 89 50 90 47 91 43 92 44 93 45 94 46 95
REMARK H PARENT 6 6 11 29 70 48 38 59
REMARK Flexibility Score: inf
ROOT
ATOM      1  C   UNL A   1      32.108  30.109  26.889  1.00  0.00     0.023 C 
ENDROOT
BRANCH   1   2
ATOM      2  C   UNL A   1      32.714  29.479  25.633  1.00  0.00     0.116 C 
BRANCH   2   3
ATOM      3  N   UNL A   1      31.877  29.668  24.460  1.00  0.00    -0.356 N 
ATOM      4  C   UNL A   1      31.176  28.790  23.696  1.00  0.00     0.225 C 
ATOM      5  O   UNL A   1      30.572  29.252  22.721  1.00  0.00    -0.275 OA
ATOM      6  H   UNL A   1      31.804  30.604  24.165  1.00  0.00     0.163 HD
BRANCH   4   7
ATOM      7  C   UNL A   1      31.115  27.293  23.966  1.00  0.00     0.102 C 
ATOM      8  C   UNL A   1      33.473  27.148  22.872  1.00  0.00     0.032 C 
ATOM      9  C   UNL A   1      32.302  26.417  23.508  1.00  0.00     0.094 C 
ATOM     10  N   UNL A   1      32.624  25.576  24.677  1.00  0.00    -0.335 N 
ATOM     11  C   UNL A   1      30.825  26.932  25.424  1.00  0.00     0.037 C 
ATOM     12  C   UNL A   1      31.550  25.624  25.652  1.00  0.00     0.121 C 
BRANCH  10  13
ATOM     13  C   UNL A   1      33.551  24.553  24.816  1.00  0.00     0.262 C 
ATOM     14  O   UNL A   1      34.734  24.737  25.090  1.00  0.00    -0.269 OA
BRANCH  13  15
ATOM     15  C   UNL A   1      33.140  23.159  24.630  1.00  0.00     0.136 A 
ATOM     16  C   UNL A   1      32.938  22.668  23.334  1.00  0.00     0.060 A 
ATOM     17  C   UNL A   1      32.884  22.318  25.721  1.00  0.00     0.283 A 
ATOM     18  Cl  UNL A   1      33.202  23.633  21.925  1.00  0.00    -0.083 Cl
ATOM     19  C   UNL A   1      32.529  21.342  23.140  1.00  0.00     0.022 A 
ATOM     20  C   UNL A   1      32.491  20.982  25.527  1.00  0.00     0.086 A 
ATOM     21  C   UNL A   1      32.314  20.499  24.232  1.00  0.00     0.009 A 
BRANCH  17  22
ATOM     22  N   UNL A   1      33.073  22.769  27.093  1.00  0.00     0.063 N 
ATOM     23  O   UNL A   1      34.237  22.776  27.517  1.00  0.00    -0.258 OA
ATOM     24  O   UNL A   1      32.080  23.095  27.750  1.00  0.00    -0.258 OA
ENDBRANCH  17  22
ENDBRANCH  13  15
ENDBRANCH  10  13
ENDBRANCH   4   7
ENDBRANCH   2   3
ENDBRANCH   1   2
BRANCH   1  25
ATOM     25  C   UNL A   1      31.911  31.619  26.850  1.00  0.00     0.023 C 
BRANCH  25  26
ATOM     26  C   UNL A   1      33.096  32.436  27.334  1.00  0.00     0.116 C 
BRANCH  26  27
ATOM     27  N   UNL A   1      32.750  33.810  27.663  1.00  0.00    -0.352 N 
ATOM     28  C   UNL A   1      33.256  34.622  28.653  1.00  0.00     0.251 C 
ATOM     29  H   UNL A   1      32.055  34.217  27.097  1.00  0.00     0.163 HD
ATOM     30  O   UNL A   1      32.752  35.717  28.866  1.00  0.00    -0.269 OA
BRANCH  28  31
ATOM     31  C   UNL A   1      34.384  34.140  29.480  1.00  0.00     0.039 A 
ATOM     32  C   UNL A   1      34.120  33.316  30.576  1.00  0.00     0.014 A 
ATOM     33  C   UNL A   1      35.700  34.465  29.143  1.00  0.00     0.014 A 
ATOM     34  C   UNL A   1      35.182  32.755  31.288  1.00  0.00     0.010 A 
ATOM     35  C   UNL A   1      36.751  33.827  29.788  1.00  0.00     0.010 A 
ATOM     36  C   UNL A   1      36.506  32.974  30.875  1.00  0.00    -0.014 A 
BRANCH  36  37
ATOM     37  C   UNL A   1      37.658  32.359  31.584  1.00  0.00     0.031 A 
ATOM     38  C   UNL A   1      38.418  31.239  30.925  1.00  0.00     0.074 A 
ATOM     39  C   UNL A   1      37.965  32.746  32.837  1.00  0.00     0.049 A 
ATOM     40  N   UNL A   1      39.369  30.484  31.408  1.00  0.00    -0.248 NA
ATOM     41  C   UNL A   1      38.018  30.895  29.552  1.00  0.00     0.031 C 
ATOM     42  C   UNL A   1      37.268  33.787  33.598  1.00  0.00     0.029 A 
ATOM     43  N   UNL A   1      38.937  32.304  33.698  1.00  0.00    -0.354 N 
ATOM     44  C   UNL A   1      39.661  29.560  30.410  1.00  0.00     0.074 A 
ATOM     45  C   UNL A   1      38.732  29.805  29.328  1.00  0.00     0.031 C 
ATOM     46  C   UNL A   1      37.856  33.921  34.798  1.00  0.00     0.029 A 
ATOM     47  C   UNL A   1      38.938  32.950  34.913  1.00  0.00     0.049 A 
ATOM     48  H   UNL A   1      39.575  31.591  33.467  1.00  0.00     0.167 HD
ATOM     49  C   UNL A   1      40.634  28.615  30.383  1.00  0.00     0.034 A 
ATOM     50  C   UNL A   1      39.720  32.773  35.996  1.00  0.00     0.034 A 
ATOM     51  C   UNL A   1      41.569  28.407  31.461  1.00  0.00     0.049 A 
ATOM     52  C   UNL A   1      40.802  31.723  35.944  1.00  0.00     0.074 A 
ATOM     53  C   UNL A   1      42.627  27.518  31.529  1.00  0.00     0.029 A 
ATOM     54  N   UNL A   1      41.559  29.103  32.664  1.00  0.00    -0.354 N 
ATOM     55  N   UNL A   1      41.093  30.883  34.977  1.00  0.00    -0.248 NA
ATOM     56  C   UNL A   1      41.669  31.609  37.124  1.00  0.00     0.031 C 
ATOM     57  C   UNL A   1      43.221  27.637  32.790  1.00  0.00     0.029 A 
ATOM     58  C   UNL A   1      42.580  28.651  33.485  1.00  0.00     0.049 A 
ATOM     59  H   UNL A   1      40.920  29.814  32.899  1.00  0.00     0.167 HD
ATOM     60  C   UNL A   1      42.201  30.166  35.419  1.00  0.00     0.074 A 
ATOM     61  C   UNL A   1      42.530  30.680  36.733  1.00  0.00     0.031 C 
ATOM     62  C   UNL A   1      42.890  29.176  34.794  1.00  0.00     0.034 A 
BRANCH  49  63
ATOM     63  C   UNL A   1      40.709  27.734  29.157  1.00  0.00     0.023 A 
ATOM     64  C   UNL A   1      41.658  27.959  28.145  1.00  0.00     0.031 A 
ATOM     65  C   UNL A   1      39.784  26.692  28.967  1.00  0.00     0.131 A 
ATOM     66  C   UNL A   1      41.600  27.225  26.951  1.00  0.00     0.055 A 
ATOM     67  C   UNL A   1      39.792  25.901  27.816  1.00  0.00     0.041 A 
ATOM     68  F   UNL A   1      38.840  26.439  29.888  1.00  0.00    -0.206 F 
ATOM     69  C   UNL A   1      40.690  26.178  26.790  1.00  0.00     0.022 A 
BRANCH  66  70
ATOM     70  S   UNL A   1      42.616  27.772  25.551  1.00  0.00     0.124 S 
ATOM     71  O   UNL A   1      43.886  28.068  26.209  1.00  0.00    -0.237 OA
ATOM     72  O   UNL A   1      42.606  26.605  24.678  1.00  0.00    -0.237 OA
ATOM     73  O   UNL A   1      41.899  28.940  25.042  1.00  0.00    -0.744 OA
ENDBRANCH  66  70
ENDBRANCH  49  63
BRANCH  50  74
ATOM     74  C   UNL A   1      39.524  33.606  37.216  1.00  0.00     0.023 A 
ATOM     75  C   UNL A   1      40.291  34.762  37.431  1.00  0.00     0.031 A 
ATOM     76  C   UNL A   1      38.590  33.241  38.202  1.00  0.00     0.131 A 
ATOM     77  C   UNL A   1      40.146  35.487  38.624  1.00  0.00     0.055 A 
ATOM     78  C   UNL A   1      38.415  33.993  39.366  1.00  0.00     0.041 A 
ATOM     79  F   UNL A   1      37.825  32.149  38.043  1.00  0.00    -0.206 F 
ATOM     80  C   UNL A   1      39.205  35.117  39.587  1.00  0.00     0.022 A 
BRANCH  77  81
ATOM     81  S   UNL A   1      41.263  36.883  38.934  1.00  0.00     0.124 S 
ATOM     82  O   UNL A   1      40.321  37.951  39.253  1.00  0.00    -0.237 OA
ATOM     83  O   UNL A   1      42.069  36.385  40.044  1.00  0.00    -0.237 OA
ATOM     84  O   UNL A   1      41.976  37.035  37.668  1.00  0.00    -0.744 OA
ENDBRANCH  77  81
ENDBRANCH  50  74
BRANCH  62  85
ATOM     85  C   UNL A   1      44.103  28.631  35.508  1.00  0.00     0.023 A 
ATOM     86  C   UNL A   1      44.010  27.569  36.423  1.00  0.00     0.031 A 
ATOM     87  C   UNL A   1      45.369  29.195  35.272  1.00  0.00     0.131 A 
ATOM     88  C   UNL A   1      45.155  27.141  37.112  1.00  0.00     0.055 A 
ATOM     89  C   UNL A   1      46.513  28.725  35.916  1.00  0.00     0.041 A 
ATOM     90  F   UNL A   1      45.513  30.213  34.408  1.00  0.00    -0.206 F 
ATOM     91  C   UNL A   1      46.409  27.702  36.852  1.00  0.00     0.022 A 
BRANCH  88  92
ATOM     92  S   UNL A   1      44.969  25.901  38.423  1.00  0.00     0.124 S 
ATOM     93  O   UNL A   1      44.090  24.922  37.795  1.00  0.00    -0.237 OA
ATOM     94  O   UNL A   1      46.347  25.472  38.644  1.00  0.00    -0.237 OA
ATOM     95  O   UNL A   1      44.372  26.654  39.525  1.00  0.00    -0.744 OA
ENDBRANCH  88  92
ENDBRANCH  62  85
ENDBRANCH  36  37
ENDBRANCH  28  31
ENDBRANCH  26  27
ENDBRANCH  25  26
ENDBRANCH   1  25
TORSDOF 17
ENDMDL
