MODEL 1
REMARK VINA RESULT:     -12.6      0.000      0.000
REMARK SMILES COc1ccc(S(=O)(=O)Nc2c(C)cccc2C(=O)NCCCCNC(=O)c2ccc(-c3c4nc(c(-c5cc(S(=O)(=O)[O-])ccc5F)c5ccc([nH]5)c(-c5cc(S(=O)(=O)[O-])ccc5F)c5nc(c(-c6cc(S(=O)(=O)[O-])ccc6F)c6ccc3[nH]6)C=C5)C=C4)cc2)cc1
REMARK SMILES IDX 22 1 21 2 20 3 18 4 19 5 17 7 11 8 12 9 13 10 14 11 16 12
REMARK SMILES IDX 15 13 10 14 7 16 8 17 9 18 6 19 3 20 4 21 92 22 5 23 91 24
REMARK SMILES IDX 2 25 1 26 23 27 24 28 25 29 26 30 27 32 28 33 29 34 90 35
REMARK SMILES IDX 30 36 89 37 31 38 32 39 33 40 83 41 34 42 88 43 82 44 84 45
REMARK SMILES IDX 35 46 87 47 81 48 80 49 36 51 68 52 48 53 67 54 49 55 52 56
REMARK SMILES IDX 66 57 85 58 50 59 51 60 65 62 86 63 53 64 37 65 38 66 46 67
REMARK SMILES IDX 39 68 45 69 47 70 44 71 40 72 41 73 42 74 43 75 69 76 70 77
REMARK SMILES IDX 78 78 71 79 77 80 79 81 76 82 72 83 73 84 74 85 75 86 54 87
REMARK SMILES IDX 55 88 63 89 56 90 62 91 64 92 61 93 57 94 58 95 59 96 60 97
REMARK H PARENT 20 6 10 15 25 31 84 50 52 61
REMARK Flexibility Score: inf
ROOT
ATOM      1  C   UNL A   1      36.135  23.173  23.648  1.00  0.00     0.023 C 
ENDROOT
BRANCH   1   2
ATOM      2  C   UNL A   1      34.799  23.115  24.375  1.00  0.00     0.116 C 
BRANCH   2   3
ATOM      3  N   UNL A   1      33.828  22.206  23.797  1.00  0.00    -0.352 N 
ATOM      4  C   UNL A   1      32.664  22.478  23.119  1.00  0.00     0.253 C 
ATOM      5  O   UNL A   1      31.978  21.536  22.724  1.00  0.00    -0.269 OA
ATOM      6  H   UNL A   1      34.034  21.249  23.908  1.00  0.00     0.163 HD
BRANCH   4   7
ATOM      7  C   UNL A   1      32.151  23.863  22.917  1.00  0.00     0.064 A 
ATOM      8  C   UNL A   1      31.063  24.442  23.605  1.00  0.00     0.064 A 
ATOM      9  C   UNL A   1      30.613  25.730  23.242  1.00  0.00    -0.026 A 
ATOM     10  C   UNL A   1      29.387  26.386  23.818  1.00  0.00     0.046 C 
ATOM     11  C   UNL A   1      31.341  26.467  22.289  1.00  0.00     0.005 A 
ATOM     12  C   UNL A   1      32.866  24.633  21.982  1.00  0.00     0.016 A 
ATOM     13  C   UNL A   1      32.473  25.933  21.681  1.00  0.00     0.001 A 
BRANCH   8  14
ATOM     14  N   UNL A   1      30.472  23.754  24.712  1.00  0.00    -0.279 N 
ATOM     15  H   UNL A   1      29.691  23.174  24.563  1.00  0.00     0.180 HD
BRANCH  14  16
ATOM     16  S   UNL A   1      31.098  23.925  26.276  1.00  0.00     0.261 S 
ATOM     17  O   UNL A   1      32.133  22.924  26.379  1.00  0.00    -0.201 OA
ATOM     18  O   UNL A   1      29.966  23.905  27.186  1.00  0.00    -0.201 OA
BRANCH  16  19
ATOM     19  C   UNL A   1      31.847  25.526  26.389  1.00  0.00     0.088 A 
ATOM     20  C   UNL A   1      33.006  28.070  26.297  1.00  0.00     0.118 A 
ATOM     21  C   UNL A   1      31.687  27.908  26.737  1.00  0.00     0.048 A 
ATOM     22  C   UNL A   1      33.750  26.948  25.931  1.00  0.00     0.048 A 
ATOM     23  C   UNL A   1      31.100  26.639  26.785  1.00  0.00     0.026 A 
ATOM     24  C   UNL A   1      33.161  25.684  25.945  1.00  0.00     0.026 A 
BRANCH  20  25
ATOM     25  O   UNL A   1      33.460  29.360  26.256  1.00  0.00    -0.497 OA
ATOM     26  C   UNL A   1      32.467  30.362  26.060  1.00  0.00     0.278 C 
ENDBRANCH  20  25
ENDBRANCH  16  19
ENDBRANCH  14  16
ENDBRANCH   8  14
ENDBRANCH   4   7
ENDBRANCH   2   3
ENDBRANCH   1   2
BRANCH   1  27
ATOM     27  C   UNL A   1      37.065  21.979  23.878  1.00  0.00     0.023 C 
BRANCH  27  28
ATOM     28  C   UNL A   1      37.281  21.535  25.326  1.00  0.00     0.116 C 
BRANCH  28  29
ATOM     29  N   UNL A   1      38.395  20.614  25.506  1.00  0.00    -0.352 N 
ATOM     30  C   UNL A   1      39.614  20.800  26.119  1.00  0.00     0.251 C 
ATOM     31  H   UNL A   1      38.254  19.716  25.130  1.00  0.00     0.163 HD
ATOM     32  O   UNL A   1      40.457  19.908  26.085  1.00  0.00    -0.269 OA
BRANCH  30  33
ATOM     33  C   UNL A   1      39.928  22.095  26.761  1.00  0.00     0.039 A 
ATOM     34  C   UNL A   1      40.881  22.123  27.783  1.00  0.00     0.014 A 
ATOM     35  C   UNL A   1      39.332  23.280  26.326  1.00  0.00     0.014 A 
ATOM     36  C   UNL A   1      41.333  23.351  28.271  1.00  0.00     0.010 A 
ATOM     37  C   UNL A   1      39.837  24.505  26.761  1.00  0.00     0.010 A 
ATOM     38  C   UNL A   1      40.869  24.552  27.710  1.00  0.00    -0.014 A 
BRANCH  38  39
ATOM     39  C   UNL A   1      41.518  25.853  28.033  1.00  0.00     0.031 A 
ATOM     40  C   UNL A   1      40.752  26.945  28.722  1.00  0.00     0.074 A 
ATOM     41  C   UNL A   1      42.782  26.076  27.616  1.00  0.00     0.049 A 
ATOM     42  N   UNL A   1      41.126  28.169  28.999  1.00  0.00    -0.248 NA
ATOM     43  C   UNL A   1      39.378  26.627  29.136  1.00  0.00     0.031 C 
ATOM     44  C   UNL A   1      43.617  25.109  26.898  1.00  0.00     0.029 A 
ATOM     45  N   UNL A   1      43.585  27.187  27.720  1.00  0.00    -0.354 N 
ATOM     46  C   UNL A   1      40.034  28.771  29.612  1.00  0.00     0.074 A 
ATOM     47  C   UNL A   1      38.967  27.791  29.617  1.00  0.00     0.031 C 
ATOM     48  C   UNL A   1      44.814  25.661  26.645  1.00  0.00     0.029 A 
ATOM     49  C   UNL A   1      44.818  27.037  27.128  1.00  0.00     0.049 A 
ATOM     50  H   UNL A   1      43.303  28.013  28.176  1.00  0.00     0.167 HD
ATOM     51  C   UNL A   1      39.937  30.019  30.136  1.00  0.00     0.034 A 
ATOM     52  C   UNL A   1      45.831  27.913  26.965  1.00  0.00     0.034 A 
ATOM     53  C   UNL A   1      41.011  30.984  30.120  1.00  0.00     0.049 A 
ATOM     54  C   UNL A   1      45.678  29.312  27.502  1.00  0.00     0.074 A 
ATOM     55  C   UNL A   1      41.042  32.247  30.688  1.00  0.00     0.029 A 
ATOM     56  N   UNL A   1      42.236  30.807  29.488  1.00  0.00    -0.354 N 
ATOM     57  N   UNL A   1      44.660  29.843  28.142  1.00  0.00    -0.248 NA
ATOM     58  C   UNL A   1      46.805  30.230  27.297  1.00  0.00     0.031 C 
ATOM     59  C   UNL A   1      42.248  32.861  30.332  1.00  0.00     0.029 A 
ATOM     60  C   UNL A   1      43.006  31.955  29.609  1.00  0.00     0.049 A 
ATOM     61  H   UNL A   1      42.516  29.986  29.022  1.00  0.00     0.167 HD
ATOM     62  C   UNL A   1      45.036  31.152  28.431  1.00  0.00     0.074 A 
ATOM     63  C   UNL A   1      46.379  31.323  27.914  1.00  0.00     0.031 C 
ATOM     64  C   UNL A   1      44.335  32.124  29.067  1.00  0.00     0.034 A 
BRANCH  51  65
ATOM     65  C   UNL A   1      38.614  30.420  30.742  1.00  0.00     0.023 A 
ATOM     66  C   UNL A   1      37.606  31.031  29.978  1.00  0.00     0.031 A 
ATOM     67  C   UNL A   1      38.359  30.196  32.107  1.00  0.00     0.131 A 
ATOM     68  C   UNL A   1      36.422  31.463  30.596  1.00  0.00     0.055 A 
ATOM     69  C   UNL A   1      37.148  30.555  32.699  1.00  0.00     0.041 A 
ATOM     70  F   UNL A   1      39.291  29.632  32.893  1.00  0.00    -0.206 F 
ATOM     71  C   UNL A   1      36.175  31.206  31.946  1.00  0.00     0.022 A 
BRANCH  68  72
ATOM     72  S   UNL A   1      35.270  32.487  29.640  1.00  0.00     0.124 S 
ATOM     73  O   UNL A   1      34.277  32.838  30.652  1.00  0.00    -0.237 OA
ATOM     74  O   UNL A   1      36.124  33.574  29.177  1.00  0.00    -0.237 OA
ATOM     75  O   UNL A   1      34.792  31.582  28.595  1.00  0.00    -0.744 OA
ENDBRANCH  68  72
ENDBRANCH  51  65
BRANCH  52  76
ATOM     76  C   UNL A   1      47.067  27.512  26.232  1.00  0.00     0.023 A 
ATOM     77  C   UNL A   1      47.231  27.813  24.871  1.00  0.00     0.031 A 
ATOM     78  C   UNL A   1      48.085  26.783  26.873  1.00  0.00     0.131 A 
ATOM     79  C   UNL A   1      48.367  27.352  24.185  1.00  0.00     0.055 A 
ATOM     80  C   UNL A   1      49.237  26.374  26.199  1.00  0.00     0.041 A 
ATOM     81  F   UNL A   1      47.980  26.468  28.174  1.00  0.00    -0.206 F 
ATOM     82  C   UNL A   1      49.377  26.648  24.843  1.00  0.00     0.022 A 
BRANCH  79  83
ATOM     83  S   UNL A   1      48.463  27.613  22.392  1.00  0.00     0.124 S 
ATOM     84  O   UNL A   1      48.544  26.242  21.897  1.00  0.00    -0.237 OA
ATOM     85  O   UNL A   1      47.217  28.321  22.121  1.00  0.00    -0.237 OA
ATOM     86  O   UNL A   1      49.678  28.408  22.229  1.00  0.00    -0.744 OA
ENDBRANCH  79  83
ENDBRANCH  52  76
BRANCH  64  87
ATOM     87  C   UNL A   1      45.021  33.455  29.257  1.00  0.00     0.023 A 
ATOM     88  C   UNL A   1      44.942  34.470  28.289  1.00  0.00     0.031 A 
ATOM     89  C   UNL A   1      45.762  33.711  30.425  1.00  0.00     0.131 A 
ATOM     90  C   UNL A   1      45.628  35.679  28.485  1.00  0.00     0.055 A 
ATOM     91  C   UNL A   1      46.393  34.936  30.641  1.00  0.00     0.041 A 
ATOM     92  F   UNL A   1      45.876  32.775  31.381  1.00  0.00    -0.206 F 
ATOM     93  C   UNL A   1      46.336  35.925  29.663  1.00  0.00     0.022 A 
BRANCH  90  94
ATOM     94  S   UNL A   1      45.641  36.903  27.146  1.00  0.00     0.124 S 
ATOM     95  O   UNL A   1      46.231  36.145  26.048  1.00  0.00    -0.237 OA
ATOM     96  O   UNL A   1      44.225  37.231  27.006  1.00  0.00    -0.237 OA
ATOM     97  O   UNL A   1      46.476  37.981  27.675  1.00  0.00    -0.744 OA
ENDBRANCH  90  94
ENDBRANCH  64  87
ENDBRANCH  38  39
ENDBRANCH  30  33
ENDBRANCH  28  29
ENDBRANCH  27  28
ENDBRANCH   1  27
TORSDOF 18
ENDMDL
MODEL 2
REMARK VINA RESULT:     -11.9      2.554      8.473
REMARK SMILES COc1ccc(S(=O)(=O)Nc2c(C)cccc2C(=O)NCCCCNC(=O)c2ccc(-c3c4nc(c(-c5cc(S(=O)(=O)[O-])ccc5F)c5ccc([nH]5)c(-c5cc(S(=O)(=O)[O-])ccc5F)c5nc(c(-c6cc(S(=O)(=O)[O-])ccc6F)c6ccc3[nH]6)C=C5)C=C4)cc2)cc1
REMARK SMILES IDX 22 1 21 2 20 3 18 4 19 5 17 7 11 8 12 9 13 10 14 11 16 12
REMARK SMILES IDX 15 13 10 14 7 16 8 17 9 18 6 19 3 20 4 21 92 22 5 23 91 24
REMARK SMILES IDX 2 25 1 26 23 27 24 28 25 29 26 30 27 32 28 33 29 34 90 35
REMARK SMILES IDX 30 36 89 37 31 38 32 39 33 40 83 41 34 42 88 43 82 44 84 45
REMARK SMILES IDX 35 46 87 47 81 48 80 49 36 51 68 52 48 53 67 54 49 55 52 56
REMARK SMILES IDX 66 57 85 58 50 59 51 60 65 62 86 63 53 64 37 65 38 66 46 67
REMARK SMILES IDX 39 68 45 69 47 70 44 71 40 72 41 73 42 74 43 75 69 76 70 77
REMARK SMILES IDX 78 78 71 79 77 80 79 81 76 82 72 83 73 84 74 85 75 86 54 87
REMARK SMILES IDX 55 88 63 89 56 90 62 91 64 92 61 93 57 94 58 95 59 96 60 97
REMARK H PARENT 20 6 10 15 25 31 84 50 52 61
REMARK Flexibility Score: inf
ROOT
ATOM      1  C   UNL A   1      37.332  22.029  24.502  1.00  0.00     0.023 C 
ENDROOT
BRANCH   1   2
ATOM      2  C   UNL A   1      37.013  23.061  25.574  1.00  0.00     0.116 C 
BRANCH   2   3
ATOM      3  N   UNL A   1      35.920  22.706  26.458  1.00  0.00    -0.352 N 
ATOM      4  C   UNL A   1      34.606  23.108  26.437  1.00  0.00     0.253 C 
ATOM      5  O   UNL A   1      33.846  22.685  27.307  1.00  0.00    -0.269 OA
ATOM      6  H   UNL A   1      36.155  22.083  27.184  1.00  0.00     0.163 HD
BRANCH   4   7
ATOM      7  C   UNL A   1      34.081  24.103  25.458  1.00  0.00     0.064 A 
ATOM      8  C   UNL A   1      33.779  23.841  24.105  1.00  0.00     0.064 A 
ATOM      9  C   UNL A   1      33.387  24.901  23.258  1.00  0.00    -0.026 A 
ATOM     10  C   UNL A   1      33.168  24.757  21.777  1.00  0.00     0.046 C 
ATOM     11  C   UNL A   1      33.179  26.178  23.812  1.00  0.00     0.005 A 
ATOM     12  C   UNL A   1      33.847  25.387  25.982  1.00  0.00     0.016 A 
ATOM     13  C   UNL A   1      33.383  26.415  25.168  1.00  0.00     0.001 A 
BRANCH   8  14
ATOM     14  N   UNL A   1      33.798  22.495  23.618  1.00  0.00    -0.279 N 
ATOM     15  H   UNL A   1      34.627  22.129  23.235  1.00  0.00     0.180 HD
BRANCH  14  16
ATOM     16  S   UNL A   1      32.413  21.524  23.692  1.00  0.00     0.261 S 
ATOM     17  O   UNL A   1      31.785  21.665  22.400  1.00  0.00    -0.201 OA
ATOM     18  O   UNL A   1      31.699  21.902  24.899  1.00  0.00    -0.201 OA
BRANCH  16  19
ATOM     19  C   UNL A   1      32.938  19.844  23.886  1.00  0.00     0.088 A 
ATOM     20  C   UNL A   1      33.895  17.217  23.954  1.00  0.00     0.118 A 
ATOM     21  C   UNL A   1      34.476  18.203  24.760  1.00  0.00     0.048 A 
ATOM     22  C   UNL A   1      32.815  17.547  23.134  1.00  0.00     0.048 A 
ATOM     23  C   UNL A   1      34.002  19.520  24.731  1.00  0.00     0.026 A 
ATOM     24  C   UNL A   1      32.360  18.864  23.076  1.00  0.00     0.026 A 
BRANCH  20  25
ATOM     25  O   UNL A   1      34.466  15.976  24.038  1.00  0.00    -0.497 OA
ATOM     26  C   UNL A   1      35.220  15.717  25.218  1.00  0.00     0.278 C 
ENDBRANCH  20  25
ENDBRANCH  16  19
ENDBRANCH  14  16
ENDBRANCH   8  14
ENDBRANCH   4   7
ENDBRANCH   2   3
ENDBRANCH   1   2
BRANCH   1  27
ATOM     27  C   UNL A   1      37.965  20.728  25.005  1.00  0.00     0.023 C 
BRANCH  27  28
ATOM     28  C   UNL A   1      39.188  20.858  25.916  1.00  0.00     0.116 C 
BRANCH  28  29
ATOM     29  N   UNL A   1      40.054  19.687  25.919  1.00  0.00    -0.352 N 
ATOM     30  C   UNL A   1      41.418  19.589  26.080  1.00  0.00     0.251 C 
ATOM     31  H   UNL A   1      39.590  18.830  25.786  1.00  0.00     0.163 HD
ATOM     32  O   UNL A   1      41.970  18.499  25.962  1.00  0.00    -0.269 OA
BRANCH  30  33
ATOM     33  C   UNL A   1      42.222  20.805  26.332  1.00  0.00     0.039 A 
ATOM     34  C   UNL A   1      42.658  21.559  25.240  1.00  0.00     0.014 A 
ATOM     35  C   UNL A   1      42.498  21.230  27.633  1.00  0.00     0.014 A 
ATOM     36  C   UNL A   1      43.251  22.806  25.454  1.00  0.00     0.010 A 
ATOM     37  C   UNL A   1      43.021  22.506  27.844  1.00  0.00     0.010 A 
ATOM     38  C   UNL A   1      43.367  23.322  26.756  1.00  0.00    -0.014 A 
BRANCH  38  39
ATOM     39  C   UNL A   1      43.755  24.740  26.989  1.00  0.00     0.031 A 
ATOM     40  C   UNL A   1      45.180  25.186  26.822  1.00  0.00     0.074 A 
ATOM     41  C   UNL A   1      42.827  25.608  27.442  1.00  0.00     0.049 A 
ATOM     42  N   UNL A   1      45.714  26.354  27.070  1.00  0.00    -0.248 NA
ATOM     43  C   UNL A   1      46.132  24.178  26.335  1.00  0.00     0.031 C 
ATOM     44  C   UNL A   1      41.417  25.286  27.685  1.00  0.00     0.029 A 
ATOM     45  N   UNL A   1      42.924  26.933  27.794  1.00  0.00    -0.354 N 
ATOM     46  C   UNL A   1      47.066  26.224  26.776  1.00  0.00     0.074 A 
ATOM     47  C   UNL A   1      47.276  24.846  26.383  1.00  0.00     0.031 C 
ATOM     48  C   UNL A   1      40.782  26.383  28.125  1.00  0.00     0.029 A 
ATOM     49  C   UNL A   1      41.744  27.473  28.253  1.00  0.00     0.049 A 
ATOM     50  H   UNL A   1      43.760  27.448  27.724  1.00  0.00     0.167 HD
ATOM     51  C   UNL A   1      48.037  27.172  26.815  1.00  0.00     0.034 A 
ATOM     52  C   UNL A   1      41.467  28.697  28.748  1.00  0.00     0.034 A 
ATOM     53  C   UNL A   1      47.810  28.541  27.212  1.00  0.00     0.049 A 
ATOM     54  C   UNL A   1      42.576  29.714  28.839  1.00  0.00     0.074 A 
ATOM     55  C   UNL A   1      48.707  29.597  27.216  1.00  0.00     0.029 A 
ATOM     56  N   UNL A   1      46.609  29.045  27.697  1.00  0.00    -0.354 N 
ATOM     57  N   UNL A   1      43.836  29.593  28.490  1.00  0.00    -0.248 NA
ATOM     58  C   UNL A   1      42.227  31.030  29.388  1.00  0.00     0.031 C 
ATOM     59  C   UNL A   1      48.074  30.711  27.775  1.00  0.00     0.029 A 
ATOM     60  C   UNL A   1      46.758  30.378  28.049  1.00  0.00     0.049 A 
ATOM     61  H   UNL A   1      45.774  28.529  27.778  1.00  0.00     0.167 HD
ATOM     62  C   UNL A   1      44.424  30.825  28.761  1.00  0.00     0.074 A 
ATOM     63  C   UNL A   1      43.377  31.680  29.283  1.00  0.00     0.031 C 
ATOM     64  C   UNL A   1      45.713  31.216  28.593  1.00  0.00     0.034 A 
BRANCH  51  65
ATOM     65  C   UNL A   1      49.439  26.748  26.447  1.00  0.00     0.023 A 
ATOM     66  C   UNL A   1      50.055  27.183  25.261  1.00  0.00     0.031 A 
ATOM     67  C   UNL A   1      50.168  25.890  27.290  1.00  0.00     0.131 A 
ATOM     68  C   UNL A   1      51.326  26.702  24.914  1.00  0.00     0.055 A 
ATOM     69  C   UNL A   1      51.465  25.479  26.978  1.00  0.00     0.041 A 
ATOM     70  F   UNL A   1      49.627  25.427  28.428  1.00  0.00    -0.206 F 
ATOM     71  C   UNL A   1      52.047  25.873  25.777  1.00  0.00     0.022 A 
BRANCH  68  72
ATOM     72  S   UNL A   1      51.968  27.066  23.258  1.00  0.00     0.124 S 
ATOM     73  O   UNL A   1      50.781  26.865  22.430  1.00  0.00    -0.237 OA
ATOM     74  O   UNL A   1      52.426  28.444  23.393  1.00  0.00    -0.237 OA
ATOM     75  O   UNL A   1      53.024  26.073  23.072  1.00  0.00    -0.744 OA
ENDBRANCH  68  72
ENDBRANCH  51  65
BRANCH  52  76
ATOM     76  C   UNL A   1      40.095  29.024  29.232  1.00  0.00     0.023 A 
ATOM     77  C   UNL A   1      39.765  28.928  30.593  1.00  0.00     0.031 A 
ATOM     78  C   UNL A   1      39.079  29.397  28.333  1.00  0.00     0.131 A 
ATOM     79  C   UNL A   1      38.445  29.161  31.011  1.00  0.00     0.055 A 
ATOM     80  C   UNL A   1      37.781  29.681  28.761  1.00  0.00     0.041 A 
ATOM     81  F   UNL A   1      39.339  29.505  27.021  1.00  0.00    -0.206 F 
ATOM     82  C   UNL A   1      37.455  29.552  30.107  1.00  0.00     0.022 A 
BRANCH  79  83
ATOM     83  S   UNL A   1      38.018  28.863  32.749  1.00  0.00     0.124 S 
ATOM     84  O   UNL A   1      36.713  29.509  32.849  1.00  0.00    -0.237 OA
ATOM     85  O   UNL A   1      38.020  27.406  32.816  1.00  0.00    -0.237 OA
ATOM     86  O   UNL A   1      39.098  29.520  33.482  1.00  0.00    -0.744 OA
ENDBRANCH  79  83
ENDBRANCH  52  76
BRANCH  64  87
ATOM     87  C   UNL A   1      46.054  32.639  28.959  1.00  0.00     0.023 A 
ATOM     88  C   UNL A   1      45.944  33.686  28.027  1.00  0.00     0.031 A 
ATOM     89  C   UNL A   1      46.492  32.953  30.258  1.00  0.00     0.131 A 
ATOM     90  C   UNL A   1      46.310  34.991  28.395  1.00  0.00     0.055 A 
ATOM     91  C   UNL A   1      46.798  34.261  30.635  1.00  0.00     0.041 A 
ATOM     92  F   UNL A   1      46.620  31.991  31.186  1.00  0.00    -0.206 F 
ATOM     93  C   UNL A   1      46.717  35.287  29.698  1.00  0.00     0.022 A 
BRANCH  90  94
ATOM     94  S   UNL A   1      46.314  36.287  27.126  1.00  0.00     0.124 S 
ATOM     95  O   UNL A   1      47.688  36.772  27.193  1.00  0.00    -0.237 OA
ATOM     96  O   UNL A   1      45.957  35.547  25.920  1.00  0.00    -0.237 OA
ATOM     97  O   UNL A   1      45.300  37.230  27.596  1.00  0.00    -0.744 OA
ENDBRANCH  90  94
ENDBRANCH  64  87
ENDBRANCH  38  39
ENDBRANCH  30  33
ENDBRANCH  28  29
ENDBRANCH  27  28
ENDBRANCH   1  27
TORSDOF 18
ENDMDL
MODEL 3
REMARK VINA RESULT:     -11.8      5.668     10.695
REMARK SMILES COc1ccc(S(=O)(=O)Nc2c(C)cccc2C(=O)NCCCCNC(=O)c2ccc(-c3c4nc(c(-c5cc(S(=O)(=O)[O-])ccc5F)c5ccc([nH]5)c(-c5cc(S(=O)(=O)[O-])ccc5F)c5nc(c(-c6cc(S(=O)(=O)[O-])ccc6F)c6ccc3[nH]6)C=C5)C=C4)cc2)cc1
REMARK SMILES IDX 22 1 21 2 20 3 18 4 19 5 17 7 11 8 12 9 13 10 14 11 16 12
REMARK SMILES IDX 15 13 10 14 7 16 8 17 9 18 6 19 3 20 4 21 92 22 5 23 91 24
REMARK SMILES IDX 2 25 1 26 23 27 24 28 25 29 26 30 27 32 28 33 29 34 90 35
REMARK SMILES IDX 30 36 89 37 31 38 32 39 33 40 83 41 34 42 88 43 82 44 84 45
REMARK SMILES IDX 35 46 87 47 81 48 80 49 36 51 68 52 48 53 67 54 49 55 52 56
REMARK SMILES IDX 66 57 85 58 50 59 51 60 65 62 86 63 53 64 37 65 38 66 46 67
REMARK SMILES IDX 39 68 45 69 47 70 44 71 40 72 41 73 42 74 43 75 69 76 70 77
REMARK SMILES IDX 78 78 71 79 77 80 79 81 76 82 72 83 73 84 74 85 75 86 54 87
REMARK SMILES IDX 55 88 63 89 56 90 62 91 64 92 61 93 57 94 58 95 59 96 60 97
REMARK H PARENT 20 6 10 15 25 31 84 50 52 61
REMARK Flexibility Score: inf
ROOT
ATOM      1  C   UNL A   1      32.544  29.940  25.806  1.00  0.00     0.023 C 
ENDROOT
BRANCH   1   2
ATOM      2  C   UNL A   1      32.911  28.484  26.056  1.00  0.00     0.116 C 
BRANCH   2   3
ATOM      3  N   UNL A   1      31.830  27.659  26.559  1.00  0.00    -0.352 N 
ATOM      4  C   UNL A   1      31.243  26.546  26.006  1.00  0.00     0.253 C 
ATOM      5  O   UNL A   1      30.318  26.006  26.611  1.00  0.00    -0.269 OA
ATOM      6  H   UNL A   1      31.460  27.938  27.429  1.00  0.00     0.163 HD
BRANCH   4   7
ATOM      7  C   UNL A   1      31.618  26.017  24.663  1.00  0.00     0.064 A 
ATOM      8  C   UNL A   1      32.494  24.938  24.424  1.00  0.00     0.064 A 
ATOM      9  C   UNL A   1      32.847  24.606  23.097  1.00  0.00    -0.026 A 
ATOM     10  C   UNL A   1      33.869  23.562  22.735  1.00  0.00     0.046 C 
ATOM     11  C   UNL A   1      32.215  25.274  22.033  1.00  0.00     0.005 A 
ATOM     12  C   UNL A   1      30.992  26.654  23.576  1.00  0.00     0.016 A 
ATOM     13  C   UNL A   1      31.276  26.274  22.269  1.00  0.00     0.001 A 
BRANCH   8  14
ATOM     14  N   UNL A   1      32.960  24.141  25.517  1.00  0.00    -0.279 N 
ATOM     15  H   UNL A   1      33.793  24.390  25.980  1.00  0.00     0.180 HD
BRANCH  14  16
ATOM     16  S   UNL A   1      32.099  22.775  26.027  1.00  0.00     0.261 S 
ATOM     17  O   UNL A   1      30.801  22.896  25.406  1.00  0.00    -0.201 OA
ATOM     18  O   UNL A   1      32.218  22.720  27.473  1.00  0.00    -0.201 OA
BRANCH  16  19
ATOM     19  C   UNL A   1      32.910  21.346  25.369  1.00  0.00     0.088 A 
ATOM     20  C   UNL A   1      34.239  19.013  24.586  1.00  0.00     0.118 A 
ATOM     21  C   UNL A   1      32.843  19.089  24.518  1.00  0.00     0.048 A 
ATOM     22  C   UNL A   1      34.967  20.121  25.021  1.00  0.00     0.048 A 
ATOM     23  C   UNL A   1      32.171  20.253  24.908  1.00  0.00     0.026 A 
ATOM     24  C   UNL A   1      34.302  21.271  25.444  1.00  0.00     0.026 A 
BRANCH  20  25
ATOM     25  O   UNL A   1      34.783  17.813  24.215  1.00  0.00    -0.497 OA
ATOM     26  C   UNL A   1      33.996  17.020  23.332  1.00  0.00     0.278 C 
ENDBRANCH  20  25
ENDBRANCH  16  19
ENDBRANCH  14  16
ENDBRANCH   8  14
ENDBRANCH   4   7
ENDBRANCH   2   3
ENDBRANCH   1   2
BRANCH   1  27
ATOM     27  C   UNL A   1      32.321  30.790  27.061  1.00  0.00     0.023 C 
BRANCH  27  28
ATOM     28  C   UNL A   1      33.386  31.840  27.386  1.00  0.00     0.116 C 
BRANCH  28  29
ATOM     29  N   UNL A   1      32.857  33.182  27.582  1.00  0.00    -0.352 N 
ATOM     30  C   UNL A   1      33.258  34.181  28.441  1.00  0.00     0.251 C 
ATOM     31  H   UNL A   1      32.090  33.413  27.010  1.00  0.00     0.163 HD
ATOM     32  O   UNL A   1      32.613  35.223  28.511  1.00  0.00    -0.269 OA
BRANCH  30  33
ATOM     33  C   UNL A   1      34.428  33.972  29.322  1.00  0.00     0.039 A 
ATOM     34  C   UNL A   1      34.247  33.287  30.526  1.00  0.00     0.014 A 
ATOM     35  C   UNL A   1      35.702  34.398  28.943  1.00  0.00     0.014 A 
ATOM     36  C   UNL A   1      35.361  32.911  31.281  1.00  0.00     0.010 A 
ATOM     37  C   UNL A   1      36.816  33.958  29.657  1.00  0.00     0.010 A 
ATOM     38  C   UNL A   1      36.658  33.178  30.812  1.00  0.00    -0.014 A 
BRANCH  38  39
ATOM     39  C   UNL A   1      37.851  32.568  31.462  1.00  0.00     0.031 A 
ATOM     40  C   UNL A   1      38.571  31.415  30.824  1.00  0.00     0.074 A 
ATOM     41  C   UNL A   1      38.227  33.005  32.682  1.00  0.00     0.049 A 
ATOM     42  N   UNL A   1      39.566  30.704  31.288  1.00  0.00    -0.248 NA
ATOM     43  C   UNL A   1      38.094  30.993  29.499  1.00  0.00     0.031 C 
ATOM     44  C   UNL A   1      37.581  34.090  33.427  1.00  0.00     0.029 A 
ATOM     45  N   UNL A   1      39.231  32.586  33.522  1.00  0.00    -0.354 N 
ATOM     46  C   UNL A   1      39.833  29.744  30.319  1.00  0.00     0.074 A 
ATOM     47  C   UNL A   1      38.858  29.935  29.265  1.00  0.00     0.031 C 
ATOM     48  C   UNL A   1      38.214  34.262  34.597  1.00  0.00     0.029 A 
ATOM     49  C   UNL A   1      39.273  33.266  34.718  1.00  0.00     0.049 A 
ATOM     50  H   UNL A   1      39.860  31.866  33.289  1.00  0.00     0.167 HD
ATOM     51  C   UNL A   1      40.812  28.804  30.303  1.00  0.00     0.034 A 
ATOM     52  C   UNL A   1      40.056  33.095  35.803  1.00  0.00     0.034 A 
ATOM     53  C   UNL A   1      41.776  28.628  31.363  1.00  0.00     0.049 A 
ATOM     54  C   UNL A   1      41.097  32.004  35.786  1.00  0.00     0.074 A 
ATOM     55  C   UNL A   1      42.851  27.757  31.413  1.00  0.00     0.029 A 
ATOM     56  N   UNL A   1      41.772  29.316  32.571  1.00  0.00    -0.354 N 
ATOM     57  N   UNL A   1      41.380  31.150  34.830  1.00  0.00    -0.248 NA
ATOM     58  C   UNL A   1      41.921  31.854  36.992  1.00  0.00     0.031 C 
ATOM     59  C   UNL A   1      43.445  27.861  32.675  1.00  0.00     0.029 A 
ATOM     60  C   UNL A   1      42.792  28.853  33.388  1.00  0.00     0.049 A 
ATOM     61  H   UNL A   1      41.136  30.029  32.810  1.00  0.00     0.167 HD
ATOM     62  C   UNL A   1      42.430  30.374  35.314  1.00  0.00     0.074 A 
ATOM     63  C   UNL A   1      42.741  30.875  36.638  1.00  0.00     0.031 C 
ATOM     64  C   UNL A   1      43.078  29.342  34.718  1.00  0.00     0.034 A 
BRANCH  51  65
ATOM     65  C   UNL A   1      40.868  27.876  29.113  1.00  0.00     0.023 A 
ATOM     66  C   UNL A   1      41.772  28.083  28.057  1.00  0.00     0.031 A 
ATOM     67  C   UNL A   1      39.998  26.774  29.028  1.00  0.00     0.131 A 
ATOM     68  C   UNL A   1      41.737  27.246  26.931  1.00  0.00     0.055 A 
ATOM     69  C   UNL A   1      40.023  25.898  27.942  1.00  0.00     0.041 A 
ATOM     70  F   UNL A   1      39.100  26.536  29.998  1.00  0.00    -0.206 F 
ATOM     71  C   UNL A   1      40.886  26.139  26.878  1.00  0.00     0.022 A 
BRANCH  68  72
ATOM     72  S   UNL A   1      42.722  27.706  25.480  1.00  0.00     0.124 S 
ATOM     73  O   UNL A   1      42.814  26.433  24.769  1.00  0.00    -0.237 OA
ATOM     74  O   UNL A   1      41.897  28.731  24.851  1.00  0.00    -0.237 OA
ATOM     75  O   UNL A   1      43.979  28.183  26.055  1.00  0.00    -0.744 OA
ENDBRANCH  68  72
ENDBRANCH  51  65
BRANCH  52  76
ATOM     76  C   UNL A   1      39.868  33.947  37.013  1.00  0.00     0.023 A 
ATOM     77  C   UNL A   1      39.251  33.440  38.166  1.00  0.00     0.031 A 
ATOM     78  C   UNL A   1      40.267  35.296  37.018  1.00  0.00     0.131 A 
ATOM     79  C   UNL A   1      39.012  34.287  39.261  1.00  0.00     0.055 A 
ATOM     80  C   UNL A   1      40.077  36.119  38.129  1.00  0.00     0.041 A 
ATOM     81  F   UNL A   1      40.863  35.832  35.941  1.00  0.00    -0.206 F 
ATOM     82  C   UNL A   1      39.434  35.618  39.256  1.00  0.00     0.022 A 
BRANCH  79  83
ATOM     83  S   UNL A   1      38.061  33.643  40.666  1.00  0.00     0.124 S 
ATOM     84  O   UNL A   1      36.831  33.204  40.015  1.00  0.00    -0.237 OA
ATOM     85  O   UNL A   1      38.934  32.587  41.165  1.00  0.00    -0.237 OA
ATOM     86  O   UNL A   1      37.923  34.802  41.544  1.00  0.00    -0.744 OA
ENDBRANCH  79  83
ENDBRANCH  52  76
BRANCH  64  87
ATOM     87  C   UNL A   1      44.206  28.700  35.489  1.00  0.00     0.023 A 
ATOM     88  C   UNL A   1      43.984  27.611  36.349  1.00  0.00     0.031 A 
ATOM     89  C   UNL A   1      45.520  29.184  35.359  1.00  0.00     0.131 A 
ATOM     90  C   UNL A   1      45.053  27.068  37.080  1.00  0.00     0.055 A 
ATOM     91  C   UNL A   1      46.588  28.603  36.043  1.00  0.00     0.041 A 
ATOM     92  F   UNL A   1      45.788  30.226  34.556  1.00  0.00    -0.206 F 
ATOM     93  C   UNL A   1      46.355  27.544  36.917  1.00  0.00     0.022 A 
BRANCH  90  94
ATOM     94  S   UNL A   1      44.706  25.773  38.301  1.00  0.00     0.124 S 
ATOM     95  O   UNL A   1      44.137  26.541  39.404  1.00  0.00    -0.237 OA
ATOM     96  O   UNL A   1      43.778  24.904  37.584  1.00  0.00    -0.237 OA
ATOM     97  O   UNL A   1      46.021  25.189  38.566  1.00  0.00    -0.744 OA
ENDBRANCH  90  94
ENDBRANCH  64  87
ENDBRANCH  38  39
ENDBRANCH  30  33
ENDBRANCH  28  29
ENDBRANCH  27  28
ENDBRANCH   1  27
TORSDOF 18
ENDMDL
