MODEL 1
REMARK VINA RESULT:     -12.3      0.000      0.000
REMARK SMILES O=C(COc1nc(-c2cccnc2)nc2c1CCCC2)NCCCCNC(=O)c1ccc(-c2c3nc(c(-c4cc(S(=O)(=O)[O-])ccc4F)c4ccc([nH]4)c(-c4cc(S(=O)(=O)[O-])ccc4F)c4nc(c(-c5cc(S(=O)(=O)[O-])ccc5F)c5ccc2[nH]5)C=C4)C=C3)cc1
REMARK SMILES IDX 23 1 22 2 21 3 1 4 2 5 3 7 4 8 5 9 6 10 16 11 7 12 15 13
REMARK SMILES IDX 17 14 14 15 20 16 18 17 19 18 8 19 9 20 13 21 10 22 12 23
REMARK SMILES IDX 11 24 24 25 25 26 26 27 27 28 28 30 29 31 30 32 91 33 31 34
REMARK SMILES IDX 90 35 32 36 33 37 34 38 84 39 35 40 89 41 83 42 85 43 36 44
REMARK SMILES IDX 88 45 82 46 81 47 37 49 69 50 49 51 68 52 50 53 53 54 67 55
REMARK SMILES IDX 86 56 51 57 52 58 66 60 87 61 54 62 38 63 39 64 47 65 40 66
REMARK SMILES IDX 46 67 48 68 45 69 41 70 42 71 43 72 44 73 70 74 71 75 79 76
REMARK SMILES IDX 72 77 78 78 80 79 77 80 73 81 74 82 75 83 76 84 55 85 56 86
REMARK SMILES IDX 64 87 57 88 63 89 65 90 62 91 58 92 59 93 60 94 61 95
REMARK H PARENT 21 6 26 29 85 48 53 59
REMARK Flexibility Score: inf
ROOT
ATOM      1  C   UNL A   1      32.178  27.106  26.145  1.00  0.00     0.023 C 
ENDROOT
BRANCH   1   2
ATOM      2  C   UNL A   1      31.039  26.122  26.407  1.00  0.00     0.116 C 
BRANCH   2   3
ATOM      3  N   UNL A   1      31.356  24.771  26.001  1.00  0.00    -0.353 N 
ATOM      4  O   UNL A   1      29.721  23.746  27.250  1.00  0.00    -0.271 OA
ATOM      5  C   UNL A   1      30.621  23.683  26.416  1.00  0.00     0.258 C 
ATOM      6  H   UNL A   1      32.125  24.623  25.405  1.00  0.00     0.163 HD
BRANCH   5   7
ATOM      7  C   UNL A   1      31.075  22.344  25.820  1.00  0.00     0.331 C 
BRANCH   7   8
ATOM      8  O   UNL A   1      31.825  22.382  24.609  1.00  0.00    -0.467 OA
BRANCH   8   9
ATOM      9  C   UNL A   1      32.939  21.579  24.713  1.00  0.00     0.220 A 
ATOM     10  N   UNL A   1      32.715  20.259  24.770  1.00  0.00    -0.193 NA
ATOM     11  C   UNL A   1      34.192  22.161  24.664  1.00  0.00     0.036 A 
ATOM     12  C   UNL A   1      33.806  19.485  24.850  1.00  0.00     0.164 A 
ATOM     13  C   UNL A   1      35.250  21.269  24.717  1.00  0.00     0.051 A 
ATOM     14  C   UNL A   1      34.389  23.639  24.508  1.00  0.00     0.043 C 
ATOM     15  N   UNL A   1      35.072  19.937  24.850  1.00  0.00    -0.232 NA
ATOM     16  C   UNL A   1      36.680  21.742  24.675  1.00  0.00     0.057 C 
ATOM     17  C   UNL A   1      35.821  24.087  24.811  1.00  0.00     0.005 C 
ATOM     18  C   UNL A   1      36.825  23.163  24.134  1.00  0.00     0.007 C 
BRANCH  12  19
ATOM     19  C   UNL A   1      33.608  18.043  24.921  1.00  0.00     0.038 A 
ATOM     20  C   UNL A   1      32.594  17.465  25.697  1.00  0.00     0.015 A 
ATOM     21  C   UNL A   1      34.418  17.164  24.206  1.00  0.00     0.123 A 
ATOM     22  C   UNL A   1      32.429  16.082  25.721  1.00  0.00     0.021 A 
ATOM     23  N   UNL A   1      34.296  15.812  24.218  1.00  0.00    -0.264 NA
ATOM     24  C   UNL A   1      33.300  15.305  24.975  1.00  0.00     0.111 A 
ENDBRANCH  12  19
ENDBRANCH   8   9
ENDBRANCH   7   8
ENDBRANCH   5   7
ENDBRANCH   2   3
ENDBRANCH   1   2
BRANCH   1  25
ATOM     25  C   UNL A   1      31.743  28.522  25.762  1.00  0.00     0.023 C 
BRANCH  25  26
ATOM     26  C   UNL A   1      32.865  29.547  25.615  1.00  0.00     0.116 C 
BRANCH  26  27
ATOM     27  N   UNL A   1      32.492  30.871  26.086  1.00  0.00    -0.352 N 
ATOM     28  C   UNL A   1      33.083  31.658  27.046  1.00  0.00     0.251 C 
ATOM     29  H   UNL A   1      31.700  31.262  25.652  1.00  0.00     0.163 HD
ATOM     30  O   UNL A   1      32.537  32.703  27.390  1.00  0.00    -0.269 OA
BRANCH  28  31
ATOM     31  C   UNL A   1      34.350  31.236  27.688  1.00  0.00     0.039 A 
ATOM     32  C   UNL A   1      35.398  32.157  27.775  1.00  0.00     0.014 A 
ATOM     33  C   UNL A   1      34.514  29.944  28.194  1.00  0.00     0.014 A 
ATOM     34  C   UNL A   1      36.580  31.808  28.434  1.00  0.00     0.010 A 
ATOM     35  C   UNL A   1      35.669  29.616  28.905  1.00  0.00     0.010 A 
ATOM     36  C   UNL A   1      36.711  30.547  29.037  1.00  0.00    -0.014 A 
BRANCH  36  37
ATOM     37  C   UNL A   1      37.931  30.188  29.807  1.00  0.00     0.031 A 
ATOM     38  C   UNL A   1      38.953  29.257  29.215  1.00  0.00     0.074 A 
ATOM     39  C   UNL A   1      38.102  30.670  31.054  1.00  0.00     0.049 A 
ATOM     40  N   UNL A   1      40.042  28.773  29.756  1.00  0.00    -0.248 NA
ATOM     41  C   UNL A   1      38.707  28.794  27.842  1.00  0.00     0.031 C 
ATOM     42  C   UNL A   1      37.176  31.569  31.746  1.00  0.00     0.029 A 
ATOM     43  N   UNL A   1      39.114  30.475  31.961  1.00  0.00    -0.354 N 
ATOM     44  C   UNL A   1      40.610  27.949  28.793  1.00  0.00     0.074 A 
ATOM     45  C   UNL A   1      39.714  27.954  27.655  1.00  0.00     0.031 C 
ATOM     46  C   UNL A   1      37.681  31.876  32.952  1.00  0.00     0.029 A 
ATOM     47  C   UNL A   1      38.942  31.163  33.139  1.00  0.00     0.049 A 
ATOM     48  H   UNL A   1      39.890  29.896  31.784  1.00  0.00     0.167 HD
ATOM     49  C   UNL A   1      41.783  27.269  28.841  1.00  0.00     0.034 A 
ATOM     50  C   UNL A   1      39.708  31.213  34.246  1.00  0.00     0.034 A 
ATOM     51  C   UNL A   1      42.676  27.280  29.971  1.00  0.00     0.049 A 
ATOM     52  C   UNL A   1      40.981  30.412  34.297  1.00  0.00     0.074 A 
ATOM     53  C   UNL A   1      43.902  26.649  30.106  1.00  0.00     0.029 A 
ATOM     54  N   UNL A   1      42.443  27.954  31.162  1.00  0.00    -0.354 N 
ATOM     55  N   UNL A   1      41.498  29.630  33.380  1.00  0.00    -0.248 NA
ATOM     56  C   UNL A   1      41.769  30.495  35.535  1.00  0.00     0.031 C 
ATOM     57  C   UNL A   1      44.384  26.899  31.395  1.00  0.00     0.029 A 
ATOM     58  C   UNL A   1      43.489  27.734  32.045  1.00  0.00     0.049 A 
ATOM     59  H   UNL A   1      41.652  28.508  31.352  1.00  0.00     0.167 HD
ATOM     60  C   UNL A   1      42.681  29.141  33.923  1.00  0.00     0.074 A 
ATOM     61  C   UNL A   1      42.805  29.719  35.245  1.00  0.00     0.031 C 
ATOM     62  C   UNL A   1      43.588  28.295  33.370  1.00  0.00     0.034 A 
BRANCH  49  63
ATOM     63  C   UNL A   1      42.153  26.445  27.635  1.00  0.00     0.023 A 
ATOM     64  C   UNL A   1      41.737  25.109  27.507  1.00  0.00     0.031 A 
ATOM     65  C   UNL A   1      42.936  26.996  26.606  1.00  0.00     0.131 A 
ATOM     66  C   UNL A   1      42.157  24.350  26.405  1.00  0.00     0.055 A 
ATOM     67  C   UNL A   1      43.292  26.256  25.478  1.00  0.00     0.041 A 
ATOM     68  F   UNL A   1      43.376  28.262  26.687  1.00  0.00    -0.206 F 
ATOM     69  C   UNL A   1      42.912  24.921  25.378  1.00  0.00     0.022 A 
BRANCH  66  70
ATOM     70  S   UNL A   1      41.790  22.574  26.385  1.00  0.00     0.124 S 
ATOM     71  O   UNL A   1      42.345  22.145  27.666  1.00  0.00    -0.237 OA
ATOM     72  O   UNL A   1      40.335  22.553  26.280  1.00  0.00    -0.237 OA
ATOM     73  O   UNL A   1      42.506  22.090  25.206  1.00  0.00    -0.744 OA
ENDBRANCH  66  70
ENDBRANCH  49  63
BRANCH  50  74
ATOM     74  C   UNL A   1      39.289  32.053  35.401  1.00  0.00     0.023 A 
ATOM     75  C   UNL A   1      39.766  33.364  35.544  1.00  0.00     0.031 A 
ATOM     76  C   UNL A   1      38.397  31.559  36.367  1.00  0.00     0.131 A 
ATOM     77  C   UNL A   1      39.362  34.136  36.645  1.00  0.00     0.055 A 
ATOM     78  C   UNL A   1      37.972  32.342  37.442  1.00  0.00     0.041 A 
ATOM     79  F   UNL A   1      37.906  30.314  36.265  1.00  0.00    -0.206 F 
ATOM     80  C   UNL A   1      38.458  33.637  37.587  1.00  0.00     0.022 A 
BRANCH  77  81
ATOM     81  S   UNL A   1      40.042  35.806  36.837  1.00  0.00     0.124 S 
ATOM     82  O   UNL A   1      39.391  36.251  38.063  1.00  0.00    -0.237 OA
ATOM     83  O   UNL A   1      41.474  35.546  36.927  1.00  0.00    -0.237 OA
ATOM     84  O   UNL A   1      39.613  36.489  35.617  1.00  0.00    -0.744 OA
ENDBRANCH  77  81
ENDBRANCH  50  74
BRANCH  62  85
ATOM     85  C   UNL A   1      44.804  27.956  34.189  1.00  0.00     0.023 A 
ATOM     86  C   UNL A   1      44.831  26.829  35.029  1.00  0.00     0.031 A 
ATOM     87  C   UNL A   1      45.962  28.748  34.097  1.00  0.00     0.131 A 
ATOM     88  C   UNL A   1      45.989  26.539  35.765  1.00  0.00     0.055 A 
ATOM     89  C   UNL A   1      47.125  28.430  34.800  1.00  0.00     0.041 A 
ATOM     90  F   UNL A   1      45.985  29.833  33.307  1.00  0.00    -0.206 F 
ATOM     91  C   UNL A   1      47.141  27.323  35.644  1.00  0.00     0.022 A 
BRANCH  88  92
ATOM     92  S   UNL A   1      45.965  25.135  36.913  1.00  0.00     0.124 S 
ATOM     93  O   UNL A   1      47.057  24.310  36.404  1.00  0.00    -0.237 OA
ATOM     94  O   UNL A   1      46.200  25.776  38.202  1.00  0.00    -0.237 OA
ATOM     95  O   UNL A   1      44.628  24.572  36.738  1.00  0.00    -0.744 OA
ENDBRANCH  88  92
ENDBRANCH  62  85
ENDBRANCH  36  37
ENDBRANCH  28  31
ENDBRANCH  26  27
ENDBRANCH  25  26
ENDBRANCH   1  25
TORSDOF 17
ENDMDL
MODEL 2
REMARK VINA RESULT:     -12.1      4.943     10.043
REMARK SMILES O=C(COc1nc(-c2cccnc2)nc2c1CCCC2)NCCCCNC(=O)c1ccc(-c2c3nc(c(-c4cc(S(=O)(=O)[O-])ccc4F)c4ccc([nH]4)c(-c4cc(S(=O)(=O)[O-])ccc4F)c4nc(c(-c5cc(S(=O)(=O)[O-])ccc5F)c5ccc2[nH]5)C=C4)C=C3)cc1
REMARK SMILES IDX 23 1 22 2 21 3 1 4 2 5 3 7 4 8 5 9 6 10 16 11 7 12 15 13
REMARK SMILES IDX 17 14 14 15 20 16 18 17 19 18 8 19 9 20 13 21 10 22 12 23
REMARK SMILES IDX 11 24 24 25 25 26 26 27 27 28 28 30 29 31 30 32 91 33 31 34
REMARK SMILES IDX 90 35 32 36 33 37 34 38 84 39 35 40 89 41 83 42 85 43 36 44
REMARK SMILES IDX 88 45 82 46 81 47 37 49 69 50 49 51 68 52 50 53 53 54 67 55
REMARK SMILES IDX 86 56 51 57 52 58 66 60 87 61 54 62 38 63 39 64 47 65 40 66
REMARK SMILES IDX 46 67 48 68 45 69 41 70 42 71 43 72 44 73 70 74 71 75 79 76
REMARK SMILES IDX 72 77 78 78 80 79 77 80 73 81 74 82 75 83 76 84 55 85 56 86
REMARK SMILES IDX 64 87 57 88 63 89 65 90 62 91 58 92 59 93 60 94 61 95
REMARK H PARENT 21 6 26 29 85 48 53 59
REMARK Flexibility Score: inf
ROOT
ATOM      1  C   UNL A   1      34.176  21.060  24.604  1.00  0.00     0.023 C 
ENDROOT
BRANCH   1   2
ATOM      2  C   UNL A   1      33.264  20.983  25.827  1.00  0.00     0.116 C 
BRANCH   2   3
ATOM      3  N   UNL A   1      32.217  21.980  25.814  1.00  0.00    -0.353 N 
ATOM      4  O   UNL A   1      32.596  22.767  27.941  1.00  0.00    -0.271 OA
ATOM      5  C   UNL A   1      32.004  22.843  26.866  1.00  0.00     0.258 C 
ATOM      6  H   UNL A   1      31.634  22.044  25.023  1.00  0.00     0.163 HD
BRANCH   5   7
ATOM      7  C   UNL A   1      30.890  23.872  26.629  1.00  0.00     0.331 C 
BRANCH   7   8
ATOM      8  O   UNL A   1      31.146  25.220  27.013  1.00  0.00    -0.467 OA
BRANCH   8   9
ATOM      9  C   UNL A   1      31.696  25.918  25.961  1.00  0.00     0.220 A 
ATOM     10  N   UNL A   1      31.921  25.220  24.840  1.00  0.00    -0.193 NA
ATOM     11  C   UNL A   1      31.896  27.280  26.092  1.00  0.00     0.036 A 
ATOM     12  C   UNL A   1      32.437  25.912  23.815  1.00  0.00     0.164 A 
ATOM     13  C   UNL A   1      32.398  27.905  24.962  1.00  0.00     0.051 A 
ATOM     14  C   UNL A   1      31.543  28.031  27.340  1.00  0.00     0.043 C 
ATOM     15  N   UNL A   1      32.709  27.229  23.835  1.00  0.00    -0.232 NA
ATOM     16  C   UNL A   1      32.673  29.386  24.939  1.00  0.00     0.057 C 
ATOM     17  C   UNL A   1      32.148  29.436  27.385  1.00  0.00     0.005 C 
ATOM     18  C   UNL A   1      31.952  30.146  26.051  1.00  0.00     0.007 C 
BRANCH  12  19
ATOM     19  C   UNL A   1      32.703  25.191  22.577  1.00  0.00     0.038 A 
ATOM     20  C   UNL A   1      32.919  23.806  22.552  1.00  0.00     0.015 A 
ATOM     21  C   UNL A   1      32.745  25.847  21.350  1.00  0.00     0.123 A 
ATOM     22  C   UNL A   1      33.152  23.154  21.343  1.00  0.00     0.021 A 
ATOM     23  N   UNL A   1      32.984  25.247  20.155  1.00  0.00    -0.264 NA
ATOM     24  C   UNL A   1      33.180  23.912  20.183  1.00  0.00     0.111 A 
ENDBRANCH  12  19
ENDBRANCH   8   9
ENDBRANCH   7   8
ENDBRANCH   5   7
ENDBRANCH   2   3
ENDBRANCH   1   2
BRANCH   1  25
ATOM     25  C   UNL A   1      35.322  22.069  24.705  1.00  0.00     0.023 C 
BRANCH  25  26
ATOM     26  C   UNL A   1      36.199  21.958  25.949  1.00  0.00     0.116 C 
BRANCH  26  27
ATOM     27  N   UNL A   1      37.215  20.924  25.841  1.00  0.00    -0.352 N 
ATOM     28  C   UNL A   1      38.580  21.019  25.979  1.00  0.00     0.251 C 
ATOM     29  H   UNL A   1      36.875  20.023  25.640  1.00  0.00     0.163 HD
ATOM     30  O   UNL A   1      39.281  20.043  25.722  1.00  0.00    -0.269 OA
BRANCH  28  31
ATOM     31  C   UNL A   1      39.206  22.294  26.398  1.00  0.00     0.039 A 
ATOM     32  C   UNL A   1      40.297  22.251  27.271  1.00  0.00     0.014 A 
ATOM     33  C   UNL A   1      38.723  23.525  25.946  1.00  0.00     0.014 A 
ATOM     34  C   UNL A   1      40.948  23.434  27.631  1.00  0.00     0.010 A 
ATOM     35  C   UNL A   1      39.411  24.699  26.256  1.00  0.00     0.010 A 
ATOM     36  C   UNL A   1      40.534  24.664  27.097  1.00  0.00    -0.014 A 
BRANCH  36  37
ATOM     37  C   UNL A   1      41.263  25.922  27.410  1.00  0.00     0.031 A 
ATOM     38  C   UNL A   1      40.619  26.979  28.262  1.00  0.00     0.074 A 
ATOM     39  C   UNL A   1      42.492  26.127  26.896  1.00  0.00     0.049 A 
ATOM     40  N   UNL A   1      41.066  28.166  28.586  1.00  0.00    -0.248 NA
ATOM     41  C   UNL A   1      39.288  26.668  28.805  1.00  0.00     0.031 C 
ATOM     42  C   UNL A   1      43.220  25.186  26.043  1.00  0.00     0.029 A 
ATOM     43  N   UNL A   1      43.349  27.193  27.018  1.00  0.00    -0.354 N 
ATOM     44  C   UNL A   1      40.073  28.744  29.367  1.00  0.00     0.074 A 
ATOM     45  C   UNL A   1      38.977  27.799  29.420  1.00  0.00     0.031 C 
ATOM     46  C   UNL A   1      44.426  25.700  25.750  1.00  0.00     0.029 A 
ATOM     47  C   UNL A   1      44.541  27.024  26.355  1.00  0.00     0.049 A 
ATOM     48  H   UNL A   1      43.129  28.004  27.533  1.00  0.00     0.167 HD
ATOM     49  C   UNL A   1      40.082  29.942  30.003  1.00  0.00     0.034 A 
ATOM     50  C   UNL A   1      45.607  27.842  26.241  1.00  0.00     0.034 A 
ATOM     51  C   UNL A   1      41.183  30.871  29.957  1.00  0.00     0.049 A 
ATOM     52  C   UNL A   1      45.577  29.187  26.915  1.00  0.00     0.074 A 
ATOM     53  C   UNL A   1      41.303  32.096  30.592  1.00  0.00     0.029 A 
ATOM     54  N   UNL A   1      42.355  30.681  29.238  1.00  0.00    -0.354 N 
ATOM     55  N   UNL A   1      44.625  29.722  27.642  1.00  0.00    -0.248 NA
ATOM     56  C   UNL A   1      46.761  30.041  26.746  1.00  0.00     0.031 C 
ATOM     57  C   UNL A   1      42.521  32.669  30.214  1.00  0.00     0.029 A 
ATOM     58  C   UNL A   1      43.190  31.776  29.392  1.00  0.00     0.049 A 
ATOM     59  H   UNL A   1      42.562  29.885  28.697  1.00  0.00     0.167 HD
ATOM     60  C   UNL A   1      45.102  30.969  28.032  1.00  0.00     0.074 A 
ATOM     61  C   UNL A   1      46.427  31.105  27.464  1.00  0.00     0.031 C 
ATOM     62  C   UNL A   1      44.498  31.911  28.800  1.00  0.00     0.034 A 
BRANCH  49  63
ATOM     63  C   UNL A   1      38.854  30.316  30.790  1.00  0.00     0.023 A 
ATOM     64  C   UNL A   1      37.792  31.021  30.198  1.00  0.00     0.031 A 
ATOM     65  C   UNL A   1      38.744  29.972  32.149  1.00  0.00     0.131 A 
ATOM     66  C   UNL A   1      36.694  31.413  30.977  1.00  0.00     0.055 A 
ATOM     67  C   UNL A   1      37.616  30.305  32.901  1.00  0.00     0.041 A 
ATOM     68  F   UNL A   1      39.736  29.316  32.770  1.00  0.00    -0.206 F 
ATOM     69  C   UNL A   1      36.587  31.039  32.319  1.00  0.00     0.022 A 
BRANCH  66  70
ATOM     70  S   UNL A   1      35.453  32.509  30.237  1.00  0.00     0.124 S 
ATOM     71  O   UNL A   1      36.180  33.775  30.175  1.00  0.00    -0.237 OA
ATOM     72  O   UNL A   1      35.184  31.864  28.956  1.00  0.00    -0.237 OA
ATOM     73  O   UNL A   1      34.350  32.475  31.195  1.00  0.00    -0.744 OA
ENDBRANCH  66  70
ENDBRANCH  49  63
BRANCH  50  74
ATOM     74  C   UNL A   1      46.793  27.409  25.455  1.00  0.00     0.023 A 
ATOM     75  C   UNL A   1      46.951  27.803  24.119  1.00  0.00     0.031 A 
ATOM     76  C   UNL A   1      47.790  26.605  26.035  1.00  0.00     0.131 A 
ATOM     77  C   UNL A   1      48.076  27.376  23.395  1.00  0.00     0.055 A 
ATOM     78  C   UNL A   1      48.923  26.211  25.321  1.00  0.00     0.041 A 
ATOM     79  F   UNL A   1      47.686  26.212  27.314  1.00  0.00    -0.206 F 
ATOM     80  C   UNL A   1      49.068  26.594  23.991  1.00  0.00     0.022 A 
BRANCH  77  81
ATOM     81  S   UNL A   1      48.223  27.852  21.651  1.00  0.00     0.124 S 
ATOM     82  O   UNL A   1      48.526  26.573  21.020  1.00  0.00    -0.237 OA
ATOM     83  O   UNL A   1      46.903  28.409  21.372  1.00  0.00    -0.237 OA
ATOM     84  O   UNL A   1      49.316  28.823  21.655  1.00  0.00    -0.744 OA
ENDBRANCH  77  81
ENDBRANCH  50  74
BRANCH  62  85
ATOM     85  C   UNL A   1      45.273  33.169  29.084  1.00  0.00     0.023 A 
ATOM     86  C   UNL A   1      45.147  34.308  28.271  1.00  0.00     0.031 A 
ATOM     87  C   UNL A   1      46.118  33.242  30.207  1.00  0.00     0.131 A 
ATOM     88  C   UNL A   1      45.876  35.467  28.578  1.00  0.00     0.055 A 
ATOM     89  C   UNL A   1      46.807  34.410  30.531  1.00  0.00     0.041 A 
ATOM     90  F   UNL A   1      46.269  32.180  31.015  1.00  0.00    -0.206 F 
ATOM     91  C   UNL A   1      46.692  35.530  29.712  1.00  0.00     0.022 A 
BRANCH  88  92
ATOM     92  S   UNL A   1      45.768  36.889  27.458  1.00  0.00     0.124 S 
ATOM     93  O   UNL A   1      44.388  36.802  26.992  1.00  0.00    -0.237 OA
ATOM     94  O   UNL A   1      46.072  38.011  28.341  1.00  0.00    -0.237 OA
ATOM     95  O   UNL A   1      46.784  36.607  26.447  1.00  0.00    -0.744 OA
ENDBRANCH  88  92
ENDBRANCH  62  85
ENDBRANCH  36  37
ENDBRANCH  28  31
ENDBRANCH  26  27
ENDBRANCH  25  26
ENDBRANCH   1  25
TORSDOF 17
ENDMDL
MODEL 3
REMARK VINA RESULT:     -12.0      1.976      3.257
REMARK SMILES O=C(COc1nc(-c2cccnc2)nc2c1CCCC2)NCCCCNC(=O)c1ccc(-c2c3nc(c(-c4cc(S(=O)(=O)[O-])ccc4F)c4ccc([nH]4)c(-c4cc(S(=O)(=O)[O-])ccc4F)c4nc(c(-c5cc(S(=O)(=O)[O-])ccc5F)c5ccc2[nH]5)C=C4)C=C3)cc1
REMARK SMILES IDX 23 1 22 2 21 3 1 4 2 5 3 7 4 8 5 9 6 10 16 11 7 12 15 13
REMARK SMILES IDX 17 14 14 15 20 16 18 17 19 18 8 19 9 20 13 21 10 22 12 23
REMARK SMILES IDX 11 24 24 25 25 26 26 27 27 28 28 30 29 31 30 32 91 33 31 34
REMARK SMILES IDX 90 35 32 36 33 37 34 38 84 39 35 40 89 41 83 42 85 43 36 44
REMARK SMILES IDX 88 45 82 46 81 47 37 49 69 50 49 51 68 52 50 53 53 54 67 55
REMARK SMILES IDX 86 56 51 57 52 58 66 60 87 61 54 62 38 63 39 64 47 65 40 66
REMARK SMILES IDX 46 67 48 68 45 69 41 70 42 71 43 72 44 73 70 74 71 75 79 76
REMARK SMILES IDX 72 77 78 78 80 79 77 80 73 81 74 82 75 83 76 84 55 85 56 86
REMARK SMILES IDX 64 87 57 88 63 89 65 90 62 91 58 92 59 93 60 94 61 95
REMARK H PARENT 21 6 26 29 85 48 53 59
REMARK Flexibility Score: inf
ROOT
ATOM      1  C   UNL A   1      31.111  27.945  24.290  1.00  0.00     0.023 C 
ENDROOT
BRANCH   1   2
ATOM      2  C   UNL A   1      31.053  27.144  22.990  1.00  0.00     0.116 C 
BRANCH   2   3
ATOM      3  N   UNL A   1      31.735  25.873  23.080  1.00  0.00    -0.353 N 
ATOM      4  O   UNL A   1      33.256  26.288  21.407  1.00  0.00    -0.271 OA
ATOM      5  C   UNL A   1      32.835  25.568  22.310  1.00  0.00     0.258 C 
ATOM      6  H   UNL A   1      31.401  25.200  23.716  1.00  0.00     0.163 HD
BRANCH   5   7
ATOM      7  C   UNL A   1      33.456  24.195  22.603  1.00  0.00     0.331 C 
BRANCH   7   8
ATOM      8  O   UNL A   1      32.925  23.451  23.696  1.00  0.00    -0.467 OA
BRANCH   8   9
ATOM      9  C   UNL A   1      33.844  22.524  24.132  1.00  0.00     0.220 A 
ATOM     10  N   UNL A   1      34.984  23.013  24.641  1.00  0.00    -0.193 NA
ATOM     11  C   UNL A   1      33.511  21.182  24.101  1.00  0.00     0.036 A 
ATOM     12  C   UNL A   1      35.864  22.104  25.083  1.00  0.00     0.164 A 
ATOM     13  C   UNL A   1      34.476  20.331  24.614  1.00  0.00     0.051 A 
ATOM     14  C   UNL A   1      32.185  20.692  23.603  1.00  0.00     0.043 C 
ATOM     15  N   UNL A   1      35.668  20.773  25.070  1.00  0.00    -0.232 NA
ATOM     16  C   UNL A   1      34.268  18.839  24.653  1.00  0.00     0.057 C 
ATOM     17  C   UNL A   1      32.161  19.183  23.349  1.00  0.00     0.005 C 
ATOM     18  C   UNL A   1      32.802  18.435  24.511  1.00  0.00     0.007 C 
BRANCH  12  19
ATOM     19  C   UNL A   1      37.119  22.592  25.639  1.00  0.00     0.038 A 
ATOM     20  C   UNL A   1      37.271  23.908  26.098  1.00  0.00     0.015 A 
ATOM     21  C   UNL A   1      38.232  21.764  25.753  1.00  0.00     0.123 A 
ATOM     22  C   UNL A   1      38.484  24.326  26.641  1.00  0.00     0.021 A 
ATOM     23  N   UNL A   1      39.433  22.142  26.261  1.00  0.00    -0.264 NA
ATOM     24  C   UNL A   1      39.527  23.417  26.695  1.00  0.00     0.111 A 
ENDBRANCH  12  19
ENDBRANCH   8   9
ENDBRANCH   7   8
ENDBRANCH   5   7
ENDBRANCH   2   3
ENDBRANCH   1   2
BRANCH   1  25
ATOM     25  C   UNL A   1      32.416  27.814  25.080  1.00  0.00     0.023 C 
BRANCH  25  26
ATOM     26  C   UNL A   1      33.327  29.038  25.069  1.00  0.00     0.116 C 
BRANCH  26  27
ATOM     27  N   UNL A   1      32.707  30.216  25.652  1.00  0.00    -0.352 N 
ATOM     28  C   UNL A   1      33.083  30.952  26.751  1.00  0.00     0.251 C 
ATOM     29  H   UNL A   1      31.898  30.535  25.190  1.00  0.00     0.163 HD
ATOM     30  O   UNL A   1      32.347  31.847  27.158  1.00  0.00    -0.269 OA
BRANCH  28  31
ATOM     31  C   UNL A   1      34.346  30.648  27.461  1.00  0.00     0.039 A 
ATOM     32  C   UNL A   1      35.274  31.677  27.651  1.00  0.00     0.014 A 
ATOM     33  C   UNL A   1      34.626  29.363  27.933  1.00  0.00     0.014 A 
ATOM     34  C   UNL A   1      36.445  31.435  28.376  1.00  0.00     0.010 A 
ATOM     35  C   UNL A   1      35.764  29.137  28.708  1.00  0.00     0.010 A 
ATOM     36  C   UNL A   1      36.681  30.173  28.942  1.00  0.00    -0.014 A 
BRANCH  36  37
ATOM     37  C   UNL A   1      37.884  29.920  29.779  1.00  0.00     0.031 A 
ATOM     38  C   UNL A   1      39.024  29.102  29.240  1.00  0.00     0.074 A 
ATOM     39  C   UNL A   1      37.934  30.397  31.039  1.00  0.00     0.049 A 
ATOM     40  N   UNL A   1      40.122  28.717  29.840  1.00  0.00    -0.248 NA
ATOM     41  C   UNL A   1      38.904  28.639  27.850  1.00  0.00     0.031 C 
ATOM     42  C   UNL A   1      36.887  31.192  31.684  1.00  0.00     0.029 A 
ATOM     43  N   UNL A   1      38.906  30.287  32.002  1.00  0.00    -0.354 N 
ATOM     44  C   UNL A   1      40.821  27.966  28.904  1.00  0.00     0.074 A 
ATOM     45  C   UNL A   1      39.997  27.902  27.715  1.00  0.00     0.031 C 
ATOM     46  C   UNL A   1      37.289  31.528  32.921  1.00  0.00     0.029 A 
ATOM     47  C   UNL A   1      38.600  30.937  33.174  1.00  0.00     0.049 A 
ATOM     48  H   UNL A   1      39.744  29.788  31.866  1.00  0.00     0.167 HD
ATOM     49  C   UNL A   1      42.050  27.401  29.015  1.00  0.00     0.034 A 
ATOM     50  C   UNL A   1      39.292  31.043  34.326  1.00  0.00     0.034 A 
ATOM     51  C   UNL A   1      42.871  27.480  30.196  1.00  0.00     0.049 A 
ATOM     52  C   UNL A   1      40.631  30.368  34.444  1.00  0.00     0.074 A 
ATOM     53  C   UNL A   1      44.142  26.969  30.398  1.00  0.00     0.029 A 
ATOM     54  N   UNL A   1      42.505  28.111  31.378  1.00  0.00    -0.354 N 
ATOM     55  N   UNL A   1      41.275  29.653  33.552  1.00  0.00    -0.248 NA
ATOM     56  C   UNL A   1      41.335  30.507  35.727  1.00  0.00     0.031 C 
ATOM     57  C   UNL A   1      44.522  27.243  31.715  1.00  0.00     0.029 A 
ATOM     58  C   UNL A   1      43.514  27.979  32.319  1.00  0.00     0.049 A 
ATOM     59  H   UNL A   1      41.654  28.583  31.526  1.00  0.00     0.167 HD
ATOM     60  C   UNL A   1      42.466  29.272  34.159  1.00  0.00     0.074 A 
ATOM     61  C   UNL A   1      42.456  29.838  35.492  1.00  0.00     0.031 C 
ATOM     62  C   UNL A   1      43.481  28.526  33.653  1.00  0.00     0.034 A 
BRANCH  49  63
ATOM     63  C   UNL A   1      42.568  26.636  27.825  1.00  0.00     0.023 A 
ATOM     64  C   UNL A   1      42.576  25.230  27.807  1.00  0.00     0.031 A 
ATOM     65  C   UNL A   1      43.067  27.315  26.700  1.00  0.00     0.131 A 
ATOM     66  C   UNL A   1      43.129  24.549  26.713  1.00  0.00     0.055 A 
ATOM     67  C   UNL A   1      43.551  26.631  25.585  1.00  0.00     0.041 A 
ATOM     68  F   UNL A   1      43.100  28.657  26.672  1.00  0.00    -0.206 F 
ATOM     69  C   UNL A   1      43.594  25.240  25.591  1.00  0.00     0.022 A 
BRANCH  66  70
ATOM     70  S   UNL A   1      43.325  22.750  26.820  1.00  0.00     0.124 S 
ATOM     71  O   UNL A   1      42.568  22.445  28.032  1.00  0.00    -0.237 OA
ATOM     72  O   UNL A   1      42.738  22.292  25.566  1.00  0.00    -0.237 OA
ATOM     73  O   UNL A   1      44.772  22.570  26.933  1.00  0.00    -0.744 OA
ENDBRANCH  66  70
ENDBRANCH  49  63
BRANCH  50  74
ATOM     74  C   UNL A   1      38.727  31.821  35.462  1.00  0.00     0.023 A 
ATOM     75  C   UNL A   1      38.152  31.170  36.562  1.00  0.00     0.031 A 
ATOM     76  C   UNL A   1      38.768  33.226  35.465  1.00  0.00     0.131 A 
ATOM     77  C   UNL A   1      37.620  31.925  37.618  1.00  0.00     0.055 A 
ATOM     78  C   UNL A   1      38.266  33.972  36.534  1.00  0.00     0.041 A 
ATOM     79  F   UNL A   1      39.318  33.892  34.438  1.00  0.00    -0.206 F 
ATOM     80  C   UNL A   1      37.685  33.321  37.617  1.00  0.00     0.022 A 
BRANCH  77  81
ATOM     81  S   UNL A   1      36.828  31.056  39.000  1.00  0.00     0.124 S 
ATOM     82  O   UNL A   1      36.693  29.707  38.462  1.00  0.00    -0.237 OA
ATOM     83  O   UNL A   1      37.804  31.227  40.070  1.00  0.00    -0.237 OA
ATOM     84  O   UNL A   1      35.574  31.784  39.183  1.00  0.00    -0.744 OA
ENDBRANCH  77  81
ENDBRANCH  50  74
BRANCH  62  85
ATOM     85  C   UNL A   1      44.675  28.293  34.539  1.00  0.00     0.023 A 
ATOM     86  C   UNL A   1      44.715  27.222  35.448  1.00  0.00     0.031 A 
ATOM     87  C   UNL A   1      45.801  29.130  34.445  1.00  0.00     0.131 A 
ATOM     88  C   UNL A   1      45.852  27.029  36.246  1.00  0.00     0.055 A 
ATOM     89  C   UNL A   1      46.945  28.908  35.211  1.00  0.00     0.041 A 
ATOM     90  F   UNL A   1      45.810  30.165  33.590  1.00  0.00    -0.206 F 
ATOM     91  C   UNL A   1      46.973  27.856  36.123  1.00  0.00     0.022 A 
BRANCH  88  92
ATOM     92  S   UNL A   1      45.840  25.698  37.478  1.00  0.00     0.124 S 
ATOM     93  O   UNL A   1      44.430  25.322  37.502  1.00  0.00    -0.237 OA
ATOM     94  O   UNL A   1      46.750  24.718  36.893  1.00  0.00    -0.237 OA
ATOM     95  O   UNL A   1      46.329  26.348  38.691  1.00  0.00    -0.744 OA
ENDBRANCH  88  92
ENDBRANCH  62  85
ENDBRANCH  36  37
ENDBRANCH  28  31
ENDBRANCH  26  27
ENDBRANCH  25  26
ENDBRANCH   1  25
TORSDOF 17
ENDMDL
