MODEL 1
REMARK VINA RESULT:     -11.0      0.000      0.000
REMARK SMILES CC[N@@H+](Cc1cccc(C)n1)Cc1csc(C(=O)NCCCCNC(=O)c2ccc(-c3c4nc(c(-c5cc(S(=O)(=O)[O-])ccc5F)c5ccc([nH]5)c(-c5cc(S(=O)(=O)[O-])ccc5F)c5nc(c(-c6cc(S(=O)(=O)[O-])ccc6F)c6ccc3[nH]6)C=C5)C=C4)cc2)n1
REMARK SMILES IDX 21 1 20 2 19 3 17 4 18 5 16 7 13 8 14 9 90 10 15 11 12 12
REMARK SMILES IDX 3 13 2 15 1 16 4 17 5 18 6 19 11 20 7 21 9 22 8 23 10 24
REMARK SMILES IDX 22 25 23 26 24 27 25 28 26 30 27 31 28 32 89 33 29 34 88 35
REMARK SMILES IDX 30 36 31 37 32 38 82 39 33 40 87 41 81 42 83 43 34 44 86 45
REMARK SMILES IDX 80 46 79 47 35 49 67 50 47 51 66 52 48 53 51 54 65 55 84 56
REMARK SMILES IDX 49 57 50 58 64 60 85 61 52 62 36 63 37 64 45 65 38 66 44 67
REMARK SMILES IDX 46 68 43 69 39 70 40 71 41 72 42 73 68 74 69 75 77 76 70 77
REMARK SMILES IDX 76 78 78 79 75 80 71 81 72 82 73 83 74 84 53 85 54 86 62 87
REMARK SMILES IDX 55 88 61 89 63 90 60 91 56 92 57 93 58 94 59 95
REMARK H PARENT 19 6 3 14 24 29 83 48 51 59
REMARK Flexibility Score: inf
ROOT
ATOM      1  C   UNL A   1      31.591  28.975  24.204  1.00  0.00     0.023 C 
ENDROOT
BRANCH   1   2
ATOM      2  C   UNL A   1      31.017  27.574  24.044  1.00  0.00     0.116 C 
BRANCH   2   3
ATOM      3  N   UNL A   1      30.812  26.893  25.308  1.00  0.00    -0.350 N 
ATOM      4  C   UNL A   1      31.126  25.597  25.689  1.00  0.00     0.280 C 
ATOM      5  O   UNL A   1      30.855  25.307  26.860  1.00  0.00    -0.267 OA
ATOM      6  H   UNL A   1      30.382  27.438  26.007  1.00  0.00     0.163 HD
BRANCH   4   7
ATOM      7  C   UNL A   1      31.749  24.658  24.749  1.00  0.00     0.181 A 
ATOM      8  C   UNL A   1      33.306  23.385  23.772  1.00  0.00     0.106 A 
ATOM      9  C   UNL A   1      32.203  23.003  23.031  1.00  0.00     0.097 A 
ATOM     10  N   UNL A   1      33.029  24.354  24.717  1.00  0.00    -0.230 NA
ATOM     11  S   UNL A   1      30.802  23.834  23.572  1.00  0.00    -0.117 S 
BRANCH   8  12
ATOM     12  C   UNL A   1      34.717  22.876  23.625  1.00  0.00     0.320 C 
BRANCH  12  13
ATOM     13  N   UNL A   1      35.272  22.223  24.824  1.00  0.00    -0.325 N 
ATOM     14  H   UNL A   1      35.310  23.006  25.478  1.00  0.00     0.348 HD
BRANCH  13  15
ATOM     15  C   UNL A   1      34.431  21.230  25.498  1.00  0.00     0.259 C 
ATOM     16  C   UNL A   1      34.018  21.585  26.922  1.00  0.00     0.071 C 
ENDBRANCH  13  15
BRANCH  13  17
ATOM     17  C   UNL A   1      36.633  21.692  24.611  1.00  0.00     0.319 C 
BRANCH  17  18
ATOM     18  C   UNL A   1      37.720  22.393  25.406  1.00  0.00     0.095 A 
ATOM     19  C   UNL A   1      37.577  23.703  25.857  1.00  0.00     0.030 A 
ATOM     20  N   UNL A   1      38.788  21.627  25.751  1.00  0.00    -0.252 NA
ATOM     21  C   UNL A   1      38.561  24.247  26.674  1.00  0.00     0.004 A 
ATOM     22  C   UNL A   1      39.725  22.161  26.568  1.00  0.00     0.038 A 
ATOM     23  C   UNL A   1      39.648  23.464  27.044  1.00  0.00     0.023 A 
ATOM     24  C   UNL A   1      40.839  21.250  26.983  1.00  0.00     0.067 C 
ENDBRANCH  17  18
ENDBRANCH  13  17
ENDBRANCH  12  13
ENDBRANCH   8  12
ENDBRANCH   4   7
ENDBRANCH   2   3
ENDBRANCH   1   2
BRANCH   1  25
ATOM     25  C   UNL A   1      33.096  29.028  24.441  1.00  0.00     0.023 C 
BRANCH  25  26
ATOM     26  C   UNL A   1      33.523  29.290  25.883  1.00  0.00     0.116 C 
BRANCH  26  27
ATOM     27  N   UNL A   1      33.198  30.629  26.354  1.00  0.00    -0.352 N 
ATOM     28  C   UNL A   1      33.851  31.411  27.279  1.00  0.00     0.251 C 
ATOM     29  H   UNL A   1      32.394  31.034  25.953  1.00  0.00     0.163 HD
ATOM     30  O   UNL A   1      33.360  32.483  27.624  1.00  0.00    -0.269 OA
BRANCH  28  31
ATOM     31  C   UNL A   1      35.112  30.935  27.887  1.00  0.00     0.039 A 
ATOM     32  C   UNL A   1      36.184  31.823  28.001  1.00  0.00     0.014 A 
ATOM     33  C   UNL A   1      35.226  29.634  28.384  1.00  0.00     0.014 A 
ATOM     34  C   UNL A   1      37.330  31.438  28.701  1.00  0.00     0.010 A 
ATOM     35  C   UNL A   1      36.333  29.280  29.151  1.00  0.00     0.010 A 
ATOM     36  C   UNL A   1      37.393  30.182  29.328  1.00  0.00    -0.014 A 
BRANCH  36  37
ATOM     37  C   UNL A   1      38.544  29.814  30.195  1.00  0.00     0.031 A 
ATOM     38  C   UNL A   1      38.678  30.400  31.574  1.00  0.00     0.074 A 
ATOM     39  C   UNL A   1      39.505  29.001  29.711  1.00  0.00     0.049 A 
ATOM     40  N   UNL A   1      39.636  30.240  32.453  1.00  0.00    -0.248 NA
ATOM     41  C   UNL A   1      37.609  31.310  32.010  1.00  0.00     0.031 C 
ATOM     42  C   UNL A   1      39.521  28.416  28.367  1.00  0.00     0.029 A 
ATOM     43  N   UNL A   1      40.659  28.530  30.286  1.00  0.00    -0.354 N 
ATOM     44  C   UNL A   1      39.291  31.037  33.539  1.00  0.00     0.074 A 
ATOM     45  C   UNL A   1      38.070  31.728  33.179  1.00  0.00     0.031 C 
ATOM     46  C   UNL A   1      40.610  27.643  28.235  1.00  0.00     0.029 A 
ATOM     47  C   UNL A   1      41.393  27.707  29.464  1.00  0.00     0.049 A 
ATOM     48  H   UNL A   1      40.935  28.758  31.204  1.00  0.00     0.167 HD
ATOM     49  C   UNL A   1      39.921  31.162  34.735  1.00  0.00     0.034 A 
ATOM     50  C   UNL A   1      42.569  27.081  29.671  1.00  0.00     0.034 A 
ATOM     51  C   UNL A   1      41.132  30.458  35.083  1.00  0.00     0.049 A 
ATOM     52  C   UNL A   1      43.252  27.239  31.004  1.00  0.00     0.074 A 
ATOM     53  C   UNL A   1      41.819  30.465  36.284  1.00  0.00     0.029 A 
ATOM     54  N   UNL A   1      41.845  29.627  34.226  1.00  0.00    -0.354 N 
ATOM     55  N   UNL A   1      42.880  27.948  32.045  1.00  0.00    -0.248 NA
ATOM     56  C   UNL A   1      44.506  26.499  31.196  1.00  0.00     0.031 C 
ATOM     57  C   UNL A   1      42.978  29.694  36.134  1.00  0.00     0.029 A 
ATOM     58  C   UNL A   1      42.977  29.141  34.864  1.00  0.00     0.049 A 
ATOM     59  H   UNL A   1      41.584  29.413  33.302  1.00  0.00     0.167 HD
ATOM     60  C   UNL A   1      43.843  27.718  33.023  1.00  0.00     0.074 A 
ATOM     61  C   UNL A   1      44.796  26.786  32.455  1.00  0.00     0.031 C 
ATOM     62  C   UNL A   1      43.932  28.229  34.279  1.00  0.00     0.034 A 
BRANCH  49  63
ATOM     63  C   UNL A   1      39.314  32.113  35.741  1.00  0.00     0.023 A 
ATOM     64  C   UNL A   1      39.721  33.457  35.823  1.00  0.00     0.031 A 
ATOM     65  C   UNL A   1      38.337  31.666  36.647  1.00  0.00     0.131 A 
ATOM     66  C   UNL A   1      39.213  34.282  36.837  1.00  0.00     0.055 A 
ATOM     67  C   UNL A   1      37.774  32.516  37.602  1.00  0.00     0.041 A 
ATOM     68  F   UNL A   1      37.921  30.390  36.631  1.00  0.00    -0.206 F 
ATOM     69  C   UNL A   1      38.223  33.829  37.712  1.00  0.00     0.022 A 
BRANCH  66  70
ATOM     70  S   UNL A   1      39.973  35.910  37.090  1.00  0.00     0.124 S 
ATOM     71  O   UNL A   1      41.371  35.553  37.310  1.00  0.00    -0.237 OA
ATOM     72  O   UNL A   1      39.678  36.594  35.835  1.00  0.00    -0.237 OA
ATOM     73  O   UNL A   1      39.278  36.435  38.264  1.00  0.00    -0.744 OA
ENDBRANCH  66  70
ENDBRANCH  49  63
BRANCH  50  74
ATOM     74  C   UNL A   1      43.184  26.249  28.597  1.00  0.00     0.023 A 
ATOM     75  C   UNL A   1      44.179  26.772  27.756  1.00  0.00     0.031 A 
ATOM     76  C   UNL A   1      42.753  24.929  28.367  1.00  0.00     0.131 A 
ATOM     77  C   UNL A   1      44.676  26.000  26.695  1.00  0.00     0.055 A 
ATOM     78  C   UNL A   1      43.289  24.147  27.343  1.00  0.00     0.041 A 
ATOM     79  F   UNL A   1      41.810  24.377  29.147  1.00  0.00    -0.206 F 
ATOM     80  C   UNL A   1      44.247  24.687  26.490  1.00  0.00     0.022 A 
BRANCH  77  81
ATOM     81  S   UNL A   1      45.836  26.769  25.531  1.00  0.00     0.124 S 
ATOM     82  O   UNL A   1      46.122  25.665  24.623  1.00  0.00    -0.237 OA
ATOM     83  O   UNL A   1      45.037  27.860  24.984  1.00  0.00    -0.237 OA
ATOM     84  O   UNL A   1      46.950  27.180  26.383  1.00  0.00    -0.744 OA
ENDBRANCH  77  81
ENDBRANCH  50  74
BRANCH  62  85
ATOM     85  C   UNL A   1      45.090  27.755  35.125  1.00  0.00     0.023 A 
ATOM     86  C   UNL A   1      44.964  26.666  36.005  1.00  0.00     0.031 A 
ATOM     87  C   UNL A   1      46.325  28.427  35.078  1.00  0.00     0.131 A 
ATOM     88  C   UNL A   1      46.029  26.324  36.852  1.00  0.00     0.055 A 
ATOM     89  C   UNL A   1      47.403  28.040  35.875  1.00  0.00     0.041 A 
ATOM     90  F   UNL A   1      46.502  29.475  34.259  1.00  0.00    -0.206 F 
ATOM     91  C   UNL A   1      47.253  26.994  36.781  1.00  0.00     0.022 A 
BRANCH  88  92
ATOM     92  S   UNL A   1      45.756  25.065  38.129  1.00  0.00     0.124 S 
ATOM     93  O   UNL A   1      46.209  25.753  39.334  1.00  0.00    -0.237 OA
ATOM     94  O   UNL A   1      44.320  24.830  38.032  1.00  0.00    -0.237 OA
ATOM     95  O   UNL A   1      46.597  23.950  37.698  1.00  0.00    -0.744 OA
ENDBRANCH  88  92
ENDBRANCH  62  85
ENDBRANCH  36  37
ENDBRANCH  28  31
ENDBRANCH  26  27
ENDBRANCH  25  26
ENDBRANCH   1  25
TORSDOF 19
ENDMDL
MODEL 2
REMARK VINA RESULT:     -10.2      4.963      8.857
REMARK SMILES CC[N@@H+](Cc1cccc(C)n1)Cc1csc(C(=O)NCCCCNC(=O)c2ccc(-c3c4nc(c(-c5cc(S(=O)(=O)[O-])ccc5F)c5ccc([nH]5)c(-c5cc(S(=O)(=O)[O-])ccc5F)c5nc(c(-c6cc(S(=O)(=O)[O-])ccc6F)c6ccc3[nH]6)C=C5)C=C4)cc2)n1
REMARK SMILES IDX 21 1 20 2 19 3 17 4 18 5 16 7 13 8 14 9 90 10 15 11 12 12
REMARK SMILES IDX 3 13 2 15 1 16 4 17 5 18 6 19 11 20 7 21 9 22 8 23 10 24
REMARK SMILES IDX 22 25 23 26 24 27 25 28 26 30 27 31 28 32 89 33 29 34 88 35
REMARK SMILES IDX 30 36 31 37 32 38 82 39 33 40 87 41 81 42 83 43 34 44 86 45
REMARK SMILES IDX 80 46 79 47 35 49 67 50 47 51 66 52 48 53 51 54 65 55 84 56
REMARK SMILES IDX 49 57 50 58 64 60 85 61 52 62 36 63 37 64 45 65 38 66 44 67
REMARK SMILES IDX 46 68 43 69 39 70 40 71 41 72 42 73 68 74 69 75 77 76 70 77
REMARK SMILES IDX 76 78 78 79 75 80 71 81 72 82 73 83 74 84 53 85 54 86 62 87
REMARK SMILES IDX 55 88 61 89 63 90 60 91 56 92 57 93 58 94 59 95
REMARK H PARENT 19 6 3 14 24 29 83 48 51 59
REMARK Flexibility Score: inf
ROOT
ATOM      1  C   UNL A   1      37.675  22.281  25.376  1.00  0.00     0.023 C 
ENDROOT
BRANCH   1   2
ATOM      2  C   UNL A   1      36.166  22.135  25.233  1.00  0.00     0.116 C 
BRANCH   2   3
ATOM      3  N   UNL A   1      35.488  21.940  26.501  1.00  0.00    -0.350 N 
ATOM      4  C   UNL A   1      34.143  22.035  26.821  1.00  0.00     0.280 C 
ATOM      5  O   UNL A   1      33.857  21.778  27.996  1.00  0.00    -0.267 OA
ATOM      6  H   UNL A   1      36.078  21.701  27.253  1.00  0.00     0.163 HD
BRANCH   4   7
ATOM      7  C   UNL A   1      33.145  22.406  25.811  1.00  0.00     0.181 A 
ATOM      8  C   UNL A   1      31.697  23.646  24.643  1.00  0.00     0.106 A 
ATOM      9  C   UNL A   1      31.651  22.483  23.898  1.00  0.00     0.097 A 
ATOM     10  N   UNL A   1      32.525  23.565  25.747  1.00  0.00    -0.230 NA
ATOM     11  S   UNL A   1      32.703  21.302  24.567  1.00  0.00    -0.117 S 
BRANCH   8  12
ATOM     12  C   UNL A   1      30.939  24.923  24.379  1.00  0.00     0.320 C 
BRANCH  12  13
ATOM     13  N   UNL A   1      31.763  26.051  23.911  1.00  0.00    -0.325 N 
ATOM     14  H   UNL A   1      32.607  25.928  24.471  1.00  0.00     0.348 HD
BRANCH  13  15
ATOM     15  C   UNL A   1      32.240  26.007  22.526  1.00  0.00     0.259 C 
ATOM     16  C   UNL A   1      33.653  26.531  22.306  1.00  0.00     0.071 C 
ENDBRANCH  13  15
BRANCH  13  17
ATOM     17  C   UNL A   1      31.161  27.366  24.211  1.00  0.00     0.319 C 
BRANCH  17  18
ATOM     18  C   UNL A   1      31.903  28.182  25.253  1.00  0.00     0.095 A 
ATOM     19  C   UNL A   1      33.091  27.739  25.829  1.00  0.00     0.030 A 
ATOM     20  N   UNL A   1      31.402  29.420  25.502  1.00  0.00    -0.252 NA
ATOM     21  C   UNL A   1      33.779  28.584  26.692  1.00  0.00     0.004 A 
ATOM     22  C   UNL A   1      32.095  30.241  26.325  1.00  0.00     0.038 A 
ATOM     23  C   UNL A   1      33.281  29.858  26.938  1.00  0.00     0.023 A 
ATOM     24  C   UNL A   1      31.542  31.621  26.503  1.00  0.00     0.067 C 
ENDBRANCH  17  18
ENDBRANCH  13  17
ENDBRANCH  12  13
ENDBRANCH   8  12
ENDBRANCH   4   7
ENDBRANCH   2   3
ENDBRANCH   1   2
BRANCH   1  25
ATOM     25  C   UNL A   1      38.459  20.979  25.258  1.00  0.00     0.023 C 
BRANCH  25  26
ATOM     26  C   UNL A   1      39.380  20.661  26.433  1.00  0.00     0.116 C 
BRANCH  26  27
ATOM     27  N   UNL A   1      40.308  19.571  26.170  1.00  0.00    -0.352 N 
ATOM     28  C   UNL A   1      41.680  19.598  26.068  1.00  0.00     0.251 C 
ATOM     29  H   UNL A   1      39.893  18.685  26.046  1.00  0.00     0.163 HD
ATOM     30  O   UNL A   1      42.285  18.582  25.734  1.00  0.00    -0.269 OA
BRANCH  28  31
ATOM     31  C   UNL A   1      42.412  20.860  26.312  1.00  0.00     0.039 A 
ATOM     32  C   UNL A   1      42.669  21.710  25.235  1.00  0.00     0.014 A 
ATOM     33  C   UNL A   1      42.802  21.227  27.603  1.00  0.00     0.014 A 
ATOM     34  C   UNL A   1      43.228  22.970  25.465  1.00  0.00     0.010 A 
ATOM     35  C   UNL A   1      43.282  22.513  27.841  1.00  0.00     0.010 A 
ATOM     36  C   UNL A   1      43.489  23.403  26.776  1.00  0.00    -0.014 A 
BRANCH  36  37
ATOM     37  C   UNL A   1      43.948  24.791  27.049  1.00  0.00     0.031 A 
ATOM     38  C   UNL A   1      42.992  25.817  27.594  1.00  0.00     0.074 A 
ATOM     39  C   UNL A   1      45.212  25.145  26.739  1.00  0.00     0.049 A 
ATOM     40  N   UNL A   1      43.193  27.086  27.845  1.00  0.00    -0.248 NA
ATOM     41  C   UNL A   1      41.621  25.361  27.865  1.00  0.00     0.031 C 
ATOM     42  C   UNL A   1      46.217  24.258  26.148  1.00  0.00     0.029 A 
ATOM     43  N   UNL A   1      45.869  26.343  26.870  1.00  0.00    -0.354 N 
ATOM     44  C   UNL A   1      41.973  27.583  28.291  1.00  0.00     0.074 A 
ATOM     45  C   UNL A   1      41.025  26.491  28.213  1.00  0.00     0.031 C 
ATOM     46  C   UNL A   1      47.368  24.932  25.997  1.00  0.00     0.029 A 
ATOM     47  C   UNL A   1      47.175  26.309  26.438  1.00  0.00     0.049 A 
ATOM     48  H   UNL A   1      45.445  27.152  27.238  1.00  0.00     0.167 HD
ATOM     49  C   UNL A   1      41.677  28.827  28.747  1.00  0.00     0.034 A 
ATOM     50  C   UNL A   1      48.111  27.279  26.396  1.00  0.00     0.034 A 
ATOM     51  C   UNL A   1      42.637  29.902  28.827  1.00  0.00     0.049 A 
ATOM     52  C   UNL A   1      47.758  28.653  26.902  1.00  0.00     0.074 A 
ATOM     53  C   UNL A   1      42.460  31.181  29.327  1.00  0.00     0.029 A 
ATOM     54  N   UNL A   1      43.954  29.830  28.388  1.00  0.00    -0.354 N 
ATOM     55  N   UNL A   1      46.615  29.090  27.380  1.00  0.00    -0.248 NA
ATOM     56  C   UNL A   1      48.826  29.660  26.877  1.00  0.00     0.031 C 
ATOM     57  C   UNL A   1      43.645  31.899  29.131  1.00  0.00     0.029 A 
ATOM     58  C   UNL A   1      44.589  31.048  28.579  1.00  0.00     0.049 A 
ATOM     59  H   UNL A   1      44.375  29.030  27.999  1.00  0.00     0.167 HD
ATOM     60  C   UNL A   1      46.837  30.418  27.735  1.00  0.00     0.074 A 
ATOM     61  C   UNL A   1      48.227  30.699  27.439  1.00  0.00     0.031 C 
ATOM     62  C   UNL A   1      45.971  31.323  28.260  1.00  0.00     0.034 A 
BRANCH  49  63
ATOM     63  C   UNL A   1      40.250  29.088  29.170  1.00  0.00     0.023 A 
ATOM     64  C   UNL A   1      39.867  29.067  30.524  1.00  0.00     0.031 A 
ATOM     65  C   UNL A   1      39.254  29.335  28.209  1.00  0.00     0.131 A 
ATOM     66  C   UNL A   1      38.516  29.210  30.872  1.00  0.00     0.055 A 
ATOM     67  C   UNL A   1      37.923  29.559  28.569  1.00  0.00     0.041 A 
ATOM     68  F   UNL A   1      39.554  29.349  26.901  1.00  0.00    -0.206 F 
ATOM     69  C   UNL A   1      37.544  29.481  29.906  1.00  0.00     0.022 A 
BRANCH  66  70
ATOM     70  S   UNL A   1      38.026  28.888  32.589  1.00  0.00     0.124 S 
ATOM     71  O   UNL A   1      36.652  29.385  32.601  1.00  0.00    -0.237 OA
ATOM     72  O   UNL A   1      38.184  27.442  32.697  1.00  0.00    -0.237 OA
ATOM     73  O   UNL A   1      38.975  29.679  33.370  1.00  0.00    -0.744 OA
ENDBRANCH  66  70
ENDBRANCH  49  63
BRANCH  50  74
ATOM     74  C   UNL A   1      49.471  26.995  25.854  1.00  0.00     0.023 A 
ATOM     75  C   UNL A   1      49.830  27.392  24.556  1.00  0.00     0.031 A 
ATOM     76  C   UNL A   1      50.419  26.283  26.612  1.00  0.00     0.131 A 
ATOM     77  C   UNL A   1      51.083  27.034  24.037  1.00  0.00     0.055 A 
ATOM     78  C   UNL A   1      51.683  25.975  26.109  1.00  0.00     0.041 A 
ATOM     79  F   UNL A   1      50.130  25.888  27.862  1.00  0.00    -0.206 F 
ATOM     80  C   UNL A   1      52.017  26.339  24.808  1.00  0.00     0.022 A 
BRANCH  77  81
ATOM     81  S   UNL A   1      51.445  27.419  22.301  1.00  0.00     0.124 S 
ATOM     82  O   UNL A   1      52.058  28.737  22.409  1.00  0.00    -0.237 OA
ATOM     83  O   UNL A   1      52.336  26.325  21.928  1.00  0.00    -0.237 OA
ATOM     84  O   UNL A   1      50.130  27.392  21.665  1.00  0.00    -0.744 OA
ENDBRANCH  77  81
ENDBRANCH  50  74
BRANCH  62  85
ATOM     85  C   UNL A   1      46.527  32.692  28.575  1.00  0.00     0.023 A 
ATOM     86  C   UNL A   1      46.392  33.767  27.678  1.00  0.00     0.031 A 
ATOM     87  C   UNL A   1      47.233  32.913  29.770  1.00  0.00     0.131 A 
ATOM     88  C   UNL A   1      47.013  34.993  27.958  1.00  0.00     0.055 A 
ATOM     89  C   UNL A   1      47.794  34.154  30.074  1.00  0.00     0.041 A 
ATOM     90  F   UNL A   1      47.396  31.922  30.661  1.00  0.00    -0.206 F 
ATOM     91  C   UNL A   1      47.700  35.198  29.158  1.00  0.00     0.022 A 
BRANCH  88  92
ATOM     92  S   UNL A   1      47.011  36.282  26.682  1.00  0.00     0.124 S 
ATOM     93  O   UNL A   1      46.404  35.588  25.551  1.00  0.00    -0.237 OA
ATOM     94  O   UNL A   1      46.200  37.327  27.297  1.00  0.00    -0.237 OA
ATOM     95  O   UNL A   1      48.426  36.609  26.522  1.00  0.00    -0.744 OA
ENDBRANCH  88  92
ENDBRANCH  62  85
ENDBRANCH  36  37
ENDBRANCH  28  31
ENDBRANCH  26  27
ENDBRANCH  25  26
ENDBRANCH   1  25
TORSDOF 19
ENDMDL
MODEL 3
REMARK VINA RESULT:     -10.1      2.600      2.909
REMARK SMILES CC[N@@H+](Cc1cccc(C)n1)Cc1csc(C(=O)NCCCCNC(=O)c2ccc(-c3c4nc(c(-c5cc(S(=O)(=O)[O-])ccc5F)c5ccc([nH]5)c(-c5cc(S(=O)(=O)[O-])ccc5F)c5nc(c(-c6cc(S(=O)(=O)[O-])ccc6F)c6ccc3[nH]6)C=C5)C=C4)cc2)n1
REMARK SMILES IDX 21 1 20 2 19 3 17 4 18 5 16 7 13 8 14 9 90 10 15 11 12 12
REMARK SMILES IDX 3 13 2 15 1 16 4 17 5 18 6 19 11 20 7 21 9 22 8 23 10 24
REMARK SMILES IDX 22 25 23 26 24 27 25 28 26 30 27 31 28 32 89 33 29 34 88 35
REMARK SMILES IDX 30 36 31 37 32 38 82 39 33 40 87 41 81 42 83 43 34 44 86 45
REMARK SMILES IDX 80 46 79 47 35 49 67 50 47 51 66 52 48 53 51 54 65 55 84 56
REMARK SMILES IDX 49 57 50 58 64 60 85 61 52 62 36 63 37 64 45 65 38 66 44 67
REMARK SMILES IDX 46 68 43 69 39 70 40 71 41 72 42 73 68 74 69 75 77 76 70 77
REMARK SMILES IDX 76 78 78 79 75 80 71 81 72 82 73 83 74 84 53 85 54 86 62 87
REMARK SMILES IDX 55 88 61 89 63 90 60 91 56 92 57 93 58 94 59 95
REMARK H PARENT 19 6 3 14 24 29 83 48 51 59
REMARK Flexibility Score: inf
ROOT
ATOM      1  C   UNL A   1      31.235  28.319  25.239  1.00  0.00     0.023 C 
ENDROOT
BRANCH   1   2
ATOM      2  C   UNL A   1      30.646  26.986  24.800  1.00  0.00     0.116 C 
BRANCH   2   3
ATOM      3  N   UNL A   1      30.475  26.049  25.894  1.00  0.00    -0.350 N 
ATOM      4  C   UNL A   1      30.954  24.757  26.050  1.00  0.00     0.280 C 
ATOM      5  O   UNL A   1      30.667  24.210  27.122  1.00  0.00    -0.267 OA
ATOM      6  H   UNL A   1      29.934  26.385  26.646  1.00  0.00     0.163 HD
BRANCH   4   7
ATOM      7  C   UNL A   1      31.755  24.112  25.004  1.00  0.00     0.181 A 
ATOM      8  C   UNL A   1      33.527  23.258  23.941  1.00  0.00     0.106 A 
ATOM      9  C   UNL A   1      32.536  22.911  23.043  1.00  0.00     0.097 A 
ATOM     10  N   UNL A   1      33.064  23.973  25.029  1.00  0.00    -0.230 NA
ATOM     11  S   UNL A   1      31.004  23.444  23.608  1.00  0.00    -0.117 S 
BRANCH   8  12
ATOM     12  C   UNL A   1      35.000  22.959  23.825  1.00  0.00     0.320 C 
BRANCH  12  13
ATOM     13  N   UNL A   1      35.593  22.284  24.994  1.00  0.00    -0.325 N 
ATOM     14  H   UNL A   1      35.640  23.052  25.664  1.00  0.00     0.348 HD
BRANCH  13  15
ATOM     15  C   UNL A   1      34.780  21.268  25.666  1.00  0.00     0.259 C 
ATOM     16  C   UNL A   1      34.370  21.602  27.096  1.00  0.00     0.071 C 
ENDBRANCH  13  15
BRANCH  13  17
ATOM     17  C   UNL A   1      36.953  21.772  24.733  1.00  0.00     0.319 C 
BRANCH  17  18
ATOM     18  C   UNL A   1      38.040  22.390  25.594  1.00  0.00     0.095 A 
ATOM     19  C   UNL A   1      37.957  23.699  26.062  1.00  0.00     0.030 A 
ATOM     20  N   UNL A   1      39.038  21.552  25.978  1.00  0.00    -0.252 NA
ATOM     21  C   UNL A   1      38.930  24.166  26.938  1.00  0.00     0.004 A 
ATOM     22  C   UNL A   1      39.964  22.012  26.851  1.00  0.00     0.038 A 
ATOM     23  C   UNL A   1      39.945  23.310  27.348  1.00  0.00     0.023 A 
ATOM     24  C   UNL A   1      40.996  21.026  27.303  1.00  0.00     0.067 C 
ENDBRANCH  17  18
ENDBRANCH  13  17
ENDBRANCH  12  13
ENDBRANCH   8  12
ENDBRANCH   4   7
ENDBRANCH   2   3
ENDBRANCH   1   2
BRANCH   1  25
ATOM     25  C   UNL A   1      32.746  28.318  25.439  1.00  0.00     0.023 C 
BRANCH  25  26
ATOM     26  C   UNL A   1      33.230  28.856  26.783  1.00  0.00     0.116 C 
BRANCH  26  27
ATOM     27  N   UNL A   1      32.959  30.274  26.975  1.00  0.00    -0.352 N 
ATOM     28  C   UNL A   1      33.761  31.249  27.524  1.00  0.00     0.251 C 
ATOM     29  H   UNL A   1      32.074  30.580  26.668  1.00  0.00     0.163 HD
ATOM     30  O   UNL A   1      33.312  32.380  27.697  1.00  0.00    -0.269 OA
BRANCH  28  31
ATOM     31  C   UNL A   1      35.139  30.917  27.947  1.00  0.00     0.039 A 
ATOM     32  C   UNL A   1      36.097  31.933  27.980  1.00  0.00     0.014 A 
ATOM     33  C   UNL A   1      35.476  29.624  28.352  1.00  0.00     0.014 A 
ATOM     34  C   UNL A   1      37.362  31.673  28.513  1.00  0.00     0.010 A 
ATOM     35  C   UNL A   1      36.708  29.387  28.958  1.00  0.00     0.010 A 
ATOM     36  C   UNL A   1      37.661  30.412  29.056  1.00  0.00    -0.014 A 
BRANCH  36  37
ATOM     37  C   UNL A   1      38.949  30.162  29.755  1.00  0.00     0.031 A 
ATOM     38  C   UNL A   1      39.198  30.735  31.124  1.00  0.00     0.074 A 
ATOM     39  C   UNL A   1      39.923  29.475  29.124  1.00  0.00     0.049 A 
ATOM     40  N   UNL A   1      40.274  30.670  31.866  1.00  0.00    -0.248 NA
ATOM     41  C   UNL A   1      38.101  31.508  31.723  1.00  0.00     0.031 C 
ATOM     42  C   UNL A   1      39.827  28.921  27.771  1.00  0.00     0.029 A 
ATOM     43  N   UNL A   1      41.188  29.129  29.531  1.00  0.00    -0.354 N 
ATOM     44  C   UNL A   1      39.989  31.402  33.014  1.00  0.00     0.074 A 
ATOM     45  C   UNL A   1      38.662  31.954  32.837  1.00  0.00     0.031 C 
ATOM     46  C   UNL A   1      40.969  28.280  27.474  1.00  0.00     0.029 A 
ATOM     47  C   UNL A   1      41.895  28.411  28.593  1.00  0.00     0.049 A 
ATOM     48  H   UNL A   1      41.555  29.371  30.412  1.00  0.00     0.167 HD
ATOM     49  C   UNL A   1      40.752  31.576  34.122  1.00  0.00     0.034 A 
ATOM     50  C   UNL A   1      43.150  27.921  28.627  1.00  0.00     0.034 A 
ATOM     51  C   UNL A   1      42.070  31.010  34.288  1.00  0.00     0.049 A 
ATOM     52  C   UNL A   1      43.981  28.132  29.866  1.00  0.00     0.074 A 
ATOM     53  C   UNL A   1      42.904  31.075  35.390  1.00  0.00     0.029 A 
ATOM     54  N   UNL A   1      42.752  30.283  33.320  1.00  0.00    -0.354 N 
ATOM     55  N   UNL A   1      43.672  28.774  30.969  1.00  0.00    -0.248 NA
ATOM     56  C   UNL A   1      45.323  27.538  29.870  1.00  0.00     0.031 C 
ATOM     57  C   UNL A   1      44.112  30.445  35.067  1.00  0.00     0.029 A 
ATOM     58  C   UNL A   1      44.005  29.919  33.790  1.00  0.00     0.049 A 
ATOM     59  H   UNL A   1      42.397  30.057  32.430  1.00  0.00     0.167 HD
ATOM     60  C   UNL A   1      44.775  28.638  31.807  1.00  0.00     0.074 A 
ATOM     61  C   UNL A   1      45.743  27.833  31.090  1.00  0.00     0.031 C 
ATOM     62  C   UNL A   1      44.971  29.134  33.057  1.00  0.00     0.034 A 
BRANCH  49  63
ATOM     63  C   UNL A   1      40.181  32.433  35.229  1.00  0.00     0.023 A 
ATOM     64  C   UNL A   1      39.392  31.883  36.256  1.00  0.00     0.031 A 
ATOM     65  C   UNL A   1      40.405  33.821  35.245  1.00  0.00     0.131 A 
ATOM     66  C   UNL A   1      38.793  32.723  37.205  1.00  0.00     0.055 A 
ATOM     67  C   UNL A   1      39.873  34.641  36.242  1.00  0.00     0.041 A 
ATOM     68  F   UNL A   1      41.134  34.408  34.282  1.00  0.00    -0.206 F 
ATOM     69  C   UNL A   1      39.048  34.096  37.222  1.00  0.00     0.022 A 
BRANCH  66  70
ATOM     70  S   UNL A   1      37.557  32.015  38.329  1.00  0.00     0.124 S 
ATOM     71  O   UNL A   1      37.394  30.671  37.780  1.00  0.00    -0.237 OA
ATOM     72  O   UNL A   1      38.223  32.100  39.624  1.00  0.00    -0.237 OA
ATOM     73  O   UNL A   1      36.400  32.892  38.164  1.00  0.00    -0.744 OA
ENDBRANCH  66  70
ENDBRANCH  49  63
BRANCH  50  74
ATOM     74  C   UNL A   1      43.707  27.185  27.456  1.00  0.00     0.023 A 
ATOM     75  C   UNL A   1      43.617  25.786  27.371  1.00  0.00     0.031 A 
ATOM     76  C   UNL A   1      44.377  27.867  26.423  1.00  0.00     0.131 A 
ATOM     77  C   UNL A   1      44.229  25.109  26.305  1.00  0.00     0.055 A 
ATOM     78  C   UNL A   1      44.938  27.192  25.338  1.00  0.00     0.041 A 
ATOM     79  F   UNL A   1      44.484  29.204  26.451  1.00  0.00    -0.206 F 
ATOM     80  C   UNL A   1      44.878  25.803  25.281  1.00  0.00     0.022 A 
BRANCH  77  81
ATOM     81  S   UNL A   1      44.235  23.295  26.318  1.00  0.00     0.124 S 
ATOM     82  O   UNL A   1      43.670  23.004  27.630  1.00  0.00    -0.237 OA
ATOM     83  O   UNL A   1      43.389  22.981  25.171  1.00  0.00    -0.237 OA
ATOM     84  O   UNL A   1      45.648  22.959  26.158  1.00  0.00    -0.744 OA
ENDBRANCH  77  81
ENDBRANCH  50  74
BRANCH  62  85
ATOM     85  C   UNL A   1      46.276  28.781  33.731  1.00  0.00     0.023 A 
ATOM     86  C   UNL A   1      47.434  29.560  33.553  1.00  0.00     0.031 A 
ATOM     87  C   UNL A   1      46.372  27.628  34.530  1.00  0.00     0.131 A 
ATOM     88  C   UNL A   1      48.651  29.141  34.109  1.00  0.00     0.055 A 
ATOM     89  C   UNL A   1      47.572  27.251  35.135  1.00  0.00     0.041 A 
ATOM     90  F   UNL A   1      45.301  26.845  34.732  1.00  0.00    -0.206 F 
ATOM     91  C   UNL A   1      48.724  28.000  34.912  1.00  0.00     0.022 A 
BRANCH  88  92
ATOM     92  S   UNL A   1      50.164  30.043  33.673  1.00  0.00     0.124 S 
ATOM     93  O   UNL A   1      51.200  29.058  33.970  1.00  0.00    -0.237 OA
ATOM     94  O   UNL A   1      49.953  30.339  32.261  1.00  0.00    -0.237 OA
ATOM     95  O   UNL A   1      50.139  31.203  34.561  1.00  0.00    -0.744 OA
ENDBRANCH  88  92
ENDBRANCH  62  85
ENDBRANCH  36  37
ENDBRANCH  28  31
ENDBRANCH  26  27
ENDBRANCH  25  26
ENDBRANCH   1  25
TORSDOF 19
ENDMDL
