MODEL 1
REMARK VINA RESULT:     -12.4      0.000      0.000
REMARK SMILES [NH3+]Cc1ccc(C(=O)N2[C@@H](C(=O)NCCCCNC(=O)c3ccc(-c4c5nc(c(-c6cc(S(=O)(=O)[O-])ccc6F)c6ccc([nH]6)c(-c6cc(S(=O)(=O)[O-])ccc6F)c6nc(c(-c7cc(S(=O)(=O)[O-])ccc7F)c7ccc4[nH]7)C=C6)C=C5)cc3)C[C@H]3CCCC[C@@H]32)o1
REMARK SMILES IDX 15 1 14 2 13 3 11 4 12 5 10 7 9 8 90 9 84 10 85 11 89 12
REMARK SMILES IDX 86 13 88 14 87 15 7 16 8 17 6 18 3 19 4 20 91 21 5 22 2 23
REMARK SMILES IDX 1 24 16 28 17 29 18 30 19 31 20 33 21 34 22 35 83 36 23 37
REMARK SMILES IDX 82 38 24 39 25 40 26 41 76 42 27 43 81 44 75 45 77 46 28 47
REMARK SMILES IDX 80 48 74 49 73 50 29 52 61 53 41 54 60 55 42 56 45 57 59 58
REMARK SMILES IDX 78 59 43 60 44 61 58 63 79 64 46 65 30 66 31 67 39 68 32 69
REMARK SMILES IDX 38 70 40 71 37 72 33 73 34 74 35 75 36 76 62 77 63 78 71 79
REMARK SMILES IDX 64 80 70 81 72 82 69 83 65 84 66 85 67 86 68 87 47 88 48 89
REMARK SMILES IDX 56 90 49 91 55 92 57 93 54 94 50 95 51 96 52 97 53 98
REMARK H PARENT 13 6 1 25 1 26 1 27 18 32 77 51 45 62
REMARK Flexibility Score: inf
ROOT
ATOM      1  C   UNL A   1      31.772  30.528  26.061  1.00  0.00     0.023 C 
ENDROOT
BRANCH   1   2
ATOM      2  C   UNL A   1      32.491  29.481  26.909  1.00  0.00     0.116 C 
BRANCH   2   3
ATOM      3  N   UNL A   1      31.736  28.248  27.028  1.00  0.00    -0.354 N 
ATOM      4  C   UNL A   1      32.001  27.010  26.506  1.00  0.00     0.242 C 
ATOM      5  O   UNL A   1      31.230  26.093  26.787  1.00  0.00    -0.273 OA
ATOM      6  H   UNL A   1      30.910  28.311  27.561  1.00  0.00     0.163 HD
BRANCH   4   7
ATOM      7  C   UNL A   1      33.252  26.816  25.614  1.00  0.00     0.175 C 
ATOM      8  N   UNL A   1      32.903  26.786  24.177  1.00  0.00    -0.321 N 
ATOM      9  C   UNL A   1      32.836  25.414  23.718  1.00  0.00     0.089 C 
ATOM     10  C   UNL A   1      33.849  25.412  25.879  1.00  0.00     0.041 C 
ATOM     11  C   UNL A   1      34.030  24.836  24.479  1.00  0.00     0.014 C 
ATOM     12  C   UNL A   1      33.010  25.127  22.228  1.00  0.00     0.025 C 
ATOM     13  C   UNL A   1      34.111  23.329  24.337  1.00  0.00     0.006 C 
ATOM     14  C   UNL A   1      33.152  23.618  21.993  1.00  0.00     0.002 C 
ATOM     15  C   UNL A   1      34.249  22.978  22.851  1.00  0.00     0.000 C 
BRANCH   8  16
ATOM     16  C   UNL A   1      32.529  27.857  23.388  1.00  0.00     0.290 C 
ATOM     17  O   UNL A   1      33.344  28.744  23.104  1.00  0.00    -0.265 OA
BRANCH  16  18
ATOM     18  C   UNL A   1      31.108  28.007  23.110  1.00  0.00     0.192 A 
ATOM     19  C   UNL A   1      29.330  29.189  22.529  1.00  0.00     0.159 A 
ATOM     20  C   UNL A   1      28.851  28.033  23.103  1.00  0.00     0.052 A 
ATOM     21  O   UNL A   1      30.691  29.164  22.500  1.00  0.00    -0.450 OA
ATOM     22  C   UNL A   1      29.987  27.285  23.493  1.00  0.00     0.057 A 
BRANCH  19  23
ATOM     23  C   UNL A   1      28.673  30.411  22.002  1.00  0.00     0.335 C 
BRANCH  23  24
ATOM     24  N   UNL A   1      29.611  31.526  21.933  1.00  0.00    -0.351 N 
ATOM     25  H   UNL A   1      29.332  32.247  22.597  1.00  0.00     0.344 HD
ATOM     26  H   UNL A   1      29.609  31.914  20.990  1.00  0.00     0.344 HD
ATOM     27  H   UNL A   1      30.548  31.196  22.163  1.00  0.00     0.344 HD
ENDBRANCH  23  24
ENDBRANCH  19  23
ENDBRANCH  16  18
ENDBRANCH   8  16
ENDBRANCH   4   7
ENDBRANCH   2   3
ENDBRANCH   1   2
BRANCH   1  28
ATOM     28  C   UNL A   1      31.543  31.884  26.735  1.00  0.00     0.023 C 
BRANCH  28  29
ATOM     29  C   UNL A   1      32.793  32.603  27.236  1.00  0.00     0.116 C 
BRANCH  29  30
ATOM     30  N   UNL A   1      32.535  33.980  27.625  1.00  0.00    -0.352 N 
ATOM     31  C   UNL A   1      33.137  34.749  28.595  1.00  0.00     0.251 C 
ATOM     32  H   UNL A   1      31.822  34.431  27.119  1.00  0.00     0.163 HD
ATOM     33  O   UNL A   1      32.666  35.853  28.858  1.00  0.00    -0.269 OA
BRANCH  31  34
ATOM     34  C   UNL A   1      34.317  34.249  29.339  1.00  0.00     0.039 A 
ATOM     35  C   UNL A   1      34.112  33.544  30.530  1.00  0.00     0.014 A 
ATOM     36  C   UNL A   1      35.618  34.486  28.887  1.00  0.00     0.014 A 
ATOM     37  C   UNL A   1      35.204  33.017  31.227  1.00  0.00     0.010 A 
ATOM     38  C   UNL A   1      36.702  33.914  29.554  1.00  0.00     0.010 A 
ATOM     39  C   UNL A   1      36.506  33.168  30.727  1.00  0.00    -0.014 A 
BRANCH  39  40
ATOM     40  C   UNL A   1      37.674  32.553  31.412  1.00  0.00     0.031 A 
ATOM     41  C   UNL A   1      38.413  31.412  30.766  1.00  0.00     0.074 A 
ATOM     42  C   UNL A   1      38.022  32.968  32.646  1.00  0.00     0.049 A 
ATOM     43  N   UNL A   1      39.372  30.664  31.251  1.00  0.00    -0.248 NA
ATOM     44  C   UNL A   1      37.995  31.049  29.404  1.00  0.00     0.031 C 
ATOM     45  C   UNL A   1      37.364  34.041  33.393  1.00  0.00     0.029 A 
ATOM     46  N   UNL A   1      39.003  32.524  33.497  1.00  0.00    -0.354 N 
ATOM     47  C   UNL A   1      39.659  29.727  30.264  1.00  0.00     0.074 A 
ATOM     48  C   UNL A   1      38.742  29.980  29.170  1.00  0.00     0.031 C 
ATOM     49  C   UNL A   1      37.964  34.176  34.588  1.00  0.00     0.029 A 
ATOM     50  C   UNL A   1      39.022  33.176  34.707  1.00  0.00     0.049 A 
ATOM     51  H   UNL A   1      39.634  31.805  33.263  1.00  0.00     0.167 HD
ATOM     52  C   UNL A   1      40.607  28.757  30.263  1.00  0.00     0.034 A 
ATOM     53  C   UNL A   1      39.791  32.982  35.796  1.00  0.00     0.034 A 
ATOM     54  C   UNL A   1      41.528  28.527  31.349  1.00  0.00     0.049 A 
ATOM     55  C   UNL A   1      40.840  31.901  35.771  1.00  0.00     0.074 A 
ATOM     56  C   UNL A   1      42.555  27.600  31.431  1.00  0.00     0.029 A 
ATOM     57  N   UNL A   1      41.536  29.230  32.547  1.00  0.00    -0.354 N 
ATOM     58  N   UNL A   1      41.114  31.039  34.819  1.00  0.00    -0.248 NA
ATOM     59  C   UNL A   1      41.687  31.775  36.964  1.00  0.00     0.031 C 
ATOM     60  C   UNL A   1      43.153  27.713  32.692  1.00  0.00     0.029 A 
ATOM     61  C   UNL A   1      42.536  28.747  33.377  1.00  0.00     0.049 A 
ATOM     62  H   UNL A   1      40.920  29.962  32.774  1.00  0.00     0.167 HD
ATOM     63  C   UNL A   1      42.184  30.285  35.291  1.00  0.00     0.074 A 
ATOM     64  C   UNL A   1      42.509  30.798  36.606  1.00  0.00     0.031 C 
ATOM     65  C   UNL A   1      42.843  29.264  34.689  1.00  0.00     0.034 A 
BRANCH  52  66
ATOM     66  C   UNL A   1      40.666  27.856  29.056  1.00  0.00     0.023 A 
ATOM     67  C   UNL A   1      41.605  28.060  28.029  1.00  0.00     0.031 A 
ATOM     68  C   UNL A   1      39.748  26.802  28.909  1.00  0.00     0.131 A 
ATOM     69  C   UNL A   1      41.556  27.273  26.870  1.00  0.00     0.055 A 
ATOM     70  C   UNL A   1      39.753  25.973  27.785  1.00  0.00     0.041 A 
ATOM     71  F   UNL A   1      38.816  26.570  29.848  1.00  0.00    -0.206 F 
ATOM     72  C   UNL A   1      40.651  26.216  26.749  1.00  0.00     0.022 A 
BRANCH  69  73
ATOM     73  S   UNL A   1      42.602  27.740  25.463  1.00  0.00     0.124 S 
ATOM     74  O   UNL A   1      43.897  27.929  26.111  1.00  0.00    -0.237 OA
ATOM     75  O   UNL A   1      42.489  26.580  24.587  1.00  0.00    -0.237 OA
ATOM     76  O   UNL A   1      41.978  28.964  24.963  1.00  0.00    -0.744 OA
ENDBRANCH  69  73
ENDBRANCH  52  66
BRANCH  53  77
ATOM     77  C   UNL A   1      39.594  33.814  37.015  1.00  0.00     0.023 A 
ATOM     78  C   UNL A   1      39.034  33.264  38.178  1.00  0.00     0.031 A 
ATOM     79  C   UNL A   1      39.927  35.179  37.017  1.00  0.00     0.131 A 
ATOM     80  C   UNL A   1      38.785  34.088  39.287  1.00  0.00     0.055 A 
ATOM     81  C   UNL A   1      39.712  35.985  38.136  1.00  0.00     0.041 A 
ATOM     82  F   UNL A   1      40.474  35.746  35.930  1.00  0.00    -0.206 F 
ATOM     83  C   UNL A   1      39.127  35.442  39.276  1.00  0.00     0.022 A 
BRANCH  80  84
ATOM     84  S   UNL A   1      37.939  33.373  40.723  1.00  0.00     0.124 S 
ATOM     85  O   UNL A   1      38.592  32.075  40.841  1.00  0.00    -0.237 OA
ATOM     86  O   UNL A   1      38.248  34.344  41.768  1.00  0.00    -0.237 OA
ATOM     87  O   UNL A   1      36.539  33.333  40.307  1.00  0.00    -0.744 OA
ENDBRANCH  80  84
ENDBRANCH  53  77
BRANCH  65  88
ATOM     88  C   UNL A   1      44.011  28.677  35.435  1.00  0.00     0.023 A 
ATOM     89  C   UNL A   1      43.850  27.611  36.337  1.00  0.00     0.031 A 
ATOM     90  C   UNL A   1      45.299  29.209  35.254  1.00  0.00     0.131 A 
ATOM     91  C   UNL A   1      44.955  27.139  37.061  1.00  0.00     0.055 A 
ATOM     92  C   UNL A   1      46.403  28.706  35.945  1.00  0.00     0.041 A 
ATOM     93  F   UNL A   1      45.504  30.227  34.405  1.00  0.00    -0.206 F 
ATOM     94  C   UNL A   1      46.232  27.673  36.862  1.00  0.00     0.022 A 
BRANCH  91  95
ATOM     95  S   UNL A   1      44.691  25.863  38.323  1.00  0.00     0.124 S 
ATOM     96  O   UNL A   1      43.716  24.992  37.675  1.00  0.00    -0.237 OA
ATOM     97  O   UNL A   1      46.031  25.308  38.490  1.00  0.00    -0.237 OA
ATOM     98  O   UNL A   1      44.186  26.614  39.471  1.00  0.00    -0.744 OA
ENDBRANCH  91  95
ENDBRANCH  65  88
ENDBRANCH  39  40
ENDBRANCH  31  34
ENDBRANCH  29  30
ENDBRANCH  28  29
ENDBRANCH   1  28
TORSDOF 18
ENDMDL
MODEL 2
REMARK VINA RESULT:     -12.1      6.339     11.648
REMARK SMILES [NH3+]Cc1ccc(C(=O)N2[C@@H](C(=O)NCCCCNC(=O)c3ccc(-c4c5nc(c(-c6cc(S(=O)(=O)[O-])ccc6F)c6ccc([nH]6)c(-c6cc(S(=O)(=O)[O-])ccc6F)c6nc(c(-c7cc(S(=O)(=O)[O-])ccc7F)c7ccc4[nH]7)C=C6)C=C5)cc3)C[C@H]3CCCC[C@@H]32)o1
REMARK SMILES IDX 15 1 14 2 13 3 11 4 12 5 10 7 9 8 90 9 84 10 85 11 89 12
REMARK SMILES IDX 86 13 88 14 87 15 7 16 8 17 6 18 3 19 4 20 91 21 5 22 2 23
REMARK SMILES IDX 1 24 16 28 17 29 18 30 19 31 20 33 21 34 22 35 83 36 23 37
REMARK SMILES IDX 82 38 24 39 25 40 26 41 76 42 27 43 81 44 75 45 77 46 28 47
REMARK SMILES IDX 80 48 74 49 73 50 29 52 61 53 41 54 60 55 42 56 45 57 59 58
REMARK SMILES IDX 78 59 43 60 44 61 58 63 79 64 46 65 30 66 31 67 39 68 32 69
REMARK SMILES IDX 38 70 40 71 37 72 33 73 34 74 35 75 36 76 62 77 63 78 71 79
REMARK SMILES IDX 64 80 70 81 72 82 69 83 65 84 66 85 67 86 68 87 47 88 48 89
REMARK SMILES IDX 56 90 49 91 55 92 57 93 54 94 50 95 51 96 52 97 53 98
REMARK H PARENT 13 6 1 25 1 26 1 27 18 32 77 51 45 62
REMARK Flexibility Score: inf
ROOT
ATOM      1  C   UNL A   1      36.561  20.140  24.893  1.00  0.00     0.023 C 
ENDROOT
BRANCH   1   2
ATOM      2  C   UNL A   1      36.692  21.656  25.022  1.00  0.00     0.116 C 
BRANCH   2   3
ATOM      3  N   UNL A   1      36.060  22.363  23.924  1.00  0.00    -0.354 N 
ATOM      4  C   UNL A   1      35.194  23.423  23.955  1.00  0.00     0.242 C 
ATOM      5  O   UNL A   1      34.825  23.892  22.878  1.00  0.00    -0.273 OA
ATOM      6  H   UNL A   1      36.287  22.032  23.025  1.00  0.00     0.163 HD
BRANCH   4   7
ATOM      7  C   UNL A   1      34.739  23.991  25.321  1.00  0.00     0.175 C 
ATOM      8  N   UNL A   1      33.477  23.371  25.781  1.00  0.00    -0.321 N 
ATOM      9  C   UNL A   1      32.363  24.245  25.480  1.00  0.00     0.089 C 
ATOM     10  C   UNL A   1      34.375  25.487  25.152  1.00  0.00     0.041 C 
ATOM     11  C   UNL A   1      33.006  25.594  25.812  1.00  0.00     0.014 C 
ATOM     12  C   UNL A   1      31.073  24.098  26.284  1.00  0.00     0.025 C 
ATOM     13  C   UNL A   1      32.114  26.754  25.414  1.00  0.00     0.006 C 
ATOM     14  C   UNL A   1      30.124  25.265  25.981  1.00  0.00     0.002 C 
ATOM     15  C   UNL A   1      30.783  26.637  26.165  1.00  0.00     0.000 C 
BRANCH   8  16
ATOM     16  C   UNL A   1      33.310  22.092  26.278  1.00  0.00     0.290 C 
ATOM     17  O   UNL A   1      33.706  21.801  27.413  1.00  0.00    -0.265 OA
BRANCH  16  18
ATOM     18  C   UNL A   1      32.870  21.072  25.336  1.00  0.00     0.192 A 
ATOM     19  C   UNL A   1      32.560  18.972  24.713  1.00  0.00     0.159 A 
ATOM     20  C   UNL A   1      32.456  19.730  23.569  1.00  0.00     0.052 A 
ATOM     21  O   UNL A   1      32.777  19.778  25.788  1.00  0.00    -0.450 OA
ATOM     22  C   UNL A   1      32.673  21.072  23.963  1.00  0.00     0.057 A 
BRANCH  19  23
ATOM     23  C   UNL A   1      32.525  17.510  24.971  1.00  0.00     0.335 C 
BRANCH  23  24
ATOM     24  N   UNL A   1      33.468  17.137  26.019  1.00  0.00    -0.351 N 
ATOM     25  H   UNL A   1      34.346  16.837  25.596  1.00  0.00     0.344 HD
ATOM     26  H   UNL A   1      33.078  16.373  26.571  1.00  0.00     0.344 HD
ATOM     27  H   UNL A   1      33.638  17.941  26.624  1.00  0.00     0.344 HD
ENDBRANCH  23  24
ENDBRANCH  19  23
ENDBRANCH  16  18
ENDBRANCH   8  16
ENDBRANCH   4   7
ENDBRANCH   2   3
ENDBRANCH   1   2
BRANCH   1  28
ATOM     28  C   UNL A   1      37.869  19.349  25.002  1.00  0.00     0.023 C 
BRANCH  28  29
ATOM     29  C   UNL A   1      38.998  20.025  25.777  1.00  0.00     0.116 C 
BRANCH  29  30
ATOM     30  N   UNL A   1      40.184  19.192  25.889  1.00  0.00    -0.352 N 
ATOM     31  C   UNL A   1      41.490  19.546  26.139  1.00  0.00     0.251 C 
ATOM     32  H   UNL A   1      40.031  18.227  25.767  1.00  0.00     0.163 HD
ATOM     33  O   UNL A   1      42.367  18.691  26.050  1.00  0.00    -0.269 OA
BRANCH  31  34
ATOM     34  C   UNL A   1      41.846  20.944  26.481  1.00  0.00     0.039 A 
ATOM     35  C   UNL A   1      42.247  21.234  27.790  1.00  0.00     0.014 A 
ATOM     36  C   UNL A   1      41.769  21.969  25.535  1.00  0.00     0.014 A 
ATOM     37  C   UNL A   1      42.638  22.534  28.129  1.00  0.00     0.010 A 
ATOM     38  C   UNL A   1      42.209  23.252  25.860  1.00  0.00     0.010 A 
ATOM     39  C   UNL A   1      42.655  23.547  27.158  1.00  0.00    -0.014 A 
BRANCH  39  40
ATOM     40  C   UNL A   1      43.136  24.917  27.477  1.00  0.00     0.031 A 
ATOM     41  C   UNL A   1      42.216  25.905  28.141  1.00  0.00     0.074 A 
ATOM     42  C   UNL A   1      44.372  25.298  27.099  1.00  0.00     0.049 A 
ATOM     43  N   UNL A   1      42.402  27.177  28.389  1.00  0.00    -0.248 NA
ATOM     44  C   UNL A   1      40.900  25.397  28.556  1.00  0.00     0.031 C 
ATOM     45  C   UNL A   1      45.348  24.445  26.417  1.00  0.00     0.029 A 
ATOM     46  N   UNL A   1      45.013  26.506  27.218  1.00  0.00    -0.354 N 
ATOM     47  C   UNL A   1      41.221  27.629  28.968  1.00  0.00     0.074 A 
ATOM     48  C   UNL A   1      40.313  26.499  28.996  1.00  0.00     0.031 C 
ATOM     49  C   UNL A   1      46.464  25.155  26.184  1.00  0.00     0.029 A 
ATOM     50  C   UNL A   1      46.271  26.520  26.665  1.00  0.00     0.049 A 
ATOM     51  H   UNL A   1      44.610  27.288  27.658  1.00  0.00     0.167 HD
ATOM     52  C   UNL A   1      40.927  28.864  29.445  1.00  0.00     0.034 A 
ATOM     53  C   UNL A   1      47.164  27.523  26.541  1.00  0.00     0.034 A 
ATOM     54  C   UNL A   1      41.845  29.976  29.430  1.00  0.00     0.049 A 
ATOM     55  C   UNL A   1      46.817  28.886  27.082  1.00  0.00     0.074 A 
ATOM     56  C   UNL A   1      41.663  31.256  29.928  1.00  0.00     0.029 A 
ATOM     57  N   UNL A   1      43.124  29.943  28.888  1.00  0.00    -0.354 N 
ATOM     58  N   UNL A   1      45.704  29.289  27.649  1.00  0.00    -0.248 NA
ATOM     59  C   UNL A   1      47.851  29.923  26.973  1.00  0.00     0.031 C 
ATOM     60  C   UNL A   1      42.812  32.007  29.648  1.00  0.00     0.029 A 
ATOM     61  C   UNL A   1      43.733  31.181  29.025  1.00  0.00     0.049 A 
ATOM     62  H   UNL A   1      43.537  29.155  28.468  1.00  0.00     0.167 HD
ATOM     63  C   UNL A   1      45.915  30.622  27.987  1.00  0.00     0.074 A 
ATOM     64  C   UNL A   1      47.262  30.950  27.568  1.00  0.00     0.031 C 
ATOM     65  C   UNL A   1      45.073  31.495  28.595  1.00  0.00     0.034 A 
BRANCH  52  66
ATOM     66  C   UNL A   1      39.538  29.075  29.993  1.00  0.00     0.023 A 
ATOM     67  C   UNL A   1      38.547  29.744  29.253  1.00  0.00     0.031 A 
ATOM     68  C   UNL A   1      39.210  28.637  31.288  1.00  0.00     0.131 A 
ATOM     69  C   UNL A   1      37.305  30.023  29.839  1.00  0.00     0.055 A 
ATOM     70  C   UNL A   1      37.945  28.851  31.838  1.00  0.00     0.041 A 
ATOM     71  F   UNL A   1      40.121  28.009  32.049  1.00  0.00    -0.206 F 
ATOM     72  C   UNL A   1      36.988  29.561  31.119  1.00  0.00     0.022 A 
BRANCH  69  73
ATOM     73  S   UNL A   1      36.158  31.116  28.957  1.00  0.00     0.124 S 
ATOM     74  O   UNL A   1      35.293  31.572  30.043  1.00  0.00    -0.237 OA
ATOM     75  O   UNL A   1      37.050  32.118  28.387  1.00  0.00    -0.237 OA
ATOM     76  O   UNL A   1      35.515  30.229  27.989  1.00  0.00    -0.744 OA
ENDBRANCH  69  73
ENDBRANCH  52  66
BRANCH  53  77
ATOM     77  C   UNL A   1      48.469  27.290  25.865  1.00  0.00     0.023 A 
ATOM     78  C   UNL A   1      48.603  27.469  24.480  1.00  0.00     0.031 A 
ATOM     79  C   UNL A   1      49.588  26.846  26.589  1.00  0.00     0.131 A 
ATOM     80  C   UNL A   1      49.821  27.166  23.853  1.00  0.00     0.055 A 
ATOM     81  C   UNL A   1      50.809  26.584  25.967  1.00  0.00     0.041 A 
ATOM     82  F   UNL A   1      49.510  26.670  27.918  1.00  0.00    -0.206 F 
ATOM     83  C   UNL A   1      50.927  26.732  24.588  1.00  0.00     0.022 A 
BRANCH  80  84
ATOM     84  S   UNL A   1      49.918  27.282  22.045  1.00  0.00     0.124 S 
ATOM     85  O   UNL A   1      51.284  26.839  21.789  1.00  0.00    -0.237 OA
ATOM     86  O   UNL A   1      48.859  26.369  21.628  1.00  0.00    -0.237 OA
ATOM     87  O   UNL A   1      49.659  28.695  21.782  1.00  0.00    -0.744 OA
ENDBRANCH  80  84
ENDBRANCH  53  77
BRANCH  65  88
ATOM     88  C   UNL A   1      45.615  32.869  28.883  1.00  0.00     0.023 A 
ATOM     89  C   UNL A   1      45.497  33.919  27.955  1.00  0.00     0.031 A 
ATOM     90  C   UNL A   1      46.276  33.124  30.097  1.00  0.00     0.131 A 
ATOM     91  C   UNL A   1      46.075  35.166  28.237  1.00  0.00     0.055 A 
ATOM     92  C   UNL A   1      46.811  34.379  30.391  1.00  0.00     0.041 A 
ATOM     93  F   UNL A   1      46.414  32.155  31.015  1.00  0.00    -0.206 F 
ATOM     94  C   UNL A   1      46.722  35.405  29.454  1.00  0.00     0.022 A 
BRANCH  91  95
ATOM     95  S   UNL A   1      46.035  36.455  26.962  1.00  0.00     0.124 S 
ATOM     96  O   UNL A   1      44.636  36.866  26.988  1.00  0.00    -0.237 OA
ATOM     97  O   UNL A   1      46.996  37.427  27.471  1.00  0.00    -0.237 OA
ATOM     98  O   UNL A   1      46.452  35.751  25.749  1.00  0.00    -0.744 OA
ENDBRANCH  91  95
ENDBRANCH  65  88
ENDBRANCH  39  40
ENDBRANCH  31  34
ENDBRANCH  29  30
ENDBRANCH  28  29
ENDBRANCH   1  28
TORSDOF 18
ENDMDL
MODEL 3
REMARK VINA RESULT:     -11.9      6.166     11.696
REMARK SMILES [NH3+]Cc1ccc(C(=O)N2[C@@H](C(=O)NCCCCNC(=O)c3ccc(-c4c5nc(c(-c6cc(S(=O)(=O)[O-])ccc6F)c6ccc([nH]6)c(-c6cc(S(=O)(=O)[O-])ccc6F)c6nc(c(-c7cc(S(=O)(=O)[O-])ccc7F)c7ccc4[nH]7)C=C6)C=C5)cc3)C[C@H]3CCCC[C@@H]32)o1
REMARK SMILES IDX 15 1 14 2 13 3 11 4 12 5 10 7 9 8 90 9 84 10 85 11 89 12
REMARK SMILES IDX 86 13 88 14 87 15 7 16 8 17 6 18 3 19 4 20 91 21 5 22 2 23
REMARK SMILES IDX 1 24 16 28 17 29 18 30 19 31 20 33 21 34 22 35 83 36 23 37
REMARK SMILES IDX 82 38 24 39 25 40 26 41 76 42 27 43 81 44 75 45 77 46 28 47
REMARK SMILES IDX 80 48 74 49 73 50 29 52 61 53 41 54 60 55 42 56 45 57 59 58
REMARK SMILES IDX 78 59 43 60 44 61 58 63 79 64 46 65 30 66 31 67 39 68 32 69
REMARK SMILES IDX 38 70 40 71 37 72 33 73 34 74 35 75 36 76 62 77 63 78 71 79
REMARK SMILES IDX 64 80 70 81 72 82 69 83 65 84 66 85 67 86 68 87 47 88 48 89
REMARK SMILES IDX 56 90 49 91 55 92 57 93 54 94 50 95 51 96 52 97 53 98
REMARK H PARENT 13 6 1 25 1 26 1 27 18 32 77 51 45 62
REMARK Flexibility Score: inf
ROOT
ATOM      1  C   UNL A   1      37.051  20.265  24.802  1.00  0.00     0.023 C 
ENDROOT
BRANCH   1   2
ATOM      2  C   UNL A   1      37.296  21.771  24.771  1.00  0.00     0.116 C 
BRANCH   2   3
ATOM      3  N   UNL A   1      36.534  22.438  23.732  1.00  0.00    -0.354 N 
ATOM      4  C   UNL A   1      35.569  23.403  23.843  1.00  0.00     0.242 C 
ATOM      5  O   UNL A   1      35.092  23.858  22.802  1.00  0.00    -0.273 OA
ATOM      6  H   UNL A   1      36.740  22.153  22.812  1.00  0.00     0.163 HD
BRANCH   4   7
ATOM      7  C   UNL A   1      35.140  23.888  25.249  1.00  0.00     0.175 C 
ATOM      8  N   UNL A   1      33.935  23.179  25.731  1.00  0.00    -0.321 N 
ATOM      9  C   UNL A   1      32.763  24.000  25.511  1.00  0.00     0.089 C 
ATOM     10  C   UNL A   1      34.688  25.367  25.158  1.00  0.00     0.041 C 
ATOM     11  C   UNL A   1      33.343  25.368  25.875  1.00  0.00     0.014 C 
ATOM     12  C   UNL A   1      31.516  23.747  26.358  1.00  0.00     0.025 C 
ATOM     13  C   UNL A   1      32.372  26.491  25.562  1.00  0.00     0.006 C 
ATOM     14  C   UNL A   1      30.493  24.869  26.142  1.00  0.00     0.002 C 
ATOM     15  C   UNL A   1      31.082  26.268  26.359  1.00  0.00     0.000 C 
BRANCH   8  16
ATOM     16  C   UNL A   1      33.859  21.874  26.178  1.00  0.00     0.290 C 
ATOM     17  O   UNL A   1      34.480  21.518  27.188  1.00  0.00    -0.265 OA
BRANCH  16  18
ATOM     18  C   UNL A   1      33.220  20.910  25.294  1.00  0.00     0.192 A 
ATOM     19  C   UNL A   1      32.645  18.855  24.710  1.00  0.00     0.159 A 
ATOM     20  C   UNL A   1      32.481  19.633  23.586  1.00  0.00     0.052 A 
ATOM     21  O   UNL A   1      33.059  19.626  25.753  1.00  0.00    -0.450 OA
ATOM     22  C   UNL A   1      32.866  20.944  23.953  1.00  0.00     0.057 A 
BRANCH  19  23
ATOM     23  C   UNL A   1      32.503  17.400  24.969  1.00  0.00     0.335 C 
BRANCH  23  24
ATOM     24  N   UNL A   1      33.354  16.976  26.076  1.00  0.00    -0.351 N 
ATOM     25  H   UNL A   1      34.331  17.138  25.835  1.00  0.00     0.344 HD
ATOM     26  H   UNL A   1      33.207  15.983  26.256  1.00  0.00     0.344 HD
ATOM     27  H   UNL A   1      33.115  17.511  26.911  1.00  0.00     0.344 HD
ENDBRANCH  23  24
ENDBRANCH  19  23
ENDBRANCH  16  18
ENDBRANCH   8  16
ENDBRANCH   4   7
ENDBRANCH   2   3
ENDBRANCH   1   2
BRANCH   1  28
ATOM     28  C   UNL A   1      38.176  19.421  25.409  1.00  0.00     0.023 C 
BRANCH  28  29
ATOM     29  C   UNL A   1      39.435  20.181  25.821  1.00  0.00     0.116 C 
BRANCH  29  30
ATOM     30  N   UNL A   1      40.583  19.309  26.014  1.00  0.00    -0.352 N 
ATOM     31  C   UNL A   1      41.894  19.625  26.287  1.00  0.00     0.251 C 
ATOM     32  H   UNL A   1      40.394  18.346  25.939  1.00  0.00     0.163 HD
ATOM     33  O   UNL A   1      42.738  18.733  26.272  1.00  0.00    -0.269 OA
BRANCH  31  34
ATOM     34  C   UNL A   1      42.297  21.024  26.564  1.00  0.00     0.039 A 
ATOM     35  C   UNL A   1      42.442  21.431  27.895  1.00  0.00     0.014 A 
ATOM     36  C   UNL A   1      42.511  21.941  25.531  1.00  0.00     0.014 A 
ATOM     37  C   UNL A   1      42.870  22.730  28.187  1.00  0.00     0.010 A 
ATOM     38  C   UNL A   1      42.989  23.219  25.822  1.00  0.00     0.010 A 
ATOM     39  C   UNL A   1      43.180  23.625  27.151  1.00  0.00    -0.014 A 
BRANCH  39  40
ATOM     40  C   UNL A   1      43.707  24.986  27.436  1.00  0.00     0.031 A 
ATOM     41  C   UNL A   1      42.799  26.043  28.005  1.00  0.00     0.074 A 
ATOM     42  C   UNL A   1      44.977  25.294  27.110  1.00  0.00     0.049 A 
ATOM     43  N   UNL A   1      43.031  27.315  28.206  1.00  0.00    -0.248 NA
ATOM     44  C   UNL A   1      41.441  25.613  28.368  1.00  0.00     0.031 C 
ATOM     45  C   UNL A   1      45.948  24.369  26.522  1.00  0.00     0.029 A 
ATOM     46  N   UNL A   1      45.667  26.477  27.212  1.00  0.00    -0.354 N 
ATOM     47  C   UNL A   1      41.844  27.845  28.699  1.00  0.00     0.074 A 
ATOM     48  C   UNL A   1      40.883  26.760  28.726  1.00  0.00     0.031 C 
ATOM     49  C   UNL A   1      47.107  25.017  26.320  1.00  0.00     0.029 A 
ATOM     50  C   UNL A   1      46.952  26.410  26.729  1.00  0.00     0.049 A 
ATOM     51  H   UNL A   1      45.278  27.296  27.594  1.00  0.00     0.167 HD
ATOM     52  C   UNL A   1      41.582  29.113  29.104  1.00  0.00     0.034 A 
ATOM     53  C   UNL A   1      47.895  27.366  26.612  1.00  0.00     0.034 A 
ATOM     54  C   UNL A   1      42.551  30.181  29.092  1.00  0.00     0.049 A 
ATOM     55  C   UNL A   1      47.584  28.766  27.072  1.00  0.00     0.074 A 
ATOM     56  C   UNL A   1      42.402  31.490  29.522  1.00  0.00     0.029 A 
ATOM     57  N   UNL A   1      43.854  30.067  28.623  1.00  0.00    -0.354 N 
ATOM     58  N   UNL A   1      46.462  29.244  27.558  1.00  0.00    -0.248 NA
ATOM     59  C   UNL A   1      48.669  29.750  26.975  1.00  0.00     0.031 C 
ATOM     60  C   UNL A   1      43.597  32.176  29.273  1.00  0.00     0.029 A 
ATOM     61  C   UNL A   1      44.511  31.282  28.739  1.00  0.00     0.049 A 
ATOM     62  H   UNL A   1      44.251  29.243  28.261  1.00  0.00     0.167 HD
ATOM     63  C   UNL A   1      46.717  30.580  27.849  1.00  0.00     0.074 A 
ATOM     64  C   UNL A   1      48.099  30.829  27.491  1.00  0.00     0.031 C 
ATOM     65  C   UNL A   1      45.886  31.517  28.370  1.00  0.00     0.034 A 
BRANCH  52  66
ATOM     66  C   UNL A   1      40.178  29.411  29.565  1.00  0.00     0.023 A 
ATOM     67  C   UNL A   1      39.851  29.487  30.931  1.00  0.00     0.031 A 
ATOM     68  C   UNL A   1      39.142  29.582  28.630  1.00  0.00     0.131 A 
ATOM     69  C   UNL A   1      38.515  29.652  31.323  1.00  0.00     0.055 A 
ATOM     70  C   UNL A   1      37.825  29.822  29.026  1.00  0.00     0.041 A 
ATOM     71  F   UNL A   1      39.391  29.501  27.312  1.00  0.00    -0.206 F 
ATOM     72  C   UNL A   1      37.502  29.842  30.380  1.00  0.00     0.022 A 
BRANCH  69  73
ATOM     73  S   UNL A   1      38.101  29.476  33.080  1.00  0.00     0.124 S 
ATOM     74  O   UNL A   1      37.318  28.243  33.075  1.00  0.00    -0.237 OA
ATOM     75  O   UNL A   1      39.414  29.396  33.708  1.00  0.00    -0.237 OA
ATOM     76  O   UNL A   1      37.339  30.688  33.376  1.00  0.00    -0.744 OA
ENDBRANCH  69  73
ENDBRANCH  52  66
BRANCH  53  77
ATOM     77  C   UNL A   1      49.222  27.044  26.019  1.00  0.00     0.023 A 
ATOM     78  C   UNL A   1      49.534  27.424  24.705  1.00  0.00     0.031 A 
ATOM     79  C   UNL A   1      50.181  26.319  26.746  1.00  0.00     0.131 A 
ATOM     80  C   UNL A   1      50.760  27.040  24.141  1.00  0.00     0.055 A 
ATOM     81  C   UNL A   1      51.415  25.972  26.195  1.00  0.00     0.041 A 
ATOM     82  F   UNL A   1      49.930  25.942  28.011  1.00  0.00    -0.206 F 
ATOM     83  C   UNL A   1      51.705  26.323  24.879  1.00  0.00     0.022 A 
BRANCH  80  84
ATOM     84  S   UNL A   1      51.073  27.432  22.398  1.00  0.00     0.124 S 
ATOM     85  O   UNL A   1      52.432  26.932  22.217  1.00  0.00    -0.237 OA
ATOM     86  O   UNL A   1      50.018  26.681  21.726  1.00  0.00    -0.237 OA
ATOM     87  O   UNL A   1      50.931  28.885  22.347  1.00  0.00    -0.744 OA
ENDBRANCH  80  84
ENDBRANCH  53  77
BRANCH  65  88
ATOM     88  C   UNL A   1      46.474  32.878  28.628  1.00  0.00     0.023 A 
ATOM     89  C   UNL A   1      47.064  33.206  29.861  1.00  0.00     0.031 A 
ATOM     90  C   UNL A   1      46.423  33.866  27.629  1.00  0.00     0.131 A 
ATOM     91  C   UNL A   1      47.539  34.508  30.080  1.00  0.00     0.055 A 
ATOM     92  C   UNL A   1      46.937  35.147  27.838  1.00  0.00     0.041 A 
ATOM     93  F   UNL A   1      45.869  33.602  26.436  1.00  0.00    -0.206 F 
ATOM     94  C   UNL A   1      47.489  35.476  29.073  1.00  0.00     0.022 A 
BRANCH  91  95
ATOM     95  S   UNL A   1      48.161  34.943  31.728  1.00  0.00     0.124 S 
ATOM     96  O   UNL A   1      47.165  34.331  32.601  1.00  0.00    -0.237 OA
ATOM     97  O   UNL A   1      49.483  34.325  31.736  1.00  0.00    -0.237 OA
ATOM     98  O   UNL A   1      48.164  36.405  31.719  1.00  0.00    -0.744 OA
ENDBRANCH  91  95
ENDBRANCH  65  88
ENDBRANCH  39  40
ENDBRANCH  31  34
ENDBRANCH  29  30
ENDBRANCH  28  29
ENDBRANCH   1  28
TORSDOF 18
ENDMDL
