MODEL 1
REMARK VINA RESULT:     -11.3      0.000      0.000
REMARK SMILES C[C@H]1C[C@H](C)CN(S(=O)(=O)N[C@@H](CCC(N)=O)C(=O)NCCCCNC(=O)c2ccc(-c3c4nc(c(-c5cc(S(=O)(=O)[O-])ccc5F)c5ccc([nH]5)c(-c5cc(S(=O)(=O)[O-])ccc5F)c5nc(c(-c6cc(S(=O)(=O)[O-])ccc6F)c6ccc3[nH]6)C=C5)C=C4)cc2)C1
REMARK SMILES IDX 22 1 21 2 20 3 18 4 19 5 12 7 11 8 8 10 9 11 10 12 7 13 1 14
REMARK SMILES IDX 2 15 3 16 91 17 4 18 5 19 6 20 13 21 14 22 15 23 16 24 17 25
REMARK SMILES IDX 23 28 24 29 25 30 26 31 27 33 28 34 29 35 90 36 30 37 89 38
REMARK SMILES IDX 31 39 32 40 33 41 83 42 34 43 88 44 82 45 84 46 35 47 87 48
REMARK SMILES IDX 81 49 80 50 36 52 68 53 48 54 67 55 49 56 52 57 66 58 85 59
REMARK SMILES IDX 50 60 51 61 65 63 86 64 53 65 37 66 38 67 46 68 39 69 45 70
REMARK SMILES IDX 47 71 44 72 40 73 41 74 42 75 43 76 69 77 70 78 78 79 71 80
REMARK SMILES IDX 77 81 79 82 76 83 72 84 73 85 74 86 75 87 54 88 55 89 63 90
REMARK SMILES IDX 56 91 62 92 64 93 61 94 57 95 58 96 59 97 60 98
REMARK H PARENT 20 6 11 9 16 26 16 27 25 32 84 51 52 62
REMARK Flexibility Score: inf
ROOT
ATOM      1  C   UNL A   1      31.805  29.712  26.939  1.00  0.00     0.023 C 
ENDROOT
BRANCH   1   2
ATOM      2  C   UNL A   1      32.086  28.832  25.726  1.00  0.00     0.116 C 
BRANCH   2   3
ATOM      3  N   UNL A   1      30.934  28.045  25.336  1.00  0.00    -0.355 N 
ATOM      4  C   UNL A   1      30.470  27.699  24.106  1.00  0.00     0.238 C 
ATOM      5  O   UNL A   1      29.457  26.992  24.061  1.00  0.00    -0.273 OA
ATOM      6  H   UNL A   1      30.398  27.703  26.087  1.00  0.00     0.163 HD
BRANCH   4   7
ATOM      7  C   UNL A   1      31.101  28.222  22.810  1.00  0.00     0.160 C 
BRANCH   7   8
ATOM      8  N   UNL A   1      31.586  27.088  21.996  1.00  0.00    -0.190 NA
ATOM      9  H   UNL A   1      31.047  26.287  22.325  1.00  0.00     0.143 HD
BRANCH   8  10
ATOM     10  S   UNL A   1      33.123  26.518  21.847  1.00  0.00     0.280 S 
ATOM     11  O   UNL A   1      34.053  27.622  21.808  1.00  0.00    -0.195 OA
ATOM     12  O   UNL A   1      33.072  25.571  20.760  1.00  0.00    -0.195 OA
BRANCH  10  13
ATOM     13  N   UNL A   1      33.417  25.608  23.265  1.00  0.00    -0.188 NA
ATOM     14  C   UNL A   1      35.553  22.420  23.780  1.00  0.00     0.009 C 
ATOM     15  C   UNL A   1      34.545  23.514  24.135  1.00  0.00     0.001 C 
ATOM     16  C   UNL A   1      35.057  24.306  25.338  1.00  0.00     0.009 C 
ATOM     17  C   UNL A   1      34.298  24.431  22.929  1.00  0.00     0.106 C 
ATOM     18  C   UNL A   1      34.136  25.473  25.665  1.00  0.00     0.001 C 
ATOM     19  C   UNL A   1      32.790  25.018  26.244  1.00  0.00     0.009 C 
ATOM     20  C   UNL A   1      33.958  26.355  24.429  1.00  0.00     0.106 C 
ENDBRANCH  10  13
ENDBRANCH   8  10
ENDBRANCH   7   8
BRANCH   7  21
ATOM     21  C   UNL A   1      30.367  29.361  22.089  1.00  0.00     0.040 C 
BRANCH  21  22
ATOM     22  C   UNL A   1      29.454  30.287  22.890  1.00  0.00     0.102 C 
BRANCH  22  23
ATOM     23  C   UNL A   1      27.996  30.139  22.498  1.00  0.00     0.217 C 
ATOM     24  N   UNL A   1      27.688  30.540  21.236  1.00  0.00    -0.370 N 
ATOM     25  O   UNL A   1      27.125  29.707  23.242  1.00  0.00    -0.275 OA
ATOM     26  H   UNL A   1      28.394  30.887  20.644  1.00  0.00     0.159 HD
ATOM     27  H   UNL A   1      26.761  30.482  20.913  1.00  0.00     0.159 HD
ENDBRANCH  22  23
ENDBRANCH  21  22
ENDBRANCH   7  21
ENDBRANCH   4   7
ENDBRANCH   2   3
ENDBRANCH   1   2
BRANCH   1  28
ATOM     28  C   UNL A   1      31.720  31.210  26.631  1.00  0.00     0.023 C 
BRANCH  28  29
ATOM     29  C   UNL A   1      32.937  32.027  27.051  1.00  0.00     0.116 C 
BRANCH  29  30
ATOM     30  N   UNL A   1      32.599  33.410  27.357  1.00  0.00    -0.352 N 
ATOM     31  C   UNL A   1      33.115  34.235  28.329  1.00  0.00     0.251 C 
ATOM     32  H   UNL A   1      31.902  33.812  26.788  1.00  0.00     0.163 HD
ATOM     33  O   UNL A   1      32.584  35.315  28.564  1.00  0.00    -0.269 OA
BRANCH  31  34
ATOM     34  C   UNL A   1      34.294  33.788  29.100  1.00  0.00     0.039 A 
ATOM     35  C   UNL A   1      34.123  32.867  30.135  1.00  0.00     0.014 A 
ATOM     36  C   UNL A   1      35.570  34.246  28.762  1.00  0.00     0.014 A 
ATOM     37  C   UNL A   1      35.245  32.342  30.779  1.00  0.00     0.010 A 
ATOM     38  C   UNL A   1      36.688  33.657  29.344  1.00  0.00     0.010 A 
ATOM     39  C   UNL A   1      36.538  32.698  30.359  1.00  0.00    -0.014 A 
BRANCH  39  40
ATOM     40  C   UNL A   1      37.749  32.079  30.962  1.00  0.00     0.031 A 
ATOM     41  C   UNL A   1      38.522  31.042  30.197  1.00  0.00     0.074 A 
ATOM     42  C   UNL A   1      38.099  32.387  32.226  1.00  0.00     0.049 A 
ATOM     43  N   UNL A   1      39.540  30.315  30.581  1.00  0.00    -0.248 NA
ATOM     44  C   UNL A   1      38.062  30.758  28.829  1.00  0.00     0.031 C 
ATOM     45  C   UNL A   1      37.397  33.340  33.090  1.00  0.00     0.029 A 
ATOM     46  N   UNL A   1      39.120  31.918  33.015  1.00  0.00    -0.354 N 
ATOM     47  C   UNL A   1      39.828  29.472  29.512  1.00  0.00     0.074 A 
ATOM     48  C   UNL A   1      38.833  29.737  28.494  1.00  0.00     0.031 C 
ATOM     49  C   UNL A   1      38.017  33.396  34.278  1.00  0.00     0.029 A 
ATOM     50  C   UNL A   1      39.126  32.448  34.285  1.00  0.00     0.049 A 
ATOM     51  H   UNL A   1      39.786  31.265  32.702  1.00  0.00     0.167 HD
ATOM     52  C   UNL A   1      40.840  28.579  29.385  1.00  0.00     0.034 A 
ATOM     53  C   UNL A   1      39.916  32.183  35.345  1.00  0.00     0.034 A 
ATOM     54  C   UNL A   1      41.824  28.336  30.414  1.00  0.00     0.049 A 
ATOM     55  C   UNL A   1      41.022  31.171  35.196  1.00  0.00     0.074 A 
ATOM     56  C   UNL A   1      42.936  27.514  30.364  1.00  0.00     0.029 A 
ATOM     57  N   UNL A   1      41.804  28.898  31.685  1.00  0.00    -0.354 N 
ATOM     58  N   UNL A   1      41.330  30.434  34.153  1.00  0.00    -0.248 NA
ATOM     59  C   UNL A   1      41.893  30.962  36.359  1.00  0.00     0.031 C 
ATOM     60  C   UNL A   1      43.533  27.509  31.629  1.00  0.00     0.029 A 
ATOM     61  C   UNL A   1      42.855  28.403  32.443  1.00  0.00     0.049 A 
ATOM     62  H   UNL A   1      41.139  29.552  32.002  1.00  0.00     0.167 HD
ATOM     63  C   UNL A   1      42.448  29.692  34.527  1.00  0.00     0.074 A 
ATOM     64  C   UNL A   1      42.764  30.080  35.887  1.00  0.00     0.031 C 
ATOM     65  C   UNL A   1      43.152  28.782  33.807  1.00  0.00     0.034 A 
BRANCH  52  66
ATOM     66  C   UNL A   1      40.898  27.772  28.106  1.00  0.00     0.023 A 
ATOM     67  C   UNL A   1      40.338  26.485  28.013  1.00  0.00     0.031 A 
ATOM     68  C   UNL A   1      41.573  28.274  26.979  1.00  0.00     0.131 A 
ATOM     69  C   UNL A   1      40.553  25.707  26.866  1.00  0.00     0.055 A 
ATOM     70  C   UNL A   1      41.695  27.533  25.801  1.00  0.00     0.041 A 
ATOM     71  F   UNL A   1      42.147  29.486  27.008  1.00  0.00    -0.206 F 
ATOM     72  C   UNL A   1      41.202  26.232  25.747  1.00  0.00     0.022 A 
BRANCH  69  73
ATOM     73  S   UNL A   1      40.141  23.941  26.931  1.00  0.00     0.124 S 
ATOM     74  O   UNL A   1      41.242  23.353  26.171  1.00  0.00    -0.237 OA
ATOM     75  O   UNL A   1      40.138  23.671  28.364  1.00  0.00    -0.237 OA
ATOM     76  O   UNL A   1      38.835  23.869  26.278  1.00  0.00    -0.744 OA
ENDBRANCH  69  73
ENDBRANCH  52  66
BRANCH  53  77
ATOM     77  C   UNL A   1      39.669  32.871  36.645  1.00  0.00     0.023 A 
ATOM     78  C   UNL A   1      38.743  32.370  37.574  1.00  0.00     0.031 A 
ATOM     79  C   UNL A   1      40.365  34.048  36.976  1.00  0.00     0.131 A 
ATOM     80  C   UNL A   1      38.520  33.058  38.778  1.00  0.00     0.055 A 
ATOM     81  C   UNL A   1      40.175  34.700  38.195  1.00  0.00     0.041 A 
ATOM     82  F   UNL A   1      41.265  34.566  36.125  1.00  0.00    -0.206 F 
ATOM     83  C   UNL A   1      39.241  34.210  39.101  1.00  0.00     0.022 A 
BRANCH  80  84
ATOM     84  S   UNL A   1      37.227  32.456  39.899  1.00  0.00     0.124 S 
ATOM     85  O   UNL A   1      37.176  33.522  40.893  1.00  0.00    -0.237 OA
ATOM     86  O   UNL A   1      36.077  32.351  39.009  1.00  0.00    -0.237 OA
ATOM     87  O   UNL A   1      37.759  31.181  40.378  1.00  0.00    -0.744 OA
ENDBRANCH  80  84
ENDBRANCH  53  77
BRANCH  65  88
ATOM     88  C   UNL A   1      44.370  28.171  34.462  1.00  0.00     0.023 A 
ATOM     89  C   UNL A   1      44.311  26.949  35.154  1.00  0.00     0.031 A 
ATOM     90  C   UNL A   1      45.614  28.823  34.380  1.00  0.00     0.131 A 
ATOM     91  C   UNL A   1      45.464  26.440  35.774  1.00  0.00     0.055 A 
ATOM     92  C   UNL A   1      46.769  28.282  34.942  1.00  0.00     0.041 A 
ATOM     93  F   UNL A   1      45.729  29.997  33.737  1.00  0.00    -0.206 F 
ATOM     94  C   UNL A   1      46.697  27.089  35.654  1.00  0.00     0.022 A 
BRANCH  91  95
ATOM     95  S   UNL A   1      45.318  24.964  36.817  1.00  0.00     0.124 S 
ATOM     96  O   UNL A   1      45.679  25.485  38.131  1.00  0.00    -0.237 OA
ATOM     97  O   UNL A   1      43.917  24.595  36.641  1.00  0.00    -0.237 OA
ATOM     98  O   UNL A   1      46.282  24.033  36.233  1.00  0.00    -0.744 OA
ENDBRANCH  91  95
ENDBRANCH  65  88
ENDBRANCH  39  40
ENDBRANCH  31  34
ENDBRANCH  29  30
ENDBRANCH  28  29
ENDBRANCH   1  28
TORSDOF 20
ENDMDL
MODEL 2
REMARK VINA RESULT:     -11.2      2.111      7.658
REMARK SMILES C[C@H]1C[C@H](C)CN(S(=O)(=O)N[C@@H](CCC(N)=O)C(=O)NCCCCNC(=O)c2ccc(-c3c4nc(c(-c5cc(S(=O)(=O)[O-])ccc5F)c5ccc([nH]5)c(-c5cc(S(=O)(=O)[O-])ccc5F)c5nc(c(-c6cc(S(=O)(=O)[O-])ccc6F)c6ccc3[nH]6)C=C5)C=C4)cc2)C1
REMARK SMILES IDX 22 1 21 2 20 3 18 4 19 5 12 7 11 8 8 10 9 11 10 12 7 13 1 14
REMARK SMILES IDX 2 15 3 16 91 17 4 18 5 19 6 20 13 21 14 22 15 23 16 24 17 25
REMARK SMILES IDX 23 28 24 29 25 30 26 31 27 33 28 34 29 35 90 36 30 37 89 38
REMARK SMILES IDX 31 39 32 40 33 41 83 42 34 43 88 44 82 45 84 46 35 47 87 48
REMARK SMILES IDX 81 49 80 50 36 52 68 53 48 54 67 55 49 56 52 57 66 58 85 59
REMARK SMILES IDX 50 60 51 61 65 63 86 64 53 65 37 66 38 67 46 68 39 69 45 70
REMARK SMILES IDX 47 71 44 72 40 73 41 74 42 75 43 76 69 77 70 78 78 79 71 80
REMARK SMILES IDX 77 81 79 82 76 83 72 84 73 85 74 86 75 87 54 88 55 89 63 90
REMARK SMILES IDX 56 91 62 92 64 93 61 94 57 95 58 96 59 97 60 98
REMARK H PARENT 20 6 11 9 16 26 16 27 25 32 84 51 52 62
REMARK Flexibility Score: inf
ROOT
ATOM      1  C   UNL A   1      32.108  30.294  26.794  1.00  0.00     0.023 C 
ENDROOT
BRANCH   1   2
ATOM      2  C   UNL A   1      32.017  29.723  25.384  1.00  0.00     0.116 C 
BRANCH   2   3
ATOM      3  N   UNL A   1      31.217  28.516  25.327  1.00  0.00    -0.355 N 
ATOM      4  C   UNL A   1      30.781  27.788  24.265  1.00  0.00     0.238 C 
ATOM      5  O   UNL A   1      30.119  26.773  24.507  1.00  0.00    -0.273 OA
ATOM      6  H   UNL A   1      30.944  28.164  26.205  1.00  0.00     0.163 HD
BRANCH   4   7
ATOM      7  C   UNL A   1      31.009  28.230  22.814  1.00  0.00     0.160 C 
BRANCH   7   8
ATOM      8  N   UNL A   1      31.521  27.094  22.019  1.00  0.00    -0.190 NA
ATOM      9  H   UNL A   1      31.020  26.282  22.381  1.00  0.00     0.143 HD
BRANCH   8  10
ATOM     10  S   UNL A   1      33.075  26.581  21.851  1.00  0.00     0.280 S 
ATOM     11  O   UNL A   1      33.966  27.718  21.826  1.00  0.00    -0.195 OA
ATOM     12  O   UNL A   1      33.050  25.652  20.748  1.00  0.00    -0.195 OA
BRANCH  10  13
ATOM     13  N   UNL A   1      33.410  25.658  23.251  1.00  0.00    -0.188 NA
ATOM     14  C   UNL A   1      35.543  22.453  23.669  1.00  0.00     0.009 C 
ATOM     15  C   UNL A   1      34.553  23.549  24.065  1.00  0.00     0.001 C 
ATOM     16  C   UNL A   1      35.109  24.329  25.258  1.00  0.00     0.009 C 
ATOM     17  C   UNL A   1      34.272  24.478  22.876  1.00  0.00     0.106 C 
ATOM     18  C   UNL A   1      34.206  25.498  25.624  1.00  0.00     0.001 C 
ATOM     19  C   UNL A   1      32.878  25.045  26.243  1.00  0.00     0.009 C 
ATOM     20  C   UNL A   1      33.993  26.392  24.402  1.00  0.00     0.106 C 
ENDBRANCH  10  13
ENDBRANCH   8  10
ENDBRANCH   7   8
BRANCH   7  21
ATOM     21  C   UNL A   1      29.931  29.121  22.181  1.00  0.00     0.040 C 
BRANCH  21  22
ATOM     22  C   UNL A   1      29.249  30.189  23.035  1.00  0.00     0.102 C 
BRANCH  22  23
ATOM     23  C   UNL A   1      27.747  29.991  23.114  1.00  0.00     0.217 C 
ATOM     24  N   UNL A   1      27.304  28.751  22.775  1.00  0.00    -0.370 N 
ATOM     25  O   UNL A   1      26.955  30.865  23.443  1.00  0.00    -0.275 OA
ATOM     26  H   UNL A   1      27.947  28.054  22.511  1.00  0.00     0.159 HD
ATOM     27  H   UNL A   1      26.341  28.550  22.794  1.00  0.00     0.159 HD
ENDBRANCH  22  23
ENDBRANCH  21  22
ENDBRANCH   7  21
ENDBRANCH   4   7
ENDBRANCH   2   3
ENDBRANCH   1   2
BRANCH   1  28
ATOM     28  C   UNL A   1      31.946  31.815  26.876  1.00  0.00     0.023 C 
BRANCH  28  29
ATOM     29  C   UNL A   1      33.170  32.569  27.384  1.00  0.00     0.116 C 
BRANCH  29  30
ATOM     30  N   UNL A   1      32.854  33.933  27.787  1.00  0.00    -0.352 N 
ATOM     31  C   UNL A   1      33.343  34.658  28.849  1.00  0.00     0.251 C 
ATOM     32  H   UNL A   1      32.199  34.401  27.220  1.00  0.00     0.163 HD
ATOM     33  O   UNL A   1      32.830  35.731  29.147  1.00  0.00    -0.269 OA
BRANCH  31  34
ATOM     34  C   UNL A   1      34.468  34.113  29.636  1.00  0.00     0.039 A 
ATOM     35  C   UNL A   1      34.197  33.301  30.740  1.00  0.00     0.014 A 
ATOM     36  C   UNL A   1      35.785  34.366  29.249  1.00  0.00     0.014 A 
ATOM     37  C   UNL A   1      35.253  32.677  31.408  1.00  0.00     0.010 A 
ATOM     38  C   UNL A   1      36.826  33.674  29.860  1.00  0.00     0.010 A 
ATOM     39  C   UNL A   1      36.572  32.821  30.946  1.00  0.00    -0.014 A 
BRANCH  39  40
ATOM     40  C   UNL A   1      37.701  32.089  31.579  1.00  0.00     0.031 A 
ATOM     41  C   UNL A   1      38.218  32.523  32.922  1.00  0.00     0.074 A 
ATOM     42  C   UNL A   1      38.313  31.094  30.908  1.00  0.00     0.049 A 
ATOM     43  N   UNL A   1      39.250  32.084  33.595  1.00  0.00    -0.248 NA
ATOM     44  C   UNL A   1      37.498  33.625  33.577  1.00  0.00     0.031 C 
ATOM     45  C   UNL A   1      37.937  30.616  29.576  1.00  0.00     0.029 A 
ATOM     46  N   UNL A   1      39.394  30.316  31.245  1.00  0.00    -0.354 N 
ATOM     47  C   UNL A   1      39.318  32.870  34.741  1.00  0.00     0.074 A 
ATOM     48  C   UNL A   1      38.261  33.854  34.633  1.00  0.00     0.031 C 
ATOM     49  C   UNL A   1      38.761  29.619  29.217  1.00  0.00     0.029 A 
ATOM     50  C   UNL A   1      39.758  29.421  30.265  1.00  0.00     0.049 A 
ATOM     51  H   UNL A   1      39.865  30.391  32.106  1.00  0.00     0.167 HD
ATOM     52  C   UNL A   1      40.169  32.767  35.792  1.00  0.00     0.034 A 
ATOM     53  C   UNL A   1      40.789  28.556  30.202  1.00  0.00     0.034 A 
ATOM     54  C   UNL A   1      41.212  31.773  35.879  1.00  0.00     0.049 A 
ATOM     55  C   UNL A   1      41.740  28.468  31.369  1.00  0.00     0.074 A 
ATOM     56  C   UNL A   1      42.079  31.525  36.929  1.00  0.00     0.029 A 
ATOM     57  N   UNL A   1      41.545  30.876  34.871  1.00  0.00    -0.354 N 
ATOM     58  N   UNL A   1      41.747  29.168  32.480  1.00  0.00    -0.248 NA
ATOM     59  C   UNL A   1      42.811  27.469  31.279  1.00  0.00     0.031 C 
ATOM     60  C   UNL A   1      42.990  30.545  36.522  1.00  0.00     0.029 A 
ATOM     61  C   UNL A   1      42.635  30.108  35.256  1.00  0.00     0.049 A 
ATOM     62  H   UNL A   1      41.076  30.798  34.009  1.00  0.00     0.167 HD
ATOM     63  C   UNL A   1      42.810  28.675  33.234  1.00  0.00     0.074 A 
ATOM     64  C   UNL A   1      43.410  27.612  32.453  1.00  0.00     0.031 C 
ATOM     65  C   UNL A   1      43.240  29.061  34.462  1.00  0.00     0.034 A 
BRANCH  52  66
ATOM     66  C   UNL A   1      40.026  33.784  36.904  1.00  0.00     0.023 A 
ATOM     67  C   UNL A   1      40.918  34.862  37.043  1.00  0.00     0.031 A 
ATOM     68  C   UNL A   1      39.016  33.643  37.872  1.00  0.00     0.131 A 
ATOM     69  C   UNL A   1      40.851  35.688  38.175  1.00  0.00     0.055 A 
ATOM     70  C   UNL A   1      38.891  34.530  38.943  1.00  0.00     0.041 A 
ATOM     71  F   UNL A   1      38.144  32.625  37.808  1.00  0.00    -0.206 F 
ATOM     72  C   UNL A   1      39.825  35.548  39.111  1.00  0.00     0.022 A 
BRANCH  69  73
ATOM     73  S   UNL A   1      42.232  36.818  38.503  1.00  0.00     0.124 S 
ATOM     74  O   UNL A   1      42.718  37.088  37.151  1.00  0.00    -0.237 OA
ATOM     75  O   UNL A   1      41.577  37.929  39.180  1.00  0.00    -0.237 OA
ATOM     76  O   UNL A   1      43.137  36.023  39.332  1.00  0.00    -0.744 OA
ENDBRANCH  69  73
ENDBRANCH  52  66
BRANCH  53  77
ATOM     77  C   UNL A   1      40.989  27.725  28.980  1.00  0.00     0.023 A 
ATOM     78  C   UNL A   1      41.993  28.027  28.045  1.00  0.00     0.031 A 
ATOM     79  C   UNL A   1      40.170  26.608  28.731  1.00  0.00     0.131 A 
ATOM     80  C   UNL A   1      42.135  27.235  26.894  1.00  0.00     0.055 A 
ATOM     81  C   UNL A   1      40.348  25.796  27.611  1.00  0.00     0.041 A 
ATOM     82  F   UNL A   1      39.199  26.273  29.596  1.00  0.00    -0.206 F 
ATOM     83  C   UNL A   1      41.331  26.113  26.679  1.00  0.00     0.022 A 
BRANCH  80  84
ATOM     84  S   UNL A   1      43.355  27.725  25.644  1.00  0.00     0.124 S 
ATOM     85  O   UNL A   1      42.518  27.899  24.463  1.00  0.00    -0.237 OA
ATOM     86  O   UNL A   1      43.911  28.944  26.223  1.00  0.00    -0.237 OA
ATOM     87  O   UNL A   1      44.271  26.587  25.599  1.00  0.00    -0.744 OA
ENDBRANCH  80  84
ENDBRANCH  53  77
BRANCH  65  88
ATOM     88  C   UNL A   1      44.397  28.295  35.063  1.00  0.00     0.023 A 
ATOM     89  C   UNL A   1      44.214  27.080  35.745  1.00  0.00     0.031 A 
ATOM     90  C   UNL A   1      45.708  28.791  34.937  1.00  0.00     0.131 A 
ATOM     91  C   UNL A   1      45.319  26.424  36.313  1.00  0.00     0.055 A 
ATOM     92  C   UNL A   1      46.808  28.102  35.447  1.00  0.00     0.041 A 
ATOM     93  F   UNL A   1      45.942  29.951  34.302  1.00  0.00    -0.206 F 
ATOM     94  C   UNL A   1      46.616  26.918  36.150  1.00  0.00     0.022 A 
BRANCH  91  95
ATOM     95  S   UNL A   1      45.031  24.962  37.347  1.00  0.00     0.124 S 
ATOM     96  O   UNL A   1      44.398  25.545  38.526  1.00  0.00    -0.237 OA
ATOM     97  O   UNL A   1      44.168  24.145  36.499  1.00  0.00    -0.237 OA
ATOM     98  O   UNL A   1      46.373  24.426  37.566  1.00  0.00    -0.744 OA
ENDBRANCH  91  95
ENDBRANCH  65  88
ENDBRANCH  39  40
ENDBRANCH  31  34
ENDBRANCH  29  30
ENDBRANCH  28  29
ENDBRANCH   1  28
TORSDOF 20
ENDMDL
MODEL 3
REMARK VINA RESULT:     -11.1      6.047     11.301
REMARK SMILES C[C@H]1C[C@H](C)CN(S(=O)(=O)N[C@@H](CCC(N)=O)C(=O)NCCCCNC(=O)c2ccc(-c3c4nc(c(-c5cc(S(=O)(=O)[O-])ccc5F)c5ccc([nH]5)c(-c5cc(S(=O)(=O)[O-])ccc5F)c5nc(c(-c6cc(S(=O)(=O)[O-])ccc6F)c6ccc3[nH]6)C=C5)C=C4)cc2)C1
REMARK SMILES IDX 22 1 21 2 20 3 18 4 19 5 12 7 11 8 8 10 9 11 10 12 7 13 1 14
REMARK SMILES IDX 2 15 3 16 91 17 4 18 5 19 6 20 13 21 14 22 15 23 16 24 17 25
REMARK SMILES IDX 23 28 24 29 25 30 26 31 27 33 28 34 29 35 90 36 30 37 89 38
REMARK SMILES IDX 31 39 32 40 33 41 83 42 34 43 88 44 82 45 84 46 35 47 87 48
REMARK SMILES IDX 81 49 80 50 36 52 68 53 48 54 67 55 49 56 52 57 66 58 85 59
REMARK SMILES IDX 50 60 51 61 65 63 86 64 53 65 37 66 38 67 46 68 39 69 45 70
REMARK SMILES IDX 47 71 44 72 40 73 41 74 42 75 43 76 69 77 70 78 78 79 71 80
REMARK SMILES IDX 77 81 79 82 76 83 72 84 73 85 74 86 75 87 54 88 55 89 63 90
REMARK SMILES IDX 56 91 62 92 64 93 61 94 57 95 58 96 59 97 60 98
REMARK H PARENT 20 6 11 9 16 26 16 27 25 32 84 51 52 62
REMARK Flexibility Score: inf
ROOT
ATOM      1  C   UNL A   1      37.259  20.942  24.301  1.00  0.00     0.023 C 
ENDROOT
BRANCH   1   2
ATOM      2  C   UNL A   1      35.986  21.366  25.025  1.00  0.00     0.116 C 
BRANCH   2   3
ATOM      3  N   UNL A   1      34.869  21.546  24.120  1.00  0.00    -0.355 N 
ATOM      4  C   UNL A   1      33.536  21.358  24.305  1.00  0.00     0.238 C 
ATOM      5  O   UNL A   1      32.790  21.609  23.353  1.00  0.00    -0.273 OA
ATOM      6  H   UNL A   1      35.117  21.858  23.219  1.00  0.00     0.163 HD
BRANCH   4   7
ATOM      7  C   UNL A   1      32.958  20.773  25.601  1.00  0.00     0.160 C 
BRANCH   7   8
ATOM      8  N   UNL A   1      31.779  21.558  26.022  1.00  0.00    -0.190 NA
ATOM      9  H   UNL A   1      31.370  21.894  25.149  1.00  0.00     0.143 HD
BRANCH   8  10
ATOM     10  S   UNL A   1      31.720  22.855  27.033  1.00  0.00     0.280 S 
ATOM     11  O   UNL A   1      32.560  22.618  28.183  1.00  0.00    -0.195 OA
ATOM     12  O   UNL A   1      30.316  23.139  27.203  1.00  0.00    -0.195 OA
BRANCH  10  13
ATOM     13  N   UNL A   1      32.370  24.163  26.144  1.00  0.00    -0.188 NA
ATOM     14  C   UNL A   1      31.549  27.943  26.313  1.00  0.00     0.009 C 
ATOM     15  C   UNL A   1      32.160  26.657  25.755  1.00  0.00     0.001 C 
ATOM     16  C   UNL A   1      33.685  26.773  25.764  1.00  0.00     0.009 C 
ATOM     17  C   UNL A   1      31.690  25.441  26.565  1.00  0.00     0.106 C 
ATOM     18  C   UNL A   1      34.340  25.475  25.313  1.00  0.00     0.001 C 
ATOM     19  C   UNL A   1      34.138  25.201  23.817  1.00  0.00     0.009 C 
ATOM     20  C   UNL A   1      33.847  24.316  26.180  1.00  0.00     0.106 C 
ENDBRANCH  10  13
ENDBRANCH   8  10
ENDBRANCH   7   8
BRANCH   7  21
ATOM     21  C   UNL A   1      32.875  19.244  25.697  1.00  0.00     0.040 C 
BRANCH  21  22
ATOM     22  C   UNL A   1      32.985  18.408  24.423  1.00  0.00     0.102 C 
BRANCH  22  23
ATOM     23  C   UNL A   1      33.382  16.972  24.708  1.00  0.00     0.217 C 
ATOM     24  N   UNL A   1      33.362  16.612  26.019  1.00  0.00    -0.370 N 
ATOM     25  O   UNL A   1      33.716  16.168  23.848  1.00  0.00    -0.275 OA
ATOM     26  H   UNL A   1      33.092  17.264  26.705  1.00  0.00     0.159 HD
ATOM     27  H   UNL A   1      33.615  15.698  26.282  1.00  0.00     0.159 HD
ENDBRANCH  22  23
ENDBRANCH  21  22
ENDBRANCH   7  21
ENDBRANCH   4   7
ENDBRANCH   2   3
ENDBRANCH   1   2
BRANCH   1  28
ATOM     28  C   UNL A   1      37.912  19.673  24.855  1.00  0.00     0.023 C 
BRANCH  28  29
ATOM     29  C   UNL A   1      38.825  19.888  26.058  1.00  0.00     0.116 C 
BRANCH  29  30
ATOM     30  N   UNL A   1      40.052  19.109  25.970  1.00  0.00    -0.352 N 
ATOM     31  C   UNL A   1      41.357  19.531  26.075  1.00  0.00     0.251 C 
ATOM     32  H   UNL A   1      39.931  18.143  25.814  1.00  0.00     0.163 HD
ATOM     33  O   UNL A   1      42.274  18.767  25.793  1.00  0.00    -0.269 OA
BRANCH  31  34
ATOM     34  C   UNL A   1      41.632  20.919  26.501  1.00  0.00     0.039 A 
ATOM     35  C   UNL A   1      42.232  21.145  27.741  1.00  0.00     0.014 A 
ATOM     36  C   UNL A   1      41.342  21.987  25.649  1.00  0.00     0.014 A 
ATOM     37  C   UNL A   1      42.615  22.441  28.093  1.00  0.00     0.010 A 
ATOM     38  C   UNL A   1      41.803  23.261  25.963  1.00  0.00     0.010 A 
ATOM     39  C   UNL A   1      42.445  23.503  27.188  1.00  0.00    -0.014 A 
BRANCH  39  40
ATOM     40  C   UNL A   1      42.934  24.873  27.498  1.00  0.00     0.031 A 
ATOM     41  C   UNL A   1      42.008  25.875  28.130  1.00  0.00     0.074 A 
ATOM     42  C   UNL A   1      44.178  25.239  27.132  1.00  0.00     0.049 A 
ATOM     43  N   UNL A   1      42.208  27.141  28.388  1.00  0.00    -0.248 NA
ATOM     44  C   UNL A   1      40.665  25.392  28.486  1.00  0.00     0.031 C 
ATOM     45  C   UNL A   1      45.152  24.372  26.464  1.00  0.00     0.029 A 
ATOM     46  N   UNL A   1      44.832  26.441  27.250  1.00  0.00    -0.354 N 
ATOM     47  C   UNL A   1      41.009  27.614  28.913  1.00  0.00     0.074 A 
ATOM     48  C   UNL A   1      40.073  26.510  28.873  1.00  0.00     0.031 C 
ATOM     49  C   UNL A   1      46.281  25.065  26.248  1.00  0.00     0.029 A 
ATOM     50  C   UNL A   1      46.097  26.437  26.710  1.00  0.00     0.049 A 
ATOM     51  H   UNL A   1      44.434  27.231  27.682  1.00  0.00     0.167 HD
ATOM     52  C   UNL A   1      40.725  28.847  29.402  1.00  0.00     0.034 A 
ATOM     53  C   UNL A   1      47.000  27.429  26.576  1.00  0.00     0.034 A 
ATOM     54  C   UNL A   1      41.678  29.931  29.436  1.00  0.00     0.049 A 
ATOM     55  C   UNL A   1      46.661  28.800  27.104  1.00  0.00     0.074 A 
ATOM     56  C   UNL A   1      41.525  31.194  29.979  1.00  0.00     0.029 A 
ATOM     57  N   UNL A   1      42.955  29.888  28.888  1.00  0.00    -0.354 N 
ATOM     58  N   UNL A   1      45.549  29.214  27.667  1.00  0.00    -0.248 NA
ATOM     59  C   UNL A   1      47.699  29.831  26.990  1.00  0.00     0.031 C 
ATOM     60  C   UNL A   1      42.669  31.941  29.680  1.00  0.00     0.029 A 
ATOM     61  C   UNL A   1      43.580  31.118  29.037  1.00  0.00     0.049 A 
ATOM     62  H   UNL A   1      43.356  29.100  28.455  1.00  0.00     0.167 HD
ATOM     63  C   UNL A   1      45.764  30.551  27.997  1.00  0.00     0.074 A 
ATOM     64  C   UNL A   1      47.116  30.865  27.580  1.00  0.00     0.031 C 
ATOM     65  C   UNL A   1      44.923  31.429  28.600  1.00  0.00     0.034 A 
BRANCH  52  66
ATOM     66  C   UNL A   1      39.314  29.090  29.894  1.00  0.00     0.023 A 
ATOM     67  C   UNL A   1      38.378  29.816  29.136  1.00  0.00     0.031 A 
ATOM     68  C   UNL A   1      38.917  28.639  31.165  1.00  0.00     0.131 A 
ATOM     69  C   UNL A   1      37.137  30.159  29.694  1.00  0.00     0.055 A 
ATOM     70  C   UNL A   1      37.642  28.896  31.674  1.00  0.00     0.041 A 
ATOM     71  F   UNL A   1      39.769  27.959  31.948  1.00  0.00    -0.206 F 
ATOM     72  C   UNL A   1      36.751  29.679  30.946  1.00  0.00     0.022 A 
BRANCH  69  73
ATOM     73  S   UNL A   1      36.120  31.395  28.841  1.00  0.00     0.124 S 
ATOM     74  O   UNL A   1      35.616  30.628  27.703  1.00  0.00    -0.237 OA
ATOM     75  O   UNL A   1      35.138  31.751  29.857  1.00  0.00    -0.237 OA
ATOM     76  O   UNL A   1      37.075  32.447  28.497  1.00  0.00    -0.744 OA
ENDBRANCH  69  73
ENDBRANCH  52  66
BRANCH  53  77
ATOM     77  C   UNL A   1      48.298  27.166  25.891  1.00  0.00     0.023 A 
ATOM     78  C   UNL A   1      49.408  26.669  26.592  1.00  0.00     0.031 A 
ATOM     79  C   UNL A   1      48.443  27.410  24.513  1.00  0.00     0.131 A 
ATOM     80  C   UNL A   1      50.622  26.456  25.917  1.00  0.00     0.055 A 
ATOM     81  C   UNL A   1      49.636  27.149  23.838  1.00  0.00     0.041 A 
ATOM     82  F   UNL A   1      47.410  27.880  23.795  1.00  0.00    -0.206 F 
ATOM     83  C   UNL A   1      50.738  26.677  24.543  1.00  0.00     0.022 A 
BRANCH  80  84
ATOM     84  S   UNL A   1      52.072  25.935  26.875  1.00  0.00     0.124 S 
ATOM     85  O   UNL A   1      52.448  24.700  26.196  1.00  0.00    -0.237 OA
ATOM     86  O   UNL A   1      52.975  27.066  26.700  1.00  0.00    -0.237 OA
ATOM     87  O   UNL A   1      51.543  25.768  28.227  1.00  0.00    -0.744 OA
ENDBRANCH  80  84
ENDBRANCH  53  77
BRANCH  65  88
ATOM     88  C   UNL A   1      45.458  32.814  28.887  1.00  0.00     0.023 A 
ATOM     89  C   UNL A   1      45.208  33.903  28.035  1.00  0.00     0.031 A 
ATOM     90  C   UNL A   1      46.223  33.045  30.046  1.00  0.00     0.131 A 
ATOM     91  C   UNL A   1      45.755  35.162  28.330  1.00  0.00     0.055 A 
ATOM     92  C   UNL A   1      46.709  34.312  30.368  1.00  0.00     0.041 A 
ATOM     93  F   UNL A   1      46.499  32.041  30.894  1.00  0.00    -0.206 F 
ATOM     94  C   UNL A   1      46.486  35.377  29.502  1.00  0.00     0.022 A 
BRANCH  91  95
ATOM     95  S   UNL A   1      45.576  36.500  27.118  1.00  0.00     0.124 S 
ATOM     96  O   UNL A   1      46.601  36.157  26.136  1.00  0.00    -0.237 OA
ATOM     97  O   UNL A   1      44.194  36.340  26.679  1.00  0.00    -0.237 OA
ATOM     98  O   UNL A   1      45.844  37.707  27.896  1.00  0.00    -0.744 OA
ENDBRANCH  91  95
ENDBRANCH  65  88
ENDBRANCH  39  40
ENDBRANCH  31  34
ENDBRANCH  29  30
ENDBRANCH  28  29
ENDBRANCH   1  28
TORSDOF 20
ENDMDL
