MODEL 1
REMARK VINA RESULT:     -12.3      0.000      0.000
REMARK SMILES Cc1cscc1-c1ncc(C(=O)NCCCCNC(=O)c2ccc(-c3c4nc(c(-c5cc(S(=O)(=O)[O-])ccc5F)c5ccc([nH]5)c(-c5cc(S(=O)(=O)[O-])ccc5F)c5nc(c(-c6cc(S(=O)(=O)[O-])ccc6F)c6ccc3[nH]6)C=C5)C=C4)cc2)c(=O)[nH]1
REMARK SMILES IDX 16 1 15 2 14 3 13 4 11 5 12 6 10 8 7 9 8 10 86 11 9 12 84 13
REMARK SMILES IDX 85 15 6 16 1 17 2 18 3 19 4 20 5 21 17 22 18 23 19 24 20 26
REMARK SMILES IDX 21 27 22 28 83 29 23 30 82 31 24 32 25 33 26 34 76 35 27 36
REMARK SMILES IDX 81 37 75 38 77 39 28 40 80 41 74 42 73 43 29 45 61 46 41 47
REMARK SMILES IDX 60 48 42 49 45 50 59 51 78 52 43 53 44 54 58 56 79 57 46 58
REMARK SMILES IDX 30 59 31 60 39 61 32 62 38 63 40 64 37 65 33 66 34 67 35 68
REMARK SMILES IDX 36 69 62 70 63 71 71 72 64 73 70 74 72 75 69 76 65 77 66 78
REMARK SMILES IDX 67 79 68 80 47 81 48 82 56 83 49 84 55 85 57 86 54 87 50 88
REMARK SMILES IDX 51 89 52 90 53 91
REMARK H PARENT 13 7 86 14 18 25 77 44 45 55
REMARK Flexibility Score: inf
ROOT
ATOM      1  C   UNL A   1      35.673  21.608  24.614  1.00  0.00     0.023 C 
ENDROOT
BRANCH   1   2
ATOM      2  C   UNL A   1      34.696  20.455  24.848  1.00  0.00     0.023 C 
BRANCH   2   3
ATOM      3  C   UNL A   1      33.285  20.881  25.260  1.00  0.00     0.116 C 
BRANCH   3   4
ATOM      4  N   UNL A   1      33.231  21.188  26.677  1.00  0.00    -0.352 N 
ATOM      5  C   UNL A   1      32.829  22.295  27.353  1.00  0.00     0.258 C 
ATOM      6  O   UNL A   1      32.920  22.249  28.585  1.00  0.00    -0.269 OA
ATOM      7  H   UNL A   1      33.545  20.457  27.257  1.00  0.00     0.163 HD
BRANCH   5   8
ATOM      8  C   UNL A   1      32.235  23.492  26.699  1.00  0.00     0.123 A 
ATOM      9  C   UNL A   1      31.533  25.782  25.361  1.00  0.00     0.141 A 
ATOM     10  N   UNL A   1      32.711  25.303  25.149  1.00  0.00    -0.237 NA
ATOM     11  N   UNL A   1      30.623  25.215  26.196  1.00  0.00    -0.306 N 
ATOM     12  C   UNL A   1      33.044  24.177  25.868  1.00  0.00     0.133 A 
ATOM     13  C   UNL A   1      30.848  24.001  26.773  1.00  0.00     0.264 A 
ATOM     14  H   UNL A   1      29.783  25.691  26.388  1.00  0.00     0.171 HD
ATOM     15  O   UNL A   1      29.900  23.388  27.249  1.00  0.00    -0.269 OA
BRANCH   9  16
ATOM     16  C   UNL A   1      31.083  26.958  24.648  1.00  0.00     0.031 A 
ATOM     17  C   UNL A   1      32.015  28.717  26.314  1.00  0.00     0.046 C 
ATOM     18  C   UNL A   1      31.296  28.323  25.065  1.00  0.00    -0.029 A 
ATOM     19  C   UNL A   1      30.770  29.211  24.147  1.00  0.00     0.069 A 
ATOM     20  S   UNL A   1      30.036  28.433  22.815  1.00  0.00    -0.151 S 
ATOM     21  C   UNL A   1      30.413  26.890  23.440  1.00  0.00     0.077 A 
ENDBRANCH   9  16
ENDBRANCH   5   8
ENDBRANCH   3   4
ENDBRANCH   2   3
ENDBRANCH   1   2
BRANCH   1  22
ATOM     22  C   UNL A   1      36.685  21.837  25.731  1.00  0.00     0.116 C 
BRANCH  22  23
ATOM     23  N   UNL A   1      37.747  20.844  25.760  1.00  0.00    -0.352 N 
ATOM     24  C   UNL A   1      39.075  21.020  26.076  1.00  0.00     0.251 C 
ATOM     25  H   UNL A   1      37.483  19.926  25.523  1.00  0.00     0.163 HD
ATOM     26  O   UNL A   1      39.863  20.090  25.955  1.00  0.00    -0.269 OA
BRANCH  24  27
ATOM     27  C   UNL A   1      39.542  22.353  26.513  1.00  0.00     0.039 A 
ATOM     28  C   UNL A   1      40.630  22.429  27.387  1.00  0.00     0.014 A 
ATOM     29  C   UNL A   1      38.939  23.518  26.033  1.00  0.00     0.014 A 
ATOM     30  C   UNL A   1      41.158  23.677  27.724  1.00  0.00     0.010 A 
ATOM     31  C   UNL A   1      39.505  24.757  26.319  1.00  0.00     0.010 A 
ATOM     32  C   UNL A   1      40.623  24.848  27.162  1.00  0.00    -0.014 A 
BRANCH  32  33
ATOM     33  C   UNL A   1      41.218  26.179  27.444  1.00  0.00     0.031 A 
ATOM     34  C   UNL A   1      42.589  26.512  26.925  1.00  0.00     0.074 A 
ATOM     35  C   UNL A   1      40.555  27.054  28.224  1.00  0.00     0.049 A 
ATOM     36  N   UNL A   1      43.320  27.577  27.136  1.00  0.00    -0.248 NA
ATOM     37  C   UNL A   1      43.236  25.496  26.081  1.00  0.00     0.031 C 
ATOM     38  C   UNL A   1      39.236  26.825  28.820  1.00  0.00     0.029 A 
ATOM     39  N   UNL A   1      40.902  28.307  28.662  1.00  0.00    -0.354 N 
ATOM     40  C   UNL A   1      44.516  27.356  26.464  1.00  0.00     0.074 A 
ATOM     41  C   UNL A   1      44.433  26.028  25.889  1.00  0.00     0.031 C 
ATOM     42  C   UNL A   1      38.880  27.909  29.528  1.00  0.00     0.029 A 
ATOM     43  C   UNL A   1      39.956  28.892  29.472  1.00  0.00     0.049 A 
ATOM     44  H   UNL A   1      41.749  28.747  28.418  1.00  0.00     0.167 HD
ATOM     45  C   UNL A   1      45.576  28.190  26.321  1.00  0.00     0.034 A 
ATOM     46  C   UNL A   1      39.963  30.081  30.106  1.00  0.00     0.034 A 
ATOM     47  C   UNL A   1      45.637  29.513  26.889  1.00  0.00     0.049 A 
ATOM     48  C   UNL A   1      41.158  30.986  29.943  1.00  0.00     0.074 A 
ATOM     49  C   UNL A   1      46.638  30.462  26.767  1.00  0.00     0.029 A 
ATOM     50  N   UNL A   1      44.655  30.078  27.694  1.00  0.00    -0.354 N 
ATOM     51  N   UNL A   1      42.264  30.779  29.268  1.00  0.00    -0.248 NA
ATOM     52  C   UNL A   1      41.097  32.288  30.620  1.00  0.00     0.031 C 
ATOM     53  C   UNL A   1      46.287  31.575  27.540  1.00  0.00     0.029 A 
ATOM     54  C   UNL A   1      45.037  31.349  28.093  1.00  0.00     0.049 A 
ATOM     55  H   UNL A   1      43.810  29.638  27.944  1.00  0.00     0.167 HD
ATOM     56  C   UNL A   1      43.019  31.939  29.415  1.00  0.00     0.074 A 
ATOM     57  C   UNL A   1      42.235  32.844  30.232  1.00  0.00     0.031 C 
ATOM     58  C   UNL A   1      44.247  32.234  28.917  1.00  0.00     0.034 A 
BRANCH  45  59
ATOM     59  C   UNL A   1      46.758  27.674  25.536  1.00  0.00     0.023 A 
ATOM     60  C   UNL A   1      46.996  28.080  24.210  1.00  0.00     0.031 A 
ATOM     61  C   UNL A   1      47.637  26.734  26.102  1.00  0.00     0.131 A 
ATOM     62  C   UNL A   1      48.031  27.490  23.471  1.00  0.00     0.055 A 
ATOM     63  C   UNL A   1      48.716  26.212  25.387  1.00  0.00     0.041 A 
ATOM     64  F   UNL A   1      47.451  26.293  27.357  1.00  0.00    -0.206 F 
ATOM     65  C   UNL A   1      48.909  26.576  24.058  1.00  0.00     0.022 A 
BRANCH  62  66
ATOM     66  S   UNL A   1      48.121  27.823  21.690  1.00  0.00     0.124 S 
ATOM     67  O   UNL A   1      46.782  28.342  21.421  1.00  0.00    -0.237 OA
ATOM     68  O   UNL A   1      49.210  28.789  21.605  1.00  0.00    -0.237 OA
ATOM     69  O   UNL A   1      48.401  26.512  21.110  1.00  0.00    -0.744 OA
ENDBRANCH  62  66
ENDBRANCH  45  59
BRANCH  46  70
ATOM     70  C   UNL A   1      38.812  30.490  30.959  1.00  0.00     0.023 A 
ATOM     71  C   UNL A   1      37.704  31.151  30.406  1.00  0.00     0.031 A 
ATOM     72  C   UNL A   1      38.820  30.263  32.346  1.00  0.00     0.131 A 
ATOM     73  C   UNL A   1      36.672  31.607  31.240  1.00  0.00     0.055 A 
ATOM     74  C   UNL A   1      37.769  30.676  33.167  1.00  0.00     0.041 A 
ATOM     75  F   UNL A   1      39.853  29.628  32.923  1.00  0.00    -0.206 F 
ATOM     76  C   UNL A   1      36.692  31.364  32.615  1.00  0.00     0.022 A 
BRANCH  73  77
ATOM     77  S   UNL A   1      35.338  32.594  30.509  1.00  0.00     0.124 S 
ATOM     78  O   UNL A   1      36.033  33.830  30.169  1.00  0.00    -0.237 OA
ATOM     79  O   UNL A   1      34.924  31.759  29.387  1.00  0.00    -0.237 OA
ATOM     80  O   UNL A   1      34.364  32.705  31.594  1.00  0.00    -0.744 OA
ENDBRANCH  73  77
ENDBRANCH  46  70
BRANCH  58  81
ATOM     81  C   UNL A   1      44.788  33.610  29.210  1.00  0.00     0.023 A 
ATOM     82  C   UNL A   1      44.456  34.720  28.414  1.00  0.00     0.031 A 
ATOM     83  C   UNL A   1      45.661  33.808  30.295  1.00  0.00     0.131 A 
ATOM     84  C   UNL A   1      45.037  35.968  28.682  1.00  0.00     0.055 A 
ATOM     85  C   UNL A   1      46.192  35.064  30.590  1.00  0.00     0.041 A 
ATOM     86  F   UNL A   1      46.010  32.782  31.087  1.00  0.00    -0.206 F 
ATOM     87  C   UNL A   1      45.891  36.150  29.773  1.00  0.00     0.022 A 
BRANCH  84  88
ATOM     88  S   UNL A   1      44.726  37.339  27.534  1.00  0.00     0.124 S 
ATOM     89  O   UNL A   1      44.545  38.463  28.445  1.00  0.00    -0.237 OA
ATOM     90  O   UNL A   1      45.945  37.357  26.732  1.00  0.00    -0.237 OA
ATOM     91  O   UNL A   1      43.521  36.920  26.818  1.00  0.00    -0.744 OA
ENDBRANCH  84  88
ENDBRANCH  58  81
ENDBRANCH  32  33
ENDBRANCH  24  27
ENDBRANCH  22  23
ENDBRANCH   1  22
TORSDOF 15
ENDMDL
MODEL 2
REMARK VINA RESULT:     -12.2      1.943      8.403
REMARK SMILES Cc1cscc1-c1ncc(C(=O)NCCCCNC(=O)c2ccc(-c3c4nc(c(-c5cc(S(=O)(=O)[O-])ccc5F)c5ccc([nH]5)c(-c5cc(S(=O)(=O)[O-])ccc5F)c5nc(c(-c6cc(S(=O)(=O)[O-])ccc6F)c6ccc3[nH]6)C=C5)C=C4)cc2)c(=O)[nH]1
REMARK SMILES IDX 16 1 15 2 14 3 13 4 11 5 12 6 10 8 7 9 8 10 86 11 9 12 84 13
REMARK SMILES IDX 85 15 6 16 1 17 2 18 3 19 4 20 5 21 17 22 18 23 19 24 20 26
REMARK SMILES IDX 21 27 22 28 83 29 23 30 82 31 24 32 25 33 26 34 76 35 27 36
REMARK SMILES IDX 81 37 75 38 77 39 28 40 80 41 74 42 73 43 29 45 61 46 41 47
REMARK SMILES IDX 60 48 42 49 45 50 59 51 78 52 43 53 44 54 58 56 79 57 46 58
REMARK SMILES IDX 30 59 31 60 39 61 32 62 38 63 40 64 37 65 33 66 34 67 35 68
REMARK SMILES IDX 36 69 62 70 63 71 71 72 64 73 70 74 72 75 69 76 65 77 66 78
REMARK SMILES IDX 67 79 68 80 47 81 48 82 56 83 49 84 55 85 57 86 54 87 50 88
REMARK SMILES IDX 51 89 52 90 53 91
REMARK H PARENT 13 7 86 14 18 25 77 44 45 55
REMARK Flexibility Score: inf
ROOT
ATOM      1  C   UNL A   1      35.862  22.614  24.388  1.00  0.00     0.023 C 
ENDROOT
BRANCH   1   2
ATOM      2  C   UNL A   1      35.212  23.997  24.326  1.00  0.00     0.023 C 
BRANCH   2   3
ATOM      3  C   UNL A   1      33.825  24.028  23.680  1.00  0.00     0.116 C 
BRANCH   3   4
ATOM      4  N   UNL A   1      32.792  24.198  24.683  1.00  0.00    -0.352 N 
ATOM      5  C   UNL A   1      32.155  23.312  25.493  1.00  0.00     0.258 C 
ATOM      6  O   UNL A   1      31.294  23.778  26.246  1.00  0.00    -0.269 OA
ATOM      7  H   UNL A   1      32.495  25.129  24.798  1.00  0.00     0.163 HD
BRANCH   5   8
ATOM      8  C   UNL A   1      32.493  21.866  25.561  1.00  0.00     0.123 A 
ATOM      9  C   UNL A   1      32.903  19.162  25.324  1.00  0.00     0.141 A 
ATOM     10  N   UNL A   1      32.436  19.789  24.298  1.00  0.00    -0.237 NA
ATOM     11  N   UNL A   1      33.211  19.763  26.503  1.00  0.00    -0.306 N 
ATOM     12  C   UNL A   1      32.204  21.135  24.467  1.00  0.00     0.133 A 
ATOM     13  C   UNL A   1      33.176  21.119  26.641  1.00  0.00     0.264 A 
ATOM     14  H   UNL A   1      33.466  19.208  27.275  1.00  0.00     0.171 HD
ATOM     15  O   UNL A   1      33.753  21.631  27.592  1.00  0.00    -0.269 OA
BRANCH   9  16
ATOM     16  C   UNL A   1      33.190  17.747  25.247  1.00  0.00     0.031 A 
ATOM     17  C   UNL A   1      35.702  17.964  24.626  1.00  0.00     0.046 C 
ATOM     18  C   UNL A   1      34.474  17.169  24.931  1.00  0.00    -0.029 A 
ATOM     19  C   UNL A   1      34.422  15.789  24.971  1.00  0.00     0.069 A 
ATOM     20  S   UNL A   1      32.873  15.194  25.377  1.00  0.00    -0.151 S 
ATOM     21  C   UNL A   1      32.243  16.775  25.512  1.00  0.00     0.077 A 
ENDBRANCH   9  16
ENDBRANCH   5   8
ENDBRANCH   3   4
ENDBRANCH   2   3
ENDBRANCH   1   2
BRANCH   1  22
ATOM     22  C   UNL A   1      36.423  22.222  25.750  1.00  0.00     0.116 C 
BRANCH  22  23
ATOM     23  N   UNL A   1      37.387  21.135  25.686  1.00  0.00    -0.352 N 
ATOM     24  C   UNL A   1      38.737  21.171  25.950  1.00  0.00     0.251 C 
ATOM     25  H   UNL A   1      37.027  20.258  25.420  1.00  0.00     0.163 HD
ATOM     26  O   UNL A   1      39.428  20.179  25.751  1.00  0.00    -0.269 OA
BRANCH  24  27
ATOM     27  C   UNL A   1      39.346  22.432  26.424  1.00  0.00     0.039 A 
ATOM     28  C   UNL A   1      40.405  22.365  27.333  1.00  0.00     0.014 A 
ATOM     29  C   UNL A   1      38.904  23.668  25.945  1.00  0.00     0.014 A 
ATOM     30  C   UNL A   1      41.067  23.535  27.709  1.00  0.00     0.010 A 
ATOM     31  C   UNL A   1      39.605  24.825  26.270  1.00  0.00     0.010 A 
ATOM     32  C   UNL A   1      40.697  24.770  27.150  1.00  0.00    -0.014 A 
BRANCH  32  33
ATOM     33  C   UNL A   1      41.438  26.015  27.473  1.00  0.00     0.031 A 
ATOM     34  C   UNL A   1      40.772  27.096  28.277  1.00  0.00     0.074 A 
ATOM     35  C   UNL A   1      42.679  26.198  26.984  1.00  0.00     0.049 A 
ATOM     36  N   UNL A   1      41.211  28.289  28.587  1.00  0.00    -0.248 NA
ATOM     37  C   UNL A   1      39.418  26.807  28.771  1.00  0.00     0.031 C 
ATOM     38  C   UNL A   1      43.412  25.236  26.156  1.00  0.00     0.029 A 
ATOM     39  N   UNL A   1      43.542  27.259  27.099  1.00  0.00    -0.354 N 
ATOM     40  C   UNL A   1      40.185  28.898  29.300  1.00  0.00     0.074 A 
ATOM     41  C   UNL A   1      39.079  27.962  29.322  1.00  0.00     0.031 C 
ATOM     42  C   UNL A   1      44.619  25.745  25.855  1.00  0.00     0.029 A 
ATOM     43  C   UNL A   1      44.731  27.080  26.432  1.00  0.00     0.049 A 
ATOM     44  H   UNL A   1      43.328  28.072  27.611  1.00  0.00     0.167 HD
ATOM     45  C   UNL A   1      40.173  30.115  29.898  1.00  0.00     0.034 A 
ATOM     46  C   UNL A   1      45.787  27.905  26.292  1.00  0.00     0.034 A 
ATOM     47  C   UNL A   1      41.287  31.030  29.877  1.00  0.00     0.049 A 
ATOM     48  C   UNL A   1      45.747  29.259  26.955  1.00  0.00     0.074 A 
ATOM     49  C   UNL A   1      41.403  32.266  30.490  1.00  0.00     0.029 A 
ATOM     50  N   UNL A   1      42.482  30.810  29.202  1.00  0.00    -0.354 N 
ATOM     51  N   UNL A   1      44.784  29.803  27.662  1.00  0.00    -0.248 NA
ATOM     52  C   UNL A   1      46.939  30.102  26.808  1.00  0.00     0.031 C 
ATOM     53  C   UNL A   1      42.643  32.816  30.141  1.00  0.00     0.029 A 
ATOM     54  C   UNL A   1      43.329  31.896  29.364  1.00  0.00     0.049 A 
ATOM     55  H   UNL A   1      42.696  30.000  28.683  1.00  0.00     0.167 HD
ATOM     56  C   UNL A   1      45.269  31.042  28.070  1.00  0.00     0.074 A 
ATOM     57  C   UNL A   1      46.612  31.157  27.539  1.00  0.00     0.031 C 
ATOM     58  C   UNL A   1      44.662  31.998  28.819  1.00  0.00     0.034 A 
BRANCH  45  59
ATOM     59  C   UNL A   1      38.902  30.524  30.603  1.00  0.00     0.023 A 
ATOM     60  C   UNL A   1      37.864  31.189  29.925  1.00  0.00     0.031 A 
ATOM     61  C   UNL A   1      38.739  30.284  31.979  1.00  0.00     0.131 A 
ATOM     62  C   UNL A   1      36.752  31.661  30.635  1.00  0.00     0.055 A 
ATOM     63  C   UNL A   1      37.591  30.684  32.665  1.00  0.00     0.041 A 
ATOM     64  F   UNL A   1      39.703  29.671  32.685  1.00  0.00    -0.206 F 
ATOM     65  C   UNL A   1      36.595  31.392  31.997  1.00  0.00     0.022 A 
BRANCH  62  66
ATOM     66  S   UNL A   1      35.584  32.759  29.786  1.00  0.00     0.124 S 
ATOM     67  O   UNL A   1      36.319  34.022  29.785  1.00  0.00    -0.237 OA
ATOM     68  O   UNL A   1      35.427  32.111  28.489  1.00  0.00    -0.237 OA
ATOM     69  O   UNL A   1      34.402  32.734  30.645  1.00  0.00    -0.744 OA
ENDBRANCH  62  66
ENDBRANCH  45  59
BRANCH  46  70
ATOM     70  C   UNL A   1      46.972  27.488  25.490  1.00  0.00     0.023 A 
ATOM     71  C   UNL A   1      47.114  27.890  24.152  1.00  0.00     0.031 A 
ATOM     72  C   UNL A   1      47.958  26.649  26.036  1.00  0.00     0.131 A 
ATOM     73  C   UNL A   1      48.191  27.414  23.389  1.00  0.00     0.055 A 
ATOM     74  C   UNL A   1      49.054  26.215  25.286  1.00  0.00     0.041 A 
ATOM     75  F   UNL A   1      47.872  26.242  27.312  1.00  0.00    -0.206 F 
ATOM     76  C   UNL A   1      49.167  26.588  23.950  1.00  0.00     0.022 A 
BRANCH  73  77
ATOM     77  S   UNL A   1      48.253  27.827  21.625  1.00  0.00     0.124 S 
ATOM     78  O   UNL A   1      46.902  28.321  21.386  1.00  0.00    -0.237 OA
ATOM     79  O   UNL A   1      49.318  28.822  21.585  1.00  0.00    -0.237 OA
ATOM     80  O   UNL A   1      48.572  26.550  20.988  1.00  0.00    -0.744 OA
ENDBRANCH  73  77
ENDBRANCH  46  70
BRANCH  58  81
ATOM     81  C   UNL A   1      45.473  33.227  29.141  1.00  0.00     0.023 A 
ATOM     82  C   UNL A   1      45.454  34.363  28.313  1.00  0.00     0.031 A 
ATOM     83  C   UNL A   1      46.289  33.253  30.286  1.00  0.00     0.131 A 
ATOM     84  C   UNL A   1      46.278  35.458  28.614  1.00  0.00     0.055 A 
ATOM     85  C   UNL A   1      47.064  34.367  30.610  1.00  0.00     0.041 A 
ATOM     86  F   UNL A   1      46.344  32.194  31.109  1.00  0.00    -0.206 F 
ATOM     87  C   UNL A   1      47.071  35.473  29.764  1.00  0.00     0.022 A 
BRANCH  84  88
ATOM     88  S   UNL A   1      46.362  36.835  27.435  1.00  0.00     0.124 S 
ATOM     89  O   UNL A   1      45.013  37.385  27.515  1.00  0.00    -0.237 OA
ATOM     90  O   UNL A   1      47.423  37.663  27.999  1.00  0.00    -0.237 OA
ATOM     91  O   UNL A   1      46.692  36.184  26.169  1.00  0.00    -0.744 OA
ENDBRANCH  84  88
ENDBRANCH  58  81
ENDBRANCH  32  33
ENDBRANCH  24  27
ENDBRANCH  22  23
ENDBRANCH   1  22
TORSDOF 15
ENDMDL
MODEL 3
REMARK VINA RESULT:     -12.1      5.411      7.759
REMARK SMILES Cc1cscc1-c1ncc(C(=O)NCCCCNC(=O)c2ccc(-c3c4nc(c(-c5cc(S(=O)(=O)[O-])ccc5F)c5ccc([nH]5)c(-c5cc(S(=O)(=O)[O-])ccc5F)c5nc(c(-c6cc(S(=O)(=O)[O-])ccc6F)c6ccc3[nH]6)C=C5)C=C4)cc2)c(=O)[nH]1
REMARK SMILES IDX 16 1 15 2 14 3 13 4 11 5 12 6 10 8 7 9 8 10 86 11 9 12 84 13
REMARK SMILES IDX 85 15 6 16 1 17 2 18 3 19 4 20 5 21 17 22 18 23 19 24 20 26
REMARK SMILES IDX 21 27 22 28 83 29 23 30 82 31 24 32 25 33 26 34 76 35 27 36
REMARK SMILES IDX 81 37 75 38 77 39 28 40 80 41 74 42 73 43 29 45 61 46 41 47
REMARK SMILES IDX 60 48 42 49 45 50 59 51 78 52 43 53 44 54 58 56 79 57 46 58
REMARK SMILES IDX 30 59 31 60 39 61 32 62 38 63 40 64 37 65 33 66 34 67 35 68
REMARK SMILES IDX 36 69 62 70 63 71 71 72 64 73 70 74 72 75 69 76 65 77 66 78
REMARK SMILES IDX 67 79 68 80 47 81 48 82 56 83 49 84 55 85 57 86 54 87 50 88
REMARK SMILES IDX 51 89 52 90 53 91
REMARK H PARENT 13 7 86 14 18 25 77 44 45 55
REMARK Flexibility Score: inf
ROOT
ATOM      1  C   UNL A   1      31.745  28.375  26.510  1.00  0.00     0.023 C 
ENDROOT
BRANCH   1   2
ATOM      2  C   UNL A   1      32.217  26.921  26.468  1.00  0.00     0.023 C 
BRANCH   2   3
ATOM      3  C   UNL A   1      31.110  25.892  26.231  1.00  0.00     0.116 C 
BRANCH   3   4
ATOM      4  N   UNL A   1      31.338  25.162  24.999  1.00  0.00    -0.352 N 
ATOM      5  C   UNL A   1      31.160  25.499  23.695  1.00  0.00     0.258 C 
ATOM      6  O   UNL A   1      31.439  24.632  22.861  1.00  0.00    -0.269 OA
ATOM      7  H   UNL A   1      31.686  24.251  25.132  1.00  0.00     0.163 HD
BRANCH   5   8
ATOM      8  C   UNL A   1      30.727  26.848  23.243  1.00  0.00     0.123 A 
ATOM      9  C   UNL A   1      29.536  29.204  22.492  1.00  0.00     0.141 A 
ATOM     10  N   UNL A   1      28.812  28.341  23.120  1.00  0.00    -0.237 NA
ATOM     11  N   UNL A   1      30.849  29.017  22.192  1.00  0.00    -0.306 N 
ATOM     12  C   UNL A   1      29.431  27.155  23.445  1.00  0.00     0.133 A 
ATOM     13  C   UNL A   1      31.539  27.941  22.666  1.00  0.00     0.264 A 
ATOM     14  H   UNL A   1      31.311  29.672  21.622  1.00  0.00     0.171 HD
ATOM     15  O   UNL A   1      32.763  27.971  22.646  1.00  0.00    -0.269 OA
BRANCH   9  16
ATOM     16  C   UNL A   1      28.983  30.485  22.114  1.00  0.00     0.031 A 
ATOM     17  C   UNL A   1      29.527  31.732  24.325  1.00  0.00     0.046 C 
ATOM     18  C   UNL A   1      28.970  31.669  22.940  1.00  0.00    -0.029 A 
ATOM     19  C   UNL A   1      28.397  32.735  22.273  1.00  0.00     0.069 A 
ATOM     20  S   UNL A   1      27.885  32.333  20.694  1.00  0.00    -0.151 S 
ATOM     21  C   UNL A   1      28.425  30.723  20.871  1.00  0.00     0.077 A 
ENDBRANCH   9  16
ENDBRANCH   5   8
ENDBRANCH   3   4
ENDBRANCH   2   3
ENDBRANCH   1   2
BRANCH   1  22
ATOM     22  C   UNL A   1      32.734  29.394  25.955  1.00  0.00     0.116 C 
BRANCH  22  23
ATOM     23  N   UNL A   1      32.368  30.771  26.246  1.00  0.00    -0.352 N 
ATOM     24  C   UNL A   1      33.019  31.678  27.051  1.00  0.00     0.251 C 
ATOM     25  H   UNL A   1      31.548  31.098  25.811  1.00  0.00     0.163 HD
ATOM     26  O   UNL A   1      32.519  32.775  27.268  1.00  0.00    -0.269 OA
BRANCH  24  27
ATOM     27  C   UNL A   1      34.296  31.292  27.687  1.00  0.00     0.039 A 
ATOM     28  C   UNL A   1      35.217  32.294  28.006  1.00  0.00     0.014 A 
ATOM     29  C   UNL A   1      34.566  29.958  28.004  1.00  0.00     0.014 A 
ATOM     30  C   UNL A   1      36.379  31.966  28.706  1.00  0.00     0.010 A 
ATOM     31  C   UNL A   1      35.693  29.642  28.758  1.00  0.00     0.010 A 
ATOM     32  C   UNL A   1      36.607  30.643  29.121  1.00  0.00    -0.014 A 
BRANCH  32  33
ATOM     33  C   UNL A   1      37.796  30.286  29.935  1.00  0.00     0.031 A 
ATOM     34  C   UNL A   1      38.843  29.366  29.371  1.00  0.00     0.074 A 
ATOM     35  C   UNL A   1      37.895  30.732  31.203  1.00  0.00     0.049 A 
ATOM     36  N   UNL A   1      39.902  28.861  29.949  1.00  0.00    -0.248 NA
ATOM     37  C   UNL A   1      38.651  28.931  27.980  1.00  0.00     0.031 C 
ATOM     38  C   UNL A   1      36.920  31.596  31.873  1.00  0.00     0.029 A 
ATOM     39  N   UNL A   1      38.854  30.512  32.159  1.00  0.00    -0.354 N 
ATOM     40  C   UNL A   1      40.498  28.041  28.999  1.00  0.00     0.074 A 
ATOM     41  C   UNL A   1      39.645  28.070  27.828  1.00  0.00     0.031 C 
ATOM     42  C   UNL A   1      37.342  31.847  33.124  1.00  0.00     0.029 A 
ATOM     43  C   UNL A   1      38.592  31.132  33.358  1.00  0.00     0.049 A 
ATOM     44  H   UNL A   1      39.655  29.961  32.001  1.00  0.00     0.167 HD
ATOM     45  C   UNL A   1      41.659  27.344  29.086  1.00  0.00     0.034 A 
ATOM     46  C   UNL A   1      39.276  31.115  34.519  1.00  0.00     0.034 A 
ATOM     47  C   UNL A   1      42.503  27.336  30.255  1.00  0.00     0.049 A 
ATOM     48  C   UNL A   1      40.557  30.324  34.597  1.00  0.00     0.074 A 
ATOM     49  C   UNL A   1      43.723  26.708  30.437  1.00  0.00     0.029 A 
ATOM     50  N   UNL A   1      42.212  27.987  31.449  1.00  0.00    -0.354 N 
ATOM     51  N   UNL A   1      41.130  29.587  33.675  1.00  0.00    -0.248 NA
ATOM     52  C   UNL A   1      41.287  30.373  35.870  1.00  0.00     0.031 C 
ATOM     53  C   UNL A   1      44.142  26.932  31.754  1.00  0.00     0.029 A 
ATOM     54  C   UNL A   1      43.216  27.756  32.376  1.00  0.00     0.049 A 
ATOM     55  H   UNL A   1      41.408  28.533  31.612  1.00  0.00     0.167 HD
ATOM     56  C   UNL A   1      42.304  29.108  34.248  1.00  0.00     0.074 A 
ATOM     57  C   UNL A   1      42.362  29.651  35.590  1.00  0.00     0.031 C 
ATOM     58  C   UNL A   1      43.252  28.296  33.714  1.00  0.00     0.034 A 
BRANCH  45  59
ATOM     59  C   UNL A   1      42.061  26.520  27.887  1.00  0.00     0.023 A 
ATOM     60  C   UNL A   1      41.737  25.156  27.788  1.00  0.00     0.031 A 
ATOM     61  C   UNL A   1      42.811  27.094  26.845  1.00  0.00     0.131 A 
ATOM     62  C   UNL A   1      42.228  24.393  26.720  1.00  0.00     0.055 A 
ATOM     63  C   UNL A   1      43.229  26.347  25.741  1.00  0.00     0.041 A 
ATOM     64  F   UNL A   1      43.168  28.387  26.891  1.00  0.00    -0.206 F 
ATOM     65  C   UNL A   1      42.952  24.984  25.682  1.00  0.00     0.022 A 
BRANCH  62  66
ATOM     66  S   UNL A   1      42.036  22.590  26.781  1.00  0.00     0.124 S 
ATOM     67  O   UNL A   1      43.226  22.194  27.530  1.00  0.00    -0.237 OA
ATOM     68  O   UNL A   1      40.763  22.433  27.475  1.00  0.00    -0.237 OA
ATOM     69  O   UNL A   1      42.034  22.197  25.374  1.00  0.00    -0.744 OA
ENDBRANCH  62  66
ENDBRANCH  45  59
BRANCH  46  70
ATOM     70  C   UNL A   1      38.771  31.861  35.706  1.00  0.00     0.023 A 
ATOM     71  C   UNL A   1      38.155  31.186  36.772  1.00  0.00     0.031 A 
ATOM     72  C   UNL A   1      38.859  33.262  35.773  1.00  0.00     0.131 A 
ATOM     73  C   UNL A   1      37.607  31.915  37.839  1.00  0.00     0.055 A 
ATOM     74  C   UNL A   1      38.355  33.981  36.859  1.00  0.00     0.041 A 
ATOM     75  F   UNL A   1      39.445  33.953  34.783  1.00  0.00    -0.206 F 
ATOM     76  C   UNL A   1      37.713  33.307  37.894  1.00  0.00     0.022 A 
BRANCH  73  77
ATOM     77  S   UNL A   1      36.682  31.021  39.116  1.00  0.00     0.124 S 
ATOM     78  O   UNL A   1      36.525  29.707  38.505  1.00  0.00    -0.237 OA
ATOM     79  O   UNL A   1      37.591  31.096  40.255  1.00  0.00    -0.237 OA
ATOM     80  O   UNL A   1      35.452  31.798  39.251  1.00  0.00    -0.744 OA
ENDBRANCH  73  77
ENDBRANCH  46  70
BRANCH  58  81
ATOM     81  C   UNL A   1      44.451  27.992  34.576  1.00  0.00     0.023 A 
ATOM     82  C   UNL A   1      44.494  26.862  35.409  1.00  0.00     0.031 A 
ATOM     83  C   UNL A   1      45.560  28.858  34.572  1.00  0.00     0.131 A 
ATOM     84  C   UNL A   1      45.601  26.654  36.246  1.00  0.00     0.055 A 
ATOM     85  C   UNL A   1      46.681  28.617  35.366  1.00  0.00     0.041 A 
ATOM     86  F   UNL A   1      45.569  29.952  33.794  1.00  0.00    -0.206 F 
ATOM     87  C   UNL A   1      46.701  27.517  36.218  1.00  0.00     0.022 A 
BRANCH  84  88
ATOM     88  S   UNL A   1      45.551  25.284  37.435  1.00  0.00     0.124 S 
ATOM     89  O   UNL A   1      46.883  24.707  37.288  1.00  0.00    -0.237 OA
ATOM     90  O   UNL A   1      45.289  25.974  38.694  1.00  0.00    -0.237 OA
ATOM     91  O   UNL A   1      44.455  24.448  36.948  1.00  0.00    -0.744 OA
ENDBRANCH  84  88
ENDBRANCH  58  81
ENDBRANCH  32  33
ENDBRANCH  24  27
ENDBRANCH  22  23
ENDBRANCH   1  22
TORSDOF 15
ENDMDL
