MODEL 1
REMARK VINA RESULT:     -11.5      0.000      0.000
REMARK SMILES C[C@@H](CS(=O)(=O)[C@@H]1CCC[C@H](S(C)(=O)=O)C1)C(=O)NCCCCNC(=O)c1ccc(-c2c3nc(c(-c4cc(S(=O)(=O)[O-])ccc4F)c4ccc([nH]4)c(-c4cc(S(=O)(=O)[O-])ccc4F)c4nc(c(-c5cc(S(=O)(=O)[O-])ccc5F)c5ccc2[nH]5)C=C4)C=C3)cc1
REMARK SMILES IDX 21 1 20 2 19 3 17 4 18 5 2 7 1 8 3 9 4 10 5 11 6 12 7 13
REMARK SMILES IDX 8 14 16 15 9 16 11 17 10 18 12 19 13 20 14 21 15 22 22 23
REMARK SMILES IDX 23 24 24 25 25 26 26 28 27 29 28 30 89 31 29 32 88 33 30 34
REMARK SMILES IDX 31 35 32 36 82 37 33 38 87 39 81 40 83 41 34 42 86 43 80 44
REMARK SMILES IDX 79 45 35 47 67 48 47 49 66 50 48 51 51 52 65 53 84 54 49 55
REMARK SMILES IDX 50 56 64 58 85 59 52 60 36 61 37 62 45 63 38 64 44 65 46 66
REMARK SMILES IDX 43 67 39 68 40 69 41 70 42 71 68 72 69 73 77 74 70 75 76 76
REMARK SMILES IDX 78 77 75 78 71 79 72 80 73 81 74 82 53 83 54 84 62 85 55 86
REMARK SMILES IDX 61 87 63 88 60 89 56 90 57 91 58 92 59 93
REMARK H PARENT 19 6 24 27 83 46 51 57
REMARK Flexibility Score: inf
ROOT
ATOM      1  C   UNL A   1      31.718  28.846  25.751  1.00  0.00     0.023 C 
ENDROOT
BRANCH   1   2
ATOM      2  C   UNL A   1      32.522  29.119  24.494  1.00  0.00     0.116 C 
BRANCH   2   3
ATOM      3  N   UNL A   1      31.791  29.313  23.273  1.00  0.00    -0.356 N 
ATOM      4  C   UNL A   1      30.795  28.521  22.783  1.00  0.00     0.223 C 
ATOM      5  O   UNL A   1      30.010  29.023  21.974  1.00  0.00    -0.275 OA
ATOM      6  H   UNL A   1      32.034  30.100  22.735  1.00  0.00     0.163 HD
BRANCH   4   7
ATOM      7  C   UNL A   1      30.721  27.016  23.073  1.00  0.00     0.090 C 
ATOM      8  C   UNL A   1      29.391  26.632  23.728  1.00  0.00     0.019 C 
BRANCH   7   9
ATOM      9  C   UNL A   1      31.388  25.963  22.178  1.00  0.00     0.150 C 
BRANCH   9  10
ATOM     10  S   UNL A   1      33.125  25.616  22.010  1.00  0.00     0.153 S 
ATOM     11  O   UNL A   1      33.278  24.669  20.923  1.00  0.00    -0.229 OA
ATOM     12  O   UNL A   1      33.735  26.930  21.874  1.00  0.00    -0.229 OA
BRANCH  10  13
ATOM     13  C   UNL A   1      33.858  24.862  23.516  1.00  0.00     0.110 C 
ATOM     14  C   UNL A   1      34.741  23.659  23.228  1.00  0.00     0.020 C 
ATOM     15  C   UNL A   1      32.776  24.509  24.555  1.00  0.00     0.039 C 
ATOM     16  C   UNL A   1      35.332  23.050  24.488  1.00  0.00     0.003 C 
ATOM     17  C   UNL A   1      33.351  23.832  25.816  1.00  0.00     0.109 C 
ATOM     18  C   UNL A   1      34.239  22.640  25.454  1.00  0.00     0.020 C 
BRANCH  17  19
ATOM     19  S   UNL A   1      32.012  23.323  26.918  1.00  0.00     0.150 S 
ATOM     20  C   UNL A   1      31.019  22.215  25.941  1.00  0.00     0.158 C 
ATOM     21  O   UNL A   1      32.593  22.537  27.987  1.00  0.00    -0.229 OA
ATOM     22  O   UNL A   1      31.194  24.486  27.207  1.00  0.00    -0.229 OA
ENDBRANCH  17  19
ENDBRANCH  10  13
ENDBRANCH   9  10
ENDBRANCH   7   9
ENDBRANCH   4   7
ENDBRANCH   2   3
ENDBRANCH   1   2
BRANCH   1  23
ATOM     23  C   UNL A   1      32.135  29.642  26.980  1.00  0.00     0.023 C 
BRANCH  23  24
ATOM     24  C   UNL A   1      33.445  30.418  26.871  1.00  0.00     0.116 C 
BRANCH  24  25
ATOM     25  N   UNL A   1      33.482  31.651  27.648  1.00  0.00    -0.352 N 
ATOM     26  C   UNL A   1      34.468  32.084  28.511  1.00  0.00     0.251 C 
ATOM     27  H   UNL A   1      32.709  32.249  27.543  1.00  0.00     0.163 HD
ATOM     28  O   UNL A   1      34.314  33.113  29.160  1.00  0.00    -0.269 OA
BRANCH  26  29
ATOM     29  C   UNL A   1      35.679  31.251  28.683  1.00  0.00     0.039 A 
ATOM     30  C   UNL A   1      36.920  31.769  28.308  1.00  0.00     0.014 A 
ATOM     31  C   UNL A   1      35.594  30.011  29.323  1.00  0.00     0.014 A 
ATOM     32  C   UNL A   1      38.086  31.096  28.679  1.00  0.00     0.010 A 
ATOM     33  C   UNL A   1      36.755  29.390  29.767  1.00  0.00     0.010 A 
ATOM     34  C   UNL A   1      38.015  29.932  29.466  1.00  0.00    -0.014 A 
BRANCH  34  35
ATOM     35  C   UNL A   1      39.240  29.282  30.004  1.00  0.00     0.031 A 
ATOM     36  C   UNL A   1      39.910  29.836  31.231  1.00  0.00     0.074 A 
ATOM     37  C   UNL A   1      39.798  28.247  29.341  1.00  0.00     0.049 A 
ATOM     38  N   UNL A   1      41.030  29.473  31.800  1.00  0.00    -0.248 NA
ATOM     39  C   UNL A   1      39.248  30.977  31.883  1.00  0.00     0.031 C 
ATOM     40  C   UNL A   1      39.275  27.650  28.108  1.00  0.00     0.029 A 
ATOM     41  N   UNL A   1      40.932  27.517  29.601  1.00  0.00    -0.354 N 
ATOM     42  C   UNL A   1      41.219  30.351  32.862  1.00  0.00     0.074 A 
ATOM     43  C   UNL A   1      40.129  31.303  32.815  1.00  0.00     0.031 C 
ATOM     44  C   UNL A   1      40.068  26.631  27.741  1.00  0.00     0.029 A 
ATOM     45  C   UNL A   1      41.180  26.526  28.679  1.00  0.00     0.049 A 
ATOM     46  H   UNL A   1      41.514  27.687  30.377  1.00  0.00     0.167 HD
ATOM     47  C   UNL A   1      42.194  30.349  33.805  1.00  0.00     0.034 A 
ATOM     48  C   UNL A   1      42.194  25.641  28.592  1.00  0.00     0.034 A 
ATOM     49  C   UNL A   1      43.262  29.381  33.850  1.00  0.00     0.049 A 
ATOM     50  C   UNL A   1      43.275  25.665  29.644  1.00  0.00     0.074 A 
ATOM     51  C   UNL A   1      44.261  29.244  34.798  1.00  0.00     0.029 A 
ATOM     52  N   UNL A   1      43.477  28.387  32.903  1.00  0.00    -0.354 N 
ATOM     53  N   UNL A   1      43.404  26.464  30.678  1.00  0.00    -0.248 NA
ATOM     54  C   UNL A   1      44.340  24.663  29.522  1.00  0.00     0.031 C 
ATOM     55  C   UNL A   1      45.115  28.213  34.391  1.00  0.00     0.029 A 
ATOM     56  C   UNL A   1      44.608  27.655  33.228  1.00  0.00     0.049 A 
ATOM     57  H   UNL A   1      42.908  28.227  32.116  1.00  0.00     0.167 HD
ATOM     58  C   UNL A   1      44.546  26.037  31.348  1.00  0.00     0.074 A 
ATOM     59  C   UNL A   1      45.061  24.902  30.608  1.00  0.00     0.031 C 
ATOM     60  C   UNL A   1      45.116  26.531  32.476  1.00  0.00     0.034 A 
BRANCH  47  61
ATOM     61  C   UNL A   1      42.156  31.444  34.844  1.00  0.00     0.023 A 
ATOM     62  C   UNL A   1      41.198  31.450  35.875  1.00  0.00     0.031 A 
ATOM     63  C   UNL A   1      43.068  32.512  34.789  1.00  0.00     0.131 A 
ATOM     64  C   UNL A   1      41.121  32.542  36.752  1.00  0.00     0.055 A 
ATOM     65  C   UNL A   1      43.039  33.554  35.718  1.00  0.00     0.041 A 
ATOM     66  F   UNL A   1      43.993  32.573  33.818  1.00  0.00    -0.206 F 
ATOM     67  C   UNL A   1      42.051  33.582  36.697  1.00  0.00     0.022 A 
BRANCH  64  68
ATOM     68  S   UNL A   1      39.694  32.654  37.867  1.00  0.00     0.124 S 
ATOM     69  O   UNL A   1      38.817  31.617  37.327  1.00  0.00    -0.237 OA
ATOM     70  O   UNL A   1      40.289  32.373  39.169  1.00  0.00    -0.237 OA
ATOM     71  O   UNL A   1      39.219  34.023  37.679  1.00  0.00    -0.744 OA
ENDBRANCH  64  68
ENDBRANCH  47  61
BRANCH  48  72
ATOM     72  C   UNL A   1      42.249  24.655  27.474  1.00  0.00     0.023 A 
ATOM     73  C   UNL A   1      41.663  23.385  27.603  1.00  0.00     0.031 A 
ATOM     74  C   UNL A   1      42.929  24.948  26.279  1.00  0.00     0.131 A 
ATOM     75  C   UNL A   1      41.810  22.439  26.576  1.00  0.00     0.055 A 
ATOM     76  C   UNL A   1      43.027  24.021  25.239  1.00  0.00     0.041 A 
ATOM     77  F   UNL A   1      43.502  26.149  26.100  1.00  0.00    -0.206 F 
ATOM     78  C   UNL A   1      42.477  22.753  25.391  1.00  0.00     0.022 A 
BRANCH  75  79
ATOM     79  S   UNL A   1      41.184  20.758  26.849  1.00  0.00     0.124 S 
ATOM     80  O   UNL A   1      40.779  20.816  28.249  1.00  0.00    -0.237 OA
ATOM     81  O   UNL A   1      40.106  20.674  25.870  1.00  0.00    -0.237 OA
ATOM     82  O   UNL A   1      42.344  19.914  26.570  1.00  0.00    -0.744 OA
ENDBRANCH  75  79
ENDBRANCH  48  72
BRANCH  60  83
ATOM     83  C   UNL A   1      46.334  25.812  33.002  1.00  0.00     0.023 A 
ATOM     84  C   UNL A   1      46.229  24.706  33.864  1.00  0.00     0.031 A 
ATOM     85  C   UNL A   1      47.622  26.249  32.643  1.00  0.00     0.131 A 
ATOM     86  C   UNL A   1      47.388  24.109  34.380  1.00  0.00     0.055 A 
ATOM     87  C   UNL A   1      48.772  25.614  33.111  1.00  0.00     0.041 A 
ATOM     88  F   UNL A   1      47.782  27.302  31.826  1.00  0.00    -0.206 F 
ATOM     89  C   UNL A   1      48.659  24.544  33.995  1.00  0.00     0.022 A 
BRANCH  86  90
ATOM     90  S   UNL A   1      47.216  22.811  35.635  1.00  0.00     0.124 S 
ATOM     91  O   UNL A   1      45.917  22.235  35.300  1.00  0.00    -0.237 OA
ATOM     92  O   UNL A   1      48.375  21.964  35.370  1.00  0.00    -0.237 OA
ATOM     93  O   UNL A   1      47.262  23.545  36.898  1.00  0.00    -0.744 OA
ENDBRANCH  86  90
ENDBRANCH  60  83
ENDBRANCH  34  35
ENDBRANCH  26  29
ENDBRANCH  24  25
ENDBRANCH  23  24
ENDBRANCH   1  23
TORSDOF 18
ENDMDL
MODEL 2
REMARK VINA RESULT:     -11.4      2.307      2.914
REMARK SMILES C[C@@H](CS(=O)(=O)[C@@H]1CCC[C@H](S(C)(=O)=O)C1)C(=O)NCCCCNC(=O)c1ccc(-c2c3nc(c(-c4cc(S(=O)(=O)[O-])ccc4F)c4ccc([nH]4)c(-c4cc(S(=O)(=O)[O-])ccc4F)c4nc(c(-c5cc(S(=O)(=O)[O-])ccc5F)c5ccc2[nH]5)C=C4)C=C3)cc1
REMARK SMILES IDX 21 1 20 2 19 3 17 4 18 5 2 7 1 8 3 9 4 10 5 11 6 12 7 13
REMARK SMILES IDX 8 14 16 15 9 16 11 17 10 18 12 19 13 20 14 21 15 22 22 23
REMARK SMILES IDX 23 24 24 25 25 26 26 28 27 29 28 30 89 31 29 32 88 33 30 34
REMARK SMILES IDX 31 35 32 36 82 37 33 38 87 39 81 40 83 41 34 42 86 43 80 44
REMARK SMILES IDX 79 45 35 47 67 48 47 49 66 50 48 51 51 52 65 53 84 54 49 55
REMARK SMILES IDX 50 56 64 58 85 59 52 60 36 61 37 62 45 63 38 64 44 65 46 66
REMARK SMILES IDX 43 67 39 68 40 69 41 70 42 71 68 72 69 73 77 74 70 75 76 76
REMARK SMILES IDX 78 77 75 78 71 79 72 80 73 81 74 82 53 83 54 84 62 85 55 86
REMARK SMILES IDX 61 87 63 88 60 89 56 90 57 91 58 92 59 93
REMARK H PARENT 19 6 24 27 83 46 51 57
REMARK Flexibility Score: inf
ROOT
ATOM      1  C   UNL A   1      31.961  27.531  26.388  1.00  0.00     0.023 C 
ENDROOT
BRANCH   1   2
ATOM      2  C   UNL A   1      31.155  26.717  25.394  1.00  0.00     0.116 C 
BRANCH   2   3
ATOM      3  N   UNL A   1      30.789  27.357  24.161  1.00  0.00    -0.356 N 
ATOM      4  C   UNL A   1      31.424  27.238  22.960  1.00  0.00     0.223 C 
ATOM      5  O   UNL A   1      30.778  27.501  21.942  1.00  0.00    -0.275 OA
ATOM      6  H   UNL A   1      29.997  27.941  24.186  1.00  0.00     0.163 HD
BRANCH   4   7
ATOM      7  C   UNL A   1      32.928  26.956  22.847  1.00  0.00     0.090 C 
ATOM      8  C   UNL A   1      33.757  28.229  23.037  1.00  0.00     0.019 C 
BRANCH   7   9
ATOM      9  C   UNL A   1      33.563  25.635  23.304  1.00  0.00     0.150 C 
BRANCH   9  10
ATOM     10  S   UNL A   1      33.002  23.981  22.966  1.00  0.00     0.153 S 
ATOM     11  O   UNL A   1      31.557  23.978  23.077  1.00  0.00    -0.229 OA
ATOM     12  O   UNL A   1      33.597  23.664  21.676  1.00  0.00    -0.229 OA
BRANCH  10  13
ATOM     13  C   UNL A   1      33.656  22.741  24.153  1.00  0.00     0.110 C 
ATOM     14  C   UNL A   1      35.174  22.676  24.193  1.00  0.00     0.020 C 
ATOM     15  C   UNL A   1      33.055  21.345  23.901  1.00  0.00     0.039 C 
ATOM     16  C   UNL A   1      35.691  21.641  25.178  1.00  0.00     0.003 C 
ATOM     17  C   UNL A   1      33.615  20.268  24.853  1.00  0.00     0.109 C 
ATOM     18  C   UNL A   1      35.145  20.266  24.854  1.00  0.00     0.020 C 
BRANCH  17  19
ATOM     19  S   UNL A   1      32.972  18.640  24.403  1.00  0.00     0.150 S 
ATOM     20  C   UNL A   1      34.402  17.581  24.372  1.00  0.00     0.158 C 
ATOM     21  O   UNL A   1      32.130  18.182  25.489  1.00  0.00    -0.229 OA
ATOM     22  O   UNL A   1      32.465  18.712  23.045  1.00  0.00    -0.229 OA
ENDBRANCH  17  19
ENDBRANCH  10  13
ENDBRANCH   9  10
ENDBRANCH   7   9
ENDBRANCH   4   7
ENDBRANCH   2   3
ENDBRANCH   1   2
BRANCH   1  23
ATOM     23  C   UNL A   1      31.619  29.014  26.449  1.00  0.00     0.023 C 
BRANCH  23  24
ATOM     24  C   UNL A   1      32.759  29.984  26.151  1.00  0.00     0.116 C 
BRANCH  24  25
ATOM     25  N   UNL A   1      32.528  31.346  26.616  1.00  0.00    -0.352 N 
ATOM     26  C   UNL A   1      33.352  32.131  27.397  1.00  0.00     0.251 C 
ATOM     27  H   UNL A   1      31.680  31.759  26.337  1.00  0.00     0.163 HD
ATOM     28  O   UNL A   1      32.977  33.235  27.776  1.00  0.00    -0.269 OA
BRANCH  26  29
ATOM     29  C   UNL A   1      34.663  31.587  27.817  1.00  0.00     0.039 A 
ATOM     30  C   UNL A   1      35.717  32.467  28.064  1.00  0.00     0.014 A 
ATOM     31  C   UNL A   1      34.805  30.221  28.078  1.00  0.00     0.014 A 
ATOM     32  C   UNL A   1      36.877  31.993  28.682  1.00  0.00     0.010 A 
ATOM     33  C   UNL A   1      35.922  29.770  28.773  1.00  0.00     0.010 A 
ATOM     34  C   UNL A   1      36.964  30.653  29.098  1.00  0.00    -0.014 A 
BRANCH  34  35
ATOM     35  C   UNL A   1      38.121  30.160  29.893  1.00  0.00     0.031 A 
ATOM     36  C   UNL A   1      38.347  30.671  31.290  1.00  0.00     0.074 A 
ATOM     37  C   UNL A   1      39.014  29.319  29.331  1.00  0.00     0.049 A 
ATOM     38  N   UNL A   1      39.340  30.438  32.107  1.00  0.00    -0.248 NA
ATOM     39  C   UNL A   1      37.337  31.599  31.821  1.00  0.00     0.031 C 
ATOM     40  C   UNL A   1      38.937  28.791  27.965  1.00  0.00     0.029 A 
ATOM     41  N   UNL A   1      40.167  28.765  29.829  1.00  0.00    -0.354 N 
ATOM     42  C   UNL A   1      39.087  31.204  33.241  1.00  0.00     0.074 A 
ATOM     43  C   UNL A   1      37.881  31.957  32.974  1.00  0.00     0.031 C 
ATOM     44  C   UNL A   1      39.977  27.970  27.750  1.00  0.00     0.029 A 
ATOM     45  C   UNL A   1      40.822  27.945  28.938  1.00  0.00     0.049 A 
ATOM     46  H   UNL A   1      40.495  28.939  30.741  1.00  0.00     0.167 HD
ATOM     47  C   UNL A   1      39.782  31.255  34.404  1.00  0.00     0.034 A 
ATOM     48  C   UNL A   1      41.976  27.260  29.061  1.00  0.00     0.034 A 
ATOM     49  C   UNL A   1      40.972  30.483  34.662  1.00  0.00     0.049 A 
ATOM     50  C   UNL A   1      42.739  27.342  30.360  1.00  0.00     0.074 A 
ATOM     51  C   UNL A   1      41.713  30.405  35.829  1.00  0.00     0.029 A 
ATOM     52  N   UNL A   1      41.601  29.657  33.739  1.00  0.00    -0.354 N 
ATOM     53  N   UNL A   1      42.452  28.024  31.445  1.00  0.00    -0.248 NA
ATOM     54  C   UNL A   1      43.974  26.555  30.454  1.00  0.00     0.031 C 
ATOM     55  C   UNL A   1      42.823  29.588  35.591  1.00  0.00     0.029 A 
ATOM     56  C   UNL A   1      42.737  29.093  34.299  1.00  0.00     0.049 A 
ATOM     57  H   UNL A   1      41.286  29.497  32.820  1.00  0.00     0.167 HD
ATOM     58  C   UNL A   1      43.454  27.720  32.361  1.00  0.00     0.074 A 
ATOM     59  C   UNL A   1      44.345  26.783  31.706  1.00  0.00     0.031 C 
ATOM     60  C   UNL A   1      43.622  28.168  33.631  1.00  0.00     0.034 A 
BRANCH  47  61
ATOM     61  C   UNL A   1      39.278  32.198  35.471  1.00  0.00     0.023 A 
ATOM     62  C   UNL A   1      39.706  33.538  35.534  1.00  0.00     0.031 A 
ATOM     63  C   UNL A   1      38.383  31.748  36.457  1.00  0.00     0.131 A 
ATOM     64  C   UNL A   1      39.306  34.351  36.604  1.00  0.00     0.055 A 
ATOM     65  C   UNL A   1      37.922  32.588  37.473  1.00  0.00     0.041 A 
ATOM     66  F   UNL A   1      37.955  30.476  36.462  1.00  0.00    -0.206 F 
ATOM     67  C   UNL A   1      38.397  33.894  37.561  1.00  0.00     0.022 A 
BRANCH  64  68
ATOM     68  S   UNL A   1      40.111  35.963  36.811  1.00  0.00     0.124 S 
ATOM     69  O   UNL A   1      39.772  36.625  35.553  1.00  0.00    -0.237 OA
ATOM     70  O   UNL A   1      39.460  36.489  38.005  1.00  0.00    -0.237 OA
ATOM     71  O   UNL A   1      41.523  35.623  36.968  1.00  0.00    -0.744 OA
ENDBRANCH  64  68
ENDBRANCH  47  61
BRANCH  48  72
ATOM     72  C   UNL A   1      42.495  26.436  27.931  1.00  0.00     0.023 A 
ATOM     73  C   UNL A   1      42.052  25.117  27.737  1.00  0.00     0.031 A 
ATOM     74  C   UNL A   1      43.477  26.935  27.056  1.00  0.00     0.131 A 
ATOM     75  C   UNL A   1      42.624  24.327  26.727  1.00  0.00     0.055 A 
ATOM     76  C   UNL A   1      44.004  26.162  26.020  1.00  0.00     0.041 A 
ATOM     77  F   UNL A   1      43.931  28.191  27.192  1.00  0.00    -0.206 F 
ATOM     78  C   UNL A   1      43.588  24.845  25.860  1.00  0.00     0.022 A 
BRANCH  75  79
ATOM     79  S   UNL A   1      42.146  22.580  26.616  1.00  0.00     0.124 S 
ATOM     80  O   UNL A   1      40.756  22.625  27.055  1.00  0.00    -0.237 OA
ATOM     81  O   UNL A   1      42.366  22.296  25.202  1.00  0.00    -0.237 OA
ATOM     82  O   UNL A   1      43.070  21.917  27.534  1.00  0.00    -0.744 OA
ENDBRANCH  75  79
ENDBRANCH  48  72
BRANCH  60  83
ATOM     83  C   UNL A   1      44.787  27.607  34.409  1.00  0.00     0.023 A 
ATOM     84  C   UNL A   1      44.692  26.399  35.121  1.00  0.00     0.031 A 
ATOM     85  C   UNL A   1      46.010  28.301  34.445  1.00  0.00     0.131 A 
ATOM     86  C   UNL A   1      45.781  25.949  35.883  1.00  0.00     0.055 A 
ATOM     87  C   UNL A   1      47.109  27.818  35.155  1.00  0.00     0.041 A 
ATOM     88  F   UNL A   1      46.157  29.461  33.786  1.00  0.00    -0.206 F 
ATOM     89  C   UNL A   1      46.995  26.641  35.890  1.00  0.00     0.022 A 
BRANCH  86  90
ATOM     90  S   UNL A   1      45.562  24.491  36.940  1.00  0.00     0.124 S 
ATOM     91  O   UNL A   1      45.287  23.444  35.961  1.00  0.00    -0.237 OA
ATOM     92  O   UNL A   1      46.850  24.403  37.622  1.00  0.00    -0.237 OA
ATOM     93  O   UNL A   1      44.433  24.853  37.795  1.00  0.00    -0.744 OA
ENDBRANCH  86  90
ENDBRANCH  60  83
ENDBRANCH  34  35
ENDBRANCH  26  29
ENDBRANCH  24  25
ENDBRANCH  23  24
ENDBRANCH   1  23
TORSDOF 18
ENDMDL
MODEL 3
REMARK VINA RESULT:     -11.4      4.819      9.874
REMARK SMILES C[C@@H](CS(=O)(=O)[C@@H]1CCC[C@H](S(C)(=O)=O)C1)C(=O)NCCCCNC(=O)c1ccc(-c2c3nc(c(-c4cc(S(=O)(=O)[O-])ccc4F)c4ccc([nH]4)c(-c4cc(S(=O)(=O)[O-])ccc4F)c4nc(c(-c5cc(S(=O)(=O)[O-])ccc5F)c5ccc2[nH]5)C=C4)C=C3)cc1
REMARK SMILES IDX 21 1 20 2 19 3 17 4 18 5 2 7 1 8 3 9 4 10 5 11 6 12 7 13
REMARK SMILES IDX 8 14 16 15 9 16 11 17 10 18 12 19 13 20 14 21 15 22 22 23
REMARK SMILES IDX 23 24 24 25 25 26 26 28 27 29 28 30 89 31 29 32 88 33 30 34
REMARK SMILES IDX 31 35 32 36 82 37 33 38 87 39 81 40 83 41 34 42 86 43 80 44
REMARK SMILES IDX 79 45 35 47 67 48 47 49 66 50 48 51 51 52 65 53 84 54 49 55
REMARK SMILES IDX 50 56 64 58 85 59 52 60 36 61 37 62 45 63 38 64 44 65 46 66
REMARK SMILES IDX 43 67 39 68 40 69 41 70 42 71 68 72 69 73 77 74 70 75 76 76
REMARK SMILES IDX 78 77 75 78 71 79 72 80 73 81 74 82 53 83 54 84 62 85 55 86
REMARK SMILES IDX 61 87 63 88 60 89 56 90 57 91 58 92 59 93
REMARK H PARENT 19 6 24 27 83 46 51 57
REMARK Flexibility Score: inf
ROOT
ATOM      1  C   UNL A   1      35.660  21.486  26.140  1.00  0.00     0.023 C 
ENDROOT
BRANCH   1   2
ATOM      2  C   UNL A   1      34.413  21.464  27.004  1.00  0.00     0.116 C 
BRANCH   2   3
ATOM      3  N   UNL A   1      33.372  20.546  26.635  1.00  0.00    -0.356 N 
ATOM      4  C   UNL A   1      32.546  20.639  25.554  1.00  0.00     0.223 C 
ATOM      5  O   UNL A   1      32.007  19.604  25.154  1.00  0.00    -0.275 OA
ATOM      6  H   UNL A   1      33.242  19.768  27.224  1.00  0.00     0.163 HD
BRANCH   4   7
ATOM      7  C   UNL A   1      32.146  21.986  24.937  1.00  0.00     0.090 C 
ATOM      8  C   UNL A   1      32.628  22.109  23.489  1.00  0.00     0.019 C 
BRANCH   7   9
ATOM      9  C   UNL A   1      30.847  22.715  25.305  1.00  0.00     0.150 C 
BRANCH   9  10
ATOM     10  S   UNL A   1      30.603  23.938  26.575  1.00  0.00     0.153 S 
ATOM     11  O   UNL A   1      29.443  23.540  27.347  1.00  0.00    -0.229 OA
ATOM     12  O   UNL A   1      31.892  24.008  27.247  1.00  0.00    -0.229 OA
BRANCH  10  13
ATOM     13  C   UNL A   1      30.279  25.617  25.906  1.00  0.00     0.110 C 
ATOM     14  C   UNL A   1      30.010  25.638  24.410  1.00  0.00     0.020 C 
ATOM     15  C   UNL A   1      31.410  26.600  26.271  1.00  0.00     0.039 C 
ATOM     16  C   UNL A   1      29.750  27.037  23.879  1.00  0.00     0.003 C 
ATOM     17  C   UNL A   1      31.192  28.011  25.688  1.00  0.00     0.109 C 
ATOM     18  C   UNL A   1      30.915  27.956  24.185  1.00  0.00     0.020 C 
BRANCH  17  19
ATOM     19  S   UNL A   1      32.622  29.058  26.039  1.00  0.00     0.150 S 
ATOM     20  C   UNL A   1      33.886  27.931  26.586  1.00  0.00     0.158 C 
ATOM     21  O   UNL A   1      33.075  29.624  24.784  1.00  0.00    -0.229 OA
ATOM     22  O   UNL A   1      32.295  29.912  27.166  1.00  0.00    -0.229 OA
ENDBRANCH  17  19
ENDBRANCH  10  13
ENDBRANCH   9  10
ENDBRANCH   7   9
ENDBRANCH   4   7
ENDBRANCH   2   3
ENDBRANCH   1   2
BRANCH   1  23
ATOM     23  C   UNL A   1      36.062  22.854  25.607  1.00  0.00     0.023 C 
BRANCH  23  24
ATOM     24  C   UNL A   1      37.431  22.943  24.938  1.00  0.00     0.116 C 
BRANCH  24  25
ATOM     25  N   UNL A   1      38.463  22.126  25.565  1.00  0.00    -0.352 N 
ATOM     26  C   UNL A   1      39.470  22.532  26.416  1.00  0.00     0.251 C 
ATOM     27  H   UNL A   1      38.436  21.165  25.359  1.00  0.00     0.163 HD
ATOM     28  O   UNL A   1      40.317  21.732  26.799  1.00  0.00    -0.269 OA
BRANCH  26  29
ATOM     29  C   UNL A   1      39.542  23.959  26.803  1.00  0.00     0.039 A 
ATOM     30  C   UNL A   1      39.196  24.330  28.104  1.00  0.00     0.014 A 
ATOM     31  C   UNL A   1      40.065  24.902  25.914  1.00  0.00     0.014 A 
ATOM     32  C   UNL A   1      39.482  25.622  28.549  1.00  0.00     0.010 A 
ATOM     33  C   UNL A   1      40.430  26.158  26.386  1.00  0.00     0.010 A 
ATOM     34  C   UNL A   1      40.158  26.528  27.712  1.00  0.00    -0.014 A 
BRANCH  34  35
ATOM     35  C   UNL A   1      40.612  27.855  28.210  1.00  0.00     0.031 A 
ATOM     36  C   UNL A   1      42.081  28.151  28.334  1.00  0.00     0.074 A 
ATOM     37  C   UNL A   1      39.704  28.762  28.630  1.00  0.00     0.049 A 
ATOM     38  N   UNL A   1      42.676  29.205  28.830  1.00  0.00    -0.248 NA
ATOM     39  C   UNL A   1      43.004  27.103  27.871  1.00  0.00     0.031 C 
ATOM     40  C   UNL A   1      38.250  28.575  28.612  1.00  0.00     0.029 A 
ATOM     41  N   UNL A   1      39.865  30.016  29.163  1.00  0.00    -0.354 N 
ATOM     42  C   UNL A   1      44.040  28.940  28.759  1.00  0.00     0.074 A 
ATOM     43  C   UNL A   1      44.177  27.599  28.232  1.00  0.00     0.031 C 
ATOM     44  C   UNL A   1      37.657  29.685  29.081  1.00  0.00     0.029 A 
ATOM     45  C   UNL A   1      38.681  30.645  29.478  1.00  0.00     0.049 A 
ATOM     46  H   UNL A   1      40.747  30.430  29.308  1.00  0.00     0.167 HD
ATOM     47  C   UNL A   1      45.081  29.749  29.078  1.00  0.00     0.034 A 
ATOM     48  C   UNL A   1      38.447  31.851  30.032  1.00  0.00     0.034 A 
ATOM     49  C   UNL A   1      44.927  31.091  29.583  1.00  0.00     0.049 A 
ATOM     50  C   UNL A   1      39.621  32.728  30.391  1.00  0.00     0.074 A 
ATOM     51  C   UNL A   1      45.911  32.020  29.872  1.00  0.00     0.029 A 
ATOM     52  N   UNL A   1      43.713  31.695  29.881  1.00  0.00    -0.354 N 
ATOM     53  N   UNL A   1      40.904  32.486  30.259  1.00  0.00    -0.248 NA
ATOM     54  C   UNL A   1      39.313  34.044  30.964  1.00  0.00     0.031 C 
ATOM     55  C   UNL A   1      45.298  33.158  30.406  1.00  0.00     0.029 A 
ATOM     56  C   UNL A   1      43.925  32.972  30.380  1.00  0.00     0.049 A 
ATOM     57  H   UNL A   1      42.830  31.278  29.756  1.00  0.00     0.167 HD
ATOM     58  C   UNL A   1      41.555  33.634  30.702  1.00  0.00     0.074 A 
ATOM     59  C   UNL A   1      40.522  34.572  31.092  1.00  0.00     0.031 C 
ATOM     60  C   UNL A   1      42.885  33.894  30.774  1.00  0.00     0.034 A 
BRANCH  47  61
ATOM     61  C   UNL A   1      46.472  29.186  28.911  1.00  0.00     0.023 A 
ATOM     62  C   UNL A   1      47.072  29.065  27.643  1.00  0.00     0.031 A 
ATOM     63  C   UNL A   1      47.198  28.734  30.026  1.00  0.00     0.131 A 
ATOM     64  C   UNL A   1      48.317  28.433  27.515  1.00  0.00     0.055 A 
ATOM     65  C   UNL A   1      48.475  28.183  29.900  1.00  0.00     0.041 A 
ATOM     66  F   UNL A   1      46.672  28.805  31.259  1.00  0.00    -0.206 F 
ATOM     67  C   UNL A   1      49.035  28.013  28.637  1.00  0.00     0.022 A 
BRANCH  64  68
ATOM     68  S   UNL A   1      48.913  28.030  25.850  1.00  0.00     0.124 S 
ATOM     69  O   UNL A   1      47.786  28.456  25.023  1.00  0.00    -0.237 OA
ATOM     70  O   UNL A   1      50.124  28.837  25.745  1.00  0.00    -0.237 OA
ATOM     71  O   UNL A   1      49.128  26.586  25.903  1.00  0.00    -0.744 OA
ENDBRANCH  64  68
ENDBRANCH  47  61
BRANCH  48  72
ATOM     72  C   UNL A   1      37.052  32.313  30.289  1.00  0.00     0.023 A 
ATOM     73  C   UNL A   1      36.302  32.939  29.280  1.00  0.00     0.031 A 
ATOM     74  C   UNL A   1      36.464  32.178  31.559  1.00  0.00     0.131 A 
ATOM     75  C   UNL A   1      35.027  33.451  29.571  1.00  0.00     0.055 A 
ATOM     76  C   UNL A   1      35.175  32.643  31.829  1.00  0.00     0.041 A 
ATOM     77  F   UNL A   1      37.134  31.582  32.558  1.00  0.00    -0.206 F 
ATOM     78  C   UNL A   1      34.455  33.296  30.835  1.00  0.00     0.022 A 
BRANCH  75  79
ATOM     79  S   UNL A   1      34.160  34.399  28.290  1.00  0.00     0.124 S 
ATOM     80  O   UNL A   1      33.017  33.538  28.007  1.00  0.00    -0.237 OA
ATOM     81  O   UNL A   1      33.868  35.648  28.983  1.00  0.00    -0.237 OA
ATOM     82  O   UNL A   1      35.147  34.500  27.217  1.00  0.00    -0.744 OA
ENDBRANCH  75  79
ENDBRANCH  48  72
BRANCH  60  83
ATOM     83  C   UNL A   1      43.292  35.268  31.248  1.00  0.00     0.023 A 
ATOM     84  C   UNL A   1      43.530  36.322  30.350  1.00  0.00     0.031 A 
ATOM     85  C   UNL A   1      43.454  35.520  32.622  1.00  0.00     0.131 A 
ATOM     86  C   UNL A   1      43.969  37.565  30.831  1.00  0.00     0.055 A 
ATOM     87  C   UNL A   1      43.832  36.775  33.099  1.00  0.00     0.041 A 
ATOM     88  F   UNL A   1      43.244  34.549  33.525  1.00  0.00    -0.206 F 
ATOM     89  C   UNL A   1      44.105  37.803  32.201  1.00  0.00     0.022 A 
BRANCH  86  90
ATOM     90  S   UNL A   1      44.449  38.842  29.636  1.00  0.00     0.124 S 
ATOM     91  O   UNL A   1      45.136  38.060  28.614  1.00  0.00    -0.237 OA
ATOM     92  O   UNL A   1      43.161  39.407  29.247  1.00  0.00    -0.237 OA
ATOM     93  O   UNL A   1      45.306  39.735  30.414  1.00  0.00    -0.744 OA
ENDBRANCH  86  90
ENDBRANCH  60  83
ENDBRANCH  34  35
ENDBRANCH  26  29
ENDBRANCH  24  25
ENDBRANCH  23  24
ENDBRANCH   1  23
TORSDOF 18
ENDMDL
