MODEL 1
REMARK VINA RESULT:     -11.7      0.000      0.000
REMARK SMILES C[N@H+]1CCO[C@@H](COc2ccc(C(=O)NCCCCNC(=O)c3ccc(-c4c5nc(c(-c6cc(S(=O)(=O)[O-])ccc6F)c6ccc([nH]6)c(-c6cc(S(=O)(=O)[O-])ccc6F)c6nc(c(-c7cc(S(=O)(=O)[O-])ccc7F)c7ccc4[nH]7)C=C6)C=C5)cc3)cc2N)C1
REMARK SMILES IDX 17 1 16 2 15 3 13 4 14 5 12 7 9 8 10 9 87 10 11 11 86 12
REMARK SMILES IDX 8 13 7 14 6 15 1 16 2 17 3 18 89 19 4 21 5 22 88 23 18 26
REMARK SMILES IDX 19 27 20 28 21 29 22 31 23 32 24 33 85 34 25 35 84 36 26 37
REMARK SMILES IDX 27 38 28 39 78 40 29 41 83 42 77 43 79 44 30 45 82 46 76 47
REMARK SMILES IDX 75 48 31 50 63 51 43 52 62 53 44 54 47 55 61 56 80 57 45 58
REMARK SMILES IDX 46 59 60 61 81 62 48 63 32 64 33 65 41 66 34 67 40 68 42 69
REMARK SMILES IDX 39 70 35 71 36 72 37 73 38 74 64 75 65 76 73 77 66 78 72 79
REMARK SMILES IDX 74 80 71 81 67 82 68 83 69 84 70 85 49 86 50 87 58 88 51 89
REMARK SMILES IDX 57 90 59 91 56 92 52 93 53 94 54 95 55 96
REMARK H PARENT 15 6 2 20 88 24 88 25 20 30 79 49 47 60
REMARK Flexibility Score: inf
ROOT
ATOM      1  C   UNL A   1      32.594  26.977  26.092  1.00  0.00     0.023 C 
ENDROOT
BRANCH   1   2
ATOM      2  C   UNL A   1      31.939  26.305  24.881  1.00  0.00     0.116 C 
BRANCH   2   3
ATOM      3  N   UNL A   1      32.773  26.395  23.693  1.00  0.00    -0.352 N 
ATOM      4  C   UNL A   1      33.500  25.428  23.039  1.00  0.00     0.251 C 
ATOM      5  O   UNL A   1      33.998  25.682  21.944  1.00  0.00    -0.269 OA
ATOM      6  H   UNL A   1      32.825  27.292  23.290  1.00  0.00     0.163 HD
BRANCH   4   7
ATOM      7  C   UNL A   1      33.656  24.062  23.598  1.00  0.00     0.042 A 
ATOM      8  C   UNL A   1      33.744  21.527  24.733  1.00  0.00     0.142 A 
ATOM      9  C   UNL A   1      32.915  21.756  23.635  1.00  0.00     0.049 A 
ATOM     10  C   UNL A   1      34.642  22.505  25.184  1.00  0.00     0.075 A 
ATOM     11  C   UNL A   1      32.870  23.031  23.068  1.00  0.00     0.018 A 
ATOM     12  C   UNL A   1      34.576  23.774  24.612  1.00  0.00     0.043 A 
BRANCH   8  13
ATOM     13  O   UNL A   1      33.723  20.327  25.396  1.00  0.00    -0.488 OA
BRANCH  13  14
ATOM     14  C   UNL A   1      34.345  19.270  24.643  1.00  0.00     0.267 C 
BRANCH  14  15
ATOM     15  C   UNL A   1      33.355  18.317  23.934  1.00  0.00     0.210 C 
ATOM     16  C   UNL A   1      35.233  15.877  25.200  1.00  0.00     0.332 C 
ATOM     17  N   UNL A   1      34.011  15.847  24.413  1.00  0.00    -0.333 N 
ATOM     18  C   UNL A   1      32.790  15.799  25.226  1.00  0.00     0.290 C 
ATOM     19  C   UNL A   1      33.908  16.948  23.435  1.00  0.00     0.298 C 
ATOM     20  H   UNL A   1      34.082  14.970  23.896  1.00  0.00     0.348 HD
ATOM     21  C   UNL A   1      32.389  17.161  25.799  1.00  0.00     0.222 C 
ATOM     22  O   UNL A   1      32.181  18.122  24.759  1.00  0.00    -0.363 OA
ENDBRANCH  14  15
ENDBRANCH  13  14
ENDBRANCH   8  13
BRANCH  10  23
ATOM     23  N   UNL A   1      35.416  22.296  26.324  1.00  0.00    -0.396 N 
ATOM     24  H   UNL A   1      36.242  21.764  26.267  1.00  0.00     0.156 HD
ATOM     25  H   UNL A   1      35.136  22.681  27.186  1.00  0.00     0.156 HD
ENDBRANCH  10  23
ENDBRANCH   4   7
ENDBRANCH   2   3
ENDBRANCH   1   2
BRANCH   1  26
ATOM     26  C   UNL A   1      32.115  28.399  26.379  1.00  0.00     0.023 C 
BRANCH  26  27
ATOM     27  C   UNL A   1      33.028  29.508  25.873  1.00  0.00     0.116 C 
BRANCH  27  28
ATOM     28  N   UNL A   1      32.639  30.830  26.337  1.00  0.00    -0.352 N 
ATOM     29  C   UNL A   1      33.261  31.638  27.264  1.00  0.00     0.251 C 
ATOM     30  H   UNL A   1      31.819  31.198  25.935  1.00  0.00     0.163 HD
ATOM     31  O   UNL A   1      32.727  32.676  27.623  1.00  0.00    -0.269 OA
BRANCH  29  32
ATOM     32  C   UNL A   1      34.554  31.212  27.846  1.00  0.00     0.039 A 
ATOM     33  C   UNL A   1      35.579  32.153  27.972  1.00  0.00     0.014 A 
ATOM     34  C   UNL A   1      34.741  29.903  28.298  1.00  0.00     0.014 A 
ATOM     35  C   UNL A   1      36.763  31.800  28.625  1.00  0.00     0.010 A 
ATOM     36  C   UNL A   1      35.888  29.577  29.016  1.00  0.00     0.010 A 
ATOM     37  C   UNL A   1      36.910  30.523  29.190  1.00  0.00    -0.014 A 
BRANCH  37  38
ATOM     38  C   UNL A   1      38.123  30.155  29.965  1.00  0.00     0.031 A 
ATOM     39  C   UNL A   1      39.124  29.191  29.386  1.00  0.00     0.074 A 
ATOM     40  C   UNL A   1      38.290  30.634  31.214  1.00  0.00     0.049 A 
ATOM     41  N   UNL A   1      40.198  28.683  29.931  1.00  0.00    -0.248 NA
ATOM     42  C   UNL A   1      38.859  28.715  28.020  1.00  0.00     0.031 C 
ATOM     43  C   UNL A   1      37.371  31.543  31.900  1.00  0.00     0.029 A 
ATOM     44  N   UNL A   1      39.286  30.417  32.133  1.00  0.00    -0.354 N 
ATOM     45  C   UNL A   1      40.733  27.820  28.981  1.00  0.00     0.074 A 
ATOM     46  C   UNL A   1      39.822  27.822  27.856  1.00  0.00     0.031 C 
ATOM     47  C   UNL A   1      37.861  31.831  33.116  1.00  0.00     0.029 A 
ATOM     48  C   UNL A   1      39.102  31.091  33.319  1.00  0.00     0.049 A 
ATOM     49  H   UNL A   1      40.061  29.835  31.959  1.00  0.00     0.167 HD
ATOM     50  C   UNL A   1      41.890  27.113  29.030  1.00  0.00     0.034 A 
ATOM     51  C   UNL A   1      39.845  31.102  34.443  1.00  0.00     0.034 A 
ATOM     52  C   UNL A   1      42.789  27.126  30.159  1.00  0.00     0.049 A 
ATOM     53  C   UNL A   1      41.105  30.276  34.493  1.00  0.00     0.074 A 
ATOM     54  C   UNL A   1      44.006  26.483  30.301  1.00  0.00     0.029 A 
ATOM     55  N   UNL A   1      42.564  27.812  31.347  1.00  0.00    -0.354 N 
ATOM     56  N   UNL A   1      41.621  29.498  33.568  1.00  0.00    -0.248 NA
ATOM     57  C   UNL A   1      41.888  30.339  35.733  1.00  0.00     0.031 C 
ATOM     58  C   UNL A   1      44.484  26.725  31.595  1.00  0.00     0.029 A 
ATOM     59  C   UNL A   1      43.605  27.582  32.235  1.00  0.00     0.049 A 
ATOM     60  H   UNL A   1      41.780  28.378  31.531  1.00  0.00     0.167 HD
ATOM     61  C   UNL A   1      42.807  29.006  34.107  1.00  0.00     0.074 A 
ATOM     62  C   UNL A   1      42.934  29.585  35.429  1.00  0.00     0.031 C 
ATOM     63  C   UNL A   1      43.713  28.158  33.557  1.00  0.00     0.034 A 
BRANCH  50  64
ATOM     64  C   UNL A   1      42.224  26.253  27.833  1.00  0.00     0.023 A 
ATOM     65  C   UNL A   1      41.698  24.957  27.689  1.00  0.00     0.031 A 
ATOM     66  C   UNL A   1      43.112  26.713  26.846  1.00  0.00     0.131 A 
ATOM     67  C   UNL A   1      42.134  24.135  26.639  1.00  0.00     0.055 A 
ATOM     68  C   UNL A   1      43.472  25.923  25.752  1.00  0.00     0.041 A 
ATOM     69  F   UNL A   1      43.664  27.934  26.936  1.00  0.00    -0.206 F 
ATOM     70  C   UNL A   1      42.997  24.617  25.654  1.00  0.00     0.022 A 
BRANCH  67  71
ATOM     71  S   UNL A   1      41.689  22.377  26.676  1.00  0.00     0.124 S 
ATOM     72  O   UNL A   1      40.238  22.443  26.839  1.00  0.00    -0.237 OA
ATOM     73  O   UNL A   1      42.165  21.903  25.381  1.00  0.00    -0.237 OA
ATOM     74  O   UNL A   1      42.415  21.863  27.836  1.00  0.00    -0.744 OA
ENDBRANCH  67  71
ENDBRANCH  50  64
BRANCH  51  75
ATOM     75  C   UNL A   1      39.424  31.917  35.619  1.00  0.00     0.023 A 
ATOM     76  C   UNL A   1      38.631  31.359  36.634  1.00  0.00     0.031 A 
ATOM     77  C   UNL A   1      39.772  33.275  35.726  1.00  0.00     0.131 A 
ATOM     78  C   UNL A   1      38.173  32.164  37.688  1.00  0.00     0.055 A 
ATOM     79  C   UNL A   1      39.358  34.059  36.804  1.00  0.00     0.041 A 
ATOM     80  F   UNL A   1      40.533  33.857  34.786  1.00  0.00    -0.206 F 
ATOM     81  C   UNL A   1      38.543  33.507  37.787  1.00  0.00     0.022 A 
BRANCH  78  82
ATOM     82  S   UNL A   1      37.019  31.447  38.890  1.00  0.00     0.124 S 
ATOM     83  O   UNL A   1      37.809  31.478  40.115  1.00  0.00    -0.237 OA
ATOM     84  O   UNL A   1      35.898  32.379  38.826  1.00  0.00    -0.237 OA
ATOM     85  O   UNL A   1      36.751  30.115  38.353  1.00  0.00    -0.744 OA
ENDBRANCH  78  82
ENDBRANCH  51  75
BRANCH  63  86
ATOM     86  C   UNL A   1      44.945  27.847  34.372  1.00  0.00     0.023 A 
ATOM     87  C   UNL A   1      44.996  26.751  35.250  1.00  0.00     0.031 A 
ATOM     88  C   UNL A   1      46.080  28.672  34.276  1.00  0.00     0.131 A 
ATOM     89  C   UNL A   1      46.137  26.542  36.040  1.00  0.00     0.055 A 
ATOM     90  C   UNL A   1      47.235  28.423  35.019  1.00  0.00     0.041 A 
ATOM     91  F   UNL A   1      46.085  29.734  33.455  1.00  0.00    -0.206 F 
ATOM     92  C   UNL A   1      47.263  27.360  35.918  1.00  0.00     0.022 A 
BRANCH  89  93
ATOM     93  S   UNL A   1      46.098  25.238  37.301  1.00  0.00     0.124 S 
ATOM     94  O   UNL A   1      47.329  25.495  38.042  1.00  0.00    -0.237 OA
ATOM     95  O   UNL A   1      44.856  25.527  38.011  1.00  0.00    -0.237 OA
ATOM     96  O   UNL A   1      46.091  24.003  36.519  1.00  0.00    -0.744 OA
ENDBRANCH  89  93
ENDBRANCH  63  86
ENDBRANCH  37  38
ENDBRANCH  29  32
ENDBRANCH  27  28
ENDBRANCH  26  27
ENDBRANCH   1  26
TORSDOF 18
ENDMDL
MODEL 2
REMARK VINA RESULT:     -11.6      5.736     11.036
REMARK SMILES C[N@H+]1CCO[C@@H](COc2ccc(C(=O)NCCCCNC(=O)c3ccc(-c4c5nc(c(-c6cc(S(=O)(=O)[O-])ccc6F)c6ccc([nH]6)c(-c6cc(S(=O)(=O)[O-])ccc6F)c6nc(c(-c7cc(S(=O)(=O)[O-])ccc7F)c7ccc4[nH]7)C=C6)C=C5)cc3)cc2N)C1
REMARK SMILES IDX 17 1 16 2 15 3 13 4 14 5 12 7 9 8 10 9 87 10 11 11 86 12
REMARK SMILES IDX 8 13 7 14 6 15 1 16 2 17 3 18 89 19 4 21 5 22 88 23 18 26
REMARK SMILES IDX 19 27 20 28 21 29 22 31 23 32 24 33 85 34 25 35 84 36 26 37
REMARK SMILES IDX 27 38 28 39 78 40 29 41 83 42 77 43 79 44 30 45 82 46 76 47
REMARK SMILES IDX 75 48 31 50 63 51 43 52 62 53 44 54 47 55 61 56 80 57 45 58
REMARK SMILES IDX 46 59 60 61 81 62 48 63 32 64 33 65 41 66 34 67 40 68 42 69
REMARK SMILES IDX 39 70 35 71 36 72 37 73 38 74 64 75 65 76 73 77 66 78 72 79
REMARK SMILES IDX 74 80 71 81 67 82 68 83 69 84 70 85 49 86 50 87 58 88 51 89
REMARK SMILES IDX 57 90 59 91 56 92 52 93 53 94 54 95 55 96
REMARK H PARENT 15 6 2 20 88 24 88 25 20 30 79 49 47 60
REMARK Flexibility Score: inf
ROOT
ATOM      1  C   UNL A   1      37.004  21.550  24.795  1.00  0.00     0.023 C 
ENDROOT
BRANCH   1   2
ATOM      2  C   UNL A   1      35.690  21.486  25.577  1.00  0.00     0.116 C 
BRANCH   2   3
ATOM      3  N   UNL A   1      34.935  20.280  25.275  1.00  0.00    -0.352 N 
ATOM      4  C   UNL A   1      33.673  20.126  24.751  1.00  0.00     0.251 C 
ATOM      5  O   UNL A   1      33.292  19.008  24.410  1.00  0.00    -0.269 OA
ATOM      6  H   UNL A   1      35.403  19.437  25.477  1.00  0.00     0.163 HD
BRANCH   4   7
ATOM      7  C   UNL A   1      32.775  21.287  24.535  1.00  0.00     0.042 A 
ATOM      8  C   UNL A   1      31.271  23.593  24.157  1.00  0.00     0.142 A 
ATOM      9  C   UNL A   1      32.156  23.184  23.160  1.00  0.00     0.049 A 
ATOM     10  C   UNL A   1      31.014  22.790  25.278  1.00  0.00     0.075 A 
ATOM     11  C   UNL A   1      32.913  22.027  23.353  1.00  0.00     0.018 A 
ATOM     12  C   UNL A   1      31.786  21.644  25.457  1.00  0.00     0.043 A 
BRANCH   8  13
ATOM     13  O   UNL A   1      30.604  24.787  24.062  1.00  0.00    -0.488 OA
BRANCH  13  14
ATOM     14  C   UNL A   1      31.477  25.921  24.219  1.00  0.00     0.267 C 
BRANCH  14  15
ATOM     15  C   UNL A   1      31.283  27.033  23.162  1.00  0.00     0.210 C 
ATOM     16  C   UNL A   1      33.464  28.762  24.988  1.00  0.00     0.332 C 
ATOM     17  N   UNL A   1      32.795  29.069  23.735  1.00  0.00    -0.333 N 
ATOM     18  C   UNL A   1      33.567  28.686  22.547  1.00  0.00     0.290 C 
ATOM     19  C   UNL A   1      31.432  28.510  23.637  1.00  0.00     0.298 C 
ATOM     20  H   UNL A   1      32.719  30.086  23.749  1.00  0.00     0.348 HD
ATOM     21  C   UNL A   1      33.484  27.191  22.226  1.00  0.00     0.222 C 
ATOM     22  O   UNL A   1      32.130  26.778  22.016  1.00  0.00    -0.363 OA
ENDBRANCH  14  15
ENDBRANCH  13  14
ENDBRANCH   8  13
BRANCH  10  23
ATOM     23  N   UNL A   1      30.183  23.236  26.303  1.00  0.00    -0.396 N 
ATOM     24  H   UNL A   1      29.206  23.156  26.215  1.00  0.00     0.156 HD
ATOM     25  H   UNL A   1      30.572  23.631  27.116  1.00  0.00     0.156 HD
ENDBRANCH  10  23
ENDBRANCH   4   7
ENDBRANCH   2   3
ENDBRANCH   1   2
BRANCH   1  26
ATOM     26  C   UNL A   1      37.942  20.363  25.010  1.00  0.00     0.023 C 
BRANCH  26  27
ATOM     27  C   UNL A   1      39.225  20.677  25.768  1.00  0.00     0.116 C 
BRANCH  27  28
ATOM     28  N   UNL A   1      40.114  19.533  25.892  1.00  0.00    -0.352 N 
ATOM     29  C   UNL A   1      41.471  19.513  26.136  1.00  0.00     0.251 C 
ATOM     30  H   UNL A   1      39.690  18.650  25.786  1.00  0.00     0.163 HD
ATOM     31  O   UNL A   1      42.083  18.458  26.090  1.00  0.00    -0.269 OA
BRANCH  29  32
ATOM     32  C   UNL A   1      42.176  20.786  26.408  1.00  0.00     0.039 A 
ATOM     33  C   UNL A   1      42.541  21.598  25.331  1.00  0.00     0.014 A 
ATOM     34  C   UNL A   1      42.441  21.194  27.718  1.00  0.00     0.014 A 
ATOM     35  C   UNL A   1      43.101  22.855  25.574  1.00  0.00     0.010 A 
ATOM     36  C   UNL A   1      42.926  22.476  27.958  1.00  0.00     0.010 A 
ATOM     37  C   UNL A   1      43.258  23.322  26.889  1.00  0.00    -0.014 A 
BRANCH  37  38
ATOM     38  C   UNL A   1      43.768  24.689  27.169  1.00  0.00     0.031 A 
ATOM     39  C   UNL A   1      42.840  25.743  27.710  1.00  0.00     0.074 A 
ATOM     40  C   UNL A   1      45.046  25.001  26.873  1.00  0.00     0.049 A 
ATOM     41  N   UNL A   1      43.068  27.009  27.942  1.00  0.00    -0.248 NA
ATOM     42  C   UNL A   1      41.462  25.316  27.998  1.00  0.00     0.031 C 
ATOM     43  C   UNL A   1      46.032  24.077  26.307  1.00  0.00     0.029 A 
ATOM     44  N   UNL A   1      45.734  26.181  26.998  1.00  0.00    -0.354 N 
ATOM     45  C   UNL A   1      41.863  27.535  28.394  1.00  0.00     0.074 A 
ATOM     46  C   UNL A   1      40.892  26.463  28.333  1.00  0.00     0.031 C 
ATOM     47  C   UNL A   1      47.204  24.716  26.165  1.00  0.00     0.029 A 
ATOM     48  C   UNL A   1      47.043  26.106  26.580  1.00  0.00     0.049 A 
ATOM     49  H   UNL A   1      45.329  27.005  27.354  1.00  0.00     0.167 HD
ATOM     50  C   UNL A   1      41.597  28.787  28.846  1.00  0.00     0.034 A 
ATOM     51  C   UNL A   1      48.002  27.052  26.530  1.00  0.00     0.034 A 
ATOM     52  C   UNL A   1      42.579  29.842  28.905  1.00  0.00     0.049 A 
ATOM     53  C   UNL A   1      47.673  28.447  26.997  1.00  0.00     0.074 A 
ATOM     54  C   UNL A   1      42.431  31.133  29.381  1.00  0.00     0.029 A 
ATOM     55  N   UNL A   1      43.893  29.732  28.463  1.00  0.00    -0.354 N 
ATOM     56  N   UNL A   1      46.539  28.918  27.463  1.00  0.00    -0.248 NA
ATOM     57  C   UNL A   1      48.758  29.436  26.939  1.00  0.00     0.031 C 
ATOM     58  C   UNL A   1      43.632  31.821  29.168  1.00  0.00     0.029 A 
ATOM     59  C   UNL A   1      44.555  30.939  28.629  1.00  0.00     0.049 A 
ATOM     60  H   UNL A   1      44.294  28.916  28.087  1.00  0.00     0.167 HD
ATOM     61  C   UNL A   1      46.786  30.250  27.786  1.00  0.00     0.074 A 
ATOM     62  C   UNL A   1      48.179  30.501  27.472  1.00  0.00     0.031 C 
ATOM     63  C   UNL A   1      45.942  31.180  28.301  1.00  0.00     0.034 A 
BRANCH  50  64
ATOM     64  C   UNL A   1      40.180  29.074  29.285  1.00  0.00     0.023 A 
ATOM     65  C   UNL A   1      39.813  29.060  30.643  1.00  0.00     0.031 A 
ATOM     66  C   UNL A   1      39.171  29.320  28.337  1.00  0.00     0.131 A 
ATOM     67  C   UNL A   1      38.465  29.195  31.008  1.00  0.00     0.055 A 
ATOM     68  C   UNL A   1      37.845  29.545  28.713  1.00  0.00     0.041 A 
ATOM     69  F   UNL A   1      39.453  29.326  27.024  1.00  0.00    -0.206 F 
ATOM     70  C   UNL A   1      37.482  29.464  30.055  1.00  0.00     0.022 A 
BRANCH  67  71
ATOM     71  S   UNL A   1      37.996  28.846  32.725  1.00  0.00     0.124 S 
ATOM     72  O   UNL A   1      36.672  29.459  32.800  1.00  0.00    -0.237 OA
ATOM     73  O   UNL A   1      38.029  27.388  32.770  1.00  0.00    -0.237 OA
ATOM     74  O   UNL A   1      39.032  29.519  33.507  1.00  0.00    -0.744 OA
ENDBRANCH  67  71
ENDBRANCH  50  64
BRANCH  51  75
ATOM     75  C   UNL A   1      49.364  26.722  26.018  1.00  0.00     0.023 A 
ATOM     76  C   UNL A   1      49.783  27.165  24.754  1.00  0.00     0.031 A 
ATOM     77  C   UNL A   1      50.249  25.928  26.766  1.00  0.00     0.131 A 
ATOM     78  C   UNL A   1      51.034  26.773  24.254  1.00  0.00     0.055 A 
ATOM     79  C   UNL A   1      51.515  25.584  26.287  1.00  0.00     0.041 A 
ATOM     80  F   UNL A   1      49.901  25.482  27.983  1.00  0.00    -0.206 F 
ATOM     81  C   UNL A   1      51.908  25.996  25.018  1.00  0.00     0.022 A 
BRANCH  78  82
ATOM     82  S   UNL A   1      51.471  27.228  22.553  1.00  0.00     0.124 S 
ATOM     83  O   UNL A   1      50.271  26.836  21.824  1.00  0.00    -0.237 OA
ATOM     84  O   UNL A   1      51.709  28.663  22.675  1.00  0.00    -0.237 OA
ATOM     85  O   UNL A   1      52.659  26.422  22.280  1.00  0.00    -0.744 OA
ENDBRANCH  78  82
ENDBRANCH  51  75
BRANCH  63  86
ATOM     86  C   UNL A   1      46.521  32.541  28.601  1.00  0.00     0.023 A 
ATOM     87  C   UNL A   1      46.516  33.576  27.649  1.00  0.00     0.031 A 
ATOM     88  C   UNL A   1      47.099  32.800  29.856  1.00  0.00     0.131 A 
ATOM     89  C   UNL A   1      47.129  34.802  27.948  1.00  0.00     0.055 A 
ATOM     90  C   UNL A   1      47.652  34.043  30.169  1.00  0.00     0.041 A 
ATOM     91  F   UNL A   1      47.134  31.848  30.802  1.00  0.00    -0.206 F 
ATOM     92  C   UNL A   1      47.681  35.049  29.207  1.00  0.00     0.022 A 
BRANCH  89  93
ATOM     93  S   UNL A   1      47.277  36.046  26.635  1.00  0.00     0.124 S 
ATOM     94  O   UNL A   1      48.310  36.928  27.168  1.00  0.00    -0.237 OA
ATOM     95  O   UNL A   1      47.664  35.238  25.482  1.00  0.00    -0.237 OA
ATOM     96  O   UNL A   1      45.939  36.629  26.561  1.00  0.00    -0.744 OA
ENDBRANCH  89  93
ENDBRANCH  63  86
ENDBRANCH  37  38
ENDBRANCH  29  32
ENDBRANCH  27  28
ENDBRANCH  26  27
ENDBRANCH   1  26
TORSDOF 18
ENDMDL
MODEL 3
REMARK VINA RESULT:     -11.5      1.995      7.846
REMARK SMILES C[N@H+]1CCO[C@@H](COc2ccc(C(=O)NCCCCNC(=O)c3ccc(-c4c5nc(c(-c6cc(S(=O)(=O)[O-])ccc6F)c6ccc([nH]6)c(-c6cc(S(=O)(=O)[O-])ccc6F)c6nc(c(-c7cc(S(=O)(=O)[O-])ccc7F)c7ccc4[nH]7)C=C6)C=C5)cc3)cc2N)C1
REMARK SMILES IDX 17 1 16 2 15 3 13 4 14 5 12 7 9 8 10 9 87 10 11 11 86 12
REMARK SMILES IDX 8 13 7 14 6 15 1 16 2 17 3 18 89 19 4 21 5 22 88 23 18 26
REMARK SMILES IDX 19 27 20 28 21 29 22 31 23 32 24 33 85 34 25 35 84 36 26 37
REMARK SMILES IDX 27 38 28 39 78 40 29 41 83 42 77 43 79 44 30 45 82 46 76 47
REMARK SMILES IDX 75 48 31 50 63 51 43 52 62 53 44 54 47 55 61 56 80 57 45 58
REMARK SMILES IDX 46 59 60 61 81 62 48 63 32 64 33 65 41 66 34 67 40 68 42 69
REMARK SMILES IDX 39 70 35 71 36 72 37 73 38 74 64 75 65 76 73 77 66 78 72 79
REMARK SMILES IDX 74 80 71 81 67 82 68 83 69 84 70 85 49 86 50 87 58 88 51 89
REMARK SMILES IDX 57 90 59 91 56 92 52 93 53 94 54 95 55 96
REMARK H PARENT 15 6 2 20 88 24 88 25 20 30 79 49 47 60
REMARK Flexibility Score: inf
ROOT
ATOM      1  C   UNL A   1      31.943  29.340  24.639  1.00  0.00     0.023 C 
ENDROOT
BRANCH   1   2
ATOM      2  C   UNL A   1      31.686  28.227  23.619  1.00  0.00     0.116 C 
BRANCH   2   3
ATOM      3  N   UNL A   1      30.277  27.873  23.543  1.00  0.00    -0.352 N 
ATOM      4  C   UNL A   1      29.635  26.699  23.859  1.00  0.00     0.251 C 
ATOM      5  O   UNL A   1      28.407  26.669  23.887  1.00  0.00    -0.269 OA
ATOM      6  H   UNL A   1      29.687  28.590  23.214  1.00  0.00     0.163 HD
BRANCH   4   7
ATOM      7  C   UNL A   1      30.391  25.473  24.221  1.00  0.00     0.042 A 
ATOM      8  C   UNL A   1      31.621  23.063  24.853  1.00  0.00     0.142 A 
ATOM      9  C   UNL A   1      31.331  23.353  23.521  1.00  0.00     0.049 A 
ATOM     10  C   UNL A   1      31.441  24.020  25.863  1.00  0.00     0.075 A 
ATOM     11  C   UNL A   1      30.710  24.563  23.205  1.00  0.00     0.018 A 
ATOM     12  C   UNL A   1      30.812  25.218  25.530  1.00  0.00     0.043 A 
BRANCH   8  13
ATOM     13  O   UNL A   1      32.113  21.837  25.219  1.00  0.00    -0.488 OA
BRANCH  13  14
ATOM     14  C   UNL A   1      33.437  21.598  24.706  1.00  0.00     0.267 C 
BRANCH  14  15
ATOM     15  C   UNL A   1      34.523  21.417  25.791  1.00  0.00     0.210 C 
ATOM     16  C   UNL A   1      36.624  22.579  23.485  1.00  0.00     0.332 C 
ATOM     17  N   UNL A   1      36.827  22.197  24.873  1.00  0.00    -0.333 N 
ATOM     18  C   UNL A   1      36.697  23.315  25.815  1.00  0.00     0.290 C 
ATOM     19  C   UNL A   1      35.967  21.080  25.313  1.00  0.00     0.298 C 
ATOM     20  H   UNL A   1      37.796  21.877  24.892  1.00  0.00     0.348 HD
ATOM     21  C   UNL A   1      35.243  23.679  26.126  1.00  0.00     0.222 C 
ATOM     22  O   UNL A   1      34.534  22.564  26.675  1.00  0.00    -0.363 OA
ENDBRANCH  14  15
ENDBRANCH  13  14
ENDBRANCH   8  13
BRANCH  10  23
ATOM     23  N   UNL A   1      31.666  23.702  27.201  1.00  0.00    -0.396 N 
ATOM     24  H   UNL A   1      32.475  24.030  27.656  1.00  0.00     0.156 HD
ATOM     25  H   UNL A   1      31.015  23.149  27.691  1.00  0.00     0.156 HD
ENDBRANCH  10  23
ENDBRANCH   4   7
ENDBRANCH   2   3
ENDBRANCH   1   2
BRANCH   1  26
ATOM     26  C   UNL A   1      31.725  28.941  26.098  1.00  0.00     0.023 C 
BRANCH  26  27
ATOM     27  C   UNL A   1      32.750  29.490  27.082  1.00  0.00     0.116 C 
BRANCH  27  28
ATOM     28  N   UNL A   1      32.793  30.943  27.117  1.00  0.00    -0.352 N 
ATOM     29  C   UNL A   1      33.796  31.768  27.577  1.00  0.00     0.251 C 
ATOM     30  H   UNL A   1      31.995  31.401  26.764  1.00  0.00     0.163 HD
ATOM     31  O   UNL A   1      33.613  32.974  27.640  1.00  0.00    -0.269 OA
BRANCH  29  32
ATOM     32  C   UNL A   1      35.073  31.172  28.031  1.00  0.00     0.039 A 
ATOM     33  C   UNL A   1      36.196  31.995  28.148  1.00  0.00     0.014 A 
ATOM     34  C   UNL A   1      35.152  29.820  28.375  1.00  0.00     0.014 A 
ATOM     35  C   UNL A   1      37.377  31.477  28.686  1.00  0.00     0.010 A 
ATOM     36  C   UNL A   1      36.304  29.328  28.982  1.00  0.00     0.010 A 
ATOM     37  C   UNL A   1      37.428  30.152  29.147  1.00  0.00    -0.014 A 
BRANCH  37  38
ATOM     38  C   UNL A   1      38.644  29.607  29.803  1.00  0.00     0.031 A 
ATOM     39  C   UNL A   1      39.076  30.133  31.145  1.00  0.00     0.074 A 
ATOM     40  C   UNL A   1      39.396  28.689  29.163  1.00  0.00     0.049 A 
ATOM     41  N   UNL A   1      40.145  29.849  31.843  1.00  0.00    -0.248 NA
ATOM     42  C   UNL A   1      38.199  31.137  31.768  1.00  0.00     0.031 C 
ATOM     43  C   UNL A   1      39.103  28.129  27.842  1.00  0.00     0.029 A 
ATOM     44  N   UNL A   1      40.564  28.070  29.531  1.00  0.00    -0.354 N 
ATOM     45  C   UNL A   1      40.076  30.644  32.982  1.00  0.00     0.074 A 
ATOM     46  C   UNL A   1      38.897  31.473  32.841  1.00  0.00     0.031 C 
ATOM     47  C   UNL A   1      40.047  27.229  27.525  1.00  0.00     0.029 A 
ATOM     48  C   UNL A   1      41.039  27.180  28.595  1.00  0.00     0.049 A 
ATOM     49  H   UNL A   1      41.019  28.245  30.387  1.00  0.00     0.167 HD
ATOM     50  C   UNL A   1      40.903  30.663  34.057  1.00  0.00     0.034 A 
ATOM     51  C   UNL A   1      42.151  26.419  28.596  1.00  0.00     0.034 A 
ATOM     52  C   UNL A   1      42.073  29.827  34.182  1.00  0.00     0.049 A 
ATOM     53  C   UNL A   1      43.079  26.486  29.782  1.00  0.00     0.074 A 
ATOM     54  C   UNL A   1      42.957  29.733  35.243  1.00  0.00     0.029 A 
ATOM     55  N   UNL A   1      42.528  28.945  33.209  1.00  0.00    -0.354 N 
ATOM     56  N   UNL A   1      42.977  27.212  30.872  1.00  0.00    -0.248 NA
ATOM     57  C   UNL A   1      44.266  25.623  29.742  1.00  0.00     0.031 C 
ATOM     58  C   UNL A   1      43.980  28.846  34.885  1.00  0.00     0.029 A 
ATOM     59  C   UNL A   1      43.695  28.327  33.633  1.00  0.00     0.049 A 
ATOM     60  H   UNL A   1      42.086  28.784  32.344  1.00  0.00     0.167 HD
ATOM     61  C   UNL A   1      44.070  26.866  31.661  1.00  0.00     0.074 A 
ATOM     62  C   UNL A   1      44.810  25.859  30.927  1.00  0.00     0.031 C 
ATOM     63  C   UNL A   1      44.429  27.332  32.884  1.00  0.00     0.034 A 
BRANCH  50  64
ATOM     64  C   UNL A   1      40.573  31.638  35.163  1.00  0.00     0.023 A 
ATOM     65  C   UNL A   1      39.594  31.350  36.131  1.00  0.00     0.031 A 
ATOM     66  C   UNL A   1      41.210  32.890  35.229  1.00  0.00     0.131 A 
ATOM     67  C   UNL A   1      39.215  32.330  37.061  1.00  0.00     0.055 A 
ATOM     68  C   UNL A   1      40.893  33.828  36.214  1.00  0.00     0.041 A 
ATOM     69  F   UNL A   1      42.139  33.234  34.323  1.00  0.00    -0.206 F 
ATOM     70  C   UNL A   1      39.876  33.557  37.126  1.00  0.00     0.022 A 
BRANCH  67  71
ATOM     71  S   UNL A   1      37.736  32.038  38.068  1.00  0.00     0.124 S 
ATOM     72  O   UNL A   1      36.821  33.052  37.550  1.00  0.00    -0.237 OA
ATOM     73  O   UNL A   1      37.403  30.654  37.747  1.00  0.00    -0.237 OA
ATOM     74  O   UNL A   1      38.200  32.268  39.435  1.00  0.00    -0.744 OA
ENDBRANCH  67  71
ENDBRANCH  50  64
BRANCH  51  75
ATOM     75  C   UNL A   1      42.458  25.528  27.440  1.00  0.00     0.023 A 
ATOM     76  C   UNL A   1      41.977  24.210  27.400  1.00  0.00     0.031 A 
ATOM     77  C   UNL A   1      43.269  25.966  26.379  1.00  0.00     0.131 A 
ATOM     78  C   UNL A   1      42.347  23.360  26.347  1.00  0.00     0.055 A 
ATOM     79  C   UNL A   1      43.591  25.133  25.305  1.00  0.00     0.041 A 
ATOM     80  F   UNL A   1      43.751  27.219  26.364  1.00  0.00    -0.206 F 
ATOM     81  C   UNL A   1      43.140  23.818  25.292  1.00  0.00     0.022 A 
BRANCH  78  82
ATOM     82  S   UNL A   1      41.841  21.620  26.416  1.00  0.00     0.124 S 
ATOM     83  O   UNL A   1      42.194  21.262  27.785  1.00  0.00    -0.237 OA
ATOM     84  O   UNL A   1      40.415  21.707  26.122  1.00  0.00    -0.237 OA
ATOM     85  O   UNL A   1      42.652  20.988  25.377  1.00  0.00    -0.744 OA
ENDBRANCH  78  82
ENDBRANCH  51  75
BRANCH  63  86
ATOM     86  C   UNL A   1      45.652  26.718  33.522  1.00  0.00     0.023 A 
ATOM     87  C   UNL A   1      45.581  25.532  34.273  1.00  0.00     0.031 A 
ATOM     88  C   UNL A   1      46.906  27.339  33.384  1.00  0.00     0.131 A 
ATOM     89  C   UNL A   1      46.731  25.036  34.906  1.00  0.00     0.055 A 
ATOM     90  C   UNL A   1      48.058  26.807  33.966  1.00  0.00     0.041 A 
ATOM     91  F   UNL A   1      47.032  28.475  32.680  1.00  0.00    -0.206 F 
ATOM     92  C   UNL A   1      47.972  25.656  34.743  1.00  0.00     0.022 A 
BRANCH  89  93
ATOM     93  S   UNL A   1      46.567  23.617  36.025  1.00  0.00     0.124 S 
ATOM     94  O   UNL A   1      47.272  24.085  37.214  1.00  0.00    -0.237 OA
ATOM     95  O   UNL A   1      45.119  23.486  36.155  1.00  0.00    -0.237 OA
ATOM     96  O   UNL A   1      47.224  22.531  35.301  1.00  0.00    -0.744 OA
ENDBRANCH  89  93
ENDBRANCH  63  86
ENDBRANCH  37  38
ENDBRANCH  29  32
ENDBRANCH  27  28
ENDBRANCH  26  27
ENDBRANCH   1  26
TORSDOF 18
ENDMDL
