MODEL 1
REMARK VINA RESULT:     -11.6      0.000      0.000
REMARK SMILES CCCc1cc(OCC(=O)NCCCCNC(=O)c2ccc(-c3c4nc(c(-c5cc(S(=O)(=O)[O-])ccc5F)c5ccc([nH]5)c(-c5cc(S(=O)(=O)[O-])ccc5F)c5nc(c(-c6cc(S(=O)(=O)[O-])ccc6F)c6ccc3[nH]6)C=C5)C=C4)cc2)nc(Nc2ccc(C#N)cc2)n1
REMARK SMILES IDX 12 1 11 2 9 3 10 4 8 6 7 7 6 8 4 9 5 10 93 11 83 12 82 13
REMARK SMILES IDX 3 14 2 15 1 16 84 17 85 19 86 20 92 21 87 22 91 23 88 24
REMARK SMILES IDX 89 25 90 26 13 27 14 28 15 29 16 30 17 31 18 33 19 34 20 35
REMARK SMILES IDX 81 36 21 37 80 38 22 39 23 40 24 41 74 42 25 43 79 44 73 45
REMARK SMILES IDX 75 46 26 47 78 48 72 49 71 50 27 52 59 53 39 54 58 55 40 56
REMARK SMILES IDX 43 57 57 58 76 59 41 60 42 61 56 63 77 64 44 65 28 66 29 67
REMARK SMILES IDX 37 68 30 69 36 70 38 71 35 72 31 73 32 74 33 75 34 76 60 77
REMARK SMILES IDX 61 78 69 79 62 80 68 81 70 82 67 83 63 84 64 85 65 86 66 87
REMARK SMILES IDX 45 88 46 89 54 90 47 91 53 92 55 93 52 94 48 95 49 96 50 97
REMARK SMILES IDX 51 98
REMARK H PARENT 11 5 84 18 16 32 75 51 43 62
REMARK Flexibility Score: inf
ROOT
ATOM      1  C   UNL A   1      31.369  28.674  23.819  1.00  0.00     0.116 C 
ENDROOT
BRANCH   1   2
ATOM      2  N   UNL A   1      30.156  27.901  23.639  1.00  0.00    -0.353 N 
ATOM      3  C   UNL A   1      29.868  26.665  24.137  1.00  0.00     0.258 C 
ATOM      4  O   UNL A   1      28.769  26.160  23.903  1.00  0.00    -0.271 OA
ATOM      5  H   UNL A   1      29.453  28.321  23.092  1.00  0.00     0.163 HD
BRANCH   3   6
ATOM      6  C   UNL A   1      30.909  25.934  24.992  1.00  0.00     0.331 C 
BRANCH   6   7
ATOM      7  O   UNL A   1      30.826  24.519  25.033  1.00  0.00    -0.467 OA
BRANCH   7   8
ATOM      8  C   UNL A   1      31.922  23.797  24.651  1.00  0.00     0.218 A 
ATOM      9  C   UNL A   1      34.195  23.350  24.338  1.00  0.00     0.050 A 
ATOM     10  C   UNL A   1      33.224  24.239  24.730  1.00  0.00     0.092 A 
ATOM     11  N   UNL A   1      33.883  22.131  23.872  1.00  0.00    -0.218 NA
ATOM     12  C   UNL A   1      32.593  21.774  23.810  1.00  0.00     0.230 A 
ATOM     13  N   UNL A   1      31.591  22.582  24.174  1.00  0.00    -0.177 NA
BRANCH   9  14
ATOM     14  C   UNL A   1      35.653  23.733  24.353  1.00  0.00     0.056 C 
BRANCH  14  15
ATOM     15  C   UNL A   1      36.569  22.786  23.572  1.00  0.00     0.003 C 
ATOM     16  C   UNL A   1      37.148  21.652  24.406  1.00  0.00     0.004 C 
ENDBRANCH  14  15
ENDBRANCH   9  14
BRANCH  12  17
ATOM     17  N   UNL A   1      32.262  20.529  23.274  1.00  0.00    -0.324 N 
ATOM     18  H   UNL A   1      31.718  20.534  22.455  1.00  0.00     0.170 HD
BRANCH  17  19
ATOM     19  C   UNL A   1      32.620  19.274  23.777  1.00  0.00     0.041 A 
ATOM     20  C   UNL A   1      32.523  19.004  25.146  1.00  0.00     0.027 A 
ATOM     21  C   UNL A   1      32.959  18.225  22.914  1.00  0.00     0.027 A 
ATOM     22  C   UNL A   1      32.711  17.704  25.630  1.00  0.00     0.021 A 
ATOM     23  C   UNL A   1      33.159  16.926  23.390  1.00  0.00     0.021 A 
ATOM     24  C   UNL A   1      33.017  16.659  24.750  1.00  0.00     0.052 A 
BRANCH  24  25
ATOM     25  C   UNL A   1      33.154  15.319  25.240  1.00  0.00     0.099 C 
ATOM     26  N   UNL A   1      33.247  14.230  25.637  1.00  0.00    -0.192 NA
ENDBRANCH  24  25
ENDBRANCH  17  19
ENDBRANCH  12  17
ENDBRANCH   7   8
ENDBRANCH   6   7
ENDBRANCH   3   6
ENDBRANCH   1   2
BRANCH   1  27
ATOM     27  C   UNL A   1      31.200  29.784  24.853  1.00  0.00     0.023 C 
BRANCH  27  28
ATOM     28  C   UNL A   1      31.713  29.437  26.253  1.00  0.00     0.023 C 
BRANCH  28  29
ATOM     29  C   UNL A   1      33.090  29.992  26.593  1.00  0.00     0.116 C 
BRANCH  29  30
ATOM     30  N   UNL A   1      33.056  31.400  26.964  1.00  0.00    -0.352 N 
ATOM     31  C   UNL A   1      33.944  32.105  27.743  1.00  0.00     0.251 C 
ATOM     32  H   UNL A   1      32.296  31.916  26.609  1.00  0.00     0.163 HD
ATOM     33  O   UNL A   1      33.681  33.252  28.092  1.00  0.00    -0.269 OA
BRANCH  31  34
ATOM     34  C   UNL A   1      35.196  31.452  28.184  1.00  0.00     0.039 A 
ATOM     35  C   UNL A   1      36.374  32.199  28.236  1.00  0.00     0.014 A 
ATOM     36  C   UNL A   1      35.189  30.116  28.592  1.00  0.00     0.014 A 
ATOM     37  C   UNL A   1      37.530  31.628  28.777  1.00  0.00     0.010 A 
ATOM     38  C   UNL A   1      36.314  29.580  29.208  1.00  0.00     0.010 A 
ATOM     39  C   UNL A   1      37.497  30.329  29.310  1.00  0.00    -0.014 A 
BRANCH  39  40
ATOM     40  C   UNL A   1      38.684  29.721  29.969  1.00  0.00     0.031 A 
ATOM     41  C   UNL A   1      39.112  30.212  31.326  1.00  0.00     0.074 A 
ATOM     42  C   UNL A   1      39.420  28.795  29.323  1.00  0.00     0.049 A 
ATOM     43  N   UNL A   1      40.189  29.920  32.010  1.00  0.00    -0.248 NA
ATOM     44  C   UNL A   1      38.225  31.183  31.983  1.00  0.00     0.031 C 
ATOM     45  C   UNL A   1      39.116  28.247  27.999  1.00  0.00     0.029 A 
ATOM     46  N   UNL A   1      40.584  28.159  29.684  1.00  0.00    -0.354 N 
ATOM     47  C   UNL A   1      40.117  30.684  33.170  1.00  0.00     0.074 A 
ATOM     48  C   UNL A   1      38.924  31.497  33.063  1.00  0.00     0.031 C 
ATOM     49  C   UNL A   1      40.055  27.346  27.670  1.00  0.00     0.029 A 
ATOM     50  C   UNL A   1      41.066  27.298  28.724  1.00  0.00     0.049 A 
ATOM     51  H   UNL A   1      41.032  28.306  30.547  1.00  0.00     0.167 HD
ATOM     52  C   UNL A   1      40.958  30.692  34.233  1.00  0.00     0.034 A 
ATOM     53  C   UNL A   1      42.204  26.575  28.680  1.00  0.00     0.034 A 
ATOM     54  C   UNL A   1      42.142  29.874  34.321  1.00  0.00     0.049 A 
ATOM     55  C   UNL A   1      43.164  26.652  29.843  1.00  0.00     0.074 A 
ATOM     56  C   UNL A   1      43.039  29.772  35.370  1.00  0.00     0.029 A 
ATOM     57  N   UNL A   1      42.606  29.030  33.319  1.00  0.00    -0.354 N 
ATOM     58  N   UNL A   1      43.069  27.359  30.946  1.00  0.00    -0.248 NA
ATOM     59  C   UNL A   1      44.382  25.835  29.760  1.00  0.00     0.031 C 
ATOM     60  C   UNL A   1      44.093  28.948  34.965  1.00  0.00     0.029 A 
ATOM     61  C   UNL A   1      43.798  28.441  33.709  1.00  0.00     0.049 A 
ATOM     62  H   UNL A   1      42.154  28.874  32.459  1.00  0.00     0.167 HD
ATOM     63  C   UNL A   1      44.191  27.034  31.704  1.00  0.00     0.074 A 
ATOM     64  C   UNL A   1      44.950  26.074  30.933  1.00  0.00     0.031 C 
ATOM     65  C   UNL A   1      44.550  27.480  32.935  1.00  0.00     0.034 A 
BRANCH  52  66
ATOM     66  C   UNL A   1      40.646  31.644  35.363  1.00  0.00     0.023 A 
ATOM     67  C   UNL A   1      39.582  31.416  36.253  1.00  0.00     0.031 A 
ATOM     68  C   UNL A   1      41.408  32.813  35.539  1.00  0.00     0.131 A 
ATOM     69  C   UNL A   1      39.257  32.380  37.219  1.00  0.00     0.055 A 
ATOM     70  C   UNL A   1      41.142  33.721  36.564  1.00  0.00     0.041 A 
ATOM     71  F   UNL A   1      42.421  33.101  34.706  1.00  0.00    -0.206 F 
ATOM     72  C   UNL A   1      40.048  33.516  37.401  1.00  0.00     0.022 A 
BRANCH  69  73
ATOM     73  S   UNL A   1      37.687  32.212  38.109  1.00  0.00     0.124 S 
ATOM     74  O   UNL A   1      38.070  32.619  39.459  1.00  0.00    -0.237 OA
ATOM     75  O   UNL A   1      36.815  33.132  37.388  1.00  0.00    -0.237 OA
ATOM     76  O   UNL A   1      37.360  30.796  37.963  1.00  0.00    -0.744 OA
ENDBRANCH  69  73
ENDBRANCH  52  66
BRANCH  53  77
ATOM     77  C   UNL A   1      42.519  25.734  27.488  1.00  0.00     0.023 A 
ATOM     78  C   UNL A   1      42.068  24.408  27.395  1.00  0.00     0.031 A 
ATOM     79  C   UNL A   1      43.317  26.231  26.440  1.00  0.00     0.131 A 
ATOM     80  C   UNL A   1      42.457  23.610  26.305  1.00  0.00     0.055 A 
ATOM     81  C   UNL A   1      43.644  25.456  25.327  1.00  0.00     0.041 A 
ATOM     82  F   UNL A   1      43.780  27.491  26.478  1.00  0.00    -0.206 F 
ATOM     83  C   UNL A   1      43.225  24.131  25.262  1.00  0.00     0.022 A 
BRANCH  80  84
ATOM     84  S   UNL A   1      42.035  21.846  26.327  1.00  0.00     0.124 S 
ATOM     85  O   UNL A   1      40.596  21.886  26.094  1.00  0.00    -0.237 OA
ATOM     86  O   UNL A   1      42.849  21.326  25.234  1.00  0.00    -0.237 OA
ATOM     87  O   UNL A   1      42.440  21.416  27.663  1.00  0.00    -0.744 OA
ENDBRANCH  80  84
ENDBRANCH  53  77
BRANCH  65  88
ATOM     88  C   UNL A   1      45.780  26.879  33.573  1.00  0.00     0.023 A 
ATOM     89  C   UNL A   1      45.737  25.688  34.319  1.00  0.00     0.031 A 
ATOM     90  C   UNL A   1      47.031  27.498  33.387  1.00  0.00     0.131 A 
ATOM     91  C   UNL A   1      46.918  25.173  34.874  1.00  0.00     0.055 A 
ATOM     92  C   UNL A   1      48.209  26.945  33.885  1.00  0.00     0.041 A 
ATOM     93  F   UNL A   1      47.129  28.644  32.692  1.00  0.00    -0.206 F 
ATOM     94  C   UNL A   1      48.156  25.778  34.641  1.00  0.00     0.022 A 
BRANCH  91  95
ATOM     95  S   UNL A   1      46.813  23.733  35.975  1.00  0.00     0.124 S 
ATOM     96  O   UNL A   1      47.433  22.689  35.166  1.00  0.00    -0.237 OA
ATOM     97  O   UNL A   1      47.573  24.174  37.140  1.00  0.00    -0.237 OA
ATOM     98  O   UNL A   1      45.377  23.575  36.197  1.00  0.00    -0.744 OA
ENDBRANCH  91  95
ENDBRANCH  65  88
ENDBRANCH  39  40
ENDBRANCH  31  34
ENDBRANCH  29  30
ENDBRANCH  28  29
ENDBRANCH  27  28
ENDBRANCH   1  27
TORSDOF 21
ENDMDL
MODEL 2
REMARK VINA RESULT:     -11.6      2.615      7.992
REMARK SMILES CCCc1cc(OCC(=O)NCCCCNC(=O)c2ccc(-c3c4nc(c(-c5cc(S(=O)(=O)[O-])ccc5F)c5ccc([nH]5)c(-c5cc(S(=O)(=O)[O-])ccc5F)c5nc(c(-c6cc(S(=O)(=O)[O-])ccc6F)c6ccc3[nH]6)C=C5)C=C4)cc2)nc(Nc2ccc(C#N)cc2)n1
REMARK SMILES IDX 12 1 11 2 9 3 10 4 8 6 7 7 6 8 4 9 5 10 93 11 83 12 82 13
REMARK SMILES IDX 3 14 2 15 1 16 84 17 85 19 86 20 92 21 87 22 91 23 88 24
REMARK SMILES IDX 89 25 90 26 13 27 14 28 15 29 16 30 17 31 18 33 19 34 20 35
REMARK SMILES IDX 81 36 21 37 80 38 22 39 23 40 24 41 74 42 25 43 79 44 73 45
REMARK SMILES IDX 75 46 26 47 78 48 72 49 71 50 27 52 59 53 39 54 58 55 40 56
REMARK SMILES IDX 43 57 57 58 76 59 41 60 42 61 56 63 77 64 44 65 28 66 29 67
REMARK SMILES IDX 37 68 30 69 36 70 38 71 35 72 31 73 32 74 33 75 34 76 60 77
REMARK SMILES IDX 61 78 69 79 62 80 68 81 70 82 67 83 63 84 64 85 65 86 66 87
REMARK SMILES IDX 45 88 46 89 54 90 47 91 53 92 55 93 52 94 48 95 49 96 50 97
REMARK SMILES IDX 51 98
REMARK H PARENT 11 5 84 18 16 32 75 51 43 62
REMARK Flexibility Score: inf
ROOT
ATOM      1  C   UNL A   1      32.837  29.230  25.132  1.00  0.00     0.116 C 
ENDROOT
BRANCH   1   2
ATOM      2  N   UNL A   1      31.843  29.122  24.082  1.00  0.00    -0.353 N 
ATOM      3  C   UNL A   1      31.697  28.123  23.165  1.00  0.00     0.258 C 
ATOM      4  O   UNL A   1      30.775  28.180  22.351  1.00  0.00    -0.271 OA
ATOM      5  H   UNL A   1      31.193  29.859  24.024  1.00  0.00     0.163 HD
BRANCH   3   6
ATOM      6  C   UNL A   1      32.673  26.940  23.176  1.00  0.00     0.331 C 
BRANCH   6   7
ATOM      7  O   UNL A   1      32.219  25.742  23.781  1.00  0.00    -0.467 OA
BRANCH   7   8
ATOM      8  C   UNL A   1      32.974  24.614  23.624  1.00  0.00     0.218 A 
ATOM      9  C   UNL A   1      34.930  23.336  23.523  1.00  0.00     0.050 A 
ATOM     10  C   UNL A   1      34.350  24.574  23.659  1.00  0.00     0.092 A 
ATOM     11  N   UNL A   1      34.191  22.233  23.334  1.00  0.00    -0.218 NA
ATOM     12  C   UNL A   1      32.856  22.348  23.297  1.00  0.00     0.230 A 
ATOM     13  N   UNL A   1      32.218  23.517  23.421  1.00  0.00    -0.177 NA
BRANCH   9  14
ATOM     14  C   UNL A   1      36.428  23.175  23.517  1.00  0.00     0.056 C 
BRANCH  14  15
ATOM     15  C   UNL A   1      37.005  22.523  24.778  1.00  0.00     0.003 C 
ATOM     16  C   UNL A   1      37.736  23.489  25.699  1.00  0.00     0.004 C 
ENDBRANCH  14  15
ENDBRANCH   9  14
BRANCH  12  17
ATOM     17  N   UNL A   1      32.087  21.211  23.044  1.00  0.00    -0.324 N 
ATOM     18  H   UNL A   1      31.295  21.335  22.474  1.00  0.00     0.170 HD
BRANCH  17  19
ATOM     19  C   UNL A   1      32.320  19.916  23.515  1.00  0.00     0.041 A 
ATOM     20  C   UNL A   1      32.478  18.854  22.619  1.00  0.00     0.027 A 
ATOM     21  C   UNL A   1      32.529  19.674  24.878  1.00  0.00     0.027 A 
ATOM     22  C   UNL A   1      32.884  17.593  23.075  1.00  0.00     0.021 A 
ATOM     23  C   UNL A   1      32.924  18.417  25.343  1.00  0.00     0.021 A 
ATOM     24  C   UNL A   1      33.121  17.376  24.437  1.00  0.00     0.052 A 
BRANCH  24  25
ATOM     25  C   UNL A   1      33.590  16.101  24.894  1.00  0.00     0.099 C 
ATOM     26  N   UNL A   1      33.970  15.073  25.282  1.00  0.00    -0.192 NA
ENDBRANCH  24  25
ENDBRANCH  17  19
ENDBRANCH  12  17
ENDBRANCH   7   8
ENDBRANCH   6   7
ENDBRANCH   3   6
ENDBRANCH   1   2
BRANCH   1  27
ATOM     27  C   UNL A   1      32.226  29.658  26.463  1.00  0.00     0.023 C 
BRANCH  27  28
ATOM     28  C   UNL A   1      31.985  31.163  26.602  1.00  0.00     0.023 C 
BRANCH  28  29
ATOM     29  C   UNL A   1      33.008  31.907  27.450  1.00  0.00     0.116 C 
BRANCH  29  30
ATOM     30  N   UNL A   1      32.683  33.316  27.621  1.00  0.00    -0.352 N 
ATOM     31  C   UNL A   1      33.220  34.221  28.507  1.00  0.00     0.251 C 
ATOM     32  H   UNL A   1      31.985  33.668  27.021  1.00  0.00     0.163 HD
ATOM     33  O   UNL A   1      32.718  35.334  28.630  1.00  0.00    -0.269 OA
BRANCH  31  34
ATOM     34  C   UNL A   1      34.381  33.823  29.332  1.00  0.00     0.039 A 
ATOM     35  C   UNL A   1      34.188  32.957  30.410  1.00  0.00     0.014 A 
ATOM     36  C   UNL A   1      35.665  34.267  29.005  1.00  0.00     0.014 A 
ATOM     37  C   UNL A   1      35.295  32.470  31.111  1.00  0.00     0.010 A 
ATOM     38  C   UNL A   1      36.768  33.714  29.648  1.00  0.00     0.010 A 
ATOM     39  C   UNL A   1      36.596  32.808  30.706  1.00  0.00    -0.014 A 
BRANCH  39  40
ATOM     40  C   UNL A   1      37.799  32.243  31.375  1.00  0.00     0.031 A 
ATOM     41  C   UNL A   1      38.543  31.106  30.727  1.00  0.00     0.074 A 
ATOM     42  C   UNL A   1      38.173  32.688  32.591  1.00  0.00     0.049 A 
ATOM     43  N   UNL A   1      39.522  30.380  31.202  1.00  0.00    -0.248 NA
ATOM     44  C   UNL A   1      38.103  30.718  29.378  1.00  0.00     0.031 C 
ATOM     45  C   UNL A   1      37.525  33.774  33.330  1.00  0.00     0.029 A 
ATOM     46  N   UNL A   1      39.178  32.273  33.431  1.00  0.00    -0.354 N 
ATOM     47  C   UNL A   1      39.805  29.438  30.218  1.00  0.00     0.074 A 
ATOM     48  C   UNL A   1      38.849  29.648  29.151  1.00  0.00     0.031 C 
ATOM     49  C   UNL A   1      38.161  33.953  34.498  1.00  0.00     0.029 A 
ATOM     50  C   UNL A   1      39.218  32.953  34.628  1.00  0.00     0.049 A 
ATOM     51  H   UNL A   1      39.812  31.556  33.198  1.00  0.00     0.167 HD
ATOM     52  C   UNL A   1      40.782  28.499  30.200  1.00  0.00     0.034 A 
ATOM     53  C   UNL A   1      39.993  32.774  35.717  1.00  0.00     0.034 A 
ATOM     54  C   UNL A   1      41.724  28.306  31.273  1.00  0.00     0.049 A 
ATOM     55  C   UNL A   1      41.029  31.675  35.706  1.00  0.00     0.074 A 
ATOM     56  C   UNL A   1      42.781  27.414  31.339  1.00  0.00     0.029 A 
ATOM     57  N   UNL A   1      41.718  29.001  32.476  1.00  0.00    -0.354 N 
ATOM     58  N   UNL A   1      41.303  30.809  34.756  1.00  0.00    -0.248 NA
ATOM     59  C   UNL A   1      41.862  31.528  36.906  1.00  0.00     0.031 C 
ATOM     60  C   UNL A   1      43.347  27.500  32.613  1.00  0.00     0.029 A 
ATOM     61  C   UNL A   1      42.722  28.525  33.304  1.00  0.00     0.049 A 
ATOM     62  H   UNL A   1      41.092  29.724  32.707  1.00  0.00     0.167 HD
ATOM     63  C   UNL A   1      42.369  30.049  35.230  1.00  0.00     0.074 A 
ATOM     64  C   UNL A   1      42.685  30.552  36.549  1.00  0.00     0.031 C 
ATOM     65  C   UNL A   1      43.034  29.036  34.620  1.00  0.00     0.034 A 
BRANCH  52  66
ATOM     66  C   UNL A   1      40.851  27.587  28.999  1.00  0.00     0.023 A 
ATOM     67  C   UNL A   1      41.817  27.756  27.992  1.00  0.00     0.031 A 
ATOM     68  C   UNL A   1      39.918  26.545  28.842  1.00  0.00     0.131 A 
ATOM     69  C   UNL A   1      41.776  26.958  26.839  1.00  0.00     0.055 A 
ATOM     70  C   UNL A   1      39.944  25.690  27.740  1.00  0.00     0.041 A 
ATOM     71  F   UNL A   1      38.953  26.348  29.755  1.00  0.00    -0.206 F 
ATOM     72  C   UNL A   1      40.866  25.905  26.720  1.00  0.00     0.022 A 
BRANCH  69  73
ATOM     73  S   UNL A   1      42.812  27.429  25.427  1.00  0.00     0.124 S 
ATOM     74  O   UNL A   1      44.035  27.870  26.094  1.00  0.00    -0.237 OA
ATOM     75  O   UNL A   1      42.908  26.183  24.676  1.00  0.00    -0.237 OA
ATOM     76  O   UNL A   1      42.046  28.492  24.781  1.00  0.00    -0.744 OA
ENDBRANCH  69  73
ENDBRANCH  52  66
BRANCH  53  77
ATOM     77  C   UNL A   1      39.809  33.633  36.924  1.00  0.00     0.023 A 
ATOM     78  C   UNL A   1      40.642  34.738  37.162  1.00  0.00     0.031 A 
ATOM     79  C   UNL A   1      38.824  33.334  37.883  1.00  0.00     0.131 A 
ATOM     80  C   UNL A   1      40.506  35.473  38.351  1.00  0.00     0.055 A 
ATOM     81  C   UNL A   1      38.649  34.109  39.031  1.00  0.00     0.041 A 
ATOM     82  F   UNL A   1      38.003  32.286  37.710  1.00  0.00    -0.206 F 
ATOM     83  C   UNL A   1      39.503  35.179  39.277  1.00  0.00     0.022 A 
BRANCH  80  84
ATOM     84  S   UNL A   1      41.734  36.757  38.723  1.00  0.00     0.124 S 
ATOM     85  O   UNL A   1      40.888  37.840  39.210  1.00  0.00    -0.237 OA
ATOM     86  O   UNL A   1      42.571  36.096  39.719  1.00  0.00    -0.237 OA
ATOM     87  O   UNL A   1      42.375  36.996  37.431  1.00  0.00    -0.744 OA
ENDBRANCH  80  84
ENDBRANCH  53  77
BRANCH  65  88
ATOM     88  C   UNL A   1      44.230  28.447  35.331  1.00  0.00     0.023 A 
ATOM     89  C   UNL A   1      44.144  27.283  36.114  1.00  0.00     0.031 A 
ATOM     90  C   UNL A   1      45.493  29.049  35.178  1.00  0.00     0.131 A 
ATOM     91  C   UNL A   1      45.295  26.777  36.738  1.00  0.00     0.055 A 
ATOM     92  C   UNL A   1      46.644  28.504  35.745  1.00  0.00     0.041 A 
ATOM     93  F   UNL A   1      45.633  30.169  34.449  1.00  0.00    -0.206 F 
ATOM     94  C   UNL A   1      46.548  27.365  36.537  1.00  0.00     0.022 A 
BRANCH  91  95
ATOM     95  S   UNL A   1      45.129  25.378  37.881  1.00  0.00     0.124 S 
ATOM     96  O   UNL A   1      46.430  24.729  37.755  1.00  0.00    -0.237 OA
ATOM     97  O   UNL A   1      44.868  26.042  39.154  1.00  0.00    -0.237 OA
ATOM     98  O   UNL A   1      44.004  24.621  37.337  1.00  0.00    -0.744 OA
ENDBRANCH  91  95
ENDBRANCH  65  88
ENDBRANCH  39  40
ENDBRANCH  31  34
ENDBRANCH  29  30
ENDBRANCH  28  29
ENDBRANCH  27  28
ENDBRANCH   1  27
TORSDOF 21
ENDMDL
MODEL 3
REMARK VINA RESULT:     -11.5      1.315      7.467
REMARK SMILES CCCc1cc(OCC(=O)NCCCCNC(=O)c2ccc(-c3c4nc(c(-c5cc(S(=O)(=O)[O-])ccc5F)c5ccc([nH]5)c(-c5cc(S(=O)(=O)[O-])ccc5F)c5nc(c(-c6cc(S(=O)(=O)[O-])ccc6F)c6ccc3[nH]6)C=C5)C=C4)cc2)nc(Nc2ccc(C#N)cc2)n1
REMARK SMILES IDX 12 1 11 2 9 3 10 4 8 6 7 7 6 8 4 9 5 10 93 11 83 12 82 13
REMARK SMILES IDX 3 14 2 15 1 16 84 17 85 19 86 20 92 21 87 22 91 23 88 24
REMARK SMILES IDX 89 25 90 26 13 27 14 28 15 29 16 30 17 31 18 33 19 34 20 35
REMARK SMILES IDX 81 36 21 37 80 38 22 39 23 40 24 41 74 42 25 43 79 44 73 45
REMARK SMILES IDX 75 46 26 47 78 48 72 49 71 50 27 52 59 53 39 54 58 55 40 56
REMARK SMILES IDX 43 57 57 58 76 59 41 60 42 61 56 63 77 64 44 65 28 66 29 67
REMARK SMILES IDX 37 68 30 69 36 70 38 71 35 72 31 73 32 74 33 75 34 76 60 77
REMARK SMILES IDX 61 78 69 79 62 80 68 81 70 82 67 83 63 84 64 85 65 86 66 87
REMARK SMILES IDX 45 88 46 89 54 90 47 91 53 92 55 93 52 94 48 95 49 96 50 97
REMARK SMILES IDX 51 98
REMARK H PARENT 11 5 84 18 16 32 75 51 43 62
REMARK Flexibility Score: inf
ROOT
ATOM      1  C   UNL A   1      33.505  27.399  24.493  1.00  0.00     0.116 C 
ENDROOT
BRANCH   1   2
ATOM      2  N   UNL A   1      32.607  27.817  23.435  1.00  0.00    -0.353 N 
ATOM      3  C   UNL A   1      31.557  27.126  22.905  1.00  0.00     0.258 C 
ATOM      4  O   UNL A   1      30.877  27.645  22.019  1.00  0.00    -0.271 OA
ATOM      5  H   UNL A   1      32.774  28.708  23.052  1.00  0.00     0.163 HD
BRANCH   3   6
ATOM      6  C   UNL A   1      31.231  25.725  23.436  1.00  0.00     0.331 C 
BRANCH   6   7
ATOM      7  O   UNL A   1      31.715  24.626  22.682  1.00  0.00    -0.467 OA
BRANCH   7   8
ATOM      8  C   UNL A   1      32.388  23.637  23.343  1.00  0.00     0.218 A 
ATOM      9  C   UNL A   1      33.866  22.721  24.907  1.00  0.00     0.050 A 
ATOM     10  C   UNL A   1      33.327  23.845  24.329  1.00  0.00     0.092 A 
ATOM     11  N   UNL A   1      33.516  21.490  24.505  1.00  0.00    -0.218 NA
ATOM     12  C   UNL A   1      32.605  21.363  23.530  1.00  0.00     0.230 A 
ATOM     13  N   UNL A   1      32.036  22.408  22.918  1.00  0.00    -0.177 NA
BRANCH   9  14
ATOM     14  C   UNL A   1      34.923  22.825  25.976  1.00  0.00     0.056 C 
BRANCH  14  15
ATOM     15  C   UNL A   1      35.910  23.981  25.786  1.00  0.00     0.003 C 
ATOM     16  C   UNL A   1      37.271  23.556  25.255  1.00  0.00     0.004 C 
ENDBRANCH  14  15
ENDBRANCH   9  14
BRANCH  12  17
ATOM     17  N   UNL A   1      32.281  20.086  23.071  1.00  0.00    -0.324 N 
ATOM     18  H   UNL A   1      31.737  20.038  22.251  1.00  0.00     0.170 HD
BRANCH  17  19
ATOM     19  C   UNL A   1      32.643  18.867  23.650  1.00  0.00     0.041 A 
ATOM     20  C   UNL A   1      32.373  18.613  24.998  1.00  0.00     0.027 A 
ATOM     21  C   UNL A   1      33.165  17.827  22.869  1.00  0.00     0.027 A 
ATOM     22  C   UNL A   1      32.573  17.336  25.537  1.00  0.00     0.021 A 
ATOM     23  C   UNL A   1      33.377  16.553  23.401  1.00  0.00     0.021 A 
ATOM     24  C   UNL A   1      33.064  16.299  24.735  1.00  0.00     0.052 A 
BRANCH  24  25
ATOM     25  C   UNL A   1      33.215  14.980  25.273  1.00  0.00     0.099 C 
ATOM     26  N   UNL A   1      33.330  13.914  25.724  1.00  0.00    -0.192 NA
ENDBRANCH  24  25
ENDBRANCH  17  19
ENDBRANCH  12  17
ENDBRANCH   7   8
ENDBRANCH   6   7
ENDBRANCH   3   6
ENDBRANCH   1   2
BRANCH   1  27
ATOM     27  C   UNL A   1      33.837  28.538  25.453  1.00  0.00     0.023 C 
BRANCH  27  28
ATOM     28  C   UNL A   1      32.853  29.710  25.418  1.00  0.00     0.023 C 
BRANCH  28  29
ATOM     29  C   UNL A   1      32.340  30.165  26.779  1.00  0.00     0.116 C 
BRANCH  29  30
ATOM     30  N   UNL A   1      32.198  31.611  26.875  1.00  0.00    -0.352 N 
ATOM     31  C   UNL A   1      33.042  32.520  27.470  1.00  0.00     0.251 C 
ATOM     32  H   UNL A   1      31.390  31.988  26.458  1.00  0.00     0.163 HD
ATOM     33  O   UNL A   1      32.693  33.688  27.603  1.00  0.00    -0.269 OA
BRANCH  31  34
ATOM     34  C   UNL A   1      34.354  32.062  27.979  1.00  0.00     0.039 A 
ATOM     35  C   UNL A   1      35.429  32.953  27.993  1.00  0.00     0.014 A 
ATOM     36  C   UNL A   1      34.502  30.769  28.486  1.00  0.00     0.014 A 
ATOM     37  C   UNL A   1      36.633  32.572  28.593  1.00  0.00     0.010 A 
ATOM     38  C   UNL A   1      35.670  30.424  29.158  1.00  0.00     0.010 A 
ATOM     39  C   UNL A   1      36.748  31.321  29.222  1.00  0.00    -0.014 A 
BRANCH  39  40
ATOM     40  C   UNL A   1      37.984  30.916  29.944  1.00  0.00     0.031 A 
ATOM     41  C   UNL A   1      38.923  29.926  29.310  1.00  0.00     0.074 A 
ATOM     42  C   UNL A   1      38.220  31.366  31.192  1.00  0.00     0.049 A 
ATOM     43  N   UNL A   1      39.972  29.336  29.821  1.00  0.00    -0.248 NA
ATOM     44  C   UNL A   1      38.620  29.526  27.927  1.00  0.00     0.031 C 
ATOM     45  C   UNL A   1      37.379  32.317  31.921  1.00  0.00     0.029 A 
ATOM     46  N   UNL A   1      39.230  31.074  32.077  1.00  0.00    -0.354 N 
ATOM     47  C   UNL A   1      40.446  28.482  28.829  1.00  0.00     0.074 A 
ATOM     48  C   UNL A   1      39.528  28.587  27.714  1.00  0.00     0.031 C 
ATOM     49  C   UNL A   1      37.917  32.546  33.130  1.00  0.00     0.029 A 
ATOM     50  C   UNL A   1      39.103  31.709  33.293  1.00  0.00     0.049 A 
ATOM     51  H   UNL A   1      39.975  30.469  31.863  1.00  0.00     0.167 HD
ATOM     52  C   UNL A   1      41.552  27.699  28.842  1.00  0.00     0.034 A 
ATOM     53  C   UNL A   1      39.837  31.607  34.421  1.00  0.00     0.034 A 
ATOM     54  C   UNL A   1      42.453  27.608  29.963  1.00  0.00     0.049 A 
ATOM     55  C   UNL A   1      41.024  30.674  34.439  1.00  0.00     0.074 A 
ATOM     56  C   UNL A   1      43.626  26.880  30.066  1.00  0.00     0.029 A 
ATOM     57  N   UNL A   1      42.278  28.251  31.183  1.00  0.00    -0.354 N 
ATOM     58  N   UNL A   1      41.475  29.894  33.484  1.00  0.00    -0.248 NA
ATOM     59  C   UNL A   1      41.803  30.609  35.682  1.00  0.00     0.031 C 
ATOM     60  C   UNL A   1      44.103  27.002  31.373  1.00  0.00     0.029 A 
ATOM     61  C   UNL A   1      43.296  27.899  32.054  1.00  0.00     0.049 A 
ATOM     62  H   UNL A   1      41.539  28.865  31.396  1.00  0.00     0.167 HD
ATOM     63  C   UNL A   1      42.615  29.282  33.998  1.00  0.00     0.074 A 
ATOM     64  C   UNL A   1      42.782  29.779  35.347  1.00  0.00     0.031 C 
ATOM     65  C   UNL A   1      43.457  28.401  33.400  1.00  0.00     0.034 A 
BRANCH  52  66
ATOM     66  C   UNL A   1      41.821  26.851  27.622  1.00  0.00     0.023 A 
ATOM     67  C   UNL A   1      41.560  25.469  27.606  1.00  0.00     0.031 A 
ATOM     68  C   UNL A   1      42.372  27.426  26.463  1.00  0.00     0.131 A 
ATOM     69  C   UNL A   1      41.929  24.699  26.494  1.00  0.00     0.055 A 
ATOM     70  C   UNL A   1      42.645  26.671  25.322  1.00  0.00     0.041 A 
ATOM     71  F   UNL A   1      42.669  28.735  26.424  1.00  0.00    -0.206 F 
ATOM     72  C   UNL A   1      42.441  25.295  25.339  1.00  0.00     0.022 A 
BRANCH  69  73
ATOM     73  S   UNL A   1      41.894  22.892  26.646  1.00  0.00     0.124 S 
ATOM     74  O   UNL A   1      42.146  22.476  25.268  1.00  0.00    -0.237 OA
ATOM     75  O   UNL A   1      42.967  22.635  27.599  1.00  0.00    -0.237 OA
ATOM     76  O   UNL A   1      40.545  22.616  27.134  1.00  0.00    -0.744 OA
ENDBRANCH  69  73
ENDBRANCH  52  66
BRANCH  53  77
ATOM     77  C   UNL A   1      39.462  32.386  35.638  1.00  0.00     0.023 A 
ATOM     78  C   UNL A   1      38.666  31.818  36.646  1.00  0.00     0.031 A 
ATOM     79  C   UNL A   1      39.857  33.728  35.791  1.00  0.00     0.131 A 
ATOM     80  C   UNL A   1      38.251  32.602  37.735  1.00  0.00     0.055 A 
ATOM     81  C   UNL A   1      39.498  34.482  36.909  1.00  0.00     0.041 A 
ATOM     82  F   UNL A   1      40.613  34.324  34.855  1.00  0.00    -0.206 F 
ATOM     83  C   UNL A   1      38.678  33.924  37.883  1.00  0.00     0.022 A 
BRANCH  80  84
ATOM     84  S   UNL A   1      37.053  31.900  38.903  1.00  0.00     0.124 S 
ATOM     85  O   UNL A   1      35.870  32.707  38.630  1.00  0.00    -0.237 OA
ATOM     86  O   UNL A   1      36.995  30.506  38.476  1.00  0.00    -0.237 OA
ATOM     87  O   UNL A   1      37.677  32.125  40.205  1.00  0.00    -0.744 OA
ENDBRANCH  80  84
ENDBRANCH  53  77
BRANCH  65  88
ATOM     88  C   UNL A   1      44.687  27.970  34.163  1.00  0.00     0.023 A 
ATOM     89  C   UNL A   1      44.714  26.813  34.960  1.00  0.00     0.031 A 
ATOM     90  C   UNL A   1      45.873  28.720  34.048  1.00  0.00     0.131 A 
ATOM     91  C   UNL A   1      45.893  26.458  35.633  1.00  0.00     0.055 A 
ATOM     92  C   UNL A   1      47.059  28.326  34.665  1.00  0.00     0.041 A 
ATOM     93  F   UNL A   1      45.903  29.841  33.308  1.00  0.00    -0.206 F 
ATOM     94  C   UNL A   1      47.072  27.191  35.470  1.00  0.00     0.022 A 
BRANCH  91  95
ATOM     95  S   UNL A   1      45.854  25.061  36.790  1.00  0.00     0.124 S 
ATOM     96  O   UNL A   1      44.708  24.299  36.307  1.00  0.00    -0.237 OA
ATOM     97  O   UNL A   1      47.162  24.446  36.583  1.00  0.00    -0.237 OA
ATOM     98  O   UNL A   1      45.670  25.698  38.093  1.00  0.00    -0.744 OA
ENDBRANCH  91  95
ENDBRANCH  65  88
ENDBRANCH  39  40
ENDBRANCH  31  34
ENDBRANCH  29  30
ENDBRANCH  28  29
ENDBRANCH  27  28
ENDBRANCH   1  27
TORSDOF 21
ENDMDL
