MODEL 1
REMARK VINA RESULT:     -12.2      0.000      0.000
REMARK SMILES C[N@H+]1Cc2ccccc2C[C@@H]1C(=O)NCCC(=O)NCC(=O)NCCCCNC(=O)c1ccc(-c2c3nc(c(-c4cc(S(=O)(=O)[O-])ccc4F)c4ccc([nH]4)c(-c4cc(S(=O)(=O)[O-])ccc4F)c4nc(c(-c5cc(S(=O)(=O)[O-])ccc5F)c5ccc2[nH]5)C=C4)C=C3)cc1
REMARK SMILES IDX 24 1 23 2 21 3 22 4 20 6 19 7 17 8 18 9 16 11 15 12 14 13
REMARK SMILES IDX 12 14 13 15 11 17 1 18 2 19 3 20 4 22 10 23 5 24 9 25 6 26
REMARK SMILES IDX 8 27 7 28 25 29 26 30 27 31 28 32 29 33 30 35 31 36 32 37
REMARK SMILES IDX 93 38 33 39 92 40 34 41 35 42 36 43 86 44 37 45 91 46 85 47
REMARK SMILES IDX 87 48 38 49 90 50 84 51 83 52 39 54 71 55 51 56 70 57 52 58
REMARK SMILES IDX 55 59 69 60 88 61 53 62 54 63 68 65 89 66 56 67 40 68 41 69
REMARK SMILES IDX 49 70 42 71 48 72 50 73 47 74 43 75 44 76 45 77 46 78 72 79
REMARK SMILES IDX 73 80 81 81 74 82 80 83 82 84 79 85 75 86 76 87 77 88 78 89
REMARK SMILES IDX 57 90 58 91 66 92 59 93 65 94 67 95 64 96 60 97 61 98 62 99
REMARK SMILES IDX 63 100
REMARK H PARENT 23 5 19 10 14 16 2 21 28 34 87 53 55 64
REMARK Flexibility Score: inf
ROOT
ATOM      1  C   UNL A   1      32.129  27.139  26.256  1.00  0.00     0.116 C 
ENDROOT
BRANCH   1   2
ATOM      2  N   UNL A   1      30.914  27.020  25.468  1.00  0.00    -0.355 N 
ATOM      3  C   UNL A   1      30.573  27.428  24.215  1.00  0.00     0.239 C 
ATOM      4  O   UNL A   1      29.442  27.119  23.823  1.00  0.00    -0.273 OA
ATOM      5  H   UNL A   1      30.189  26.549  25.938  1.00  0.00     0.163 HD
BRANCH   3   6
ATOM      6  C   UNL A   1      31.561  28.077  23.227  1.00  0.00     0.216 C 
BRANCH   6   7
ATOM      7  N   UNL A   1      31.971  27.305  22.069  1.00  0.00    -0.347 N 
ATOM      8  C   UNL A   1      33.016  26.446  21.914  1.00  0.00     0.222 C 
ATOM      9  O   UNL A   1      33.218  25.970  20.796  1.00  0.00    -0.275 OA
ATOM     10  H   UNL A   1      31.408  27.421  21.270  1.00  0.00     0.164 HD
BRANCH   8  11
ATOM     11  C   UNL A   1      33.935  26.120  23.071  1.00  0.00     0.121 C 
BRANCH  11  12
ATOM     12  C   UNL A   1      33.524  24.842  23.804  1.00  0.00     0.126 C 
BRANCH  12  13
ATOM     13  N   UNL A   1      34.662  24.010  24.177  1.00  0.00    -0.350 N 
ATOM     14  C   UNL A   1      34.641  23.012  25.109  1.00  0.00     0.278 C 
ATOM     15  O   UNL A   1      35.278  23.207  26.150  1.00  0.00    -0.268 OA
ATOM     16  H   UNL A   1      35.517  24.183  23.720  1.00  0.00     0.163 HD
BRANCH  14  17
ATOM     17  C   UNL A   1      34.032  21.627  24.788  1.00  0.00     0.278 C 
ATOM     18  C   UNL A   1      31.897  22.467  25.733  1.00  0.00     0.333 C 
ATOM     19  N   UNL A   1      32.831  21.341  25.635  1.00  0.00    -0.323 N 
ATOM     20  C   UNL A   1      32.110  20.177  25.072  1.00  0.00     0.299 C 
ATOM     21  H   UNL A   1      33.177  21.156  26.577  1.00  0.00     0.348 HD
ATOM     22  C   UNL A   1      32.993  18.987  24.765  1.00  0.00     0.010 A 
ATOM     23  C   UNL A   1      35.020  20.465  24.949  1.00  0.00     0.111 C 
ATOM     24  C   UNL A   1      32.414  17.738  24.504  1.00  0.00     0.010 A 
ATOM     25  C   UNL A   1      34.387  19.125  24.679  1.00  0.00    -0.033 A 
ATOM     26  C   UNL A   1      33.215  16.636  24.199  1.00  0.00     0.001 A 
ATOM     27  C   UNL A   1      35.187  18.011  24.400  1.00  0.00     0.004 A 
ATOM     28  C   UNL A   1      34.600  16.770  24.157  1.00  0.00     0.000 A 
ENDBRANCH  14  17
ENDBRANCH  12  13
ENDBRANCH  11  12
ENDBRANCH   8  11
ENDBRANCH   6   7
ENDBRANCH   3   6
ENDBRANCH   1   2
BRANCH   1  29
ATOM     29  C   UNL A   1      32.042  28.212  27.330  1.00  0.00     0.023 C 
BRANCH  29  30
ATOM     30  C   UNL A   1      31.437  29.531  26.856  1.00  0.00     0.023 C 
BRANCH  30  31
ATOM     31  C   UNL A   1      32.429  30.542  26.285  1.00  0.00     0.116 C 
BRANCH  31  32
ATOM     32  N   UNL A   1      32.191  31.909  26.731  1.00  0.00    -0.352 N 
ATOM     33  C   UNL A   1      33.009  32.722  27.482  1.00  0.00     0.251 C 
ATOM     34  H   UNL A   1      31.331  32.303  26.458  1.00  0.00     0.163 HD
ATOM     35  O   UNL A   1      32.619  33.824  27.857  1.00  0.00    -0.269 OA
BRANCH  33  36
ATOM     36  C   UNL A   1      34.343  32.222  27.870  1.00  0.00     0.039 A 
ATOM     37  C   UNL A   1      35.408  33.121  27.955  1.00  0.00     0.014 A 
ATOM     38  C   UNL A   1      34.503  30.889  28.255  1.00  0.00     0.014 A 
ATOM     39  C   UNL A   1      36.611  32.708  28.531  1.00  0.00     0.010 A 
ATOM     40  C   UNL A   1      35.673  30.503  28.898  1.00  0.00     0.010 A 
ATOM     41  C   UNL A   1      36.732  31.412  29.060  1.00  0.00    -0.014 A 
BRANCH  41  42
ATOM     42  C   UNL A   1      37.941  30.982  29.810  1.00  0.00     0.031 A 
ATOM     43  C   UNL A   1      38.887  29.990  29.196  1.00  0.00     0.074 A 
ATOM     44  C   UNL A   1      38.127  31.396  31.079  1.00  0.00     0.049 A 
ATOM     45  N   UNL A   1      39.904  29.366  29.733  1.00  0.00    -0.248 NA
ATOM     46  C   UNL A   1      38.621  29.620  27.799  1.00  0.00     0.031 C 
ATOM     47  C   UNL A   1      37.260  32.327  31.805  1.00  0.00     0.029 A 
ATOM     48  N   UNL A   1      39.100  31.072  31.992  1.00  0.00    -0.354 N 
ATOM     49  C   UNL A   1      40.381  28.507  28.749  1.00  0.00     0.074 A 
ATOM     50  C   UNL A   1      39.498  28.649  27.609  1.00  0.00     0.031 C 
ATOM     51  C   UNL A   1      37.753  32.517  33.039  1.00  0.00     0.029 A 
ATOM     52  C   UNL A   1      38.941  31.686  33.212  1.00  0.00     0.049 A 
ATOM     53  H   UNL A   1      39.844  30.459  31.791  1.00  0.00     0.167 HD
ATOM     54  C   UNL A   1      41.466  27.693  28.785  1.00  0.00     0.034 A 
ATOM     55  C   UNL A   1      39.659  31.580  34.346  1.00  0.00     0.034 A 
ATOM     56  C   UNL A   1      42.343  27.578  29.925  1.00  0.00     0.049 A 
ATOM     57  C   UNL A   1      40.847  30.655  34.376  1.00  0.00     0.074 A 
ATOM     58  C   UNL A   1      43.505  26.835  30.052  1.00  0.00     0.029 A 
ATOM     59  N   UNL A   1      42.152  28.220  31.143  1.00  0.00    -0.354 N 
ATOM     60  N   UNL A   1      41.310  29.874  33.428  1.00  0.00    -0.248 NA
ATOM     61  C   UNL A   1      41.609  30.602  35.630  1.00  0.00     0.031 C 
ATOM     62  C   UNL A   1      43.981  26.981  31.360  1.00  0.00     0.029 A 
ATOM     63  C   UNL A   1      43.156  27.868  32.033  1.00  0.00     0.049 A 
ATOM     64  H   UNL A   1      41.410  28.835  31.345  1.00  0.00     0.167 HD
ATOM     65  C   UNL A   1      42.438  29.258  33.963  1.00  0.00     0.074 A 
ATOM     66  C   UNL A   1      42.585  29.762  35.314  1.00  0.00     0.031 C 
ATOM     67  C   UNL A   1      43.281  28.366  33.384  1.00  0.00     0.034 A 
BRANCH  54  68
ATOM     68  C   UNL A   1      41.727  26.847  27.560  1.00  0.00     0.023 A 
ATOM     69  C   UNL A   1      41.332  25.499  27.500  1.00  0.00     0.031 A 
ATOM     70  C   UNL A   1      42.450  27.366  26.473  1.00  0.00     0.131 A 
ATOM     71  C   UNL A   1      41.758  24.690  26.436  1.00  0.00     0.055 A 
ATOM     72  C   UNL A   1      42.787  26.580  25.369  1.00  0.00     0.041 A 
ATOM     73  F   UNL A   1      42.870  28.642  26.476  1.00  0.00    -0.206 F 
ATOM     74  C   UNL A   1      42.463  25.226  25.357  1.00  0.00     0.022 A 
BRANCH  71  75
ATOM     75  S   UNL A   1      41.552  22.892  26.586  1.00  0.00     0.124 S 
ATOM     76  O   UNL A   1      42.226  22.623  27.854  1.00  0.00    -0.237 OA
ATOM     77  O   UNL A   1      40.102  22.742  26.587  1.00  0.00    -0.237 OA
ATOM     78  O   UNL A   1      42.236  22.370  25.404  1.00  0.00    -0.744 OA
ENDBRANCH  71  75
ENDBRANCH  54  68
BRANCH  55  79
ATOM     79  C   UNL A   1      39.279  32.369  35.550  1.00  0.00     0.023 A 
ATOM     80  C   UNL A   1      39.740  33.684  35.717  1.00  0.00     0.031 A 
ATOM     81  C   UNL A   1      38.465  31.818  36.554  1.00  0.00     0.131 A 
ATOM     82  C   UNL A   1      39.408  34.398  36.878  1.00  0.00     0.055 A 
ATOM     83  C   UNL A   1      38.104  32.546  37.690  1.00  0.00     0.041 A 
ATOM     84  F   UNL A   1      37.991  30.568  36.434  1.00  0.00    -0.206 F 
ATOM     85  C   UNL A   1      38.585  33.842  37.860  1.00  0.00     0.022 A 
BRANCH  82  86
ATOM     86  S   UNL A   1      40.102  36.058  37.107  1.00  0.00     0.124 S 
ATOM     87  O   UNL A   1      39.318  36.554  38.232  1.00  0.00    -0.237 OA
ATOM     88  O   UNL A   1      41.505  35.766  37.380  1.00  0.00    -0.237 OA
ATOM     89  O   UNL A   1      39.844  36.714  35.827  1.00  0.00    -0.744 OA
ENDBRANCH  82  86
ENDBRANCH  55  79
BRANCH  67  90
ATOM     90  C   UNL A   1      44.467  27.919  34.203  1.00  0.00     0.023 A 
ATOM     91  C   UNL A   1      44.370  26.882  35.146  1.00  0.00     0.031 A 
ATOM     92  C   UNL A   1      45.711  28.556  34.042  1.00  0.00     0.131 A 
ATOM     93  C   UNL A   1      45.485  26.544  35.929  1.00  0.00     0.055 A 
ATOM     94  C   UNL A   1      46.830  28.180  34.786  1.00  0.00     0.041 A 
ATOM     95  F   UNL A   1      45.857  29.554  33.157  1.00  0.00    -0.206 F 
ATOM     96  C   UNL A   1      46.718  27.177  35.744  1.00  0.00     0.022 A 
BRANCH  93  97
ATOM     97  S   UNL A   1      45.285  25.317  37.250  1.00  0.00     0.124 S 
ATOM     98  O   UNL A   1      46.645  24.808  37.399  1.00  0.00    -0.237 OA
ATOM     99  O   UNL A   1      44.782  26.125  38.355  1.00  0.00    -0.237 OA
ATOM    100  O   UNL A   1      44.325  24.366  36.692  1.00  0.00    -0.744 OA
ENDBRANCH  93  97
ENDBRANCH  67  90
ENDBRANCH  41  42
ENDBRANCH  33  36
ENDBRANCH  31  32
ENDBRANCH  30  31
ENDBRANCH  29  30
ENDBRANCH   1  29
TORSDOF 19
ENDMDL
MODEL 2
REMARK VINA RESULT:     -12.1      0.914      7.657
REMARK SMILES C[N@H+]1Cc2ccccc2C[C@@H]1C(=O)NCCC(=O)NCC(=O)NCCCCNC(=O)c1ccc(-c2c3nc(c(-c4cc(S(=O)(=O)[O-])ccc4F)c4ccc([nH]4)c(-c4cc(S(=O)(=O)[O-])ccc4F)c4nc(c(-c5cc(S(=O)(=O)[O-])ccc5F)c5ccc2[nH]5)C=C4)C=C3)cc1
REMARK SMILES IDX 24 1 23 2 21 3 22 4 20 6 19 7 17 8 18 9 16 11 15 12 14 13
REMARK SMILES IDX 12 14 13 15 11 17 1 18 2 19 3 20 4 22 10 23 5 24 9 25 6 26
REMARK SMILES IDX 8 27 7 28 25 29 26 30 27 31 28 32 29 33 30 35 31 36 32 37
REMARK SMILES IDX 93 38 33 39 92 40 34 41 35 42 36 43 86 44 37 45 91 46 85 47
REMARK SMILES IDX 87 48 38 49 90 50 84 51 83 52 39 54 71 55 51 56 70 57 52 58
REMARK SMILES IDX 55 59 69 60 88 61 53 62 54 63 68 65 89 66 56 67 40 68 41 69
REMARK SMILES IDX 49 70 42 71 48 72 50 73 47 74 43 75 44 76 45 77 46 78 72 79
REMARK SMILES IDX 73 80 81 81 74 82 80 83 82 84 79 85 75 86 76 87 77 88 78 89
REMARK SMILES IDX 57 90 58 91 66 92 59 93 65 94 67 95 64 96 60 97 61 98 62 99
REMARK SMILES IDX 63 100
REMARK H PARENT 23 5 19 10 14 16 2 21 28 34 87 53 55 64
REMARK Flexibility Score: inf
ROOT
ATOM      1  C   UNL A   1      32.105  27.033  26.167  1.00  0.00     0.116 C 
ENDROOT
BRANCH   1   2
ATOM      2  N   UNL A   1      31.053  27.094  25.166  1.00  0.00    -0.355 N 
ATOM      3  C   UNL A   1      31.047  27.397  23.838  1.00  0.00     0.239 C 
ATOM      4  O   UNL A   1      29.959  27.307  23.258  1.00  0.00    -0.273 OA
ATOM      5  H   UNL A   1      30.163  26.870  25.521  1.00  0.00     0.163 HD
BRANCH   3   6
ATOM      6  C   UNL A   1      32.320  27.662  23.014  1.00  0.00     0.216 C 
BRANCH   6   7
ATOM      7  N   UNL A   1      32.411  27.068  21.693  1.00  0.00    -0.347 N 
ATOM      8  C   UNL A   1      32.831  25.829  21.316  1.00  0.00     0.222 C 
ATOM      9  O   UNL A   1      32.905  25.579  20.112  1.00  0.00    -0.275 OA
ATOM     10  H   UNL A   1      32.127  27.652  20.953  1.00  0.00     0.164 HD
BRANCH   8  11
ATOM     11  C   UNL A   1      33.242  24.798  22.345  1.00  0.00     0.121 C 
BRANCH  11  12
ATOM     12  C   UNL A   1      32.045  24.048  22.933  1.00  0.00     0.126 C 
BRANCH  12  13
ATOM     13  N   UNL A   1      32.145  23.862  24.376  1.00  0.00    -0.350 N 
ATOM     14  C   UNL A   1      31.691  22.776  25.067  1.00  0.00     0.278 C 
ATOM     15  O   UNL A   1      30.725  22.956  25.817  1.00  0.00    -0.268 OA
ATOM     16  H   UNL A   1      32.576  24.580  24.895  1.00  0.00     0.163 HD
BRANCH  14  17
ATOM     17  C   UNL A   1      32.475  21.443  25.076  1.00  0.00     0.278 C 
ATOM     18  C   UNL A   1      34.375  22.693  26.067  1.00  0.00     0.333 C 
ATOM     19  N   UNL A   1      33.954  21.672  25.103  1.00  0.00    -0.323 N 
ATOM     20  C   UNL A   1      34.633  20.399  25.436  1.00  0.00     0.299 C 
ATOM     21  H   UNL A   1      34.213  22.010  24.177  1.00  0.00     0.348 HD
ATOM     22  C   UNL A   1      34.168  19.213  24.619  1.00  0.00     0.010 A 
ATOM     23  C   UNL A   1      32.152  20.528  23.888  1.00  0.00     0.111 C 
ATOM     24  C   UNL A   1      34.913  18.026  24.626  1.00  0.00     0.010 A 
ATOM     25  C   UNL A   1      32.966  19.261  23.895  1.00  0.00    -0.033 A 
ATOM     26  C   UNL A   1      34.487  16.918  23.892  1.00  0.00     0.001 A 
ATOM     27  C   UNL A   1      32.557  18.156  23.139  1.00  0.00     0.004 A 
ATOM     28  C   UNL A   1      33.315  16.986  23.142  1.00  0.00     0.000 A 
ENDBRANCH  14  17
ENDBRANCH  12  13
ENDBRANCH  11  12
ENDBRANCH   8  11
ENDBRANCH   6   7
ENDBRANCH   3   6
ENDBRANCH   1   2
BRANCH   1  29
ATOM     29  C   UNL A   1      31.835  27.925  27.370  1.00  0.00     0.023 C 
BRANCH  29  30
ATOM     30  C   UNL A   1      31.426  29.352  27.017  1.00  0.00     0.023 C 
BRANCH  30  31
ATOM     31  C   UNL A   1      32.508  30.203  26.355  1.00  0.00     0.116 C 
BRANCH  31  32
ATOM     32  N   UNL A   1      32.430  31.617  26.699  1.00  0.00    -0.352 N 
ATOM     33  C   UNL A   1      33.332  32.380  27.406  1.00  0.00     0.251 C 
ATOM     34  H   UNL A   1      31.627  32.090  26.383  1.00  0.00     0.163 HD
ATOM     35  O   UNL A   1      33.073  33.544  27.695  1.00  0.00    -0.269 OA
BRANCH  33  36
ATOM     36  C   UNL A   1      34.593  31.755  27.853  1.00  0.00     0.039 A 
ATOM     37  C   UNL A   1      35.706  32.564  28.093  1.00  0.00     0.014 A 
ATOM     38  C   UNL A   1      34.631  30.387  28.138  1.00  0.00     0.014 A 
ATOM     39  C   UNL A   1      36.826  32.019  28.724  1.00  0.00     0.010 A 
ATOM     40  C   UNL A   1      35.715  29.868  28.835  1.00  0.00     0.010 A 
ATOM     41  C   UNL A   1      36.816  30.682  29.153  1.00  0.00    -0.014 A 
BRANCH  41  42
ATOM     42  C   UNL A   1      37.927  30.108  29.955  1.00  0.00     0.031 A 
ATOM     43  C   UNL A   1      38.148  30.574  31.367  1.00  0.00     0.074 A 
ATOM     44  C   UNL A   1      38.800  29.256  29.382  1.00  0.00     0.049 A 
ATOM     45  N   UNL A   1      39.141  30.325  32.180  1.00  0.00    -0.248 NA
ATOM     46  C   UNL A   1      37.129  31.479  31.917  1.00  0.00     0.031 C 
ATOM     47  C   UNL A   1      38.721  28.757  28.007  1.00  0.00     0.029 A 
ATOM     48  N   UNL A   1      39.937  28.671  29.880  1.00  0.00    -0.354 N 
ATOM     49  C   UNL A   1      38.884  31.067  33.328  1.00  0.00     0.074 A 
ATOM     50  C   UNL A   1      37.673  31.820  33.073  1.00  0.00     0.031 C 
ATOM     51  C   UNL A   1      39.749  27.924  27.781  1.00  0.00     0.029 A 
ATOM     52  C   UNL A   1      40.589  27.867  28.974  1.00  0.00     0.049 A 
ATOM     53  H   UNL A   1      40.256  28.813  30.801  1.00  0.00     0.167 HD
ATOM     54  C   UNL A   1      39.578  31.098  34.493  1.00  0.00     0.034 A 
ATOM     55  C   UNL A   1      41.739  27.176  29.085  1.00  0.00     0.034 A 
ATOM     56  C   UNL A   1      40.774  30.326  34.733  1.00  0.00     0.049 A 
ATOM     57  C   UNL A   1      42.509  27.240  30.377  1.00  0.00     0.074 A 
ATOM     58  C   UNL A   1      41.524  30.231  35.894  1.00  0.00     0.029 A 
ATOM     59  N   UNL A   1      41.401  29.518  33.792  1.00  0.00    -0.354 N 
ATOM     60  N   UNL A   1      42.237  27.917  31.468  1.00  0.00    -0.248 NA
ATOM     61  C   UNL A   1      43.741  26.444  30.450  1.00  0.00     0.031 C 
ATOM     62  C   UNL A   1      42.633  29.417  35.636  1.00  0.00     0.029 A 
ATOM     63  C   UNL A   1      42.542  28.946  34.336  1.00  0.00     0.049 A 
ATOM     64  H   UNL A   1      41.083  29.375  32.872  1.00  0.00     0.167 HD
ATOM     65  C   UNL A   1      43.250  27.602  32.370  1.00  0.00     0.074 A 
ATOM     66  C   UNL A   1      44.135  26.675  31.694  1.00  0.00     0.031 C 
ATOM     67  C   UNL A   1      43.424  28.035  33.645  1.00  0.00     0.034 A 
BRANCH  54  68
ATOM     68  C   UNL A   1      39.067  32.028  35.569  1.00  0.00     0.023 A 
ATOM     69  C   UNL A   1      39.494  33.366  35.648  1.00  0.00     0.031 A 
ATOM     70  C   UNL A   1      38.208  31.554  36.575  1.00  0.00     0.131 A 
ATOM     71  C   UNL A   1      39.155  34.144  36.765  1.00  0.00     0.055 A 
ATOM     72  C   UNL A   1      37.794  32.365  37.634  1.00  0.00     0.041 A 
ATOM     73  F   UNL A   1      37.778  30.282  36.564  1.00  0.00    -0.206 F 
ATOM     74  C   UNL A   1      38.289  33.662  37.747  1.00  0.00     0.022 A 
BRANCH  71  75
ATOM     75  S   UNL A   1      40.026  35.718  37.013  1.00  0.00     0.124 S 
ATOM     76  O   UNL A   1      39.654  36.453  35.806  1.00  0.00    -0.237 OA
ATOM     77  O   UNL A   1      39.451  36.203  38.261  1.00  0.00    -0.237 OA
ATOM     78  O   UNL A   1      41.432  35.323  37.081  1.00  0.00    -0.744 OA
ENDBRANCH  71  75
ENDBRANCH  54  68
BRANCH  55  79
ATOM     79  C   UNL A   1      42.236  26.361  27.942  1.00  0.00     0.023 A 
ATOM     80  C   UNL A   1      41.830  25.028  27.785  1.00  0.00     0.031 A 
ATOM     81  C   UNL A   1      43.132  26.897  27.002  1.00  0.00     0.131 A 
ATOM     82  C   UNL A   1      42.342  24.261  26.728  1.00  0.00     0.055 A 
ATOM     83  C   UNL A   1      43.610  26.143  25.928  1.00  0.00     0.041 A 
ATOM     84  F   UNL A   1      43.541  28.171  27.103  1.00  0.00    -0.206 F 
ATOM     85  C   UNL A   1      43.220  24.812  25.792  1.00  0.00     0.022 A 
BRANCH  82  86
ATOM     86  S   UNL A   1      41.872  22.513  26.613  1.00  0.00     0.124 S 
ATOM     87  O   UNL A   1      40.416  22.596  26.622  1.00  0.00    -0.237 OA
ATOM     88  O   UNL A   1      42.485  22.115  25.350  1.00  0.00    -0.237 OA
ATOM     89  O   UNL A   1      42.472  21.920  27.806  1.00  0.00    -0.744 OA
ENDBRANCH  82  86
ENDBRANCH  55  79
BRANCH  67  90
ATOM     90  C   UNL A   1      44.596  27.462  34.403  1.00  0.00     0.023 A 
ATOM     91  C   UNL A   1      44.490  26.274  35.147  1.00  0.00     0.031 A 
ATOM     92  C   UNL A   1      45.835  28.128  34.390  1.00  0.00     0.131 A 
ATOM     93  C   UNL A   1      45.591  25.813  35.887  1.00  0.00     0.055 A 
ATOM     94  C   UNL A   1      46.940  27.637  35.086  1.00  0.00     0.041 A 
ATOM     95  F   UNL A   1      45.989  29.268  33.699  1.00  0.00    -0.206 F 
ATOM     96  C   UNL A   1      46.819  26.480  35.849  1.00  0.00     0.022 A 
BRANCH  93  97
ATOM     97  S   UNL A   1      45.375  24.371  36.965  1.00  0.00     0.124 S 
ATOM     98  O   UNL A   1      44.729  24.960  38.134  1.00  0.00    -0.237 OA
ATOM     99  O   UNL A   1      44.542  23.492  36.152  1.00  0.00    -0.237 OA
ATOM    100  O   UNL A   1      46.742  23.899  37.185  1.00  0.00    -0.744 OA
ENDBRANCH  93  97
ENDBRANCH  67  90
ENDBRANCH  41  42
ENDBRANCH  33  36
ENDBRANCH  31  32
ENDBRANCH  30  31
ENDBRANCH  29  30
ENDBRANCH   1  29
TORSDOF 19
ENDMDL
MODEL 3
REMARK VINA RESULT:     -12.0      1.571      4.124
REMARK SMILES C[N@H+]1Cc2ccccc2C[C@@H]1C(=O)NCCC(=O)NCC(=O)NCCCCNC(=O)c1ccc(-c2c3nc(c(-c4cc(S(=O)(=O)[O-])ccc4F)c4ccc([nH]4)c(-c4cc(S(=O)(=O)[O-])ccc4F)c4nc(c(-c5cc(S(=O)(=O)[O-])ccc5F)c5ccc2[nH]5)C=C4)C=C3)cc1
REMARK SMILES IDX 24 1 23 2 21 3 22 4 20 6 19 7 17 8 18 9 16 11 15 12 14 13
REMARK SMILES IDX 12 14 13 15 11 17 1 18 2 19 3 20 4 22 10 23 5 24 9 25 6 26
REMARK SMILES IDX 8 27 7 28 25 29 26 30 27 31 28 32 29 33 30 35 31 36 32 37
REMARK SMILES IDX 93 38 33 39 92 40 34 41 35 42 36 43 86 44 37 45 91 46 85 47
REMARK SMILES IDX 87 48 38 49 90 50 84 51 83 52 39 54 71 55 51 56 70 57 52 58
REMARK SMILES IDX 55 59 69 60 88 61 53 62 54 63 68 65 89 66 56 67 40 68 41 69
REMARK SMILES IDX 49 70 42 71 48 72 50 73 47 74 43 75 44 76 45 77 46 78 72 79
REMARK SMILES IDX 73 80 81 81 74 82 80 83 82 84 79 85 75 86 76 87 77 88 78 89
REMARK SMILES IDX 57 90 58 91 66 92 59 93 65 94 67 95 64 96 60 97 61 98 62 99
REMARK SMILES IDX 63 100
REMARK H PARENT 23 5 19 10 14 16 2 21 28 34 87 53 55 64
REMARK Flexibility Score: inf
ROOT
ATOM      1  C   UNL A   1      31.661  25.884  26.374  1.00  0.00     0.116 C 
ENDROOT
BRANCH   1   2
ATOM      2  N   UNL A   1      30.736  24.875  26.862  1.00  0.00    -0.355 N 
ATOM      3  C   UNL A   1      30.801  23.518  26.955  1.00  0.00     0.239 C 
ATOM      4  O   UNL A   1      29.831  22.955  27.474  1.00  0.00    -0.273 OA
ATOM      5  H   UNL A   1      29.889  25.251  27.194  1.00  0.00     0.163 HD
BRANCH   3   6
ATOM      6  C   UNL A   1      32.059  22.696  26.620  1.00  0.00     0.216 C 
BRANCH   6   7
ATOM      7  N   UNL A   1      31.950  21.671  25.598  1.00  0.00    -0.347 N 
ATOM      8  C   UNL A   1      32.432  21.648  24.326  1.00  0.00     0.222 C 
ATOM      9  O   UNL A   1      32.132  20.694  23.606  1.00  0.00    -0.275 OA
ATOM     10  H   UNL A   1      31.448  20.868  25.866  1.00  0.00     0.164 HD
BRANCH   8  11
ATOM     11  C   UNL A   1      33.275  22.785  23.790  1.00  0.00     0.121 C 
BRANCH  11  12
ATOM     12  C   UNL A   1      32.444  24.027  23.466  1.00  0.00     0.126 C 
BRANCH  12  13
ATOM     13  N   UNL A   1      33.243  25.119  22.922  1.00  0.00    -0.350 N 
ATOM     14  C   UNL A   1      32.869  25.940  21.897  1.00  0.00     0.278 C 
ATOM     15  O   UNL A   1      33.492  25.826  20.836  1.00  0.00    -0.268 OA
ATOM     16  H   UNL A   1      34.127  25.278  23.328  1.00  0.00     0.163 HD
BRANCH  14  17
ATOM     17  C   UNL A   1      31.865  27.095  22.118  1.00  0.00     0.278 C 
ATOM     18  C   UNL A   1      33.812  28.542  22.638  1.00  0.00     0.333 C 
ATOM     19  N   UNL A   1      32.439  28.167  22.991  1.00  0.00    -0.323 N 
ATOM     20  C   UNL A   1      31.583  29.371  22.902  1.00  0.00     0.299 C 
ATOM     21  H   UNL A   1      32.466  27.788  23.937  1.00  0.00     0.348 HD
ATOM     22  C   UNL A   1      30.105  29.100  23.084  1.00  0.00     0.010 A 
ATOM     23  C   UNL A   1      30.530  26.646  22.724  1.00  0.00     0.111 C 
ATOM     24  C   UNL A   1      29.222  30.164  23.309  1.00  0.00     0.010 A 
ATOM     25  C   UNL A   1      29.591  27.798  22.975  1.00  0.00    -0.033 A 
ATOM     26  C   UNL A   1      27.855  29.931  23.460  1.00  0.00     0.001 A 
ATOM     27  C   UNL A   1      28.222  27.566  23.153  1.00  0.00     0.004 A 
ATOM     28  C   UNL A   1      27.356  28.632  23.392  1.00  0.00     0.000 A 
ENDBRANCH  14  17
ENDBRANCH  12  13
ENDBRANCH  11  12
ENDBRANCH   8  11
ENDBRANCH   6   7
ENDBRANCH   3   6
ENDBRANCH   1   2
BRANCH   1  29
ATOM     29  C   UNL A   1      31.025  27.259  26.237  1.00  0.00     0.023 C 
BRANCH  29  30
ATOM     30  C   UNL A   1      31.609  28.318  27.168  1.00  0.00     0.023 C 
BRANCH  30  31
ATOM     31  C   UNL A   1      32.633  29.259  26.537  1.00  0.00     0.116 C 
BRANCH  31  32
ATOM     32  N   UNL A   1      32.313  30.670  26.707  1.00  0.00    -0.352 N 
ATOM     33  C   UNL A   1      33.099  31.672  27.231  1.00  0.00     0.251 C 
ATOM     34  H   UNL A   1      31.416  30.944  26.409  1.00  0.00     0.163 HD
ATOM     35  O   UNL A   1      32.645  32.800  27.394  1.00  0.00    -0.269 OA
BRANCH  33  36
ATOM     36  C   UNL A   1      34.482  31.349  27.637  1.00  0.00     0.039 A 
ATOM     37  C   UNL A   1      35.381  32.390  27.876  1.00  0.00     0.014 A 
ATOM     38  C   UNL A   1      34.844  30.023  27.885  1.00  0.00     0.014 A 
ATOM     39  C   UNL A   1      36.613  32.110  28.470  1.00  0.00     0.010 A 
ATOM     40  C   UNL A   1      36.037  29.757  28.547  1.00  0.00     0.010 A 
ATOM     41  C   UNL A   1      36.925  30.798  28.864  1.00  0.00    -0.014 A 
BRANCH  41  42
ATOM     42  C   UNL A   1      38.159  30.483  29.630  1.00  0.00     0.031 A 
ATOM     43  C   UNL A   1      39.172  29.533  29.056  1.00  0.00     0.074 A 
ATOM     44  C   UNL A   1      38.314  30.960  30.881  1.00  0.00     0.049 A 
ATOM     45  N   UNL A   1      40.228  29.003  29.617  1.00  0.00    -0.248 NA
ATOM     46  C   UNL A   1      38.934  29.090  27.675  1.00  0.00     0.031 C 
ATOM     47  C   UNL A   1      37.384  31.858  31.569  1.00  0.00     0.029 A 
ATOM     48  N   UNL A   1      39.306  30.741  31.805  1.00  0.00    -0.354 N 
ATOM     49  C   UNL A   1      40.765  28.139  28.669  1.00  0.00     0.074 A 
ATOM     50  C   UNL A   1      39.877  28.174  27.525  1.00  0.00     0.031 C 
ATOM     51  C   UNL A   1      37.861  32.131  32.794  1.00  0.00     0.029 A 
ATOM     52  C   UNL A   1      39.102  31.391  33.000  1.00  0.00     0.049 A 
ATOM     53  H   UNL A   1      40.090  30.172  31.629  1.00  0.00     0.167 HD
ATOM     54  C   UNL A   1      41.903  27.403  28.737  1.00  0.00     0.034 A 
ATOM     55  C   UNL A   1      39.824  31.381  34.136  1.00  0.00     0.034 A 
ATOM     56  C   UNL A   1      42.784  27.395  29.880  1.00  0.00     0.049 A 
ATOM     57  C   UNL A   1      41.072  30.542  34.203  1.00  0.00     0.074 A 
ATOM     58  C   UNL A   1      43.993  26.739  30.036  1.00  0.00     0.029 A 
ATOM     59  N   UNL A   1      42.547  28.072  31.071  1.00  0.00    -0.354 N 
ATOM     60  N   UNL A   1      41.589  29.756  33.287  1.00  0.00    -0.248 NA
ATOM     61  C   UNL A   1      41.834  30.592  35.457  1.00  0.00     0.031 C 
ATOM     62  C   UNL A   1      44.455  26.971  31.337  1.00  0.00     0.029 A 
ATOM     63  C   UNL A   1      43.571  27.826  31.974  1.00  0.00     0.049 A 
ATOM     64  H   UNL A   1      41.764  28.642  31.248  1.00  0.00     0.167 HD
ATOM     65  C   UNL A   1      42.756  29.241  33.846  1.00  0.00     0.074 A 
ATOM     66  C   UNL A   1      42.865  29.808  35.175  1.00  0.00     0.031 C 
ATOM     67  C   UNL A   1      43.659  28.386  33.303  1.00  0.00     0.034 A 
BRANCH  54  68
ATOM     68  C   UNL A   1      42.223  26.529  27.547  1.00  0.00     0.023 A 
ATOM     69  C   UNL A   1      41.711  25.223  27.435  1.00  0.00     0.031 A 
ATOM     70  C   UNL A   1      43.115  26.969  26.554  1.00  0.00     0.131 A 
ATOM     71  C   UNL A   1      42.180  24.370  26.425  1.00  0.00     0.055 A 
ATOM     72  C   UNL A   1      43.502  26.147  25.494  1.00  0.00     0.041 A 
ATOM     73  F   UNL A   1      43.652  28.198  26.613  1.00  0.00    -0.206 F 
ATOM     74  C   UNL A   1      43.054  24.830  25.439  1.00  0.00     0.022 A 
BRANCH  71  75
ATOM     75  S   UNL A   1      41.786  22.601  26.542  1.00  0.00     0.124 S 
ATOM     76  O   UNL A   1      42.528  22.059  25.406  1.00  0.00    -0.237 OA
ATOM     77  O   UNL A   1      42.294  22.253  27.862  1.00  0.00    -0.237 OA
ATOM     78  O   UNL A   1      40.332  22.565  26.398  1.00  0.00    -0.744 OA
ENDBRANCH  71  75
ENDBRANCH  54  68
BRANCH  55  79
ATOM     79  C   UNL A   1      39.388  32.191  35.307  1.00  0.00     0.023 A 
ATOM     80  C   UNL A   1      39.823  33.516  35.462  1.00  0.00     0.031 A 
ATOM     81  C   UNL A   1      38.546  31.650  36.293  1.00  0.00     0.131 A 
ATOM     82  C   UNL A   1      39.439  34.251  36.593  1.00  0.00     0.055 A 
ATOM     83  C   UNL A   1      38.133  32.397  37.398  1.00  0.00     0.041 A 
ATOM     84  F   UNL A   1      38.094  30.391  36.184  1.00  0.00    -0.206 F 
ATOM     85  C   UNL A   1      38.588  33.704  37.557  1.00  0.00     0.022 A 
BRANCH  82  86
ATOM     86  S   UNL A   1      40.100  35.925  36.809  1.00  0.00     0.124 S 
ATOM     87  O   UNL A   1      41.525  35.662  36.974  1.00  0.00    -0.237 OA
ATOM     88  O   UNL A   1      39.706  36.571  35.561  1.00  0.00    -0.237 OA
ATOM     89  O   UNL A   1      39.412  36.412  38.002  1.00  0.00    -0.744 OA
ENDBRANCH  82  86
ENDBRANCH  55  79
BRANCH  67  90
ATOM     90  C   UNL A   1      44.871  28.055  34.138  1.00  0.00     0.023 A 
ATOM     91  C   UNL A   1      44.893  26.954  35.012  1.00  0.00     0.031 A 
ATOM     92  C   UNL A   1      46.016  28.868  34.065  1.00  0.00     0.131 A 
ATOM     93  C   UNL A   1      46.021  26.724  35.814  1.00  0.00     0.055 A 
ATOM     94  C   UNL A   1      47.154  28.603  34.828  1.00  0.00     0.041 A 
ATOM     95  F   UNL A   1      46.047  29.934  33.250  1.00  0.00    -0.206 F 
ATOM     96  C   UNL A   1      47.157  27.532  35.717  1.00  0.00     0.022 A 
BRANCH  93  97
ATOM     97  S   UNL A   1      45.957  25.396  37.048  1.00  0.00     0.124 S 
ATOM     98  O   UNL A   1      46.687  24.324  36.379  1.00  0.00    -0.237 OA
ATOM     99  O   UNL A   1      46.624  26.001  38.196  1.00  0.00    -0.237 OA
ATOM    100  O   UNL A   1      44.525  25.155  37.220  1.00  0.00    -0.744 OA
ENDBRANCH  93  97
ENDBRANCH  67  90
ENDBRANCH  41  42
ENDBRANCH  33  36
ENDBRANCH  31  32
ENDBRANCH  30  31
ENDBRANCH  29  30
ENDBRANCH   1  29
TORSDOF 19
ENDMDL
