MODEL 1
REMARK VINA RESULT:     -11.7      0.000      0.000
REMARK SMILES C[C@H](CCc1ccco1)NC(=O)c1cccn1CC(=O)NCCCCNC(=O)c1ccc(-c2c3nc(c(-c4cc(S(=O)(=O)[O-])ccc4F)c4ccc([nH]4)c(-c4cc(S(=O)(=O)[O-])ccc4F)c4nc(c(-c5cc(S(=O)(=O)[O-])ccc5F)c5ccc2[nH]5)C=C4)C=C3)cc1
REMARK SMILES IDX 22 1 21 2 19 3 20 4 18 6 17 7 13 8 14 9 15 10 16 11 11 12
REMARK SMILES IDX 10 13 12 15 2 16 1 17 3 18 4 19 5 20 6 21 9 22 7 23 8 24
REMARK SMILES IDX 23 25 24 26 25 27 26 28 27 29 28 31 29 32 30 33 91 34 31 35
REMARK SMILES IDX 90 36 32 37 33 38 34 39 84 40 35 41 89 42 83 43 85 44 36 45
REMARK SMILES IDX 88 46 82 47 81 48 37 50 69 51 49 52 68 53 50 54 53 55 67 56
REMARK SMILES IDX 86 57 51 58 52 59 66 61 87 62 54 63 38 64 39 65 47 66 40 67
REMARK SMILES IDX 46 68 48 69 45 70 41 71 42 72 43 73 44 74 70 75 71 76 79 77
REMARK SMILES IDX 72 78 78 79 80 80 77 81 73 82 74 83 75 84 76 85 55 86 56 87
REMARK SMILES IDX 64 88 57 89 63 90 65 91 62 92 58 93 59 94 60 95 61 96
REMARK H PARENT 21 5 10 14 26 30 85 49 53 60
REMARK Flexibility Score: inf
ROOT
ATOM      1  C   UNL A   1      32.945  29.267  24.731  1.00  0.00     0.116 C 
ENDROOT
BRANCH   1   2
ATOM      2  N   UNL A   1      31.640  29.650  24.230  1.00  0.00    -0.355 N 
ATOM      3  C   UNL A   1      30.979  29.193  23.124  1.00  0.00     0.239 C 
ATOM      4  O   UNL A   1      29.922  29.745  22.808  1.00  0.00    -0.273 OA
ATOM      5  H   UNL A   1      31.166  30.334  24.757  1.00  0.00     0.163 HD
BRANCH   3   6
ATOM      6  C   UNL A   1      31.506  28.000  22.347  1.00  0.00     0.222 C 
BRANCH   6   7
ATOM      7  N   UNL A   1      31.046  26.716  22.868  1.00  0.00    -0.334 N 
ATOM      8  C   UNL A   1      31.670  25.490  22.696  1.00  0.00     0.107 A 
ATOM      9  C   UNL A   1      30.863  24.550  23.321  1.00  0.00     0.033 A 
ATOM     10  C   UNL A   1      29.747  25.215  23.877  1.00  0.00     0.020 A 
ATOM     11  C   UNL A   1      29.896  26.552  23.601  1.00  0.00     0.087 A 
BRANCH   8  12
ATOM     12  C   UNL A   1      32.947  25.306  22.039  1.00  0.00     0.268 C 
ATOM     13  N   UNL A   1      33.982  24.713  22.720  1.00  0.00    -0.348 N 
ATOM     14  H   UNL A   1      34.833  24.686  22.226  1.00  0.00     0.164 HD
ATOM     15  O   UNL A   1      33.141  25.613  20.870  1.00  0.00    -0.268 OA
BRANCH  13  16
ATOM     16  C   UNL A   1      34.033  24.118  24.051  1.00  0.00     0.079 C 
ATOM     17  C   UNL A   1      34.694  25.045  25.074  1.00  0.00     0.031 C 
BRANCH  16  18
ATOM     18  C   UNL A   1      34.650  22.700  24.049  1.00  0.00     0.032 C 
BRANCH  18  19
ATOM     19  C   UNL A   1      35.153  22.119  25.375  1.00  0.00     0.077 C 
BRANCH  19  20
ATOM     20  C   UNL A   1      36.626  21.962  25.487  1.00  0.00     0.103 A 
ATOM     21  C   UNL A   1      37.531  20.993  25.102  1.00  0.00     0.045 A 
ATOM     22  O   UNL A   1      37.277  22.946  26.171  1.00  0.00    -0.469 OA
ATOM     23  C   UNL A   1      38.802  21.427  25.546  1.00  0.00     0.042 A 
ATOM     24  C   UNL A   1      38.589  22.608  26.213  1.00  0.00     0.195 A 
ENDBRANCH  19  20
ENDBRANCH  18  19
ENDBRANCH  16  18
ENDBRANCH  13  16
ENDBRANCH   8  12
ENDBRANCH   6   7
ENDBRANCH   3   6
ENDBRANCH   1   2
BRANCH   1  25
ATOM     25  C   UNL A   1      32.826  28.234  25.855  1.00  0.00     0.023 C 
BRANCH  25  26
ATOM     26  C   UNL A   1      33.552  28.605  27.153  1.00  0.00     0.023 C 
BRANCH  26  27
ATOM     27  C   UNL A   1      35.032  28.934  26.974  1.00  0.00     0.116 C 
BRANCH  27  28
ATOM     28  N   UNL A   1      35.350  30.285  27.408  1.00  0.00    -0.352 N 
ATOM     29  C   UNL A   1      36.369  30.690  28.239  1.00  0.00     0.251 C 
ATOM     30  H   UNL A   1      34.766  30.998  27.063  1.00  0.00     0.163 HD
ATOM     31  O   UNL A   1      36.296  31.783  28.793  1.00  0.00    -0.269 OA
BRANCH  29  32
ATOM     32  C   UNL A   1      37.532  29.810  28.479  1.00  0.00     0.039 A 
ATOM     33  C   UNL A   1      38.594  29.838  27.570  1.00  0.00     0.014 A 
ATOM     34  C   UNL A   1      37.549  28.926  29.565  1.00  0.00     0.014 A 
ATOM     35  C   UNL A   1      39.700  29.021  27.786  1.00  0.00     0.010 A 
ATOM     36  C   UNL A   1      38.666  28.135  29.802  1.00  0.00     0.010 A 
ATOM     37  C   UNL A   1      39.743  28.186  28.914  1.00  0.00    -0.014 A 
BRANCH  37  38
ATOM     38  C   UNL A   1      41.017  27.503  29.239  1.00  0.00     0.031 A 
ATOM     39  C   UNL A   1      41.273  26.348  28.225  1.00  0.00     0.074 A 
ATOM     40  C   UNL A   1      41.691  27.948  30.351  1.00  0.00     0.049 A 
ATOM     41  N   UNL A   1      41.776  25.166  28.403  1.00  0.00    -0.248 NA
ATOM     42  C   UNL A   1      40.775  26.485  26.821  1.00  0.00     0.031 C 
ATOM     43  C   UNL A   1      41.309  29.127  31.175  1.00  0.00     0.029 A 
ATOM     44  N   UNL A   1      42.821  27.532  31.028  1.00  0.00    -0.354 N 
ATOM     45  C   UNL A   1      41.903  24.544  27.130  1.00  0.00     0.074 A 
ATOM     46  C   UNL A   1      41.115  25.333  26.234  1.00  0.00     0.031 C 
ATOM     47  C   UNL A   1      42.111  29.262  32.260  1.00  0.00     0.029 A 
ATOM     48  C   UNL A   1      43.106  28.207  32.261  1.00  0.00     0.049 A 
ATOM     49  H   UNL A   1      43.398  26.812  30.683  1.00  0.00     0.167 HD
ATOM     50  C   UNL A   1      42.799  23.536  26.872  1.00  0.00     0.034 A 
ATOM     51  C   UNL A   1      44.048  27.898  33.216  1.00  0.00     0.034 A 
ATOM     52  C   UNL A   1      43.539  23.269  28.060  1.00  0.00     0.049 A 
ATOM     53  C   UNL A   1      44.826  26.826  32.585  1.00  0.00     0.074 A 
ATOM     54  C   UNL A   1      43.188  22.747  29.276  1.00  0.00     0.029 A 
ATOM     55  N   UNL A   1      44.737  23.941  28.181  1.00  0.00    -0.354 N 
ATOM     56  N   UNL A   1      45.660  27.002  31.607  1.00  0.00    -0.248 NA
ATOM     57  C   UNL A   1      44.625  25.446  33.039  1.00  0.00     0.031 C 
ATOM     58  C   UNL A   1      43.853  23.612  30.167  1.00  0.00     0.029 A 
ATOM     59  C   UNL A   1      44.800  24.380  29.473  1.00  0.00     0.049 A 
ATOM     60  H   UNL A   1      45.411  24.078  27.477  1.00  0.00     0.167 HD
ATOM     61  C   UNL A   1      45.804  25.735  31.115  1.00  0.00     0.074 A 
ATOM     62  C   UNL A   1      45.437  24.827  32.185  1.00  0.00     0.031 C 
ATOM     63  C   UNL A   1      45.617  25.531  29.784  1.00  0.00     0.034 A 
BRANCH  50  64
ATOM     64  C   UNL A   1      43.362  22.902  25.617  1.00  0.00     0.023 A 
ATOM     65  C   UNL A   1      43.420  21.479  25.606  1.00  0.00     0.031 A 
ATOM     66  C   UNL A   1      44.127  23.556  24.645  1.00  0.00     0.131 A 
ATOM     67  C   UNL A   1      44.318  20.781  24.787  1.00  0.00     0.055 A 
ATOM     68  C   UNL A   1      44.974  22.849  23.774  1.00  0.00     0.041 A 
ATOM     69  F   UNL A   1      44.155  24.891  24.557  1.00  0.00    -0.206 F 
ATOM     70  C   UNL A   1      45.105  21.463  23.868  1.00  0.00     0.022 A 
BRANCH  67  71
ATOM     71  S   UNL A   1      44.568  19.005  25.091  1.00  0.00     0.124 S 
ATOM     72  O   UNL A   1      44.714  18.477  23.739  1.00  0.00    -0.237 OA
ATOM     73  O   UNL A   1      45.776  19.002  25.910  1.00  0.00    -0.237 OA
ATOM     74  O   UNL A   1      43.347  18.604  25.787  1.00  0.00    -0.744 OA
ENDBRANCH  67  71
ENDBRANCH  50  64
BRANCH  51  75
ATOM     75  C   UNL A   1      44.498  28.212  34.649  1.00  0.00     0.023 A 
ATOM     76  C   UNL A   1      44.318  27.429  35.803  1.00  0.00     0.031 A 
ATOM     77  C   UNL A   1      45.335  29.364  34.850  1.00  0.00     0.131 A 
ATOM     78  C   UNL A   1      45.033  27.750  37.003  1.00  0.00     0.055 A 
ATOM     79  C   UNL A   1      46.115  29.601  35.980  1.00  0.00     0.041 A 
ATOM     80  F   UNL A   1      45.457  30.329  33.927  1.00  0.00    -0.206 F 
ATOM     81  C   UNL A   1      45.982  28.775  37.064  1.00  0.00     0.022 A 
BRANCH  78  82
ATOM     82  S   UNL A   1      44.777  26.832  38.556  1.00  0.00     0.124 S 
ATOM     83  O   UNL A   1      45.752  25.753  38.431  1.00  0.00    -0.237 OA
ATOM     84  O   UNL A   1      45.054  27.833  39.581  1.00  0.00    -0.237 OA
ATOM     85  O   UNL A   1      43.377  26.412  38.472  1.00  0.00    -0.744 OA
ENDBRANCH  78  82
ENDBRANCH  51  75
BRANCH  63  86
ATOM     86  C   UNL A   1      45.906  26.743  28.891  1.00  0.00     0.023 A 
ATOM     87  C   UNL A   1      44.845  27.562  28.447  1.00  0.00     0.031 A 
ATOM     88  C   UNL A   1      47.171  27.065  28.369  1.00  0.00     0.131 A 
ATOM     89  C   UNL A   1      45.055  28.598  27.512  1.00  0.00     0.055 A 
ATOM     90  C   UNL A   1      47.388  28.096  27.441  1.00  0.00     0.041 A 
ATOM     91  F   UNL A   1      48.256  26.384  28.733  1.00  0.00    -0.206 F 
ATOM     92  C   UNL A   1      46.325  28.869  27.003  1.00  0.00     0.022 A 
BRANCH  89  93
ATOM     93  S   UNL A   1      43.649  29.614  26.978  1.00  0.00     0.124 S 
ATOM     94  O   UNL A   1      43.020  29.981  28.240  1.00  0.00    -0.237 OA
ATOM     95  O   UNL A   1      44.302  30.695  26.246  1.00  0.00    -0.237 OA
ATOM     96  O   UNL A   1      42.867  28.700  26.143  1.00  0.00    -0.744 OA
ENDBRANCH  89  93
ENDBRANCH  63  86
ENDBRANCH  37  38
ENDBRANCH  29  32
ENDBRANCH  27  28
ENDBRANCH  26  27
ENDBRANCH  25  26
ENDBRANCH   1  25
TORSDOF 20
ENDMDL
MODEL 2
REMARK VINA RESULT:     -11.2      3.331      8.232
REMARK SMILES C[C@H](CCc1ccco1)NC(=O)c1cccn1CC(=O)NCCCCNC(=O)c1ccc(-c2c3nc(c(-c4cc(S(=O)(=O)[O-])ccc4F)c4ccc([nH]4)c(-c4cc(S(=O)(=O)[O-])ccc4F)c4nc(c(-c5cc(S(=O)(=O)[O-])ccc5F)c5ccc2[nH]5)C=C4)C=C3)cc1
REMARK SMILES IDX 22 1 21 2 19 3 20 4 18 6 17 7 13 8 14 9 15 10 16 11 11 12
REMARK SMILES IDX 10 13 12 15 2 16 1 17 3 18 4 19 5 20 6 21 9 22 7 23 8 24
REMARK SMILES IDX 23 25 24 26 25 27 26 28 27 29 28 31 29 32 30 33 91 34 31 35
REMARK SMILES IDX 90 36 32 37 33 38 34 39 84 40 35 41 89 42 83 43 85 44 36 45
REMARK SMILES IDX 88 46 82 47 81 48 37 50 69 51 49 52 68 53 50 54 53 55 67 56
REMARK SMILES IDX 86 57 51 58 52 59 66 61 87 62 54 63 38 64 39 65 47 66 40 67
REMARK SMILES IDX 46 68 48 69 45 70 41 71 42 72 43 73 44 74 70 75 71 76 79 77
REMARK SMILES IDX 72 78 78 79 80 80 77 81 73 82 74 83 75 84 76 85 55 86 56 87
REMARK SMILES IDX 64 88 57 89 63 90 65 91 62 92 58 93 59 94 60 95 61 96
REMARK H PARENT 21 5 10 14 26 30 85 49 53 60
REMARK Flexibility Score: inf
ROOT
ATOM      1  C   UNL A   1      33.754  28.037  24.815  1.00  0.00     0.116 C 
ENDROOT
BRANCH   1   2
ATOM      2  N   UNL A   1      33.671  26.886  23.938  1.00  0.00    -0.355 N 
ATOM      3  C   UNL A   1      33.877  25.568  24.234  1.00  0.00     0.239 C 
ATOM      4  O   UNL A   1      33.875  24.755  23.305  1.00  0.00    -0.273 OA
ATOM      5  H   UNL A   1      33.435  27.081  23.002  1.00  0.00     0.163 HD
BRANCH   3   6
ATOM      6  C   UNL A   1      34.044  25.115  25.673  1.00  0.00     0.222 C 
BRANCH   6   7
ATOM      7  N   UNL A   1      34.940  23.974  25.825  1.00  0.00    -0.334 N 
ATOM      8  C   UNL A   1      34.649  22.781  26.471  1.00  0.00     0.107 A 
ATOM      9  C   UNL A   1      35.800  22.011  26.407  1.00  0.00     0.033 A 
ATOM     10  C   UNL A   1      36.792  22.742  25.714  1.00  0.00     0.020 A 
ATOM     11  C   UNL A   1      36.228  23.940  25.348  1.00  0.00     0.087 A 
BRANCH   8  12
ATOM     12  C   UNL A   1      33.354  22.446  27.024  1.00  0.00     0.268 C 
ATOM     13  N   UNL A   1      32.414  21.835  26.230  1.00  0.00    -0.348 N 
ATOM     14  H   UNL A   1      31.540  21.700  26.662  1.00  0.00     0.164 HD
ATOM     15  O   UNL A   1      33.065  22.638  28.198  1.00  0.00    -0.268 OA
BRANCH  13  16
ATOM     16  C   UNL A   1      32.493  21.351  24.855  1.00  0.00     0.079 C 
ATOM     17  C   UNL A   1      31.638  22.186  23.900  1.00  0.00     0.031 C 
BRANCH  16  18
ATOM     18  C   UNL A   1      32.210  19.836  24.736  1.00  0.00     0.032 C 
BRANCH  18  19
ATOM     19  C   UNL A   1      33.065  19.005  23.774  1.00  0.00     0.077 C 
BRANCH  19  20
ATOM     20  C   UNL A   1      33.538  17.700  24.303  1.00  0.00     0.103 A 
ATOM     21  C   UNL A   1      32.930  16.498  24.607  1.00  0.00     0.045 A 
ATOM     22  O   UNL A   1      34.858  17.639  24.638  1.00  0.00    -0.469 OA
ATOM     23  C   UNL A   1      33.940  15.652  25.122  1.00  0.00     0.042 A 
ATOM     24  C   UNL A   1      35.089  16.402  25.144  1.00  0.00     0.195 A 
ENDBRANCH  19  20
ENDBRANCH  18  19
ENDBRANCH  16  18
ENDBRANCH  13  16
ENDBRANCH   8  12
ENDBRANCH   6   7
ENDBRANCH   3   6
ENDBRANCH   1   2
BRANCH   1  25
ATOM     25  C   UNL A   1      32.405  28.327  25.479  1.00  0.00     0.023 C 
BRANCH  25  26
ATOM     26  C   UNL A   1      32.482  29.163  26.762  1.00  0.00     0.023 C 
BRANCH  26  27
ATOM     27  C   UNL A   1      33.893  29.327  27.321  1.00  0.00     0.116 C 
BRANCH  27  28
ATOM     28  N   UNL A   1      34.058  30.585  28.032  1.00  0.00    -0.352 N 
ATOM     29  C   UNL A   1      35.080  30.953  28.877  1.00  0.00     0.251 C 
ATOM     30  H   UNL A   1      33.353  31.257  27.890  1.00  0.00     0.163 HD
ATOM     31  O   UNL A   1      34.904  31.876  29.668  1.00  0.00    -0.269 OA
BRANCH  29  32
ATOM     32  C   UNL A   1      36.369  30.232  28.849  1.00  0.00     0.039 A 
ATOM     33  C   UNL A   1      37.139  30.278  27.681  1.00  0.00     0.014 A 
ATOM     34  C   UNL A   1      36.790  29.473  29.947  1.00  0.00     0.014 A 
ATOM     35  C   UNL A   1      38.359  29.610  27.640  1.00  0.00     0.010 A 
ATOM     36  C   UNL A   1      38.024  28.835  29.922  1.00  0.00     0.010 A 
ATOM     37  C   UNL A   1      38.810  28.907  28.769  1.00  0.00    -0.014 A 
BRANCH  37  38
ATOM     38  C   UNL A   1      40.202  28.401  28.777  1.00  0.00     0.031 A 
ATOM     39  C   UNL A   1      41.191  29.574  29.045  1.00  0.00     0.074 A 
ATOM     40  C   UNL A   1      40.375  27.064  28.508  1.00  0.00     0.049 A 
ATOM     41  N   UNL A   1      42.365  29.818  28.550  1.00  0.00    -0.248 NA
ATOM     42  C   UNL A   1      40.751  30.718  29.903  1.00  0.00     0.031 C 
ATOM     43  C   UNL A   1      39.280  26.072  28.331  1.00  0.00     0.029 A 
ATOM     44  N   UNL A   1      41.476  26.249  28.330  1.00  0.00    -0.354 N 
ATOM     45  C   UNL A   1      42.898  30.956  29.217  1.00  0.00     0.074 A 
ATOM     46  C   UNL A   1      41.794  31.554  29.903  1.00  0.00     0.031 C 
ATOM     47  C   UNL A   1      39.760  24.852  27.984  1.00  0.00     0.029 A 
ATOM     48  C   UNL A   1      41.206  24.904  27.910  1.00  0.00     0.049 A 
ATOM     49  H   UNL A   1      42.393  26.573  28.483  1.00  0.00     0.167 HD
ATOM     50  C   UNL A   1      44.244  31.210  29.309  1.00  0.00     0.034 A 
ATOM     51  C   UNL A   1      42.093  23.935  27.497  1.00  0.00     0.034 A 
ATOM     52  C   UNL A   1      44.952  30.160  28.654  1.00  0.00     0.049 A 
ATOM     53  C   UNL A   1      43.402  24.539  27.773  1.00  0.00     0.074 A 
ATOM     54  C   UNL A   1      45.038  29.775  27.344  1.00  0.00     0.029 A 
ATOM     55  N   UNL A   1      45.364  29.123  29.463  1.00  0.00    -0.354 N 
ATOM     56  N   UNL A   1      43.901  24.700  28.958  1.00  0.00    -0.248 NA
ATOM     57  C   UNL A   1      44.194  25.051  26.649  1.00  0.00     0.031 C 
ATOM     58  C   UNL A   1      44.921  28.375  27.445  1.00  0.00     0.029 A 
ATOM     59  C   UNL A   1      45.095  27.973  28.777  1.00  0.00     0.049 A 
ATOM     60  H   UNL A   1      45.770  29.197  30.356  1.00  0.00     0.167 HD
ATOM     61  C   UNL A   1      44.879  25.630  28.740  1.00  0.00     0.074 A 
ATOM     62  C   UNL A   1      45.220  25.554  27.331  1.00  0.00     0.031 C 
ATOM     63  C   UNL A   1      44.899  26.745  29.515  1.00  0.00     0.034 A 
BRANCH  50  64
ATOM     64  C   UNL A   1      45.103  32.122  30.159  1.00  0.00     0.023 A 
ATOM     65  C   UNL A   1      44.901  32.041  31.567  1.00  0.00     0.031 A 
ATOM     66  C   UNL A   1      45.800  33.246  29.703  1.00  0.00     0.131 A 
ATOM     67  C   UNL A   1      45.226  33.101  32.424  1.00  0.00     0.055 A 
ATOM     68  C   UNL A   1      46.191  34.277  30.576  1.00  0.00     0.041 A 
ATOM     69  F   UNL A   1      46.050  33.435  28.401  1.00  0.00    -0.206 F 
ATOM     70  C   UNL A   1      45.869  34.229  31.932  1.00  0.00     0.022 A 
BRANCH  67  71
ATOM     71  S   UNL A   1      44.615  33.049  34.137  1.00  0.00     0.124 S 
ATOM     72  O   UNL A   1      45.822  32.717  34.886  1.00  0.00    -0.237 OA
ATOM     73  O   UNL A   1      44.104  34.404  34.321  1.00  0.00    -0.237 OA
ATOM     74  O   UNL A   1      43.596  32.002  34.103  1.00  0.00    -0.744 OA
ENDBRANCH  67  71
ENDBRANCH  50  64
BRANCH  51  75
ATOM     75  C   UNL A   1      42.189  22.559  26.825  1.00  0.00     0.023 A 
ATOM     76  C   UNL A   1      43.287  22.004  26.144  1.00  0.00     0.031 A 
ATOM     77  C   UNL A   1      41.099  21.641  27.020  1.00  0.00     0.131 A 
ATOM     78  C   UNL A   1      43.292  20.610  25.812  1.00  0.00     0.055 A 
ATOM     79  C   UNL A   1      41.159  20.267  26.802  1.00  0.00     0.041 A 
ATOM     80  F   UNL A   1      39.899  22.041  27.466  1.00  0.00    -0.206 F 
ATOM     81  C   UNL A   1      42.274  19.737  26.210  1.00  0.00     0.022 A 
BRANCH  78  82
ATOM     82  S   UNL A   1      44.640  19.848  24.853  1.00  0.00     0.124 S 
ATOM     83  O   UNL A   1      44.355  18.426  25.011  1.00  0.00    -0.237 OA
ATOM     84  O   UNL A   1      44.446  20.397  23.515  1.00  0.00    -0.237 OA
ATOM     85  O   UNL A   1      45.846  20.316  25.538  1.00  0.00    -0.744 OA
ENDBRANCH  78  82
ENDBRANCH  51  75
BRANCH  63  86
ATOM     86  C   UNL A   1      44.291  26.580  30.913  1.00  0.00     0.023 A 
ATOM     87  C   UNL A   1      43.201  27.385  31.309  1.00  0.00     0.031 A 
ATOM     88  C   UNL A   1      44.808  25.736  31.911  1.00  0.00     0.131 A 
ATOM     89  C   UNL A   1      42.709  27.360  32.632  1.00  0.00     0.055 A 
ATOM     90  C   UNL A   1      44.321  25.703  33.228  1.00  0.00     0.041 A 
ATOM     91  F   UNL A   1      45.818  24.908  31.654  1.00  0.00    -0.206 F 
ATOM     92  C   UNL A   1      43.266  26.523  33.597  1.00  0.00     0.022 A 
BRANCH  89  93
ATOM     93  S   UNL A   1      41.307  28.422  33.079  1.00  0.00     0.124 S 
ATOM     94  O   UNL A   1      40.283  28.025  32.121  1.00  0.00    -0.237 OA
ATOM     95  O   UNL A   1      41.063  28.053  34.471  1.00  0.00    -0.237 OA
ATOM     96  O   UNL A   1      41.832  29.776  32.893  1.00  0.00    -0.744 OA
ENDBRANCH  89  93
ENDBRANCH  63  86
ENDBRANCH  37  38
ENDBRANCH  29  32
ENDBRANCH  27  28
ENDBRANCH  26  27
ENDBRANCH  25  26
ENDBRANCH   1  25
TORSDOF 20
ENDMDL
MODEL 3
REMARK VINA RESULT:     -11.0      3.440      8.881
REMARK SMILES C[C@H](CCc1ccco1)NC(=O)c1cccn1CC(=O)NCCCCNC(=O)c1ccc(-c2c3nc(c(-c4cc(S(=O)(=O)[O-])ccc4F)c4ccc([nH]4)c(-c4cc(S(=O)(=O)[O-])ccc4F)c4nc(c(-c5cc(S(=O)(=O)[O-])ccc5F)c5ccc2[nH]5)C=C4)C=C3)cc1
REMARK SMILES IDX 22 1 21 2 19 3 20 4 18 6 17 7 13 8 14 9 15 10 16 11 11 12
REMARK SMILES IDX 10 13 12 15 2 16 1 17 3 18 4 19 5 20 6 21 9 22 7 23 8 24
REMARK SMILES IDX 23 25 24 26 25 27 26 28 27 29 28 31 29 32 30 33 91 34 31 35
REMARK SMILES IDX 90 36 32 37 33 38 34 39 84 40 35 41 89 42 83 43 85 44 36 45
REMARK SMILES IDX 88 46 82 47 81 48 37 50 69 51 49 52 68 53 50 54 53 55 67 56
REMARK SMILES IDX 86 57 51 58 52 59 66 61 87 62 54 63 38 64 39 65 47 66 40 67
REMARK SMILES IDX 46 68 48 69 45 70 41 71 42 72 43 73 44 74 70 75 71 76 79 77
REMARK SMILES IDX 72 78 78 79 80 80 77 81 73 82 74 83 75 84 76 85 55 86 56 87
REMARK SMILES IDX 64 88 57 89 63 90 65 91 62 92 58 93 59 94 60 95 61 96
REMARK H PARENT 21 5 10 14 26 30 85 49 53 60
REMARK Flexibility Score: inf
ROOT
ATOM      1  C   UNL A   1      36.255  21.377  25.523  1.00  0.00     0.116 C 
ENDROOT
BRANCH   1   2
ATOM      2  N   UNL A   1      35.267  21.355  26.583  1.00  0.00    -0.355 N 
ATOM      3  C   UNL A   1      34.362  22.318  26.930  1.00  0.00     0.239 C 
ATOM      4  O   UNL A   1      33.689  22.145  27.951  1.00  0.00    -0.273 OA
ATOM      5  H   UNL A   1      35.247  20.535  27.129  1.00  0.00     0.163 HD
BRANCH   3   6
ATOM      6  C   UNL A   1      34.152  23.535  26.048  1.00  0.00     0.222 C 
BRANCH   6   7
ATOM      7  N   UNL A   1      33.101  23.359  25.051  1.00  0.00    -0.334 N 
ATOM      8  C   UNL A   1      31.760  23.676  25.207  1.00  0.00     0.107 A 
ATOM      9  C   UNL A   1      31.131  23.302  24.029  1.00  0.00     0.033 A 
ATOM     10  C   UNL A   1      32.100  22.761  23.154  1.00  0.00     0.020 A 
ATOM     11  C   UNL A   1      33.309  22.827  23.801  1.00  0.00     0.087 A 
BRANCH   8  12
ATOM     12  C   UNL A   1      31.204  24.328  26.374  1.00  0.00     0.268 C 
ATOM     13  N   UNL A   1      31.400  25.676  26.556  1.00  0.00    -0.348 N 
ATOM     14  H   UNL A   1      31.047  26.028  27.405  1.00  0.00     0.164 HD
ATOM     15  O   UNL A   1      30.513  23.740  27.196  1.00  0.00    -0.268 OA
BRANCH  13  16
ATOM     16  C   UNL A   1      32.043  26.672  25.706  1.00  0.00     0.079 C 
ATOM     17  C   UNL A   1      33.155  27.425  26.437  1.00  0.00     0.031 C 
BRANCH  16  18
ATOM     18  C   UNL A   1      31.030  27.622  25.025  1.00  0.00     0.032 C 
BRANCH  18  19
ATOM     19  C   UNL A   1      30.378  27.178  23.712  1.00  0.00     0.077 C 
BRANCH  19  20
ATOM     20  C   UNL A   1      29.349  28.098  23.166  1.00  0.00     0.103 A 
ATOM     21  C   UNL A   1      29.383  29.288  22.467  1.00  0.00     0.045 A 
ATOM     22  O   UNL A   1      28.054  27.770  23.442  1.00  0.00    -0.469 OA
ATOM     23  C   UNL A   1      28.039  29.687  22.279  1.00  0.00     0.042 A 
ATOM     24  C   UNL A   1      27.270  28.743  22.914  1.00  0.00     0.195 A 
ENDBRANCH  19  20
ENDBRANCH  18  19
ENDBRANCH  16  18
ENDBRANCH  13  16
ENDBRANCH   8  12
ENDBRANCH   6   7
ENDBRANCH   3   6
ENDBRANCH   1   2
BRANCH   1  25
ATOM     25  C   UNL A   1      36.622  19.960  25.076  1.00  0.00     0.023 C 
BRANCH  25  26
ATOM     26  C   UNL A   1      38.101  19.752  24.730  1.00  0.00     0.023 C 
BRANCH  26  27
ATOM     27  C   UNL A   1      39.068  20.152  25.842  1.00  0.00     0.116 C 
BRANCH  27  28
ATOM     28  N   UNL A   1      40.161  19.204  25.985  1.00  0.00    -0.352 N 
ATOM     29  C   UNL A   1      41.505  19.473  26.107  1.00  0.00     0.251 C 
ATOM     30  H   UNL A   1      39.909  18.253  25.997  1.00  0.00     0.163 HD
ATOM     31  O   UNL A   1      42.321  18.590  25.859  1.00  0.00    -0.269 OA
BRANCH  29  32
ATOM     32  C   UNL A   1      41.964  20.817  26.514  1.00  0.00     0.039 A 
ATOM     33  C   UNL A   1      42.230  21.765  25.520  1.00  0.00     0.014 A 
ATOM     34  C   UNL A   1      42.181  21.123  27.863  1.00  0.00     0.014 A 
ATOM     35  C   UNL A   1      42.657  23.038  25.886  1.00  0.00     0.010 A 
ATOM     36  C   UNL A   1      42.572  22.403  28.233  1.00  0.00     0.010 A 
ATOM     37  C   UNL A   1      42.806  23.362  27.244  1.00  0.00    -0.014 A 
BRANCH  37  38
ATOM     38  C   UNL A   1      43.038  24.778  27.611  1.00  0.00     0.031 A 
ATOM     39  C   UNL A   1      41.675  25.498  27.838  1.00  0.00     0.074 A 
ATOM     40  C   UNL A   1      44.345  25.204  27.636  1.00  0.00     0.049 A 
ATOM     41  N   UNL A   1      41.297  26.701  27.538  1.00  0.00    -0.248 NA
ATOM     42  C   UNL A   1      40.515  24.714  28.366  1.00  0.00     0.031 C 
ATOM     43  C   UNL A   1      45.538  24.336  27.444  1.00  0.00     0.029 A 
ATOM     44  N   UNL A   1      44.960  26.426  27.827  1.00  0.00    -0.354 N 
ATOM     45  C   UNL A   1      39.992  26.899  28.069  1.00  0.00     0.074 A 
ATOM     46  C   UNL A   1      39.510  25.595  28.407  1.00  0.00     0.031 C 
ATOM     47  C   UNL A   1      46.686  25.057  27.430  1.00  0.00     0.029 A 
ATOM     48  C   UNL A   1      46.379  26.460  27.623  1.00  0.00     0.049 A 
ATOM     49  H   UNL A   1      44.452  27.229  28.088  1.00  0.00     0.167 HD
ATOM     50  C   UNL A   1      39.482  28.139  28.365  1.00  0.00     0.034 A 
ATOM     51  C   UNL A   1      47.219  27.550  27.576  1.00  0.00     0.034 A 
ATOM     52  C   UNL A   1      40.469  29.122  28.065  1.00  0.00     0.049 A 
ATOM     53  C   UNL A   1      46.348  28.661  27.977  1.00  0.00     0.074 A 
ATOM     54  C   UNL A   1      41.027  29.550  26.892  1.00  0.00     0.029 A 
ATOM     55  N   UNL A   1      41.276  29.497  29.118  1.00  0.00    -0.354 N 
ATOM     56  N   UNL A   1      45.918  28.858  29.184  1.00  0.00    -0.248 NA
ATOM     57  C   UNL A   1      45.876  29.595  26.949  1.00  0.00     0.031 C 
ATOM     58  C   UNL A   1      42.393  29.624  27.229  1.00  0.00     0.029 A 
ATOM     59  C   UNL A   1      42.547  29.559  28.622  1.00  0.00     0.049 A 
ATOM     60  H   UNL A   1      40.993  29.682  30.042  1.00  0.00     0.167 HD
ATOM     61  C   UNL A   1      44.867  29.710  28.985  1.00  0.00     0.074 A 
ATOM     62  C   UNL A   1      45.093  30.359  27.706  1.00  0.00     0.031 C 
ATOM     63  C   UNL A   1      43.663  29.393  29.526  1.00  0.00     0.034 A 
BRANCH  50  64
ATOM     64  C   UNL A   1      38.307  28.644  29.177  1.00  0.00     0.023 A 
ATOM     65  C   UNL A   1      37.652  29.806  28.676  1.00  0.00     0.031 A 
ATOM     66  C   UNL A   1      38.028  28.307  30.505  1.00  0.00     0.131 A 
ATOM     67  C   UNL A   1      36.912  30.656  29.508  1.00  0.00     0.055 A 
ATOM     68  C   UNL A   1      37.224  29.124  31.320  1.00  0.00     0.041 A 
ATOM     69  F   UNL A   1      38.585  27.239  31.089  1.00  0.00    -0.206 F 
ATOM     70  C   UNL A   1      36.697  30.322  30.838  1.00  0.00     0.022 A 
BRANCH  67  71
ATOM     71  S   UNL A   1      36.412  32.282  28.863  1.00  0.00     0.124 S 
ATOM     72  O   UNL A   1      35.612  32.817  29.959  1.00  0.00    -0.237 OA
ATOM     73  O   UNL A   1      37.701  32.931  28.639  1.00  0.00    -0.237 OA
ATOM     74  O   UNL A   1      35.666  31.952  27.651  1.00  0.00    -0.744 OA
ENDBRANCH  67  71
ENDBRANCH  50  64
BRANCH  51  75
ATOM     75  C   UNL A   1      48.639  27.996  27.205  1.00  0.00     0.023 A 
ATOM     76  C   UNL A   1      49.671  28.403  28.069  1.00  0.00     0.031 A 
ATOM     77  C   UNL A   1      49.049  27.853  25.834  1.00  0.00     0.131 A 
ATOM     78  C   UNL A   1      51.010  28.530  27.573  1.00  0.00     0.055 A 
ATOM     79  C   UNL A   1      50.367  27.862  25.385  1.00  0.00     0.041 A 
ATOM     80  F   UNL A   1      48.166  27.670  24.840  1.00  0.00    -0.206 F 
ATOM     81  C   UNL A   1      51.366  28.183  26.265  1.00  0.00     0.022 A 
BRANCH  78  82
ATOM     82  S   UNL A   1      52.374  29.139  28.615  1.00  0.00     0.124 S 
ATOM     83  O   UNL A   1      53.328  29.610  27.616  1.00  0.00    -0.237 OA
ATOM     84  O   UNL A   1      51.735  30.167  29.429  1.00  0.00    -0.237 OA
ATOM     85  O   UNL A   1      52.792  27.945  29.353  1.00  0.00    -0.744 OA
ENDBRANCH  78  82
ENDBRANCH  51  75
BRANCH  63  86
ATOM     86  C   UNL A   1      43.723  28.524  30.789  1.00  0.00     0.023 A 
ATOM     87  C   UNL A   1      44.301  27.238  30.735  1.00  0.00     0.031 A 
ATOM     88  C   UNL A   1      43.137  28.868  32.020  1.00  0.00     0.131 A 
ATOM     89  C   UNL A   1      44.246  26.358  31.837  1.00  0.00     0.055 A 
ATOM     90  C   UNL A   1      43.082  28.000  33.122  1.00  0.00     0.041 A 
ATOM     91  F   UNL A   1      42.583  30.064  32.205  1.00  0.00    -0.206 F 
ATOM     92  C   UNL A   1      43.636  26.732  33.033  1.00  0.00     0.022 A 
BRANCH  89  93
ATOM     93  S   UNL A   1      45.006  24.715  31.704  1.00  0.00     0.124 S 
ATOM     94  O   UNL A   1      46.266  24.997  31.027  1.00  0.00    -0.237 OA
ATOM     95  O   UNL A   1      45.104  24.300  33.100  1.00  0.00    -0.237 OA
ATOM     96  O   UNL A   1      44.038  23.957  30.910  1.00  0.00    -0.744 OA
ENDBRANCH  89  93
ENDBRANCH  63  86
ENDBRANCH  37  38
ENDBRANCH  29  32
ENDBRANCH  27  28
ENDBRANCH  26  27
ENDBRANCH  25  26
ENDBRANCH   1  25
TORSDOF 20
ENDMDL
