MODEL 1
REMARK VINA RESULT:     -12.1      0.000      0.000
REMARK SMILES COc1ccc(-c2ccc3n(c2=O)C[C@H]2C[C@@H]3CN(C(=O)CCCC(=O)NCCCCNC(=O)c3ccc(-c4c5nc(c(-c6cc(S(=O)(=O)[O-])ccc6F)c6ccc([nH]6)c(-c6cc(S(=O)(=O)[O-])ccc6F)c6nc(c(-c7cc(S(=O)(=O)[O-])ccc7F)c7ccc4[nH]7)C=C6)C=C5)cc3)C2)cc1
REMARK SMILES IDX 28 1 27 2 25 3 26 4 24 6 23 7 22 8 20 9 21 10 19 11 7 12
REMARK SMILES IDX 8 13 12 14 9 15 11 16 13 17 10 18 14 19 17 20 15 21 16 22
REMARK SMILES IDX 18 23 98 24 6 25 3 26 4 27 100 28 5 29 99 30 2 31 1 32 29 33
REMARK SMILES IDX 30 34 31 35 32 36 33 37 34 39 35 40 36 41 97 42 37 43 96 44
REMARK SMILES IDX 38 45 39 46 40 47 90 48 41 49 95 50 89 51 91 52 42 53 94 54
REMARK SMILES IDX 88 55 87 56 43 58 75 59 55 60 74 61 56 62 59 63 73 64 92 65
REMARK SMILES IDX 57 66 58 67 72 69 93 70 60 71 44 72 45 73 53 74 46 75 52 76
REMARK SMILES IDX 54 77 51 78 47 79 48 80 49 81 50 82 76 83 77 84 85 85 78 86
REMARK SMILES IDX 84 87 86 88 83 89 79 90 80 91 81 92 82 93 61 94 62 95 70 96
REMARK SMILES IDX 63 97 69 98 71 99 68 100 64 101 65 102 66 103 67 104
REMARK H PARENT 27 5 32 38 91 57 59 68
REMARK Flexibility Score: inf
ROOT
ATOM      1  C   UNL A   1      34.954  29.815  27.547  1.00  0.00     0.116 C 
ENDROOT
BRANCH   1   2
ATOM      2  N   UNL A   1      33.662  29.279  27.900  1.00  0.00    -0.356 N 
ATOM      3  C   UNL A   1      32.741  28.546  27.229  1.00  0.00     0.220 C 
ATOM      4  O   UNL A   1      31.826  28.079  27.920  1.00  0.00    -0.275 OA
ATOM      5  H   UNL A   1      33.394  29.490  28.823  1.00  0.00     0.163 HD
BRANCH   3   6
ATOM      6  C   UNL A   1      32.792  28.198  25.743  1.00  0.00     0.100 C 
BRANCH   6   7
ATOM      7  C   UNL A   1      33.726  27.109  25.231  1.00  0.00     0.020 C 
BRANCH   7   8
ATOM      8  C   UNL A   1      33.787  25.734  25.890  1.00  0.00     0.101 C 
BRANCH   8   9
ATOM      9  C   UNL A   1      34.620  24.600  25.291  1.00  0.00     0.222 C 
ATOM     10  O   UNL A   1      35.845  24.647  25.454  1.00  0.00    -0.275 OA
BRANCH   9  11
ATOM     11  N   UNL A   1      34.021  23.471  24.743  1.00  0.00    -0.342 N 
ATOM     12  C   UNL A   1      30.652  26.809  23.102  1.00  0.00     0.047 A 
ATOM     13  C   UNL A   1      31.546  26.640  22.115  1.00  0.00     0.016 A 
ATOM     14  C   UNL A   1      30.415  25.679  24.066  1.00  0.00     0.258 A 
ATOM     15  C   UNL A   1      32.244  25.398  21.941  1.00  0.00     0.023 A 
ATOM     16  N   UNL A   1      31.136  24.497  23.834  1.00  0.00    -0.311 N 
ATOM     17  O   UNL A   1      29.611  25.801  24.991  1.00  0.00    -0.269 OA
ATOM     18  C   UNL A   1      32.031  24.365  22.769  1.00  0.00     0.026 A 
ATOM     19  C   UNL A   1      30.851  23.378  24.730  1.00  0.00     0.131 C 
ATOM     20  C   UNL A   1      32.824  23.081  22.602  1.00  0.00     0.056 C 
ATOM     21  C   UNL A   1      31.835  22.203  24.667  1.00  0.00     0.029 C 
ATOM     22  C   UNL A   1      32.091  21.881  23.203  1.00  0.00     0.019 C 
ATOM     23  C   UNL A   1      34.184  23.237  23.305  1.00  0.00     0.129 C 
ATOM     24  C   UNL A   1      33.166  22.483  25.397  1.00  0.00     0.125 C 
BRANCH  12  25
ATOM     25  C   UNL A   1      29.894  28.068  23.185  1.00  0.00    -0.013 A 
ATOM     26  C   UNL A   1      28.387  30.426  23.390  1.00  0.00     0.118 A 
ATOM     27  C   UNL A   1      29.754  30.441  23.668  1.00  0.00     0.047 A 
ATOM     28  C   UNL A   1      27.777  29.246  22.969  1.00  0.00     0.047 A 
ATOM     29  C   UNL A   1      30.504  29.263  23.579  1.00  0.00     0.013 A 
ATOM     30  C   UNL A   1      28.526  28.072  22.874  1.00  0.00     0.013 A 
BRANCH  26  31
ATOM     31  O   UNL A   1      27.729  31.620  23.516  1.00  0.00    -0.497 OA
ATOM     32  C   UNL A   1      28.404  32.713  22.898  1.00  0.00     0.278 C 
ENDBRANCH  26  31
ENDBRANCH  12  25
ENDBRANCH   9  11
ENDBRANCH   8   9
ENDBRANCH   7   8
ENDBRANCH   6   7
ENDBRANCH   3   6
ENDBRANCH   1   2
BRANCH   1  33
ATOM     33  C   UNL A   1      35.151  31.269  27.971  1.00  0.00     0.023 C 
BRANCH  33  34
ATOM     34  C   UNL A   1      33.853  32.070  27.977  1.00  0.00     0.023 C 
BRANCH  34  35
ATOM     35  C   UNL A   1      34.015  33.559  27.674  1.00  0.00     0.116 C 
BRANCH  35  36
ATOM     36  N   UNL A   1      33.083  34.418  28.390  1.00  0.00    -0.352 N 
ATOM     37  C   UNL A   1      33.154  34.830  29.705  1.00  0.00     0.251 C 
ATOM     38  H   UNL A   1      32.309  34.743  27.876  1.00  0.00     0.163 HD
ATOM     39  O   UNL A   1      32.257  35.510  30.197  1.00  0.00    -0.269 OA
BRANCH  37  40
ATOM     40  C   UNL A   1      34.306  34.393  30.522  1.00  0.00     0.039 A 
ATOM     41  C   UNL A   1      34.105  33.435  31.516  1.00  0.00     0.014 A 
ATOM     42  C   UNL A   1      35.595  34.837  30.211  1.00  0.00     0.014 A 
ATOM     43  C   UNL A   1      35.211  32.846  32.133  1.00  0.00     0.010 A 
ATOM     44  C   UNL A   1      36.694  34.189  30.768  1.00  0.00     0.010 A 
ATOM     45  C   UNL A   1      36.514  33.176  31.724  1.00  0.00    -0.014 A 
BRANCH  45  46
ATOM     46  C   UNL A   1      37.699  32.458  32.269  1.00  0.00     0.031 A 
ATOM     47  C   UNL A   1      38.274  32.854  33.601  1.00  0.00     0.074 A 
ATOM     48  C   UNL A   1      38.299  31.500  31.531  1.00  0.00     0.049 A 
ATOM     49  N   UNL A   1      39.336  32.396  34.213  1.00  0.00    -0.248 NA
ATOM     50  C   UNL A   1      37.584  33.935  34.320  1.00  0.00     0.031 C 
ATOM     51  C   UNL A   1      37.875  31.068  30.197  1.00  0.00     0.029 A 
ATOM     52  N   UNL A   1      39.398  30.719  31.794  1.00  0.00    -0.354 N 
ATOM     53  C   UNL A   1      39.448  33.142  35.382  1.00  0.00     0.074 A 
ATOM     54  C   UNL A   1      38.389  34.128  35.353  1.00  0.00     0.031 C 
ATOM     55  C   UNL A   1      38.683  30.082  29.775  1.00  0.00     0.029 A 
ATOM     56  C   UNL A   1      39.707  29.836  30.784  1.00  0.00     0.049 A 
ATOM     57  H   UNL A   1      39.917  30.786  32.628  1.00  0.00     0.167 HD
ATOM     58  C   UNL A   1      40.335  32.999  36.400  1.00  0.00     0.034 A 
ATOM     59  C   UNL A   1      40.703  28.934  30.681  1.00  0.00     0.034 A 
ATOM     60  C   UNL A   1      41.372  31.997  36.424  1.00  0.00     0.049 A 
ATOM     61  C   UNL A   1      41.678  28.792  31.824  1.00  0.00     0.074 A 
ATOM     62  C   UNL A   1      42.280  31.720  37.431  1.00  0.00     0.029 A 
ATOM     63  N   UNL A   1      41.643  31.109  35.390  1.00  0.00    -0.354 N 
ATOM     64  N   UNL A   1      41.729  29.462  32.952  1.00  0.00    -0.248 NA
ATOM     65  C   UNL A   1      42.717  27.764  31.685  1.00  0.00     0.031 C 
ATOM     66  C   UNL A   1      43.139  30.709  36.983  1.00  0.00     0.029 A 
ATOM     67  C   UNL A   1      42.723  30.305  35.725  1.00  0.00     0.049 A 
ATOM     68  H   UNL A   1      41.143  31.059  34.544  1.00  0.00     0.167 HD
ATOM     69  C   UNL A   1      42.790  28.914  33.669  1.00  0.00     0.074 A 
ATOM     70  C   UNL A   1      43.339  27.852  32.852  1.00  0.00     0.031 C 
ATOM     71  C   UNL A   1      43.264  29.255  34.895  1.00  0.00     0.034 A 
BRANCH  58  72
ATOM     72  C   UNL A   1      40.220  33.964  37.556  1.00  0.00     0.023 A 
ATOM     73  C   UNL A   1      39.534  33.623  38.734  1.00  0.00     0.031 A 
ATOM     74  C   UNL A   1      40.771  35.254  37.467  1.00  0.00     0.131 A 
ATOM     75  C   UNL A   1      39.339  34.585  39.736  1.00  0.00     0.055 A 
ATOM     76  C   UNL A   1      40.650  36.180  38.506  1.00  0.00     0.041 A 
ATOM     77  F   UNL A   1      41.421  35.646  36.359  1.00  0.00    -0.206 F 
ATOM     78  C   UNL A   1      39.914  35.854  39.643  1.00  0.00     0.022 A 
BRANCH  75  79
ATOM     79  S   UNL A   1      38.190  34.204  41.087  1.00  0.00     0.124 S 
ATOM     80  O   UNL A   1      39.057  33.475  42.012  1.00  0.00    -0.237 OA
ATOM     81  O   UNL A   1      37.763  35.528  41.522  1.00  0.00    -0.237 OA
ATOM     82  O   UNL A   1      37.159  33.394  40.442  1.00  0.00    -0.744 OA
ENDBRANCH  75  79
ENDBRANCH  58  72
BRANCH  59  83
ATOM     83  C   UNL A   1      40.838  28.089  29.460  1.00  0.00     0.023 A 
ATOM     84  C   UNL A   1      41.753  28.422  28.448  1.00  0.00     0.031 A 
ATOM     85  C   UNL A   1      40.026  26.958  29.268  1.00  0.00     0.131 A 
ATOM     86  C   UNL A   1      41.801  27.662  27.269  1.00  0.00     0.055 A 
ATOM     87  C   UNL A   1      40.113  26.174  28.114  1.00  0.00     0.041 A 
ATOM     88  F   UNL A   1      39.140  26.590  30.208  1.00  0.00    -0.206 F 
ATOM     89  C   UNL A   1      40.996  26.533  27.101  1.00  0.00     0.022 A 
BRANCH  86  90
ATOM     90  S   UNL A   1      42.880  28.217  25.920  1.00  0.00     0.124 S 
ATOM     91  O   UNL A   1      42.231  27.624  24.758  1.00  0.00    -0.237 OA
ATOM     92  O   UNL A   1      42.785  29.669  26.037  1.00  0.00    -0.237 OA
ATOM     93  O   UNL A   1      44.181  27.649  26.268  1.00  0.00    -0.744 OA
ENDBRANCH  86  90
ENDBRANCH  59  83
BRANCH  71  94
ATOM     94  C   UNL A   1      44.407  28.435  35.439  1.00  0.00     0.023 A 
ATOM     95  C   UNL A   1      44.204  27.425  36.396  1.00  0.00     0.031 A 
ATOM     96  C   UNL A   1      45.720  28.673  34.996  1.00  0.00     0.131 A 
ATOM     97  C   UNL A   1      45.302  26.725  36.916  1.00  0.00     0.055 A 
ATOM     98  C   UNL A   1      46.802  27.934  35.474  1.00  0.00     0.041 A 
ATOM     99  F   UNL A   1      45.970  29.626  34.083  1.00  0.00    -0.206 F 
ATOM    100  C   UNL A   1      46.598  26.962  36.449  1.00  0.00     0.022 A 
BRANCH  97 101
ATOM    101  S   UNL A   1      45.026  25.552  38.272  1.00  0.00     0.124 S 
ATOM    102  O   UNL A   1      43.990  26.226  39.049  1.00  0.00    -0.237 OA
ATOM    103  O   UNL A   1      44.609  24.348  37.562  1.00  0.00    -0.237 OA
ATOM    104  O   UNL A   1      46.332  25.466  38.922  1.00  0.00    -0.744 OA
ENDBRANCH  97 101
ENDBRANCH  71  94
ENDBRANCH  45  46
ENDBRANCH  37  40
ENDBRANCH  35  36
ENDBRANCH  34  35
ENDBRANCH  33  34
ENDBRANCH   1  33
TORSDOF 20
ENDMDL
MODEL 2
REMARK VINA RESULT:     -12.1      5.558     11.518
REMARK SMILES COc1ccc(-c2ccc3n(c2=O)C[C@H]2C[C@@H]3CN(C(=O)CCCC(=O)NCCCCNC(=O)c3ccc(-c4c5nc(c(-c6cc(S(=O)(=O)[O-])ccc6F)c6ccc([nH]6)c(-c6cc(S(=O)(=O)[O-])ccc6F)c6nc(c(-c7cc(S(=O)(=O)[O-])ccc7F)c7ccc4[nH]7)C=C6)C=C5)cc3)C2)cc1
REMARK SMILES IDX 28 1 27 2 25 3 26 4 24 6 23 7 22 8 20 9 21 10 19 11 7 12
REMARK SMILES IDX 8 13 12 14 9 15 11 16 13 17 10 18 14 19 17 20 15 21 16 22
REMARK SMILES IDX 18 23 98 24 6 25 3 26 4 27 100 28 5 29 99 30 2 31 1 32 29 33
REMARK SMILES IDX 30 34 31 35 32 36 33 37 34 39 35 40 36 41 97 42 37 43 96 44
REMARK SMILES IDX 38 45 39 46 40 47 90 48 41 49 95 50 89 51 91 52 42 53 94 54
REMARK SMILES IDX 88 55 87 56 43 58 75 59 55 60 74 61 56 62 59 63 73 64 92 65
REMARK SMILES IDX 57 66 58 67 72 69 93 70 60 71 44 72 45 73 53 74 46 75 52 76
REMARK SMILES IDX 54 77 51 78 47 79 48 80 49 81 50 82 76 83 77 84 85 85 78 86
REMARK SMILES IDX 84 87 86 88 83 89 79 90 80 91 81 92 82 93 61 94 62 95 70 96
REMARK SMILES IDX 63 97 69 98 71 99 68 100 64 101 65 102 66 103 67 104
REMARK H PARENT 27 5 32 38 91 57 59 68
REMARK Flexibility Score: inf
ROOT
ATOM      1  C   UNL A   1      38.333  24.066  26.298  1.00  0.00     0.116 C 
ENDROOT
BRANCH   1   2
ATOM      2  N   UNL A   1      37.835  23.656  25.008  1.00  0.00    -0.356 N 
ATOM      3  C   UNL A   1      36.624  23.243  24.563  1.00  0.00     0.220 C 
ATOM      4  O   UNL A   1      36.505  23.172  23.332  1.00  0.00    -0.275 OA
ATOM      5  H   UNL A   1      38.520  23.683  24.302  1.00  0.00     0.163 HD
BRANCH   3   6
ATOM      6  C   UNL A   1      35.409  22.945  25.439  1.00  0.00     0.100 C 
BRANCH   6   7
ATOM      7  C   UNL A   1      34.513  24.073  25.934  1.00  0.00     0.020 C 
BRANCH   7   8
ATOM      8  C   UNL A   1      34.353  25.371  25.147  1.00  0.00     0.101 C 
BRANCH   8   9
ATOM      9  C   UNL A   1      33.493  26.521  25.673  1.00  0.00     0.222 C 
ATOM     10  O   UNL A   1      33.995  27.262  26.527  1.00  0.00    -0.275 OA
BRANCH   9  11
ATOM     11  N   UNL A   1      32.268  26.833  25.095  1.00  0.00    -0.342 N 
ATOM     12  C   UNL A   1      32.026  21.869  24.395  1.00  0.00     0.047 A 
ATOM     13  C   UNL A   1      31.389  22.132  25.547  1.00  0.00     0.016 A 
ATOM     14  C   UNL A   1      32.073  22.934  23.334  1.00  0.00     0.258 A 
ATOM     15  C   UNL A   1      30.725  23.384  25.766  1.00  0.00     0.023 A 
ATOM     16  N   UNL A   1      31.403  24.134  23.622  1.00  0.00    -0.311 N 
ATOM     17  O   UNL A   1      32.658  22.734  22.269  1.00  0.00    -0.269 OA
ATOM     18  C   UNL A   1      30.727  24.341  24.826  1.00  0.00     0.026 A 
ATOM     19  C   UNL A   1      31.391  25.140  22.561  1.00  0.00     0.131 C 
ATOM     20  C   UNL A   1      30.067  25.680  25.104  1.00  0.00     0.056 C 
ATOM     21  C   UNL A   1      30.924  26.541  22.973  1.00  0.00     0.029 C 
ATOM     22  C   UNL A   1      29.664  26.391  23.810  1.00  0.00     0.019 C 
ATOM     23  C   UNL A   1      31.054  26.574  25.875  1.00  0.00     0.129 C 
ATOM     24  C   UNL A   1      31.995  27.336  23.751  1.00  0.00     0.125 C 
BRANCH  12  25
ATOM     25  C   UNL A   1      32.615  20.537  24.180  1.00  0.00    -0.013 A 
ATOM     26  C   UNL A   1      33.733  17.984  23.855  1.00  0.00     0.118 A 
ATOM     27  C   UNL A   1      32.664  18.388  23.056  1.00  0.00     0.047 A 
ATOM     28  C   UNL A   1      34.273  18.866  24.789  1.00  0.00     0.047 A 
ATOM     29  C   UNL A   1      32.097  19.656  23.225  1.00  0.00     0.013 A 
ATOM     30  C   UNL A   1      33.712  20.133  24.955  1.00  0.00     0.013 A 
BRANCH  26  31
ATOM     31  O   UNL A   1      34.216  16.723  23.631  1.00  0.00    -0.497 OA
ATOM     32  C   UNL A   1      34.719  16.087  24.804  1.00  0.00     0.278 C 
ENDBRANCH  26  31
ENDBRANCH  12  25
ENDBRANCH   9  11
ENDBRANCH   8   9
ENDBRANCH   7   8
ENDBRANCH   6   7
ENDBRANCH   3   6
ENDBRANCH   1   2
BRANCH   1  33
ATOM     33  C   UNL A   1      39.607  23.340  26.723  1.00  0.00     0.023 C 
BRANCH  33  34
ATOM     34  C   UNL A   1      39.634  21.877  26.290  1.00  0.00     0.023 C 
BRANCH  34  35
ATOM     35  C   UNL A   1      40.565  20.981  27.104  1.00  0.00     0.116 C 
BRANCH  35  36
ATOM     36  N   UNL A   1      41.394  20.095  26.300  1.00  0.00    -0.352 N 
ATOM     37  C   UNL A   1      42.634  20.362  25.755  1.00  0.00     0.251 C 
ATOM     38  H   UNL A   1      41.028  19.199  26.123  1.00  0.00     0.163 HD
ATOM     39  O   UNL A   1      43.194  19.534  25.041  1.00  0.00    -0.269 OA
BRANCH  37  40
ATOM     40  C   UNL A   1      43.247  21.684  26.006  1.00  0.00     0.039 A 
ATOM     41  C   UNL A   1      43.143  22.674  25.028  1.00  0.00     0.014 A 
ATOM     42  C   UNL A   1      43.804  21.972  27.256  1.00  0.00     0.014 A 
ATOM     43  C   UNL A   1      43.509  23.985  25.340  1.00  0.00     0.010 A 
ATOM     44  C   UNL A   1      44.089  23.293  27.588  1.00  0.00     0.010 A 
ATOM     45  C   UNL A   1      43.930  24.317  26.639  1.00  0.00    -0.014 A 
BRANCH  45  46
ATOM     46  C   UNL A   1      44.189  25.730  27.029  1.00  0.00     0.031 A 
ATOM     47  C   UNL A   1      45.568  26.311  26.886  1.00  0.00     0.074 A 
ATOM     48  C   UNL A   1      43.198  26.464  27.579  1.00  0.00     0.049 A 
ATOM     49  N   UNL A   1      46.007  27.495  27.229  1.00  0.00    -0.248 NA
ATOM     50  C   UNL A   1      46.598  25.430  26.318  1.00  0.00     0.031 C 
ATOM     51  C   UNL A   1      41.833  25.994  27.828  1.00  0.00     0.029 A 
ATOM     52  N   UNL A   1      43.187  27.760  28.033  1.00  0.00    -0.354 N 
ATOM     53  C   UNL A   1      47.365  27.496  26.930  1.00  0.00     0.074 A 
ATOM     54  C   UNL A   1      47.688  26.170  26.448  1.00  0.00     0.031 C 
ATOM     55  C   UNL A   1      41.113  26.995  28.360  1.00  0.00     0.029 A 
ATOM     56  C   UNL A   1      41.968  28.165  28.529  1.00  0.00     0.049 A 
ATOM     57  H   UNL A   1      43.978  28.346  28.008  1.00  0.00     0.167 HD
ATOM     58  C   UNL A   1      48.256  28.516  27.023  1.00  0.00     0.034 A 
ATOM     59  C   UNL A   1      41.583  29.342  29.061  1.00  0.00     0.034 A 
ATOM     60  C   UNL A   1      47.914  29.838  27.486  1.00  0.00     0.049 A 
ATOM     61  C   UNL A   1      42.589  30.462  29.155  1.00  0.00     0.074 A 
ATOM     62  C   UNL A   1      48.719  30.962  27.557  1.00  0.00     0.029 A 
ATOM     63  N   UNL A   1      46.664  30.215  27.963  1.00  0.00    -0.354 N 
ATOM     64  N   UNL A   1      43.855  30.465  28.806  1.00  0.00    -0.248 NA
ATOM     65  C   UNL A   1      42.111  31.740  29.699  1.00  0.00     0.031 C 
ATOM     66  C   UNL A   1      47.976  31.999  28.133  1.00  0.00     0.029 A 
ATOM     67  C   UNL A   1      46.686  31.545  28.356  1.00  0.00     0.049 A 
ATOM     68  H   UNL A   1      45.879  29.624  28.016  1.00  0.00     0.167 HD
ATOM     69  C   UNL A   1      44.315  31.754  29.062  1.00  0.00     0.074 A 
ATOM     70  C   UNL A   1      43.189  32.502  29.580  1.00  0.00     0.031 C 
ATOM     71  C   UNL A   1      45.556  32.275  28.880  1.00  0.00     0.034 A 
BRANCH  58  72
ATOM     72  C   UNL A   1      49.684  28.224  26.626  1.00  0.00     0.023 A 
ATOM     73  C   UNL A   1      50.158  28.495  25.331  1.00  0.00     0.031 A 
ATOM     74  C   UNL A   1      50.573  27.633  27.541  1.00  0.00     0.131 A 
ATOM     75  C   UNL A   1      51.451  28.096  24.960  1.00  0.00     0.055 A 
ATOM     76  C   UNL A   1      51.888  27.319  27.191  1.00  0.00     0.041 A 
ATOM     77  F   UNL A   1      50.173  27.331  28.787  1.00  0.00    -0.206 F 
ATOM     78  C   UNL A   1      52.329  27.534  25.888  1.00  0.00     0.022 A 
BRANCH  75  79
ATOM     79  S   UNL A   1      51.910  28.180  23.208  1.00  0.00     0.124 S 
ATOM     80  O   UNL A   1      50.674  28.675  22.604  1.00  0.00    -0.237 OA
ATOM     81  O   UNL A   1      53.032  29.111  23.218  1.00  0.00    -0.237 OA
ATOM     82  O   UNL A   1      52.246  26.798  22.874  1.00  0.00    -0.744 OA
ENDBRANCH  75  79
ENDBRANCH  58  72
BRANCH  59  83
ATOM     83  C   UNL A   1      40.187  29.534  29.549  1.00  0.00     0.023 A 
ATOM     84  C   UNL A   1      39.896  29.554  30.922  1.00  0.00     0.031 A 
ATOM     85  C   UNL A   1      39.116  29.662  28.646  1.00  0.00     0.131 A 
ATOM     86  C   UNL A   1      38.565  29.649  31.355  1.00  0.00     0.055 A 
ATOM     87  C   UNL A   1      37.797  29.807  29.083  1.00  0.00     0.041 A 
ATOM     88  F   UNL A   1      39.339  29.658  27.322  1.00  0.00    -0.206 F 
ATOM     89  C   UNL A   1      37.514  29.788  30.445  1.00  0.00     0.022 A 
BRANCH  86  90
ATOM     90  S   UNL A   1      38.216  29.509  33.130  1.00  0.00     0.124 S 
ATOM     91  O   UNL A   1      37.117  28.551  33.142  1.00  0.00    -0.237 OA
ATOM     92  O   UNL A   1      39.492  29.028  33.651  1.00  0.00    -0.237 OA
ATOM     93  O   UNL A   1      37.862  30.873  33.517  1.00  0.00    -0.744 OA
ENDBRANCH  86  90
ENDBRANCH  59  83
BRANCH  71  94
ATOM     94  C   UNL A   1      45.740  33.736  29.204  1.00  0.00     0.023 A 
ATOM     95  C   UNL A   1      45.486  34.742  28.256  1.00  0.00     0.031 A 
ATOM     96  C   UNL A   1      46.182  34.125  30.482  1.00  0.00     0.131 A 
ATOM     97  C   UNL A   1      45.724  36.085  28.583  1.00  0.00     0.055 A 
ATOM     98  C   UNL A   1      46.362  35.466  30.820  1.00  0.00     0.041 A 
ATOM     99  F   UNL A   1      46.440  33.204  31.425  1.00  0.00    -0.206 F 
ATOM    100  C   UNL A   1      46.144  36.454  29.864  1.00  0.00     0.022 A 
BRANCH  97 101
ATOM    101  S   UNL A   1      45.553  37.342  27.286  1.00  0.00     0.124 S 
ATOM    102  O   UNL A   1      44.132  37.251  26.963  1.00  0.00    -0.237 OA
ATOM    103  O   UNL A   1      45.973  38.558  27.973  1.00  0.00    -0.237 OA
ATOM    104  O   UNL A   1      46.459  36.878  26.238  1.00  0.00    -0.744 OA
ENDBRANCH  97 101
ENDBRANCH  71  94
ENDBRANCH  45  46
ENDBRANCH  37  40
ENDBRANCH  35  36
ENDBRANCH  34  35
ENDBRANCH  33  34
ENDBRANCH   1  33
TORSDOF 20
ENDMDL
MODEL 3
REMARK VINA RESULT:     -11.9      1.851      2.216
REMARK SMILES COc1ccc(-c2ccc3n(c2=O)C[C@H]2C[C@@H]3CN(C(=O)CCCC(=O)NCCCCNC(=O)c3ccc(-c4c5nc(c(-c6cc(S(=O)(=O)[O-])ccc6F)c6ccc([nH]6)c(-c6cc(S(=O)(=O)[O-])ccc6F)c6nc(c(-c7cc(S(=O)(=O)[O-])ccc7F)c7ccc4[nH]7)C=C6)C=C5)cc3)C2)cc1
REMARK SMILES IDX 28 1 27 2 25 3 26 4 24 6 23 7 22 8 20 9 21 10 19 11 7 12
REMARK SMILES IDX 8 13 12 14 9 15 11 16 13 17 10 18 14 19 17 20 15 21 16 22
REMARK SMILES IDX 18 23 98 24 6 25 3 26 4 27 100 28 5 29 99 30 2 31 1 32 29 33
REMARK SMILES IDX 30 34 31 35 32 36 33 37 34 39 35 40 36 41 97 42 37 43 96 44
REMARK SMILES IDX 38 45 39 46 40 47 90 48 41 49 95 50 89 51 91 52 42 53 94 54
REMARK SMILES IDX 88 55 87 56 43 58 75 59 55 60 74 61 56 62 59 63 73 64 92 65
REMARK SMILES IDX 57 66 58 67 72 69 93 70 60 71 44 72 45 73 53 74 46 75 52 76
REMARK SMILES IDX 54 77 51 78 47 79 48 80 49 81 50 82 76 83 77 84 85 85 78 86
REMARK SMILES IDX 84 87 86 88 83 89 79 90 80 91 81 92 82 93 61 94 62 95 70 96
REMARK SMILES IDX 63 97 69 98 71 99 68 100 64 101 65 102 66 103 67 104
REMARK H PARENT 27 5 32 38 91 57 59 68
REMARK Flexibility Score: inf
ROOT
ATOM      1  C   UNL A   1      35.015  29.317  27.631  1.00  0.00     0.116 C 
ENDROOT
BRANCH   1   2
ATOM      2  N   UNL A   1      33.669  28.906  27.946  1.00  0.00    -0.356 N 
ATOM      3  C   UNL A   1      32.682  28.313  27.232  1.00  0.00     0.220 C 
ATOM      4  O   UNL A   1      31.714  27.912  27.892  1.00  0.00    -0.275 OA
ATOM      5  H   UNL A   1      33.414  29.096  28.878  1.00  0.00     0.163 HD
BRANCH   3   6
ATOM      6  C   UNL A   1      32.713  28.039  25.730  1.00  0.00     0.100 C 
BRANCH   6   7
ATOM      7  C   UNL A   1      33.651  26.990  25.149  1.00  0.00     0.020 C 
BRANCH   7   8
ATOM      8  C   UNL A   1      33.856  25.638  25.829  1.00  0.00     0.101 C 
BRANCH   8   9
ATOM      9  C   UNL A   1      34.704  24.542  25.182  1.00  0.00     0.222 C 
ATOM     10  O   UNL A   1      35.932  24.625  25.308  1.00  0.00    -0.275 OA
BRANCH   9  11
ATOM     11  N   UNL A   1      34.124  23.406  24.630  1.00  0.00    -0.342 N 
ATOM     12  C   UNL A   1      30.734  26.704  22.949  1.00  0.00     0.047 A 
ATOM     13  C   UNL A   1      31.640  26.543  21.971  1.00  0.00     0.016 A 
ATOM     14  C   UNL A   1      30.500  25.572  23.913  1.00  0.00     0.258 A 
ATOM     15  C   UNL A   1      32.353  25.309  21.807  1.00  0.00     0.023 A 
ATOM     16  N   UNL A   1      31.237  24.398  23.690  1.00  0.00    -0.311 N 
ATOM     17  O   UNL A   1      29.685  25.687  24.829  1.00  0.00    -0.269 OA
ATOM     18  C   UNL A   1      32.144  24.275  22.635  1.00  0.00     0.026 A 
ATOM     19  C   UNL A   1      30.955  23.277  24.585  1.00  0.00     0.131 C 
ATOM     20  C   UNL A   1      32.953  22.999  22.477  1.00  0.00     0.056 C 
ATOM     21  C   UNL A   1      31.953  22.113  24.534  1.00  0.00     0.029 C 
ATOM     22  C   UNL A   1      32.227  21.792  23.073  1.00  0.00     0.019 C 
ATOM     23  C   UNL A   1      34.304  23.172  23.194  1.00  0.00     0.129 C 
ATOM     24  C   UNL A   1      33.274  22.410  25.277  1.00  0.00     0.125 C 
BRANCH  12  25
ATOM     25  C   UNL A   1      29.961  27.954  23.022  1.00  0.00    -0.013 A 
ATOM     26  C   UNL A   1      28.438  30.302  23.225  1.00  0.00     0.118 A 
ATOM     27  C   UNL A   1      29.831  30.368  23.218  1.00  0.00     0.047 A 
ATOM     28  C   UNL A   1      27.801  29.070  23.089  1.00  0.00     0.047 A 
ATOM     29  C   UNL A   1      30.592  29.197  23.130  1.00  0.00     0.013 A 
ATOM     30  C   UNL A   1      28.559  27.902  22.995  1.00  0.00     0.013 A 
BRANCH  26  31
ATOM     31  O   UNL A   1      27.773  31.494  23.328  1.00  0.00    -0.497 OA
ATOM     32  C   UNL A   1      28.021  32.383  22.241  1.00  0.00     0.278 C 
ENDBRANCH  26  31
ENDBRANCH  12  25
ENDBRANCH   9  11
ENDBRANCH   8   9
ENDBRANCH   7   8
ENDBRANCH   6   7
ENDBRANCH   3   6
ENDBRANCH   1   2
BRANCH   1  33
ATOM     33  C   UNL A   1      35.307  30.776  27.974  1.00  0.00     0.023 C 
BRANCH  33  34
ATOM     34  C   UNL A   1      34.079  31.673  27.861  1.00  0.00     0.023 C 
BRANCH  34  35
ATOM     35  C   UNL A   1      34.380  33.169  27.785  1.00  0.00     0.116 C 
BRANCH  35  36
ATOM     36  N   UNL A   1      33.575  33.986  28.682  1.00  0.00    -0.352 N 
ATOM     37  C   UNL A   1      33.812  34.263  30.013  1.00  0.00     0.251 C 
ATOM     38  H   UNL A   1      32.765  34.389  28.293  1.00  0.00     0.163 HD
ATOM     39  O   UNL A   1      33.008  34.923  30.666  1.00  0.00    -0.269 OA
BRANCH  37  40
ATOM     40  C   UNL A   1      35.025  33.705  30.646  1.00  0.00     0.039 A 
ATOM     41  C   UNL A   1      34.904  32.581  31.464  1.00  0.00     0.014 A 
ATOM     42  C   UNL A   1      36.284  34.219  30.323  1.00  0.00     0.014 A 
ATOM     43  C   UNL A   1      36.056  31.908  31.878  1.00  0.00     0.010 A 
ATOM     44  C   UNL A   1      37.425  33.500  30.669  1.00  0.00     0.010 A 
ATOM     45  C   UNL A   1      37.323  32.328  31.437  1.00  0.00    -0.014 A 
BRANCH  45  46
ATOM     46  C   UNL A   1      38.548  31.544  31.751  1.00  0.00     0.031 A 
ATOM     47  C   UNL A   1      39.326  31.830  33.006  1.00  0.00     0.074 A 
ATOM     48  C   UNL A   1      38.999  30.626  30.871  1.00  0.00     0.049 A 
ATOM     49  N   UNL A   1      40.449  31.303  33.422  1.00  0.00    -0.248 NA
ATOM     50  C   UNL A   1      38.788  32.875  33.889  1.00  0.00     0.031 C 
ATOM     51  C   UNL A   1      38.369  30.300  29.588  1.00  0.00     0.029 A 
ATOM     52  N   UNL A   1      40.096  29.800  30.915  1.00  0.00    -0.354 N 
ATOM     53  C   UNL A   1      40.758  31.961  34.609  1.00  0.00     0.074 A 
ATOM     54  C   UNL A   1      39.742  32.974  34.802  1.00  0.00     0.031 C 
ATOM     55  C   UNL A   1      39.071  29.326  28.987  1.00  0.00     0.029 A 
ATOM     56  C   UNL A   1      40.223  28.983  29.814  1.00  0.00     0.049 A 
ATOM     57  H   UNL A   1      40.734  29.794  31.665  1.00  0.00     0.167 HD
ATOM     58  C   UNL A   1      41.778  31.725  35.471  1.00  0.00     0.034 A 
ATOM     59  C   UNL A   1      41.160  28.066  29.505  1.00  0.00     0.034 A 
ATOM     60  C   UNL A   1      42.771  30.697  35.275  1.00  0.00     0.049 A 
ATOM     61  C   UNL A   1      42.286  27.818  30.478  1.00  0.00     0.074 A 
ATOM     62  C   UNL A   1      43.807  30.327  36.115  1.00  0.00     0.029 A 
ATOM     63  N   UNL A   1      42.857  29.878  34.155  1.00  0.00    -0.354 N 
ATOM     64  N   UNL A   1      42.526  28.406  31.628  1.00  0.00    -0.248 NA
ATOM     65  C   UNL A   1      43.257  26.776  30.119  1.00  0.00     0.031 C 
ATOM     66  C   UNL A   1      44.554  29.329  35.478  1.00  0.00     0.029 A 
ATOM     67  C   UNL A   1      43.944  29.024  34.272  1.00  0.00     0.049 A 
ATOM     68  H   UNL A   1      42.237  29.900  33.391  1.00  0.00     0.167 HD
ATOM     69  C   UNL A   1      43.660  27.781  32.142  1.00  0.00     0.074 A 
ATOM     70  C   UNL A   1      44.045  26.766  31.184  1.00  0.00     0.031 C 
ATOM     71  C   UNL A   1      44.321  28.022  33.303  1.00  0.00     0.034 A 
BRANCH  58  72
ATOM     72  C   UNL A   1      41.869  32.608  36.693  1.00  0.00     0.023 A 
ATOM     73  C   UNL A   1      41.193  32.289  37.883  1.00  0.00     0.031 A 
ATOM     74  C   UNL A   1      42.609  33.802  36.657  1.00  0.00     0.131 A 
ATOM     75  C   UNL A   1      41.197  33.194  38.956  1.00  0.00     0.055 A 
ATOM     76  C   UNL A   1      42.682  34.656  37.760  1.00  0.00     0.041 A 
ATOM     77  F   UNL A   1      43.260  34.171  35.543  1.00  0.00    -0.206 F 
ATOM     78  C   UNL A   1      41.957  34.363  38.913  1.00  0.00     0.022 A 
BRANCH  75  79
ATOM     79  S   UNL A   1      40.066  32.893  40.342  1.00  0.00     0.124 S 
ATOM     80  O   UNL A   1      40.835  31.947  41.148  1.00  0.00    -0.237 OA
ATOM     81  O   UNL A   1      39.899  34.226  40.908  1.00  0.00    -0.237 OA
ATOM     82  O   UNL A   1      38.879  32.332  39.701  1.00  0.00    -0.744 OA
ENDBRANCH  75  79
ENDBRANCH  58  72
BRANCH  59  83
ATOM     83  C   UNL A   1      41.085  27.306  28.224  1.00  0.00     0.023 A 
ATOM     84  C   UNL A   1      40.681  25.962  28.202  1.00  0.00     0.031 A 
ATOM     85  C   UNL A   1      41.455  27.902  27.006  1.00  0.00     0.131 A 
ATOM     86  C   UNL A   1      40.702  25.243  26.997  1.00  0.00     0.055 A 
ATOM     87  C   UNL A   1      41.427  27.197  25.800  1.00  0.00     0.041 A 
ATOM     88  F   UNL A   1      41.842  29.188  26.968  1.00  0.00    -0.206 F 
ATOM     89  C   UNL A   1      41.060  25.855  25.794  1.00  0.00     0.022 A 
BRANCH  86  90
ATOM     90  S   UNL A   1      40.328  23.468  27.037  1.00  0.00     0.124 S 
ATOM     91  O   UNL A   1      40.689  23.119  28.406  1.00  0.00    -0.237 OA
ATOM     92  O   UNL A   1      38.902  23.453  26.725  1.00  0.00    -0.237 OA
ATOM     93  O   UNL A   1      41.197  22.914  26.001  1.00  0.00    -0.744 OA
ENDBRANCH  86  90
ENDBRANCH  59  83
BRANCH  71  94
ATOM     94  C   UNL A   1      45.500  27.138  33.617  1.00  0.00     0.023 A 
ATOM     95  C   UNL A   1      45.342  25.879  34.223  1.00  0.00     0.031 A 
ATOM     96  C   UNL A   1      46.805  27.565  33.308  1.00  0.00     0.131 A 
ATOM     97  C   UNL A   1      46.472  25.113  34.547  1.00  0.00     0.055 A 
ATOM     98  C   UNL A   1      47.921  26.773  33.580  1.00  0.00     0.041 A 
ATOM     99  F   UNL A   1      47.012  28.759  32.729  1.00  0.00    -0.206 F 
ATOM    100  C   UNL A   1      47.759  25.545  34.214  1.00  0.00     0.022 A 
BRANCH  97 101
ATOM    101  S   UNL A   1      46.244  23.575  35.482  1.00  0.00     0.124 S 
ATOM    102  O   UNL A   1      47.335  23.645  36.449  1.00  0.00    -0.237 OA
ATOM    103  O   UNL A   1      44.899  23.737  36.024  1.00  0.00    -0.237 OA
ATOM    104  O   UNL A   1      46.380  22.533  34.466  1.00  0.00    -0.744 OA
ENDBRANCH  97 101
ENDBRANCH  71  94
ENDBRANCH  45  46
ENDBRANCH  37  40
ENDBRANCH  35  36
ENDBRANCH  34  35
ENDBRANCH  33  34
ENDBRANCH   1  33
TORSDOF 20
ENDMDL
