MODEL 1
REMARK VINA RESULT:     -11.7      0.000      0.000
REMARK SMILES O=C(NCCCCNC(=O)[C@@H]1CS[C@@H](C2CC2)N1C(=O)Cc1ccn[nH]1)c1ccc(-c2c3nc(c(-c4cc(S(=O)(=O)[O-])ccc4F)c4ccc([nH]4)c(-c4cc(S(=O)(=O)[O-])ccc4F)c4nc(c(-c5cc(S(=O)(=O)[O-])ccc5F)c5ccc2[nH]5)C=C4)C=C3)cc1
REMARK SMILES IDX 5 1 4 2 3 3 1 4 2 5 27 7 28 8 89 9 29 10 88 11 30 12 31 13
REMARK SMILES IDX 32 14 82 15 33 16 87 17 81 18 83 19 34 20 86 21 80 22 79 23
REMARK SMILES IDX 35 25 67 26 47 27 66 28 48 29 51 30 65 31 84 32 49 33 50 34
REMARK SMILES IDX 64 36 85 37 52 38 36 39 37 40 45 41 38 42 44 43 46 44 43 45
REMARK SMILES IDX 39 46 40 47 41 48 42 49 68 50 69 51 77 52 70 53 76 54 78 55
REMARK SMILES IDX 75 56 71 57 72 58 73 59 74 60 53 61 54 62 62 63 55 64 61 65
REMARK SMILES IDX 63 66 60 67 56 68 57 69 58 70 59 71 6 72 7 73 8 74 9 75
REMARK SMILES IDX 10 77 11 78 12 79 18 80 13 81 14 82 19 83 20 84 21 85 22 86
REMARK SMILES IDX 23 87 26 88 24 89 25 90 15 92 16 93 17 94
REMARK H PARENT 3 6 83 24 51 35 8 76 26 91
REMARK Flexibility Score: inf
ROOT
ATOM      1  C   UNL A   1      31.606  31.893  26.678  1.00  0.00     0.023 C 
ENDROOT
BRANCH   1   2
ATOM      2  C   UNL A   1      32.805  32.490  27.405  1.00  0.00     0.116 C 
BRANCH   2   3
ATOM      3  N   UNL A   1      32.677  33.921  27.636  1.00  0.00    -0.352 N 
ATOM      4  O   UNL A   1      33.032  35.887  28.684  1.00  0.00    -0.269 OA
ATOM      5  C   UNL A   1      33.353  34.710  28.538  1.00  0.00     0.251 C 
ATOM      6  H   UNL A   1      32.019  34.387  27.073  1.00  0.00     0.163 HD
BRANCH   5   7
ATOM      7  C   UNL A   1      34.446  34.127  29.348  1.00  0.00     0.039 A 
ATOM      8  C   UNL A   1      35.779  34.444  29.078  1.00  0.00     0.014 A 
ATOM      9  C   UNL A   1      34.130  33.241  30.382  1.00  0.00     0.014 A 
ATOM     10  C   UNL A   1      36.796  33.768  29.742  1.00  0.00     0.010 A 
ATOM     11  C   UNL A   1      35.156  32.622  31.104  1.00  0.00     0.010 A 
ATOM     12  C   UNL A   1      36.499  32.853  30.766  1.00  0.00    -0.014 A 
BRANCH  12  13
ATOM     13  C   UNL A   1      37.613  32.180  31.482  1.00  0.00     0.031 A 
ATOM     14  C   UNL A   1      38.427  31.105  30.817  1.00  0.00     0.074 A 
ATOM     15  C   UNL A   1      37.914  32.582  32.733  1.00  0.00     0.049 A 
ATOM     16  N   UNL A   1      39.459  30.444  31.279  1.00  0.00    -0.248 NA
ATOM     17  C   UNL A   1      38.023  30.712  29.459  1.00  0.00     0.031 C 
ATOM     18  C   UNL A   1      37.188  33.613  33.481  1.00  0.00     0.029 A 
ATOM     19  N   UNL A   1      38.916  32.198  33.585  1.00  0.00    -0.354 N 
ATOM     20  C   UNL A   1      39.820  29.548  30.279  1.00  0.00     0.074 A 
ATOM     21  C   UNL A   1      38.871  29.726  29.200  1.00  0.00     0.031 C 
ATOM     22  C   UNL A   1      37.803  33.818  34.655  1.00  0.00     0.029 A 
ATOM     23  C   UNL A   1      38.924  32.892  34.772  1.00  0.00     0.049 A 
ATOM     24  H   UNL A   1      39.568  31.493  33.368  1.00  0.00     0.167 HD
ATOM     25  C   UNL A   1      40.852  28.666  30.262  1.00  0.00     0.034 A 
ATOM     26  C   UNL A   1      39.735  32.791  35.842  1.00  0.00     0.034 A 
ATOM     27  C   UNL A   1      41.793  28.506  31.347  1.00  0.00     0.049 A 
ATOM     28  C   UNL A   1      40.851  31.784  35.810  1.00  0.00     0.074 A 
ATOM     29  C   UNL A   1      42.895  27.670  31.419  1.00  0.00     0.029 A 
ATOM     30  N   UNL A   1      41.739  29.190  32.556  1.00  0.00    -0.354 N 
ATOM     31  N   UNL A   1      41.190  30.957  34.848  1.00  0.00    -0.248 NA
ATOM     32  C   UNL A   1      41.695  31.700  37.008  1.00  0.00     0.031 C 
ATOM     33  C   UNL A   1      43.466  27.802  32.691  1.00  0.00     0.029 A 
ATOM     34  C   UNL A   1      42.766  28.771  33.390  1.00  0.00     0.049 A 
ATOM     35  H   UNL A   1      41.068  29.873  32.786  1.00  0.00     0.167 HD
ATOM     36  C   UNL A   1      42.299  30.263  35.320  1.00  0.00     0.074 A 
ATOM     37  C   UNL A   1      42.583  30.787  36.642  1.00  0.00     0.031 C 
ATOM     38  C   UNL A   1      43.020  29.284  34.717  1.00  0.00     0.034 A 
BRANCH  25  39
ATOM     39  C   UNL A   1      40.983  27.774  29.048  1.00  0.00     0.023 A 
ATOM     40  C   UNL A   1      42.007  27.951  28.100  1.00  0.00     0.031 A 
ATOM     41  C   UNL A   1      40.049  26.747  28.818  1.00  0.00     0.131 A 
ATOM     42  C   UNL A   1      42.030  27.168  26.936  1.00  0.00     0.055 A 
ATOM     43  C   UNL A   1      40.123  25.918  27.697  1.00  0.00     0.041 A 
ATOM     44  F   UNL A   1      39.038  26.539  29.677  1.00  0.00    -0.206 F 
ATOM     45  C   UNL A   1      41.109  26.137  26.739  1.00  0.00     0.022 A 
BRANCH  42  46
ATOM     46  S   UNL A   1      43.189  27.614  25.613  1.00  0.00     0.124 S 
ATOM     47  O   UNL A   1      43.968  26.385  25.474  1.00  0.00    -0.237 OA
ATOM     48  O   UNL A   1      42.296  27.933  24.507  1.00  0.00    -0.237 OA
ATOM     49  O   UNL A   1      43.926  28.747  26.170  1.00  0.00    -0.744 OA
ENDBRANCH  42  46
ENDBRANCH  25  39
BRANCH  26  50
ATOM     50  C   UNL A   1      39.510  33.651  37.036  1.00  0.00     0.023 A 
ATOM     51  C   UNL A   1      38.859  33.152  38.175  1.00  0.00     0.031 A 
ATOM     52  C   UNL A   1      39.930  34.993  37.047  1.00  0.00     0.131 A 
ATOM     53  C   UNL A   1      38.616  34.001  39.265  1.00  0.00     0.055 A 
ATOM     54  C   UNL A   1      39.730  35.818  38.154  1.00  0.00     0.041 A 
ATOM     55  F   UNL A   1      40.563  35.516  35.984  1.00  0.00    -0.206 F 
ATOM     56  C   UNL A   1      39.059  35.326  39.269  1.00  0.00     0.022 A 
BRANCH  53  57
ATOM     57  S   UNL A   1      37.651  33.364  40.662  1.00  0.00     0.124 S 
ATOM     58  O   UNL A   1      36.460  32.852  39.993  1.00  0.00    -0.237 OA
ATOM     59  O   UNL A   1      38.552  32.364  41.222  1.00  0.00    -0.237 OA
ATOM     60  O   UNL A   1      37.439  34.546  41.496  1.00  0.00    -0.744 OA
ENDBRANCH  53  57
ENDBRANCH  26  50
BRANCH  38  61
ATOM     61  C   UNL A   1      44.204  28.748  35.484  1.00  0.00     0.023 A 
ATOM     62  C   UNL A   1      44.077  27.662  36.367  1.00  0.00     0.031 A 
ATOM     63  C   UNL A   1      45.462  29.360  35.361  1.00  0.00     0.131 A 
ATOM     64  C   UNL A   1      45.175  27.261  37.142  1.00  0.00     0.055 A 
ATOM     65  C   UNL A   1      46.567  28.919  36.091  1.00  0.00     0.041 A 
ATOM     66  F   UNL A   1      45.637  30.403  34.534  1.00  0.00    -0.206 F 
ATOM     67  C   UNL A   1      46.423  27.874  36.999  1.00  0.00     0.022 A 
BRANCH  64  68
ATOM     68  S   UNL A   1      44.927  25.993  38.416  1.00  0.00     0.124 S 
ATOM     69  O   UNL A   1      46.271  25.848  38.966  1.00  0.00    -0.237 OA
ATOM     70  O   UNL A   1      43.944  26.622  39.292  1.00  0.00    -0.237 OA
ATOM     71  O   UNL A   1      44.437  24.840  37.662  1.00  0.00    -0.744 OA
ENDBRANCH  64  68
ENDBRANCH  38  61
ENDBRANCH  12  13
ENDBRANCH   5   7
ENDBRANCH   2   3
ENDBRANCH   1   2
BRANCH   1  72
ATOM     72  C   UNL A   1      31.733  30.410  26.319  1.00  0.00     0.023 C 
BRANCH  72  73
ATOM     73  C   UNL A   1      33.169  29.881  26.287  1.00  0.00     0.116 C 
BRANCH  73  74
ATOM     74  N   UNL A   1      33.632  29.685  24.924  1.00  0.00    -0.354 N 
ATOM     75  C   UNL A   1      33.596  28.559  24.148  1.00  0.00     0.243 C 
ATOM     76  H   UNL A   1      34.030  30.478  24.497  1.00  0.00     0.163 HD
ATOM     77  O   UNL A   1      34.211  28.561  23.079  1.00  0.00    -0.273 OA
BRANCH  75  78
ATOM     78  C   UNL A   1      32.869  27.293  24.668  1.00  0.00     0.185 C 
ATOM     79  C   UNL A   1      33.948  26.430  25.306  1.00  0.00     0.107 C 
ATOM     80  N   UNL A   1      32.164  26.596  23.554  1.00  0.00    -0.317 N 
ATOM     81  S   UNL A   1      33.709  24.778  24.696  1.00  0.00    -0.134 SA
ATOM     82  C   UNL A   1      32.779  25.323  23.173  1.00  0.00     0.147 C 
BRANCH  80  83
ATOM     83  C   UNL A   1      31.195  27.394  22.955  1.00  0.00     0.230 C 
ATOM     84  O   UNL A   1      31.037  27.318  21.724  1.00  0.00    -0.274 OA
BRANCH  83  85
ATOM     85  C   UNL A   1      30.346  28.414  23.683  1.00  0.00     0.155 C 
BRANCH  85  86
ATOM     86  C   UNL A   1      29.523  29.343  22.854  1.00  0.00     0.044 A 
ATOM     87  C   UNL A   1      28.149  29.422  22.715  1.00  0.00     0.045 A 
ATOM     88  N   UNL A   1      30.010  30.268  21.973  1.00  0.00    -0.282 N 
ATOM     89  C   UNL A   1      27.931  30.353  21.686  1.00  0.00     0.135 A 
ATOM     90  N   UNL A   1      29.073  30.834  21.198  1.00  0.00    -0.184 NA
ATOM     91  H   UNL A   1      30.966  30.499  21.912  1.00  0.00     0.190 HD
ENDBRANCH  85  86
ENDBRANCH  83  85
ENDBRANCH  80  83
BRANCH  82  92
ATOM     92  C   UNL A   1      31.982  24.063  22.913  1.00  0.00     0.022 C 
ATOM     93  C   UNL A   1      31.947  22.873  23.835  1.00  0.00     0.007 C 
ATOM     94  C   UNL A   1      30.685  23.659  23.569  1.00  0.00     0.007 C 
ENDBRANCH  82  92
ENDBRANCH  75  78
ENDBRANCH  73  74
ENDBRANCH  72  73
ENDBRANCH   1  72
TORSDOF 18
ENDMDL
MODEL 2
REMARK VINA RESULT:     -11.6      6.044     12.056
REMARK SMILES O=C(NCCCCNC(=O)[C@@H]1CS[C@@H](C2CC2)N1C(=O)Cc1ccn[nH]1)c1ccc(-c2c3nc(c(-c4cc(S(=O)(=O)[O-])ccc4F)c4ccc([nH]4)c(-c4cc(S(=O)(=O)[O-])ccc4F)c4nc(c(-c5cc(S(=O)(=O)[O-])ccc5F)c5ccc2[nH]5)C=C4)C=C3)cc1
REMARK SMILES IDX 5 1 4 2 3 3 1 4 2 5 27 7 28 8 89 9 29 10 88 11 30 12 31 13
REMARK SMILES IDX 32 14 82 15 33 16 87 17 81 18 83 19 34 20 86 21 80 22 79 23
REMARK SMILES IDX 35 25 67 26 47 27 66 28 48 29 51 30 65 31 84 32 49 33 50 34
REMARK SMILES IDX 64 36 85 37 52 38 36 39 37 40 45 41 38 42 44 43 46 44 43 45
REMARK SMILES IDX 39 46 40 47 41 48 42 49 68 50 69 51 77 52 70 53 76 54 78 55
REMARK SMILES IDX 75 56 71 57 72 58 73 59 74 60 53 61 54 62 62 63 55 64 61 65
REMARK SMILES IDX 63 66 60 67 56 68 57 69 58 70 59 71 6 72 7 73 8 74 9 75
REMARK SMILES IDX 10 77 11 78 12 79 18 80 13 81 14 82 19 83 20 84 21 85 22 86
REMARK SMILES IDX 23 87 26 88 24 89 25 90 15 92 16 93 17 94
REMARK H PARENT 3 6 83 24 51 35 8 76 26 91
REMARK Flexibility Score: inf
ROOT
ATOM      1  C   UNL A   1      38.421  19.983  25.053  1.00  0.00     0.023 C 
ENDROOT
BRANCH   1   2
ATOM      2  C   UNL A   1      39.480  20.205  26.126  1.00  0.00     0.116 C 
BRANCH   2   3
ATOM      3  N   UNL A   1      40.532  19.200  26.106  1.00  0.00    -0.352 N 
ATOM      4  O   UNL A   1      42.647  18.420  26.007  1.00  0.00    -0.269 OA
ATOM      5  C   UNL A   1      41.895  19.381  26.158  1.00  0.00     0.251 C 
ATOM      6  H   UNL A   1      40.229  18.266  26.045  1.00  0.00     0.163 HD
BRANCH   5   7
ATOM      7  C   UNL A   1      42.448  20.737  26.368  1.00  0.00     0.039 A 
ATOM      8  C   UNL A   1      42.620  21.243  27.658  1.00  0.00     0.014 A 
ATOM      9  C   UNL A   1      42.784  21.517  25.257  1.00  0.00     0.014 A 
ATOM     10  C   UNL A   1      42.990  22.572  27.833  1.00  0.00     0.010 A 
ATOM     11  C   UNL A   1      43.233  22.828  25.439  1.00  0.00     0.010 A 
ATOM     12  C   UNL A   1      43.305  23.380  26.727  1.00  0.00    -0.014 A 
BRANCH  12  13
ATOM     13  C   UNL A   1      43.736  24.784  26.955  1.00  0.00     0.031 A 
ATOM     14  C   UNL A   1      42.805  25.792  27.571  1.00  0.00     0.074 A 
ATOM     15  C   UNL A   1      44.999  25.132  26.639  1.00  0.00     0.049 A 
ATOM     16  N   UNL A   1      43.030  27.044  27.879  1.00  0.00    -0.248 NA
ATOM     17  C   UNL A   1      41.439  25.337  27.870  1.00  0.00     0.031 C 
ATOM     18  C   UNL A   1      45.989  24.237  26.031  1.00  0.00     0.029 A 
ATOM     19  N   UNL A   1      45.676  26.311  26.807  1.00  0.00    -0.354 N 
ATOM     20  C   UNL A   1      41.835  27.534  28.393  1.00  0.00     0.074 A 
ATOM     21  C   UNL A   1      40.877  26.450  28.320  1.00  0.00     0.031 C 
ATOM     22  C   UNL A   1      47.159  24.884  25.928  1.00  0.00     0.029 A 
ATOM     23  C   UNL A   1      46.989  26.253  26.402  1.00  0.00     0.049 A 
ATOM     24  H   UNL A   1      45.262  27.122  27.180  1.00  0.00     0.167 HD
ATOM     25  C   UNL A   1      41.566  28.770  28.887  1.00  0.00     0.034 A 
ATOM     26  C   UNL A   1      47.949  27.196  26.401  1.00  0.00     0.034 A 
ATOM     27  C   UNL A   1      42.537  29.838  28.957  1.00  0.00     0.049 A 
ATOM     28  C   UNL A   1      47.617  28.567  26.924  1.00  0.00     0.074 A 
ATOM     29  C   UNL A   1      42.383  31.114  29.472  1.00  0.00     0.029 A 
ATOM     30  N   UNL A   1      43.844  29.758  28.490  1.00  0.00    -0.354 N 
ATOM     31  N   UNL A   1      46.486  29.007  27.424  1.00  0.00    -0.248 NA
ATOM     32  C   UNL A   1      48.692  29.564  26.884  1.00  0.00     0.031 C 
ATOM     33  C   UNL A   1      43.571  31.824  29.257  1.00  0.00     0.029 A 
ATOM     34  C   UNL A   1      44.493  30.971  28.673  1.00  0.00     0.049 A 
ATOM     35  H   UNL A   1      44.249  28.957  28.086  1.00  0.00     0.167 HD
ATOM     36  C   UNL A   1      46.719  30.333  27.775  1.00  0.00     0.074 A 
ATOM     37  C   UNL A   1      48.105  30.609  27.449  1.00  0.00     0.031 C 
ATOM     38  C   UNL A   1      45.868  31.240  28.319  1.00  0.00     0.034 A 
BRANCH  25  39
ATOM     39  C   UNL A   1      40.151  29.042  29.344  1.00  0.00     0.023 A 
ATOM     40  C   UNL A   1      39.788  29.014  30.703  1.00  0.00     0.031 A 
ATOM     41  C   UNL A   1      39.140  29.306  28.402  1.00  0.00     0.131 A 
ATOM     42  C   UNL A   1      38.444  29.169  31.075  1.00  0.00     0.055 A 
ATOM     43  C   UNL A   1      37.816  29.538  28.784  1.00  0.00     0.041 A 
ATOM     44  F   UNL A   1      39.419  29.329  27.089  1.00  0.00    -0.206 F 
ATOM     45  C   UNL A   1      37.459  29.455  30.127  1.00  0.00     0.022 A 
BRANCH  42  46
ATOM     46  S   UNL A   1      37.977  28.845  32.798  1.00  0.00     0.124 S 
ATOM     47  O   UNL A   1      38.964  29.639  33.528  1.00  0.00    -0.237 OA
ATOM     48  O   UNL A   1      36.604  29.330  32.848  1.00  0.00    -0.237 OA
ATOM     49  O   UNL A   1      38.135  27.398  32.930  1.00  0.00    -0.744 OA
ENDBRANCH  42  46
ENDBRANCH  25  39
BRANCH  26  50
ATOM     50  C   UNL A   1      49.305  26.884  25.872  1.00  0.00     0.023 A 
ATOM     51  C   UNL A   1      49.693  27.295  24.588  1.00  0.00     0.031 A 
ATOM     52  C   UNL A   1      50.228  26.153  26.641  1.00  0.00     0.131 A 
ATOM     53  C   UNL A   1      50.960  26.943  24.097  1.00  0.00     0.055 A 
ATOM     54  C   UNL A   1      51.504  25.848  26.167  1.00  0.00     0.041 A 
ATOM     55  F   UNL A   1      49.907  25.743  27.879  1.00  0.00    -0.206 F 
ATOM     56  C   UNL A   1      51.873  26.235  24.882  1.00  0.00     0.022 A 
BRANCH  53  57
ATOM     57  S   UNL A   1      51.376  27.370  22.384  1.00  0.00     0.124 S 
ATOM     58  O   UNL A   1      50.353  26.643  21.639  1.00  0.00    -0.237 OA
ATOM     59  O   UNL A   1      51.251  28.823  22.395  1.00  0.00    -0.237 OA
ATOM     60  O   UNL A   1      52.738  26.864  22.229  1.00  0.00    -0.744 OA
ENDBRANCH  53  57
ENDBRANCH  26  50
BRANCH  38  61
ATOM     61  C   UNL A   1      46.438  32.604  28.618  1.00  0.00     0.023 A 
ATOM     62  C   UNL A   1      46.438  33.629  27.656  1.00  0.00     0.031 A 
ATOM     63  C   UNL A   1      47.026  32.866  29.867  1.00  0.00     0.131 A 
ATOM     64  C   UNL A   1      47.073  34.848  27.935  1.00  0.00     0.055 A 
ATOM     65  C   UNL A   1      47.604  34.102  30.161  1.00  0.00     0.041 A 
ATOM     66  F   UNL A   1      47.055  31.922  30.821  1.00  0.00    -0.206 F 
ATOM     67  C   UNL A   1      47.643  35.096  29.186  1.00  0.00     0.022 A 
BRANCH  64  68
ATOM     68  S   UNL A   1      47.234  36.071  26.605  1.00  0.00     0.124 S 
ATOM     69  O   UNL A   1      46.409  35.487  25.553  1.00  0.00    -0.237 OA
ATOM     70  O   UNL A   1      46.707  37.281  27.230  1.00  0.00    -0.237 OA
ATOM     71  O   UNL A   1      48.670  36.092  26.329  1.00  0.00    -0.744 OA
ENDBRANCH  64  68
ENDBRANCH  38  61
ENDBRANCH  12  13
ENDBRANCH   5   7
ENDBRANCH   2   3
ENDBRANCH   1   2
BRANCH   1  72
ATOM     72  C   UNL A   1      37.416  21.125  24.882  1.00  0.00     0.023 C 
BRANCH  72  73
ATOM     73  C   UNL A   1      35.948  20.706  24.990  1.00  0.00     0.116 C 
BRANCH  73  74
ATOM     74  N   UNL A   1      35.347  21.190  26.221  1.00  0.00    -0.354 N 
ATOM     75  C   UNL A   1      34.627  22.331  26.445  1.00  0.00     0.243 C 
ATOM     76  H   UNL A   1      35.479  20.614  27.008  1.00  0.00     0.163 HD
ATOM     77  O   UNL A   1      34.364  22.642  27.610  1.00  0.00    -0.273 OA
BRANCH  75  78
ATOM     78  C   UNL A   1      34.242  23.243  25.253  1.00  0.00     0.185 C 
ATOM     79  C   UNL A   1      35.039  24.525  25.439  1.00  0.00     0.107 C 
ATOM     80  N   UNL A   1      32.770  23.482  25.226  1.00  0.00    -0.317 N 
ATOM     81  S   UNL A   1      33.904  25.872  25.200  1.00  0.00    -0.134 SA
ATOM     82  C   UNL A   1      32.390  24.851  25.583  1.00  0.00     0.147 C 
BRANCH  80  83
ATOM     83  C   UNL A   1      32.041  22.307  25.080  1.00  0.00     0.230 C 
ATOM     84  O   UNL A   1      31.177  22.031  25.930  1.00  0.00    -0.274 OA
BRANCH  83  85
ATOM     85  C   UNL A   1      32.265  21.283  23.987  1.00  0.00     0.155 C 
BRANCH  85  86
ATOM     86  C   UNL A   1      32.463  19.863  24.404  1.00  0.00     0.044 A 
ATOM     87  C   UNL A   1      32.525  18.716  23.634  1.00  0.00     0.045 A 
ATOM     88  N   UNL A   1      32.535  19.415  25.693  1.00  0.00    -0.282 N 
ATOM     89  C   UNL A   1      32.552  17.652  24.551  1.00  0.00     0.135 A 
ATOM     90  N   UNL A   1      32.508  18.080  25.811  1.00  0.00    -0.184 NA
ATOM     91  H   UNL A   1      32.602  20.019  26.468  1.00  0.00     0.190 HD
ENDBRANCH  85  86
ENDBRANCH  83  85
ENDBRANCH  80  83
BRANCH  82  92
ATOM     92  C   UNL A   1      31.359  25.650  24.817  1.00  0.00     0.022 C 
ATOM     93  C   UNL A   1      29.984  25.983  25.333  1.00  0.00     0.007 C 
ATOM     94  C   UNL A   1      30.971  27.089  25.049  1.00  0.00     0.007 C 
ENDBRANCH  82  92
ENDBRANCH  75  78
ENDBRANCH  73  74
ENDBRANCH  72  73
ENDBRANCH   1  72
TORSDOF 18
ENDMDL
MODEL 3
REMARK VINA RESULT:     -11.4      6.219      9.998
REMARK SMILES O=C(NCCCCNC(=O)[C@@H]1CS[C@@H](C2CC2)N1C(=O)Cc1ccn[nH]1)c1ccc(-c2c3nc(c(-c4cc(S(=O)(=O)[O-])ccc4F)c4ccc([nH]4)c(-c4cc(S(=O)(=O)[O-])ccc4F)c4nc(c(-c5cc(S(=O)(=O)[O-])ccc5F)c5ccc2[nH]5)C=C4)C=C3)cc1
REMARK SMILES IDX 5 1 4 2 3 3 1 4 2 5 27 7 28 8 89 9 29 10 88 11 30 12 31 13
REMARK SMILES IDX 32 14 82 15 33 16 87 17 81 18 83 19 34 20 86 21 80 22 79 23
REMARK SMILES IDX 35 25 67 26 47 27 66 28 48 29 51 30 65 31 84 32 49 33 50 34
REMARK SMILES IDX 64 36 85 37 52 38 36 39 37 40 45 41 38 42 44 43 46 44 43 45
REMARK SMILES IDX 39 46 40 47 41 48 42 49 68 50 69 51 77 52 70 53 76 54 78 55
REMARK SMILES IDX 75 56 71 57 72 58 73 59 74 60 53 61 54 62 62 63 55 64 61 65
REMARK SMILES IDX 63 66 60 67 56 68 57 69 58 70 59 71 6 72 7 73 8 74 9 75
REMARK SMILES IDX 10 77 11 78 12 79 18 80 13 81 14 82 19 83 20 84 21 85 22 86
REMARK SMILES IDX 23 87 26 88 24 89 25 90 15 92 16 93 17 94
REMARK H PARENT 3 6 83 24 51 35 8 76 26 91
REMARK Flexibility Score: inf
ROOT
ATOM      1  C   UNL A   1      37.808  19.585  24.859  1.00  0.00     0.023 C 
ENDROOT
BRANCH   1   2
ATOM      2  C   UNL A   1      38.895  20.229  25.712  1.00  0.00     0.116 C 
BRANCH   2   3
ATOM      3  N   UNL A   1      40.064  19.380  25.883  1.00  0.00    -0.352 N 
ATOM      4  O   UNL A   1      42.242  18.902  26.225  1.00  0.00    -0.269 OA
ATOM      5  C   UNL A   1      41.341  19.738  26.247  1.00  0.00     0.251 C 
ATOM      6  H   UNL A   1      39.922  18.420  25.715  1.00  0.00     0.163 HD
BRANCH   5   7
ATOM      7  C   UNL A   1      41.628  21.137  26.634  1.00  0.00     0.039 A 
ATOM      8  C   UNL A   1      41.594  22.160  25.684  1.00  0.00     0.014 A 
ATOM      9  C   UNL A   1      41.950  21.424  27.964  1.00  0.00     0.014 A 
ATOM     10  C   UNL A   1      42.019  23.437  26.031  1.00  0.00     0.010 A 
ATOM     11  C   UNL A   1      42.300  22.728  28.328  1.00  0.00     0.010 A 
ATOM     12  C   UNL A   1      42.373  23.739  27.358  1.00  0.00    -0.014 A 
BRANCH  12  13
ATOM     13  C   UNL A   1      42.784  25.125  27.701  1.00  0.00     0.031 A 
ATOM     14  C   UNL A   1      44.169  25.624  27.392  1.00  0.00     0.074 A 
ATOM     15  C   UNL A   1      41.874  25.950  28.257  1.00  0.00     0.049 A 
ATOM     16  N   UNL A   1      44.680  26.814  27.583  1.00  0.00    -0.248 NA
ATOM     17  C   UNL A   1      45.105  24.657  26.801  1.00  0.00     0.031 C 
ATOM     18  C   UNL A   1      40.502  25.572  28.606  1.00  0.00     0.029 A 
ATOM     19  N   UNL A   1      41.953  27.273  28.601  1.00  0.00    -0.354 N 
ATOM     20  C   UNL A   1      46.000  26.739  27.153  1.00  0.00     0.074 A 
ATOM     21  C   UNL A   1      46.219  25.372  26.724  1.00  0.00     0.031 C 
ATOM     22  C   UNL A   1      39.852  26.653  29.062  1.00  0.00     0.029 A 
ATOM     23  C   UNL A   1      40.775  27.782  29.099  1.00  0.00     0.049 A 
ATOM     24  H   UNL A   1      42.773  27.809  28.503  1.00  0.00     0.167 HD
ATOM     25  C   UNL A   1      46.937  27.720  27.111  1.00  0.00     0.034 A 
ATOM     26  C   UNL A   1      40.472  29.015  29.545  1.00  0.00     0.034 A 
ATOM     27  C   UNL A   1      46.698  29.080  27.538  1.00  0.00     0.049 A 
ATOM     28  C   UNL A   1      41.537  30.076  29.519  1.00  0.00     0.074 A 
ATOM     29  C   UNL A   1      47.563  30.161  27.505  1.00  0.00     0.029 A 
ATOM     30  N   UNL A   1      45.508  29.546  28.085  1.00  0.00    -0.354 N 
ATOM     31  N   UNL A   1      42.776  29.992  29.091  1.00  0.00    -0.248 NA
ATOM     32  C   UNL A   1      41.162  31.398  30.033  1.00  0.00     0.031 C 
ATOM     33  C   UNL A   1      46.920  31.259  28.090  1.00  0.00     0.029 A 
ATOM     34  C   UNL A   1      45.629  30.886  28.424  1.00  0.00     0.049 A 
ATOM     35  H   UNL A   1      44.698  29.002  28.214  1.00  0.00     0.167 HD
ATOM     36  C   UNL A   1      43.324  31.258  29.270  1.00  0.00     0.074 A 
ATOM     37  C   UNL A   1      42.272  32.089  29.823  1.00  0.00     0.031 C 
ATOM     38  C   UNL A   1      44.580  31.696  29.000  1.00  0.00     0.034 A 
BRANCH  25  39
ATOM     39  C   UNL A   1      48.320  27.340  26.631  1.00  0.00     0.023 A 
ATOM     40  C   UNL A   1      49.354  27.009  27.525  1.00  0.00     0.031 A 
ATOM     41  C   UNL A   1      48.617  27.338  25.256  1.00  0.00     0.131 A 
ATOM     42  C   UNL A   1      50.649  26.765  27.042  1.00  0.00     0.055 A 
ATOM     43  C   UNL A   1      49.889  27.017  24.776  1.00  0.00     0.041 A 
ATOM     44  F   UNL A   1      47.678  27.663  24.354  1.00  0.00    -0.206 F 
ATOM     45  C   UNL A   1      50.918  26.743  25.672  1.00  0.00     0.022 A 
BRANCH  42  46
ATOM     46  S   UNL A   1      52.007  26.622  28.236  1.00  0.00     0.124 S 
ATOM     47  O   UNL A   1      51.343  25.979  29.368  1.00  0.00    -0.237 OA
ATOM     48  O   UNL A   1      52.975  25.806  27.514  1.00  0.00    -0.237 OA
ATOM     49  O   UNL A   1      52.408  28.010  28.467  1.00  0.00    -0.744 OA
ENDBRANCH  42  46
ENDBRANCH  25  39
BRANCH  26  50
ATOM     50  C   UNL A   1      39.110  29.307  30.071  1.00  0.00     0.023 A 
ATOM     51  C   UNL A   1      38.173  30.015  29.302  1.00  0.00     0.031 A 
ATOM     52  C   UNL A   1      38.733  28.896  31.362  1.00  0.00     0.131 A 
ATOM     53  C   UNL A   1      36.915  30.319  29.844  1.00  0.00     0.055 A 
ATOM     54  C   UNL A   1      37.463  29.158  31.877  1.00  0.00     0.041 A 
ATOM     55  F   UNL A   1      39.591  28.211  32.135  1.00  0.00    -0.206 F 
ATOM     56  C   UNL A   1      36.549  29.884  31.120  1.00  0.00     0.022 A 
BRANCH  53  57
ATOM     57  S   UNL A   1      35.782  31.353  28.877  1.00  0.00     0.124 S 
ATOM     58  O   UNL A   1      35.176  30.373  27.982  1.00  0.00    -0.237 OA
ATOM     59  O   UNL A   1      34.912  31.898  29.913  1.00  0.00    -0.237 OA
ATOM     60  O   UNL A   1      36.668  32.321  28.236  1.00  0.00    -0.744 OA
ENDBRANCH  53  57
ENDBRANCH  26  50
BRANCH  38  61
ATOM     61  C   UNL A   1      44.860  33.152  29.277  1.00  0.00     0.023 A 
ATOM     62  C   UNL A   1      44.781  34.122  28.262  1.00  0.00     0.031 A 
ATOM     63  C   UNL A   1      45.252  33.566  30.561  1.00  0.00     0.131 A 
ATOM     64  C   UNL A   1      45.153  35.447  28.533  1.00  0.00     0.055 A 
ATOM     65  C   UNL A   1      45.563  34.897  30.839  1.00  0.00     0.041 A 
ATOM     66  F   UNL A   1      45.346  32.680  31.565  1.00  0.00    -0.206 F 
ATOM     67  C   UNL A   1      45.530  35.843  29.818  1.00  0.00     0.022 A 
BRANCH  64  68
ATOM     68  S   UNL A   1      45.236  36.627  27.158  1.00  0.00     0.124 S 
ATOM     69  O   UNL A   1      46.144  37.642  27.683  1.00  0.00    -0.237 OA
ATOM     70  O   UNL A   1      45.758  35.804  26.072  1.00  0.00    -0.237 OA
ATOM     71  O   UNL A   1      43.849  37.061  26.994  1.00  0.00    -0.744 OA
ENDBRANCH  64  68
ENDBRANCH  38  61
ENDBRANCH  12  13
ENDBRANCH   5   7
ENDBRANCH   2   3
ENDBRANCH   1   2
BRANCH   1  72
ATOM     72  C   UNL A   1      36.420  20.220  24.984  1.00  0.00     0.023 C 
BRANCH  72  73
ATOM     73  C   UNL A   1      36.414  21.634  25.570  1.00  0.00     0.116 C 
BRANCH  73  74
ATOM     74  N   UNL A   1      35.473  21.748  26.670  1.00  0.00    -0.354 N 
ATOM     75  C   UNL A   1      34.376  22.555  26.795  1.00  0.00     0.243 C 
ATOM     76  H   UNL A   1      35.651  21.159  27.439  1.00  0.00     0.163 HD
ATOM     77  O   UNL A   1      33.818  22.626  27.893  1.00  0.00    -0.273 OA
BRANCH  75  78
ATOM     78  C   UNL A   1      33.922  23.423  25.594  1.00  0.00     0.185 C 
ATOM     79  C   UNL A   1      34.396  24.836  25.902  1.00  0.00     0.107 C 
ATOM     80  N   UNL A   1      32.444  23.342  25.414  1.00  0.00    -0.317 N 
ATOM     81  S   UNL A   1      33.023  25.918  25.580  1.00  0.00    -0.134 SA
ATOM     82  C   UNL A   1      31.739  24.576  25.767  1.00  0.00     0.147 C 
BRANCH  80  83
ATOM     83  C   UNL A   1      32.009  22.046  25.157  1.00  0.00     0.230 C 
ATOM     84  O   UNL A   1      31.017  21.617  25.770  1.00  0.00    -0.274 OA
BRANCH  83  85
ATOM     85  C   UNL A   1      32.697  21.074  24.221  1.00  0.00     0.155 C 
BRANCH  85  86
ATOM     86  C   UNL A   1      32.709  19.634  24.613  1.00  0.00     0.044 A 
ATOM     87  C   UNL A   1      32.527  18.505  23.834  1.00  0.00     0.045 A 
ATOM     88  N   UNL A   1      32.820  19.156  25.889  1.00  0.00    -0.282 N 
ATOM     89  C   UNL A   1      32.467  17.433  24.741  1.00  0.00     0.135 A 
ATOM     90  N   UNL A   1      32.597  17.839  26.002  1.00  0.00    -0.184 NA
ATOM     91  H   UNL A   1      33.045  19.729  26.658  1.00  0.00     0.190 HD
ENDBRANCH  85  86
ENDBRANCH  83  85
ENDBRANCH  80  83
BRANCH  82  92
ATOM     92  C   UNL A   1      30.640  25.174  24.916  1.00  0.00     0.022 C 
ATOM     93  C   UNL A   1      30.834  26.318  23.955  1.00  0.00     0.007 C 
ATOM     94  C   UNL A   1      30.418  24.960  23.439  1.00  0.00     0.007 C 
ENDBRANCH  82  92
ENDBRANCH  75  78
ENDBRANCH  73  74
ENDBRANCH  72  73
ENDBRANCH   1  72
TORSDOF 18
ENDMDL
