MODEL 1
REMARK VINA RESULT:     -13.4      0.000      0.000
REMARK SMILES Cc1nsc(NC(=O)[C@H]2Cc3[nH]cnc3C[NH2+]2)c1C(=O)NCCCCNC(=O)c1ccc(-c2c3nc(c(-c4cc(S(=O)(=O)[O-])ccc4F)c4ccc([nH]4)c(-c4cc(S(=O)(=O)[O-])ccc4F)c4nc(c(-c5cc(S(=O)(=O)[O-])ccc5F)c5ccc2[nH]5)C=C4)C=C3)cc1
REMARK SMILES IDX 24 1 23 2 22 3 21 4 19 5 20 6 18 8 1 9 2 10 3 11 4 12 5 13
REMARK SMILES IDX 6 14 7 15 8 17 9 18 10 19 17 20 11 21 16 22 12 25 15 26
REMARK SMILES IDX 13 27 14 29 25 30 26 31 27 32 28 34 29 35 30 36 91 37 31 38
REMARK SMILES IDX 90 39 32 40 33 41 34 42 84 43 35 44 89 45 83 46 85 47 36 48
REMARK SMILES IDX 88 49 82 50 81 51 37 53 69 54 49 55 68 56 50 57 53 58 67 59
REMARK SMILES IDX 86 60 51 61 52 62 66 64 87 65 54 66 38 67 39 68 47 69 40 70
REMARK SMILES IDX 46 71 48 72 45 73 41 74 42 75 43 76 44 77 70 78 71 79 79 80
REMARK SMILES IDX 72 81 78 82 80 83 77 84 73 85 74 86 75 87 76 88 55 89 56 90
REMARK SMILES IDX 64 91 57 92 63 93 65 94 62 95 58 96 59 97 60 98 61 99
REMARK H PARENT 21 7 6 16 17 23 17 24 12 28 26 33 85 52 53 63
REMARK Flexibility Score: inf
ROOT
ATOM      1  C   UNL A   1      34.005  30.007  26.771  1.00  0.00     0.023 C 
ENDROOT
BRANCH   1   2
ATOM      2  C   UNL A   1      32.578  29.756  27.269  1.00  0.00     0.023 C 
BRANCH   2   3
ATOM      3  C   UNL A   1      31.896  28.499  26.733  1.00  0.00     0.116 C 
BRANCH   3   4
ATOM      4  N   UNL A   1      32.657  27.276  26.834  1.00  0.00    -0.352 N 
ATOM      5  C   UNL A   1      32.920  26.275  25.938  1.00  0.00     0.256 C 
ATOM      6  O   UNL A   1      33.855  25.525  26.227  1.00  0.00    -0.269 OA
ATOM      7  H   UNL A   1      33.066  27.136  27.717  1.00  0.00     0.163 HD
BRANCH   5   8
ATOM      8  C   UNL A   1      32.038  25.954  24.823  1.00  0.00     0.097 A 
ATOM      9  C   UNL A   1      33.301  25.650  22.507  1.00  0.00     0.069 C 
ATOM     10  C   UNL A   1      32.134  25.947  23.381  1.00  0.00     0.066 A 
ATOM     11  N   UNL A   1      30.969  26.178  22.749  1.00  0.00    -0.195 NA
ATOM     12  S   UNL A   1      29.768  26.142  23.914  1.00  0.00    -0.017 S 
ATOM     13  C   UNL A   1      30.795  25.369  25.053  1.00  0.00     0.129 A 
BRANCH  13  14
ATOM     14  N   UNL A   1      30.279  24.722  26.141  1.00  0.00    -0.311 N 
ATOM     15  C   UNL A   1      30.638  23.526  26.694  1.00  0.00     0.283 C 
ATOM     16  H   UNL A   1      29.538  25.185  26.593  1.00  0.00     0.171 HD
ATOM     17  O   UNL A   1      29.874  23.108  27.580  1.00  0.00    -0.268 OA
BRANCH  15  18
ATOM     18  C   UNL A   1      31.925  22.689  26.357  1.00  0.00     0.279 C 
ATOM     19  C   UNL A   1      32.976  22.340  27.439  1.00  0.00     0.131 C 
ATOM     20  N   UNL A   1      31.492  21.388  25.700  1.00  0.00    -0.331 N 
ATOM     21  C   UNL A   1      34.101  21.696  26.728  1.00  0.00     0.050 A 
ATOM     22  C   UNL A   1      32.589  20.633  25.020  1.00  0.00     0.320 C 
ATOM     23  H   UNL A   1      30.779  21.607  25.005  1.00  0.00     0.347 HD
ATOM     24  H   UNL A   1      31.153  20.787  26.451  1.00  0.00     0.347 HD
ATOM     25  N   UNL A   1      35.430  21.971  26.824  1.00  0.00    -0.348 N 
ATOM     26  C   UNL A   1      33.934  20.945  25.594  1.00  0.00     0.116 A 
ATOM     27  C   UNL A   1      36.013  21.421  25.712  1.00  0.00     0.197 A 
ATOM     28  H   UNL A   1      35.882  22.464  27.546  1.00  0.00     0.167 HD
ATOM     29  N   UNL A   1      35.142  20.765  24.970  1.00  0.00    -0.236 NA
ENDBRANCH  15  18
ENDBRANCH  13  14
ENDBRANCH   5   8
ENDBRANCH   3   4
ENDBRANCH   2   3
ENDBRANCH   1   2
BRANCH   1  30
ATOM     30  C   UNL A   1      35.112  29.400  27.634  1.00  0.00     0.116 C 
BRANCH  30  31
ATOM     31  N   UNL A   1      35.392  30.171  28.842  1.00  0.00    -0.352 N 
ATOM     32  C   UNL A   1      36.411  29.962  29.758  1.00  0.00     0.251 C 
ATOM     33  H   UNL A   1      34.788  30.925  29.027  1.00  0.00     0.163 HD
ATOM     34  O   UNL A   1      36.312  30.362  30.904  1.00  0.00    -0.269 OA
BRANCH  32  35
ATOM     35  C   UNL A   1      37.628  29.265  29.299  1.00  0.00     0.039 A 
ATOM     36  C   UNL A   1      38.260  29.608  28.105  1.00  0.00     0.014 A 
ATOM     37  C   UNL A   1      38.153  28.274  30.128  1.00  0.00     0.014 A 
ATOM     38  C   UNL A   1      39.484  29.010  27.800  1.00  0.00     0.010 A 
ATOM     39  C   UNL A   1      39.408  27.764  29.883  1.00  0.00     0.010 A 
ATOM     40  C   UNL A   1      40.069  28.109  28.707  1.00  0.00    -0.014 A 
BRANCH  40  41
ATOM     41  C   UNL A   1      41.452  27.666  28.526  1.00  0.00     0.031 A 
ATOM     42  C   UNL A   1      41.586  26.411  27.734  1.00  0.00     0.074 A 
ATOM     43  C   UNL A   1      42.534  28.416  28.832  1.00  0.00     0.049 A 
ATOM     44  N   UNL A   1      41.955  25.250  28.162  1.00  0.00    -0.248 NA
ATOM     45  C   UNL A   1      41.091  26.393  26.346  1.00  0.00     0.031 C 
ATOM     46  C   UNL A   1      42.562  29.786  29.354  1.00  0.00     0.029 A 
ATOM     47  N   UNL A   1      43.857  28.150  28.636  1.00  0.00    -0.354 N 
ATOM     48  C   UNL A   1      41.998  24.422  27.045  1.00  0.00     0.074 A 
ATOM     49  C   UNL A   1      41.248  25.105  26.026  1.00  0.00     0.031 C 
ATOM     50  C   UNL A   1      43.803  30.304  29.209  1.00  0.00     0.029 A 
ATOM     51  C   UNL A   1      44.695  29.262  28.731  1.00  0.00     0.049 A 
ATOM     52  H   UNL A   1      44.194  27.245  28.442  1.00  0.00     0.167 HD
ATOM     53  C   UNL A   1      42.868  23.373  26.986  1.00  0.00     0.034 A 
ATOM     54  C   UNL A   1      46.020  29.334  28.421  1.00  0.00     0.034 A 
ATOM     55  C   UNL A   1      43.392  23.071  28.304  1.00  0.00     0.049 A 
ATOM     56  C   UNL A   1      46.550  27.950  28.508  1.00  0.00     0.074 A 
ATOM     57  C   UNL A   1      42.822  22.745  29.521  1.00  0.00     0.029 A 
ATOM     58  N   UNL A   1      44.673  23.486  28.602  1.00  0.00    -0.354 N 
ATOM     59  N   UNL A   1      46.595  27.277  29.624  1.00  0.00    -0.248 NA
ATOM     60  C   UNL A   1      46.552  27.139  27.300  1.00  0.00     0.031 C 
ATOM     61  C   UNL A   1      43.580  23.477  30.484  1.00  0.00     0.029 A 
ATOM     62  C   UNL A   1      44.629  24.117  29.821  1.00  0.00     0.049 A 
ATOM     63  H   UNL A   1      45.472  23.353  28.043  1.00  0.00     0.167 HD
ATOM     64  C   UNL A   1      46.159  26.004  29.290  1.00  0.00     0.074 A 
ATOM     65  C   UNL A   1      46.249  25.950  27.830  1.00  0.00     0.031 C 
ATOM     66  C   UNL A   1      45.495  25.222  30.194  1.00  0.00     0.034 A 
BRANCH  53  67
ATOM     67  C   UNL A   1      43.550  22.873  25.728  1.00  0.00     0.023 A 
ATOM     68  C   UNL A   1      43.558  21.479  25.519  1.00  0.00     0.031 A 
ATOM     69  C   UNL A   1      44.427  23.615  24.904  1.00  0.00     0.131 A 
ATOM     70  C   UNL A   1      44.486  20.879  24.649  1.00  0.00     0.055 A 
ATOM     71  C   UNL A   1      45.300  23.018  23.989  1.00  0.00     0.041 A 
ATOM     72  F   UNL A   1      44.560  24.943  24.992  1.00  0.00    -0.206 F 
ATOM     73  C   UNL A   1      45.362  21.641  23.884  1.00  0.00     0.022 A 
BRANCH  70  74
ATOM     74  S   UNL A   1      44.655  19.077  24.693  1.00  0.00     0.124 S 
ATOM     75  O   UNL A   1      45.734  18.912  25.661  1.00  0.00    -0.237 OA
ATOM     76  O   UNL A   1      43.326  18.663  25.131  1.00  0.00    -0.237 OA
ATOM     77  O   UNL A   1      44.992  18.735  23.314  1.00  0.00    -0.744 OA
ENDBRANCH  70  74
ENDBRANCH  53  67
BRANCH  54  78
ATOM     78  C   UNL A   1      46.744  30.453  27.742  1.00  0.00     0.023 A 
ATOM     79  C   UNL A   1      46.084  31.496  27.051  1.00  0.00     0.031 A 
ATOM     80  C   UNL A   1      48.122  30.643  27.995  1.00  0.00     0.131 A 
ATOM     81  C   UNL A   1      46.794  32.660  26.658  1.00  0.00     0.055 A 
ATOM     82  C   UNL A   1      48.815  31.793  27.608  1.00  0.00     0.041 A 
ATOM     83  F   UNL A   1      48.828  29.755  28.711  1.00  0.00    -0.206 F 
ATOM     84  C   UNL A   1      48.151  32.813  26.949  1.00  0.00     0.022 A 
BRANCH  81  85
ATOM     85  S   UNL A   1      45.941  34.054  25.843  1.00  0.00     0.124 S 
ATOM     86  O   UNL A   1      44.907  33.375  25.071  1.00  0.00    -0.237 OA
ATOM     87  O   UNL A   1      45.488  34.854  26.974  1.00  0.00    -0.237 OA
ATOM     88  O   UNL A   1      46.996  34.676  25.040  1.00  0.00    -0.744 OA
ENDBRANCH  81  85
ENDBRANCH  54  78
BRANCH  66  89
ATOM     89  C   UNL A   1      45.498  25.643  31.655  1.00  0.00     0.023 A 
ATOM     90  C   UNL A   1      46.546  25.400  32.574  1.00  0.00     0.031 A 
ATOM     91  C   UNL A   1      44.411  26.413  32.105  1.00  0.00     0.131 A 
ATOM     92  C   UNL A   1      46.465  25.899  33.890  1.00  0.00     0.055 A 
ATOM     93  C   UNL A   1      44.346  26.928  33.398  1.00  0.00     0.041 A 
ATOM     94  F   UNL A   1      43.394  26.705  31.277  1.00  0.00    -0.206 F 
ATOM     95  C   UNL A   1      45.368  26.664  34.301  1.00  0.00     0.022 A 
BRANCH  92  96
ATOM     96  S   UNL A   1      47.766  25.531  35.114  1.00  0.00     0.124 S 
ATOM     97  O   UNL A   1      48.384  24.311  34.605  1.00  0.00    -0.237 OA
ATOM     98  O   UNL A   1      48.594  26.732  35.067  1.00  0.00    -0.237 OA
ATOM     99  O   UNL A   1      47.017  25.359  36.361  1.00  0.00    -0.744 OA
ENDBRANCH  92  96
ENDBRANCH  66  89
ENDBRANCH  40  41
ENDBRANCH  32  35
ENDBRANCH  30  31
ENDBRANCH   1  30
TORSDOF 16
ENDMDL
MODEL 2
REMARK VINA RESULT:     -13.3      1.498      2.244
REMARK SMILES Cc1nsc(NC(=O)[C@H]2Cc3[nH]cnc3C[NH2+]2)c1C(=O)NCCCCNC(=O)c1ccc(-c2c3nc(c(-c4cc(S(=O)(=O)[O-])ccc4F)c4ccc([nH]4)c(-c4cc(S(=O)(=O)[O-])ccc4F)c4nc(c(-c5cc(S(=O)(=O)[O-])ccc5F)c5ccc2[nH]5)C=C4)C=C3)cc1
REMARK SMILES IDX 24 1 23 2 22 3 21 4 19 5 20 6 18 8 1 9 2 10 3 11 4 12 5 13
REMARK SMILES IDX 6 14 7 15 8 17 9 18 10 19 17 20 11 21 16 22 12 25 15 26
REMARK SMILES IDX 13 27 14 29 25 30 26 31 27 32 28 34 29 35 30 36 91 37 31 38
REMARK SMILES IDX 90 39 32 40 33 41 34 42 84 43 35 44 89 45 83 46 85 47 36 48
REMARK SMILES IDX 88 49 82 50 81 51 37 53 69 54 49 55 68 56 50 57 53 58 67 59
REMARK SMILES IDX 86 60 51 61 52 62 66 64 87 65 54 66 38 67 39 68 47 69 40 70
REMARK SMILES IDX 46 71 48 72 45 73 41 74 42 75 43 76 44 77 70 78 71 79 79 80
REMARK SMILES IDX 72 81 78 82 80 83 77 84 73 85 74 86 75 87 76 88 55 89 56 90
REMARK SMILES IDX 64 91 57 92 63 93 65 94 62 95 58 96 59 97 60 98 61 99
REMARK H PARENT 21 7 6 16 17 23 17 24 12 28 26 33 85 52 53 63
REMARK Flexibility Score: inf
ROOT
ATOM      1  C   UNL A   1      33.717  28.955  27.314  1.00  0.00     0.023 C 
ENDROOT
BRANCH   1   2
ATOM      2  C   UNL A   1      32.764  30.141  27.140  1.00  0.00     0.023 C 
BRANCH   2   3
ATOM      3  C   UNL A   1      32.140  30.297  25.754  1.00  0.00     0.116 C 
BRANCH   3   4
ATOM      4  N   UNL A   1      32.870  29.700  24.662  1.00  0.00    -0.352 N 
ATOM      5  C   UNL A   1      32.486  29.265  23.423  1.00  0.00     0.256 C 
ATOM      6  O   UNL A   1      33.394  29.094  22.605  1.00  0.00    -0.269 OA
ATOM      7  H   UNL A   1      33.830  29.584  24.844  1.00  0.00     0.163 HD
BRANCH   5   8
ATOM      8  C   UNL A   1      31.134  28.813  23.121  1.00  0.00     0.097 A 
ATOM      9  C   UNL A   1      29.324  30.757  23.131  1.00  0.00     0.069 C 
ATOM     10  C   UNL A   1      29.798  29.350  23.247  1.00  0.00     0.066 A 
ATOM     11  N   UNL A   1      28.843  28.420  23.427  1.00  0.00    -0.195 NA
ATOM     12  S   UNL A   1      29.564  26.930  23.185  1.00  0.00    -0.017 S 
ATOM     13  C   UNL A   1      30.927  27.633  22.411  1.00  0.00     0.129 A 
BRANCH  13  14
ATOM     14  N   UNL A   1      31.759  26.881  21.629  1.00  0.00    -0.311 N 
ATOM     15  C   UNL A   1      32.471  25.758  21.944  1.00  0.00     0.283 C 
ATOM     16  H   UNL A   1      31.860  27.194  20.702  1.00  0.00     0.171 HD
ATOM     17  O   UNL A   1      33.276  25.388  21.074  1.00  0.00    -0.268 OA
BRANCH  15  18
ATOM     18  C   UNL A   1      32.320  24.890  23.245  1.00  0.00     0.279 C 
ATOM     19  C   UNL A   1      31.259  23.768  23.358  1.00  0.00     0.131 C 
ATOM     20  N   UNL A   1      33.672  24.278  23.573  1.00  0.00    -0.331 N 
ATOM     21  C   UNL A   1      31.310  23.291  24.757  1.00  0.00     0.050 A 
ATOM     22  C   UNL A   1      33.785  23.703  24.947  1.00  0.00     0.320 C 
ATOM     23  H   UNL A   1      34.381  25.006  23.473  1.00  0.00     0.347 HD
ATOM     24  H   UNL A   1      33.799  23.501  22.925  1.00  0.00     0.347 HD
ATOM     25  N   UNL A   1      30.279  23.101  25.623  1.00  0.00    -0.348 N 
ATOM     26  C   UNL A   1      32.459  23.297  25.504  1.00  0.00     0.116 A 
ATOM     27  C   UNL A   1      30.837  23.054  26.874  1.00  0.00     0.197 A 
ATOM     28  H   UNL A   1      29.324  23.015  25.398  1.00  0.00     0.167 HD
ATOM     29  N   UNL A   1      32.153  23.133  26.831  1.00  0.00    -0.236 NA
ENDBRANCH  15  18
ENDBRANCH  13  14
ENDBRANCH   5   8
ENDBRANCH   3   4
ENDBRANCH   2   3
ENDBRANCH   1   2
BRANCH   1  30
ATOM     30  C   UNL A   1      35.184  29.324  27.541  1.00  0.00     0.116 C 
BRANCH  30  31
ATOM     31  N   UNL A   1      35.421  29.992  28.817  1.00  0.00    -0.352 N 
ATOM     32  C   UNL A   1      36.405  29.703  29.749  1.00  0.00     0.251 C 
ATOM     33  H   UNL A   1      34.811  30.731  29.042  1.00  0.00     0.163 HD
ATOM     34  O   UNL A   1      36.265  30.008  30.921  1.00  0.00    -0.269 OA
BRANCH  32  35
ATOM     35  C   UNL A   1      37.637  29.040  29.280  1.00  0.00     0.039 A 
ATOM     36  C   UNL A   1      38.290  29.451  28.119  1.00  0.00     0.014 A 
ATOM     37  C   UNL A   1      38.152  28.009  30.064  1.00  0.00     0.014 A 
ATOM     38  C   UNL A   1      39.524  28.879  27.808  1.00  0.00     0.010 A 
ATOM     39  C   UNL A   1      39.416  27.522  29.819  1.00  0.00     0.010 A 
ATOM     40  C   UNL A   1      40.098  27.934  28.677  1.00  0.00    -0.014 A 
BRANCH  40  41
ATOM     41  C   UNL A   1      41.488  27.511  28.501  1.00  0.00     0.031 A 
ATOM     42  C   UNL A   1      41.643  26.257  27.711  1.00  0.00     0.074 A 
ATOM     43  C   UNL A   1      42.558  28.277  28.811  1.00  0.00     0.049 A 
ATOM     44  N   UNL A   1      42.027  25.103  28.141  1.00  0.00    -0.248 NA
ATOM     45  C   UNL A   1      41.153  26.231  26.321  1.00  0.00     0.031 C 
ATOM     46  C   UNL A   1      42.564  29.648  29.332  1.00  0.00     0.029 A 
ATOM     47  N   UNL A   1      43.886  28.029  28.619  1.00  0.00    -0.354 N 
ATOM     48  C   UNL A   1      42.086  24.274  27.025  1.00  0.00     0.074 A 
ATOM     49  C   UNL A   1      41.330  24.946  26.003  1.00  0.00     0.031 C 
ATOM     50  C   UNL A   1      43.798  30.183  29.191  1.00  0.00     0.029 A 
ATOM     51  C   UNL A   1      44.707  29.154  28.717  1.00  0.00     0.049 A 
ATOM     52  H   UNL A   1      44.236  27.130  28.428  1.00  0.00     0.167 HD
ATOM     53  C   UNL A   1      42.970  23.238  26.970  1.00  0.00     0.034 A 
ATOM     54  C   UNL A   1      46.032  29.244  28.411  1.00  0.00     0.034 A 
ATOM     55  C   UNL A   1      43.494  22.944  28.289  1.00  0.00     0.049 A 
ATOM     56  C   UNL A   1      46.581  27.869  28.501  1.00  0.00     0.074 A 
ATOM     57  C   UNL A   1      42.925  22.611  29.505  1.00  0.00     0.029 A 
ATOM     58  N   UNL A   1      44.768  23.377  28.592  1.00  0.00    -0.354 N 
ATOM     59  N   UNL A   1      46.632  27.197  29.618  1.00  0.00    -0.248 NA
ATOM     60  C   UNL A   1      46.599  27.057  27.293  1.00  0.00     0.031 C 
ATOM     61  C   UNL A   1      43.669  23.354  30.470  1.00  0.00     0.029 A 
ATOM     62  C   UNL A   1      44.711  24.009  29.811  1.00  0.00     0.049 A 
ATOM     63  H   UNL A   1      45.571  23.256  28.036  1.00  0.00     0.167 HD
ATOM     64  C   UNL A   1      46.216  25.917  29.283  1.00  0.00     0.074 A 
ATOM     65  C   UNL A   1      46.311  25.864  27.824  1.00  0.00     0.031 C 
ATOM     66  C   UNL A   1      45.560  25.127  30.185  1.00  0.00     0.034 A 
BRANCH  53  67
ATOM     67  C   UNL A   1      43.665  22.747  25.714  1.00  0.00     0.023 A 
ATOM     68  C   UNL A   1      43.795  21.351  25.563  1.00  0.00     0.031 A 
ATOM     69  C   UNL A   1      44.449  23.528  24.835  1.00  0.00     0.131 A 
ATOM     70  C   UNL A   1      44.752  20.800  24.693  1.00  0.00     0.055 A 
ATOM     71  C   UNL A   1      45.350  22.972  23.921  1.00  0.00     0.041 A 
ATOM     72  F   UNL A   1      44.463  24.865  24.864  1.00  0.00    -0.206 F 
ATOM     73  C   UNL A   1      45.535  21.603  23.872  1.00  0.00     0.022 A 
BRANCH  70  74
ATOM     74  S   UNL A   1      45.087  19.024  24.806  1.00  0.00     0.124 S 
ATOM     75  O   UNL A   1      43.809  18.520  25.298  1.00  0.00    -0.237 OA
ATOM     76  O   UNL A   1      45.421  18.695  23.425  1.00  0.00    -0.237 OA
ATOM     77  O   UNL A   1      46.196  18.949  25.752  1.00  0.00    -0.744 OA
ENDBRANCH  70  74
ENDBRANCH  53  67
BRANCH  54  78
ATOM     78  C   UNL A   1      46.742  30.373  27.734  1.00  0.00     0.023 A 
ATOM     79  C   UNL A   1      46.070  31.394  27.021  1.00  0.00     0.031 A 
ATOM     80  C   UNL A   1      48.110  30.597  28.009  1.00  0.00     0.131 A 
ATOM     81  C   UNL A   1      46.761  32.570  26.629  1.00  0.00     0.055 A 
ATOM     82  C   UNL A   1      48.784  31.759  27.623  1.00  0.00     0.041 A 
ATOM     83  F   UNL A   1      48.824  29.732  28.745  1.00  0.00    -0.206 F 
ATOM     84  C   UNL A   1      48.109  32.757  26.942  1.00  0.00     0.022 A 
BRANCH  81  85
ATOM     85  S   UNL A   1      45.891  33.936  25.785  1.00  0.00     0.124 S 
ATOM     86  O   UNL A   1      44.890  33.227  24.997  1.00  0.00    -0.237 OA
ATOM     87  O   UNL A   1      45.395  34.733  26.901  1.00  0.00    -0.237 OA
ATOM     88  O   UNL A   1      46.946  34.579  24.999  1.00  0.00    -0.744 OA
ENDBRANCH  81  85
ENDBRANCH  54  78
BRANCH  66  89
ATOM     89  C   UNL A   1      45.552  25.549  31.646  1.00  0.00     0.023 A 
ATOM     90  C   UNL A   1      46.592  25.304  32.574  1.00  0.00     0.031 A 
ATOM     91  C   UNL A   1      44.462  26.322  32.086  1.00  0.00     0.131 A 
ATOM     92  C   UNL A   1      46.500  25.805  33.889  1.00  0.00     0.055 A 
ATOM     93  C   UNL A   1      44.388  26.838  33.379  1.00  0.00     0.041 A 
ATOM     94  F   UNL A   1      43.452  26.614  31.250  1.00  0.00    -0.206 F 
ATOM     95  C   UNL A   1      45.402  26.572  34.290  1.00  0.00     0.022 A 
BRANCH  92  96
ATOM     96  S   UNL A   1      47.791  25.435  35.124  1.00  0.00     0.124 S 
ATOM     97  O   UNL A   1      47.673  23.995  35.326  1.00  0.00    -0.237 OA
ATOM     98  O   UNL A   1      49.008  25.887  34.454  1.00  0.00    -0.237 OA
ATOM     99  O   UNL A   1      47.396  26.246  36.278  1.00  0.00    -0.744 OA
ENDBRANCH  92  96
ENDBRANCH  66  89
ENDBRANCH  40  41
ENDBRANCH  32  35
ENDBRANCH  30  31
ENDBRANCH   1  30
TORSDOF 16
ENDMDL
MODEL 3
REMARK VINA RESULT:     -13.0      2.237      6.836
REMARK SMILES Cc1nsc(NC(=O)[C@H]2Cc3[nH]cnc3C[NH2+]2)c1C(=O)NCCCCNC(=O)c1ccc(-c2c3nc(c(-c4cc(S(=O)(=O)[O-])ccc4F)c4ccc([nH]4)c(-c4cc(S(=O)(=O)[O-])ccc4F)c4nc(c(-c5cc(S(=O)(=O)[O-])ccc5F)c5ccc2[nH]5)C=C4)C=C3)cc1
REMARK SMILES IDX 24 1 23 2 22 3 21 4 19 5 20 6 18 8 1 9 2 10 3 11 4 12 5 13
REMARK SMILES IDX 6 14 7 15 8 17 9 18 10 19 17 20 11 21 16 22 12 25 15 26
REMARK SMILES IDX 13 27 14 29 25 30 26 31 27 32 28 34 29 35 30 36 91 37 31 38
REMARK SMILES IDX 90 39 32 40 33 41 34 42 84 43 35 44 89 45 83 46 85 47 36 48
REMARK SMILES IDX 88 49 82 50 81 51 37 53 69 54 49 55 68 56 50 57 53 58 67 59
REMARK SMILES IDX 86 60 51 61 52 62 66 64 87 65 54 66 38 67 39 68 47 69 40 70
REMARK SMILES IDX 46 71 48 72 45 73 41 74 42 75 43 76 44 77 70 78 71 79 79 80
REMARK SMILES IDX 72 81 78 82 80 83 77 84 73 85 74 86 75 87 76 88 55 89 56 90
REMARK SMILES IDX 64 91 57 92 63 93 65 94 62 95 58 96 59 97 60 98 61 99
REMARK H PARENT 21 7 6 16 17 23 17 24 12 28 26 33 85 52 53 63
REMARK Flexibility Score: inf
ROOT
ATOM      1  C   UNL A   1      33.936  30.250  27.594  1.00  0.00     0.023 C 
ENDROOT
BRANCH   1   2
ATOM      2  C   UNL A   1      32.580  30.294  26.884  1.00  0.00     0.023 C 
BRANCH   2   3
ATOM      3  C   UNL A   1      32.246  29.087  26.009  1.00  0.00     0.116 C 
BRANCH   3   4
ATOM      4  N   UNL A   1      32.693  27.807  26.503  1.00  0.00    -0.352 N 
ATOM      5  C   UNL A   1      32.797  26.575  25.915  1.00  0.00     0.256 C 
ATOM      6  O   UNL A   1      33.505  25.754  26.503  1.00  0.00    -0.269 OA
ATOM      7  H   UNL A   1      32.978  27.823  27.444  1.00  0.00     0.163 HD
BRANCH   5   8
ATOM      8  C   UNL A   1      31.968  26.157  24.791  1.00  0.00     0.097 A 
ATOM      9  C   UNL A   1      33.318  25.797  22.534  1.00  0.00     0.069 C 
ATOM     10  C   UNL A   1      32.111  26.083  23.355  1.00  0.00     0.066 A 
ATOM     11  N   UNL A   1      30.958  26.227  22.677  1.00  0.00    -0.195 NA
ATOM     12  S   UNL A   1      29.722  26.193  23.805  1.00  0.00    -0.017 S 
ATOM     13  C   UNL A   1      30.746  25.527  25.014  1.00  0.00     0.129 A 
BRANCH  13  14
ATOM     14  N   UNL A   1      30.224  24.911  26.117  1.00  0.00    -0.311 N 
ATOM     15  C   UNL A   1      30.552  23.711  26.681  1.00  0.00     0.283 C 
ATOM     16  H   UNL A   1      29.505  25.405  26.572  1.00  0.00     0.171 HD
ATOM     17  O   UNL A   1      29.787  23.331  27.583  1.00  0.00    -0.268 OA
BRANCH  15  18
ATOM     18  C   UNL A   1      31.806  22.829  26.339  1.00  0.00     0.279 C 
ATOM     19  C   UNL A   1      32.849  22.441  27.415  1.00  0.00     0.131 C 
ATOM     20  N   UNL A   1      31.324  21.545  25.683  1.00  0.00    -0.331 N 
ATOM     21  C   UNL A   1      33.947  21.757  26.699  1.00  0.00     0.050 A 
ATOM     22  C   UNL A   1      32.389  20.751  24.998  1.00  0.00     0.320 C 
ATOM     23  H   UNL A   1      30.615  21.790  24.991  1.00  0.00     0.347 HD
ATOM     24  H   UNL A   1      30.966  20.956  26.435  1.00  0.00     0.347 HD
ATOM     25  N   UNL A   1      35.285  21.984  26.789  1.00  0.00    -0.348 N 
ATOM     26  C   UNL A   1      33.747  21.014  25.566  1.00  0.00     0.116 A 
ATOM     27  C   UNL A   1      35.843  21.414  25.674  1.00  0.00     0.197 A 
ATOM     28  H   UNL A   1      35.758  22.460  27.509  1.00  0.00     0.167 HD
ATOM     29  N   UNL A   1      34.945  20.790  24.937  1.00  0.00    -0.236 NA
ENDBRANCH  15  18
ENDBRANCH  13  14
ENDBRANCH   5   8
ENDBRANCH   3   4
ENDBRANCH   2   3
ENDBRANCH   1   2
BRANCH   1  30
ATOM     30  C   UNL A   1      34.709  31.570  27.607  1.00  0.00     0.116 C 
BRANCH  30  31
ATOM     31  N   UNL A   1      34.695  32.235  28.906  1.00  0.00    -0.352 N 
ATOM     32  C   UNL A   1      35.460  31.926  30.019  1.00  0.00     0.251 C 
ATOM     33  H   UNL A   1      34.071  32.990  29.002  1.00  0.00     0.163 HD
ATOM     34  O   UNL A   1      35.091  32.238  31.137  1.00  0.00    -0.269 OA
BRANCH  32  35
ATOM     35  C   UNL A   1      36.746  31.233  29.810  1.00  0.00     0.039 A 
ATOM     36  C   UNL A   1      37.961  31.915  29.860  1.00  0.00     0.014 A 
ATOM     37  C   UNL A   1      36.708  29.855  29.600  1.00  0.00     0.014 A 
ATOM     38  C   UNL A   1      39.145  31.179  29.797  1.00  0.00     0.010 A 
ATOM     39  C   UNL A   1      37.870  29.118  29.645  1.00  0.00     0.010 A 
ATOM     40  C   UNL A   1      39.095  29.776  29.719  1.00  0.00    -0.014 A 
BRANCH  40  41
ATOM     41  C   UNL A   1      40.308  28.978  29.900  1.00  0.00     0.031 A 
ATOM     42  C   UNL A   1      40.602  28.637  31.320  1.00  0.00     0.074 A 
ATOM     43  C   UNL A   1      40.991  28.398  28.887  1.00  0.00     0.049 A 
ATOM     44  N   UNL A   1      41.567  29.085  32.050  1.00  0.00    -0.248 NA
ATOM     45  C   UNL A   1      39.617  27.841  32.075  1.00  0.00     0.031 C 
ATOM     46  C   UNL A   1      40.662  28.407  27.458  1.00  0.00     0.029 A 
ATOM     47  N   UNL A   1      42.076  27.573  28.934  1.00  0.00    -0.354 N 
ATOM     48  C   UNL A   1      41.470  28.422  33.270  1.00  0.00     0.074 A 
ATOM     49  C   UNL A   1      40.145  27.862  33.301  1.00  0.00     0.031 C 
ATOM     50  C   UNL A   1      41.376  27.450  26.821  1.00  0.00     0.029 A 
ATOM     51  C   UNL A   1      42.321  26.865  27.756  1.00  0.00     0.049 A 
ATOM     52  H   UNL A   1      42.641  27.485  29.735  1.00  0.00     0.167 HD
ATOM     53  C   UNL A   1      42.579  28.178  34.023  1.00  0.00     0.034 A 
ATOM     54  C   UNL A   1      43.217  25.857  27.563  1.00  0.00     0.034 A 
ATOM     55  C   UNL A   1      43.691  28.991  33.571  1.00  0.00     0.049 A 
ATOM     56  C   UNL A   1      44.257  26.011  28.609  1.00  0.00     0.074 A 
ATOM     57  C   UNL A   1      43.895  30.349  33.412  1.00  0.00     0.029 A 
ATOM     58  N   UNL A   1      44.670  28.385  32.811  1.00  0.00    -0.354 N 
ATOM     59  N   UNL A   1      45.056  27.041  28.669  1.00  0.00    -0.248 NA
ATOM     60  C   UNL A   1      44.080  25.296  29.864  1.00  0.00     0.031 C 
ATOM     61  C   UNL A   1      44.609  30.467  32.181  1.00  0.00     0.029 A 
ATOM     62  C   UNL A   1      44.894  29.183  31.715  1.00  0.00     0.049 A 
ATOM     63  H   UNL A   1      45.124  27.537  33.018  1.00  0.00     0.167 HD
ATOM     64  C   UNL A   1      45.098  27.381  30.013  1.00  0.00     0.074 A 
ATOM     65  C   UNL A   1      44.565  26.211  30.711  1.00  0.00     0.031 C 
ATOM     66  C   UNL A   1      45.283  28.676  30.410  1.00  0.00     0.034 A 
BRANCH  53  67
ATOM     67  C   UNL A   1      42.794  26.954  34.892  1.00  0.00     0.023 A 
ATOM     68  C   UNL A   1      43.616  25.936  34.365  1.00  0.00     0.031 A 
ATOM     69  C   UNL A   1      42.034  26.593  36.027  1.00  0.00     0.131 A 
ATOM     70  C   UNL A   1      43.555  24.623  34.863  1.00  0.00     0.055 A 
ATOM     71  C   UNL A   1      42.031  25.301  36.562  1.00  0.00     0.041 A 
ATOM     72  F   UNL A   1      41.186  27.432  36.632  1.00  0.00    -0.206 F 
ATOM     73  C   UNL A   1      42.763  24.296  35.958  1.00  0.00     0.022 A 
BRANCH  70  74
ATOM     74  S   UNL A   1      44.381  23.314  33.922  1.00  0.00     0.124 S 
ATOM     75  O   UNL A   1      45.755  23.803  33.892  1.00  0.00    -0.237 OA
ATOM     76  O   UNL A   1      44.131  22.143  34.757  1.00  0.00    -0.237 OA
ATOM     77  O   UNL A   1      43.682  23.327  32.640  1.00  0.00    -0.744 OA
ENDBRANCH  70  74
ENDBRANCH  53  67
BRANCH  54  78
ATOM     78  C   UNL A   1      43.035  24.610  26.758  1.00  0.00     0.023 A 
ATOM     79  C   UNL A   1      43.922  24.215  25.729  1.00  0.00     0.031 A 
ATOM     80  C   UNL A   1      42.097  23.640  27.182  1.00  0.00     0.131 A 
ATOM     81  C   UNL A   1      43.854  22.908  25.183  1.00  0.00     0.055 A 
ATOM     82  C   UNL A   1      42.037  22.353  26.643  1.00  0.00     0.041 A 
ATOM     83  F   UNL A   1      41.261  23.880  28.204  1.00  0.00    -0.206 F 
ATOM     84  C   UNL A   1      42.923  21.976  25.649  1.00  0.00     0.022 A 
BRANCH  81  85
ATOM     85  S   UNL A   1      45.045  22.352  23.916  1.00  0.00     0.124 S 
ATOM     86  O   UNL A   1      45.541  21.104  24.483  1.00  0.00    -0.237 OA
ATOM     87  O   UNL A   1      44.211  22.238  22.725  1.00  0.00    -0.237 OA
ATOM     88  O   UNL A   1      46.027  23.437  23.871  1.00  0.00    -0.744 OA
ENDBRANCH  81  85
ENDBRANCH  54  78
BRANCH  66  89
ATOM     89  C   UNL A   1      45.737  29.693  29.376  1.00  0.00     0.023 A 
ATOM     90  C   UNL A   1      44.887  30.382  28.478  1.00  0.00     0.031 A 
ATOM     91  C   UNL A   1      47.099  30.043  29.371  1.00  0.00     0.131 A 
ATOM     92  C   UNL A   1      45.417  31.356  27.607  1.00  0.00     0.055 A 
ATOM     93  C   UNL A   1      47.615  31.025  28.528  1.00  0.00     0.041 A 
ATOM     94  F   UNL A   1      47.958  29.448  30.216  1.00  0.00    -0.206 F 
ATOM     95  C   UNL A   1      46.777  31.679  27.633  1.00  0.00     0.022 A 
BRANCH  92  96
ATOM     96  S   UNL A   1      44.355  32.199  26.387  1.00  0.00     0.124 S 
ATOM     97  O   UNL A   1      43.802  33.326  27.129  1.00  0.00    -0.237 OA
ATOM     98  O   UNL A   1      45.299  32.537  25.325  1.00  0.00    -0.237 OA
ATOM     99  O   UNL A   1      43.377  31.171  26.024  1.00  0.00    -0.744 OA
ENDBRANCH  92  96
ENDBRANCH  66  89
ENDBRANCH  40  41
ENDBRANCH  32  35
ENDBRANCH  30  31
ENDBRANCH   1  30
TORSDOF 16
ENDMDL
