MODEL 1
REMARK VINA RESULT:     -11.2      0.000      0.000
REMARK SMILES CC[C@@](C)(NC(=O)[C@@H](C)NC(=O)c1ccco1)C(=O)NCCCCNC(=O)c1ccc(-c2c3nc(c(-c4cc(S(=O)(=O)[O-])ccc4F)c4ccc([nH]4)c(-c4cc(S(=O)(=O)[O-])ccc4F)c4nc(c(-c5cc(S(=O)(=O)[O-])ccc5F)c5ccc2[nH]5)C=C4)C=C3)cc1
REMARK SMILES IDX 22 1 21 2 20 3 18 4 19 5 3 7 4 8 2 9 1 10 5 11 6 12 7 14
REMARK SMILES IDX 8 15 9 16 10 17 11 18 12 20 13 21 14 22 17 23 15 24 16 25
REMARK SMILES IDX 23 26 24 27 25 28 26 29 27 31 28 32 29 33 90 34 30 35 89 36
REMARK SMILES IDX 31 37 32 38 33 39 83 40 34 41 88 42 82 43 84 44 35 45 87 46
REMARK SMILES IDX 81 47 80 48 36 50 68 51 48 52 67 53 49 54 52 55 66 56 85 57
REMARK SMILES IDX 50 58 51 59 65 61 86 62 53 63 37 64 38 65 46 66 39 67 45 68
REMARK SMILES IDX 47 69 44 70 40 71 41 72 42 73 43 74 69 75 70 76 78 77 71 78
REMARK SMILES IDX 77 79 79 80 76 81 72 82 73 83 74 84 75 85 54 86 55 87 63 88
REMARK SMILES IDX 56 89 62 90 64 91 61 92 57 93 58 94 59 95 60 96
REMARK H PARENT 20 6 5 13 10 19 25 30 84 49 52 60
REMARK Flexibility Score: inf
ROOT
ATOM      1  C   UNL A   1      31.454  30.699  25.712  1.00  0.00     0.023 C 
ENDROOT
BRANCH   1   2
ATOM      2  C   UNL A   1      32.797  29.974  25.807  1.00  0.00     0.116 C 
BRANCH   2   3
ATOM      3  N   UNL A   1      33.472  29.685  24.546  1.00  0.00    -0.354 N 
ATOM      4  C   UNL A   1      33.421  28.613  23.695  1.00  0.00     0.245 C 
ATOM      5  O   UNL A   1      34.074  28.692  22.650  1.00  0.00    -0.272 OA
ATOM      6  H   UNL A   1      34.082  30.399  24.250  1.00  0.00     0.163 HD
BRANCH   4   7
ATOM      7  C   UNL A   1      32.666  27.316  24.052  1.00  0.00     0.116 C 
ATOM      8  C   UNL A   1      33.112  26.842  25.459  1.00  0.00     0.045 C 
BRANCH   7   9
ATOM      9  C   UNL A   1      31.114  27.418  24.118  1.00  0.00     0.035 C 
ATOM     10  C   UNL A   1      30.412  28.301  23.090  1.00  0.00     0.007 C 
ENDBRANCH   7   9
BRANCH   7  11
ATOM     11  N   UNL A   1      33.013  26.317  23.009  1.00  0.00    -0.340 N 
ATOM     12  C   UNL A   1      32.992  24.956  22.942  1.00  0.00     0.243 C 
ATOM     13  H   UNL A   1      33.330  26.734  22.175  1.00  0.00     0.164 HD
ATOM     14  O   UNL A   1      33.776  24.497  22.093  1.00  0.00    -0.273 OA
BRANCH  12  15
ATOM     15  C   UNL A   1      32.223  23.927  23.855  1.00  0.00     0.168 C 
ATOM     16  C   UNL A   1      30.718  23.983  23.628  1.00  0.00     0.041 C 
BRANCH  15  17
ATOM     17  N   UNL A   1      32.605  22.520  23.931  1.00  0.00    -0.338 N 
ATOM     18  C   UNL A   1      33.783  21.926  24.323  1.00  0.00     0.287 C 
ATOM     19  H   UNL A   1      31.902  21.890  23.653  1.00  0.00     0.164 HD
ATOM     20  O   UNL A   1      33.846  20.698  24.159  1.00  0.00    -0.266 OA
BRANCH  18  21
ATOM     21  C   UNL A   1      34.897  22.701  24.825  1.00  0.00     0.191 A 
ATOM     22  C   UNL A   1      35.084  23.510  25.933  1.00  0.00     0.056 A 
ATOM     23  O   UNL A   1      36.084  22.621  24.137  1.00  0.00    -0.459 OA
ATOM     24  C   UNL A   1      36.437  23.942  25.909  1.00  0.00     0.043 A 
ATOM     25  C   UNL A   1      36.999  23.378  24.791  1.00  0.00     0.196 A 
ENDBRANCH  18  21
ENDBRANCH  15  17
ENDBRANCH  12  15
ENDBRANCH   7  11
ENDBRANCH   4   7
ENDBRANCH   2   3
ENDBRANCH   1   2
BRANCH   1  26
ATOM     26  C   UNL A   1      31.313  31.976  26.521  1.00  0.00     0.023 C 
BRANCH  26  27
ATOM     27  C   UNL A   1      32.512  32.409  27.341  1.00  0.00     0.116 C 
BRANCH  27  28
ATOM     28  N   UNL A   1      32.526  33.841  27.557  1.00  0.00    -0.352 N 
ATOM     29  C   UNL A   1      33.212  34.575  28.496  1.00  0.00     0.251 C 
ATOM     30  H   UNL A   1      31.963  34.367  26.942  1.00  0.00     0.163 HD
ATOM     31  O   UNL A   1      32.879  35.744  28.688  1.00  0.00    -0.269 OA
BRANCH  29  32
ATOM     32  C   UNL A   1      34.324  33.981  29.287  1.00  0.00     0.039 A 
ATOM     33  C   UNL A   1      35.635  34.380  29.003  1.00  0.00     0.014 A 
ATOM     34  C   UNL A   1      34.108  32.993  30.251  1.00  0.00     0.014 A 
ATOM     35  C   UNL A   1      36.710  33.811  29.696  1.00  0.00     0.010 A 
ATOM     36  C   UNL A   1      35.170  32.504  31.013  1.00  0.00     0.010 A 
ATOM     37  C   UNL A   1      36.488  32.878  30.722  1.00  0.00    -0.014 A 
BRANCH  37  38
ATOM     38  C   UNL A   1      37.625  32.239  31.445  1.00  0.00     0.031 A 
ATOM     39  C   UNL A   1      38.396  31.116  30.794  1.00  0.00     0.074 A 
ATOM     40  C   UNL A   1      37.954  32.646  32.687  1.00  0.00     0.049 A 
ATOM     41  N   UNL A   1      39.393  30.410  31.265  1.00  0.00    -0.248 NA
ATOM     42  C   UNL A   1      37.973  30.717  29.442  1.00  0.00     0.031 C 
ATOM     43  C   UNL A   1      37.267  33.698  33.440  1.00  0.00     0.029 A 
ATOM     44  N   UNL A   1      38.949  32.229  33.537  1.00  0.00    -0.354 N 
ATOM     45  C   UNL A   1      39.698  29.473  30.281  1.00  0.00     0.074 A 
ATOM     46  C   UNL A   1      38.740  29.663  29.214  1.00  0.00     0.031 C 
ATOM     47  C   UNL A   1      37.885  33.868  34.620  1.00  0.00     0.029 A 
ATOM     48  C   UNL A   1      38.977  32.907  34.735  1.00  0.00     0.049 A 
ATOM     49  H   UNL A   1      39.583  31.510  33.311  1.00  0.00     0.167 HD
ATOM     50  C   UNL A   1      40.698  28.558  30.255  1.00  0.00     0.034 A 
ATOM     51  C   UNL A   1      39.783  32.764  35.806  1.00  0.00     0.034 A 
ATOM     52  C   UNL A   1      41.661  28.394  31.318  1.00  0.00     0.049 A 
ATOM     53  C   UNL A   1      40.873  31.720  35.767  1.00  0.00     0.074 A 
ATOM     54  C   UNL A   1      42.752  27.542  31.368  1.00  0.00     0.029 A 
ATOM     55  N   UNL A   1      41.646  29.089  32.521  1.00  0.00    -0.354 N 
ATOM     56  N   UNL A   1      41.180  30.881  34.804  1.00  0.00    -0.248 NA
ATOM     57  C   UNL A   1      41.729  31.611  36.954  1.00  0.00     0.031 C 
ATOM     58  C   UNL A   1      43.348  27.666  32.627  1.00  0.00     0.029 A 
ATOM     59  C   UNL A   1      42.685  28.658  33.332  1.00  0.00     0.049 A 
ATOM     60  H   UNL A   1      40.994  29.785  32.762  1.00  0.00     0.167 HD
ATOM     61  C   UNL A   1      42.288  30.169  35.260  1.00  0.00     0.074 A 
ATOM     62  C   UNL A   1      42.602  30.689  36.574  1.00  0.00     0.031 C 
ATOM     63  C   UNL A   1      42.984  29.178  34.646  1.00  0.00     0.034 A 
BRANCH  50  64
ATOM     64  C   UNL A   1      40.782  27.646  29.052  1.00  0.00     0.023 A 
ATOM     65  C   UNL A   1      41.732  27.843  28.033  1.00  0.00     0.031 A 
ATOM     66  C   UNL A   1      39.885  26.570  28.912  1.00  0.00     0.131 A 
ATOM     67  C   UNL A   1      41.714  27.029  26.889  1.00  0.00     0.055 A 
ATOM     68  C   UNL A   1      39.928  25.712  27.811  1.00  0.00     0.041 A 
ATOM     69  F   UNL A   1      38.943  26.341  29.840  1.00  0.00    -0.206 F 
ATOM     70  C   UNL A   1      40.837  25.948  26.783  1.00  0.00     0.022 A 
BRANCH  67  71
ATOM     71  S   UNL A   1      42.756  27.493  25.479  1.00  0.00     0.124 S 
ATOM     72  O   UNL A   1      42.652  26.308  24.632  1.00  0.00    -0.237 OA
ATOM     73  O   UNL A   1      42.098  28.694  24.981  1.00  0.00    -0.237 OA
ATOM     74  O   UNL A   1      44.072  27.706  26.080  1.00  0.00    -0.744 OA
ENDBRANCH  67  71
ENDBRANCH  50  64
BRANCH  51  75
ATOM     75  C   UNL A   1      39.598  33.619  37.016  1.00  0.00     0.023 A 
ATOM     76  C   UNL A   1      38.946  33.127  38.158  1.00  0.00     0.031 A 
ATOM     77  C   UNL A   1      40.023  34.960  37.029  1.00  0.00     0.131 A 
ATOM     78  C   UNL A   1      38.693  33.980  39.244  1.00  0.00     0.055 A 
ATOM     79  C   UNL A   1      39.822  35.788  38.135  1.00  0.00     0.041 A 
ATOM     80  F   UNL A   1      40.651  35.483  35.965  1.00  0.00    -0.206 F 
ATOM     81  C   UNL A   1      39.140  35.304  39.245  1.00  0.00     0.022 A 
BRANCH  78  82
ATOM     82  S   UNL A   1      37.683  33.362  40.619  1.00  0.00     0.124 S 
ATOM     83  O   UNL A   1      38.566  32.363  41.210  1.00  0.00    -0.237 OA
ATOM     84  O   UNL A   1      37.467  34.574  41.403  1.00  0.00    -0.237 OA
ATOM     85  O   UNL A   1      36.494  32.831  39.955  1.00  0.00    -0.744 OA
ENDBRANCH  78  82
ENDBRANCH  51  75
BRANCH  63  86
ATOM     86  C   UNL A   1      44.188  28.630  35.374  1.00  0.00     0.023 A 
ATOM     87  C   UNL A   1      44.080  27.588  36.311  1.00  0.00     0.031 A 
ATOM     88  C   UNL A   1      45.465  29.169  35.132  1.00  0.00     0.131 A 
ATOM     89  C   UNL A   1      45.216  27.156  37.013  1.00  0.00     0.055 A 
ATOM     90  C   UNL A   1      46.602  28.692  35.784  1.00  0.00     0.041 A 
ATOM     91  F   UNL A   1      45.628  30.168  34.250  1.00  0.00    -0.206 F 
ATOM     92  C   UNL A   1      46.479  27.689  36.741  1.00  0.00     0.022 A 
BRANCH  89  93
ATOM     93  S   UNL A   1      45.008  25.957  38.357  1.00  0.00     0.124 S 
ATOM     94  O   UNL A   1      44.291  24.875  37.691  1.00  0.00    -0.237 OA
ATOM     95  O   UNL A   1      46.387  25.669  38.737  1.00  0.00    -0.237 OA
ATOM     96  O   UNL A   1      44.231  26.692  39.355  1.00  0.00    -0.744 OA
ENDBRANCH  89  93
ENDBRANCH  63  86
ENDBRANCH  37  38
ENDBRANCH  29  32
ENDBRANCH  27  28
ENDBRANCH  26  27
ENDBRANCH   1  26
TORSDOF 19
ENDMDL
MODEL 2
REMARK VINA RESULT:     -11.0      0.860      7.760
REMARK SMILES CC[C@@](C)(NC(=O)[C@@H](C)NC(=O)c1ccco1)C(=O)NCCCCNC(=O)c1ccc(-c2c3nc(c(-c4cc(S(=O)(=O)[O-])ccc4F)c4ccc([nH]4)c(-c4cc(S(=O)(=O)[O-])ccc4F)c4nc(c(-c5cc(S(=O)(=O)[O-])ccc5F)c5ccc2[nH]5)C=C4)C=C3)cc1
REMARK SMILES IDX 22 1 21 2 20 3 18 4 19 5 3 7 4 8 2 9 1 10 5 11 6 12 7 14
REMARK SMILES IDX 8 15 9 16 10 17 11 18 12 20 13 21 14 22 17 23 15 24 16 25
REMARK SMILES IDX 23 26 24 27 25 28 26 29 27 31 28 32 29 33 90 34 30 35 89 36
REMARK SMILES IDX 31 37 32 38 33 39 83 40 34 41 88 42 82 43 84 44 35 45 87 46
REMARK SMILES IDX 81 47 80 48 36 50 68 51 48 52 67 53 49 54 52 55 66 56 85 57
REMARK SMILES IDX 50 58 51 59 65 61 86 62 53 63 37 64 38 65 46 66 39 67 45 68
REMARK SMILES IDX 47 69 44 70 40 71 41 72 42 73 43 74 69 75 70 76 78 77 71 78
REMARK SMILES IDX 77 79 79 80 76 81 72 82 73 83 74 84 75 85 54 86 55 87 63 88
REMARK SMILES IDX 56 89 62 90 64 91 61 92 57 93 58 94 59 95 60 96
REMARK H PARENT 20 6 5 13 10 19 25 30 84 49 52 60
REMARK Flexibility Score: inf
ROOT
ATOM      1  C   UNL A   1      31.409  30.713  25.897  1.00  0.00     0.023 C 
ENDROOT
BRANCH   1   2
ATOM      2  C   UNL A   1      32.739  29.959  25.938  1.00  0.00     0.116 C 
BRANCH   2   3
ATOM      3  N   UNL A   1      33.399  29.731  24.657  1.00  0.00    -0.354 N 
ATOM      4  C   UNL A   1      33.513  28.623  23.860  1.00  0.00     0.245 C 
ATOM      5  O   UNL A   1      34.092  28.764  22.779  1.00  0.00    -0.272 OA
ATOM      6  H   UNL A   1      33.849  30.529  24.295  1.00  0.00     0.163 HD
BRANCH   4   7
ATOM      7  C   UNL A   1      33.032  27.230  24.317  1.00  0.00     0.116 C 
ATOM      8  C   UNL A   1      33.722  26.871  25.658  1.00  0.00     0.045 C 
BRANCH   7   9
ATOM      9  C   UNL A   1      31.505  27.080  24.580  1.00  0.00     0.035 C 
ATOM     10  C   UNL A   1      31.056  26.723  25.995  1.00  0.00     0.007 C 
ENDBRANCH   7   9
BRANCH   7  11
ATOM     11  N   UNL A   1      33.405  26.275  23.243  1.00  0.00    -0.340 N 
ATOM     12  C   UNL A   1      33.281  24.927  23.074  1.00  0.00     0.243 C 
ATOM     13  H   UNL A   1      33.842  26.715  22.478  1.00  0.00     0.164 HD
ATOM     14  O   UNL A   1      34.111  24.457  22.276  1.00  0.00    -0.273 OA
BRANCH  12  15
ATOM     15  C   UNL A   1      32.338  23.913  23.827  1.00  0.00     0.168 C 
ATOM     16  C   UNL A   1      32.177  22.610  23.055  1.00  0.00     0.041 C 
BRANCH  15  17
ATOM     17  N   UNL A   1      32.531  23.572  25.233  1.00  0.00    -0.338 N 
ATOM     18  C   UNL A   1      33.638  23.106  25.904  1.00  0.00     0.287 C 
ATOM     19  H   UNL A   1      31.734  23.696  25.797  1.00  0.00     0.164 HD
ATOM     20  O   UNL A   1      33.455  22.789  27.089  1.00  0.00    -0.266 OA
BRANCH  18  21
ATOM     21  C   UNL A   1      34.913  22.932  25.242  1.00  0.00     0.191 A 
ATOM     22  C   UNL A   1      35.417  21.992  24.358  1.00  0.00     0.056 A 
ATOM     23  O   UNL A   1      35.867  23.902  25.438  1.00  0.00    -0.459 OA
ATOM     24  C   UNL A   1      36.730  22.408  24.012  1.00  0.00     0.043 A 
ATOM     25  C   UNL A   1      36.957  23.572  24.703  1.00  0.00     0.196 A 
ENDBRANCH  18  21
ENDBRANCH  15  17
ENDBRANCH  12  15
ENDBRANCH   7  11
ENDBRANCH   4   7
ENDBRANCH   2   3
ENDBRANCH   1   2
BRANCH   1  26
ATOM     26  C   UNL A   1      31.392  32.096  26.520  1.00  0.00     0.023 C 
BRANCH  26  27
ATOM     27  C   UNL A   1      32.681  32.585  27.150  1.00  0.00     0.116 C 
BRANCH  27  28
ATOM     28  N   UNL A   1      32.564  33.947  27.627  1.00  0.00    -0.352 N 
ATOM     29  C   UNL A   1      33.185  34.555  28.693  1.00  0.00     0.251 C 
ATOM     30  H   UNL A   1      31.951  34.523  27.114  1.00  0.00     0.163 HD
ATOM     31  O   UNL A   1      32.747  35.632  29.093  1.00  0.00    -0.269 OA
BRANCH  29  32
ATOM     32  C   UNL A   1      34.353  33.930  29.372  1.00  0.00     0.039 A 
ATOM     33  C   UNL A   1      35.640  34.303  28.970  1.00  0.00     0.014 A 
ATOM     34  C   UNL A   1      34.206  32.938  30.346  1.00  0.00     0.014 A 
ATOM     35  C   UNL A   1      36.762  33.705  29.556  1.00  0.00     0.010 A 
ATOM     36  C   UNL A   1      35.323  32.419  31.002  1.00  0.00     0.010 A 
ATOM     37  C   UNL A   1      36.617  32.768  30.591  1.00  0.00    -0.014 A 
BRANCH  37  38
ATOM     38  C   UNL A   1      37.802  32.099  31.200  1.00  0.00     0.031 A 
ATOM     39  C   UNL A   1      38.341  32.580  32.526  1.00  0.00     0.074 A 
ATOM     40  C   UNL A   1      38.408  31.079  30.560  1.00  0.00     0.049 A 
ATOM     41  N   UNL A   1      39.376  32.155  33.205  1.00  0.00    -0.248 NA
ATOM     42  C   UNL A   1      37.635  33.705  33.159  1.00  0.00     0.031 C 
ATOM     43  C   UNL A   1      38.007  30.542  29.258  1.00  0.00     0.029 A 
ATOM     44  N   UNL A   1      39.489  30.309  30.915  1.00  0.00    -0.354 N 
ATOM     45  C   UNL A   1      39.458  32.973  34.329  1.00  0.00     0.074 A 
ATOM     46  C   UNL A   1      38.404  33.956  34.207  1.00  0.00     0.031 C 
ATOM     47  C   UNL A   1      38.804  29.508  28.944  1.00  0.00     0.029 A 
ATOM     48  C   UNL A   1      39.806  29.338  29.992  1.00  0.00     0.049 A 
ATOM     49  H   UNL A   1      39.991  30.440  31.752  1.00  0.00     0.167 HD
ATOM     50  C   UNL A   1      40.314  32.898  35.379  1.00  0.00     0.034 A 
ATOM     51  C   UNL A   1      40.796  28.422  29.985  1.00  0.00     0.034 A 
ATOM     52  C   UNL A   1      41.347  31.897  35.499  1.00  0.00     0.049 A 
ATOM     53  C   UNL A   1      41.754  28.374  31.151  1.00  0.00     0.074 A 
ATOM     54  C   UNL A   1      42.227  31.689  36.547  1.00  0.00     0.029 A 
ATOM     55  N   UNL A   1      41.647  30.941  34.536  1.00  0.00    -0.354 N 
ATOM     56  N   UNL A   1      41.781  29.121  32.231  1.00  0.00    -0.248 NA
ATOM     57  C   UNL A   1      42.808  27.353  31.100  1.00  0.00     0.031 C 
ATOM     58  C   UNL A   1      43.106  30.663  36.186  1.00  0.00     0.029 A 
ATOM     59  C   UNL A   1      42.721  30.168  34.950  1.00  0.00     0.049 A 
ATOM     60  H   UNL A   1      41.167  30.830  33.684  1.00  0.00     0.167 HD
ATOM     61  C   UNL A   1      42.835  28.635  33.003  1.00  0.00     0.074 A 
ATOM     62  C   UNL A   1      43.405  27.523  32.271  1.00  0.00     0.031 C 
ATOM     63  C   UNL A   1      43.287  29.066  34.208  1.00  0.00     0.034 A 
BRANCH  50  64
ATOM     64  C   UNL A   1      40.185  33.942  36.465  1.00  0.00     0.023 A 
ATOM     65  C   UNL A   1      39.710  33.625  37.751  1.00  0.00     0.031 A 
ATOM     66  C   UNL A   1      40.525  35.282  36.205  1.00  0.00     0.131 A 
ATOM     67  C   UNL A   1      39.518  34.641  38.699  1.00  0.00     0.055 A 
ATOM     68  C   UNL A   1      40.412  36.275  37.181  1.00  0.00     0.041 A 
ATOM     69  F   UNL A   1      40.965  35.653  34.992  1.00  0.00    -0.206 F 
ATOM     70  C   UNL A   1      39.891  35.960  38.432  1.00  0.00     0.022 A 
BRANCH  67  71
ATOM     71  S   UNL A   1      38.639  34.240  40.234  1.00  0.00     0.124 S 
ATOM     72  O   UNL A   1      38.516  35.555  40.857  1.00  0.00    -0.237 OA
ATOM     73  O   UNL A   1      37.401  33.647  39.744  1.00  0.00    -0.237 OA
ATOM     74  O   UNL A   1      39.545  33.317  40.917  1.00  0.00    -0.744 OA
ENDBRANCH  67  71
ENDBRANCH  50  64
BRANCH  51  75
ATOM     75  C   UNL A   1      40.949  27.476  28.840  1.00  0.00     0.023 A 
ATOM     76  C   UNL A   1      41.930  27.680  27.857  1.00  0.00     0.031 A 
ATOM     77  C   UNL A   1      40.079  26.382  28.684  1.00  0.00     0.131 A 
ATOM     78  C   UNL A   1      41.987  26.836  26.738  1.00  0.00     0.055 A 
ATOM     79  C   UNL A   1      40.178  25.509  27.598  1.00  0.00     0.041 A 
ATOM     80  F   UNL A   1      39.122  26.139  29.593  1.00  0.00    -0.206 F 
ATOM     81  C   UNL A   1      41.127  25.742  26.609  1.00  0.00     0.022 A 
BRANCH  78  82
ATOM     82  S   UNL A   1      43.142  27.243  25.399  1.00  0.00     0.124 S 
ATOM     83  O   UNL A   1      43.352  25.939  24.781  1.00  0.00    -0.237 OA
ATOM     84  O   UNL A   1      42.373  28.208  24.620  1.00  0.00    -0.237 OA
ATOM     85  O   UNL A   1      44.299  27.794  26.103  1.00  0.00    -0.744 OA
ENDBRANCH  78  82
ENDBRANCH  51  75
BRANCH  63  86
ATOM     86  C   UNL A   1      44.426  28.295  34.832  1.00  0.00     0.023 A 
ATOM     87  C   UNL A   1      44.205  27.187  35.668  1.00  0.00     0.031 A 
ATOM     88  C   UNL A   1      45.756  28.685  34.591  1.00  0.00     0.131 A 
ATOM     89  C   UNL A   1      45.292  26.543  36.279  1.00  0.00     0.055 A 
ATOM     90  C   UNL A   1      46.836  28.000  35.148  1.00  0.00     0.041 A 
ATOM     91  F   UNL A   1      46.028  29.738  33.803  1.00  0.00    -0.206 F 
ATOM     92  C   UNL A   1      46.607  26.931  36.009  1.00  0.00     0.022 A 
BRANCH  89  93
ATOM     93  S   UNL A   1      44.962  25.253  37.509  1.00  0.00     0.124 S 
ATOM     94  O   UNL A   1      45.796  24.156  37.030  1.00  0.00    -0.237 OA
ATOM     95  O   UNL A   1      45.393  25.886  38.751  1.00  0.00    -0.237 OA
ATOM     96  O   UNL A   1      43.521  25.030  37.395  1.00  0.00    -0.744 OA
ENDBRANCH  89  93
ENDBRANCH  63  86
ENDBRANCH  37  38
ENDBRANCH  29  32
ENDBRANCH  27  28
ENDBRANCH  26  27
ENDBRANCH   1  26
TORSDOF 19
ENDMDL
MODEL 3
REMARK VINA RESULT:     -11.0      1.544      1.867
REMARK SMILES CC[C@@](C)(NC(=O)[C@@H](C)NC(=O)c1ccco1)C(=O)NCCCCNC(=O)c1ccc(-c2c3nc(c(-c4cc(S(=O)(=O)[O-])ccc4F)c4ccc([nH]4)c(-c4cc(S(=O)(=O)[O-])ccc4F)c4nc(c(-c5cc(S(=O)(=O)[O-])ccc5F)c5ccc2[nH]5)C=C4)C=C3)cc1
REMARK SMILES IDX 22 1 21 2 20 3 18 4 19 5 3 7 4 8 2 9 1 10 5 11 6 12 7 14
REMARK SMILES IDX 8 15 9 16 10 17 11 18 12 20 13 21 14 22 17 23 15 24 16 25
REMARK SMILES IDX 23 26 24 27 25 28 26 29 27 31 28 32 29 33 90 34 30 35 89 36
REMARK SMILES IDX 31 37 32 38 33 39 83 40 34 41 88 42 82 43 84 44 35 45 87 46
REMARK SMILES IDX 81 47 80 48 36 50 68 51 48 52 67 53 49 54 52 55 66 56 85 57
REMARK SMILES IDX 50 58 51 59 65 61 86 62 53 63 37 64 38 65 46 66 39 67 45 68
REMARK SMILES IDX 47 69 44 70 40 71 41 72 42 73 43 74 69 75 70 76 78 77 71 78
REMARK SMILES IDX 77 79 79 80 76 81 72 82 73 83 74 84 75 85 54 86 55 87 63 88
REMARK SMILES IDX 56 89 62 90 64 91 61 92 57 93 58 94 59 95 60 96
REMARK H PARENT 20 6 5 13 10 19 25 30 84 49 52 60
REMARK Flexibility Score: inf
ROOT
ATOM      1  C   UNL A   1      31.293  30.797  25.757  1.00  0.00     0.023 C 
ENDROOT
BRANCH   1   2
ATOM      2  C   UNL A   1      32.535  29.908  25.828  1.00  0.00     0.116 C 
BRANCH   2   3
ATOM      3  N   UNL A   1      33.236  29.666  24.571  1.00  0.00    -0.354 N 
ATOM      4  C   UNL A   1      33.409  28.541  23.811  1.00  0.00     0.245 C 
ATOM      5  O   UNL A   1      34.012  28.671  22.741  1.00  0.00    -0.272 OA
ATOM      6  H   UNL A   1      33.668  30.469  24.198  1.00  0.00     0.163 HD
BRANCH   4   7
ATOM      7  C   UNL A   1      32.965  27.145  24.296  1.00  0.00     0.116 C 
ATOM      8  C   UNL A   1      33.667  26.830  25.643  1.00  0.00     0.045 C 
BRANCH   7   9
ATOM      9  C   UNL A   1      31.443  26.962  24.566  1.00  0.00     0.035 C 
ATOM     10  C   UNL A   1      31.004  26.636  25.991  1.00  0.00     0.007 C 
ENDBRANCH   7   9
BRANCH   7  11
ATOM     11  N   UNL A   1      33.361  26.179  23.241  1.00  0.00    -0.340 N 
ATOM     12  C   UNL A   1      33.272  24.826  23.099  1.00  0.00     0.243 C 
ATOM     13  H   UNL A   1      33.784  26.614  22.466  1.00  0.00     0.164 HD
ATOM     14  O   UNL A   1      34.111  24.361  22.308  1.00  0.00    -0.273 OA
BRANCH  12  15
ATOM     15  C   UNL A   1      32.358  23.802  23.875  1.00  0.00     0.168 C 
ATOM     16  C   UNL A   1      32.202  22.492  23.114  1.00  0.00     0.041 C 
BRANCH  15  17
ATOM     17  N   UNL A   1      32.581  23.473  25.279  1.00  0.00    -0.338 N 
ATOM     18  C   UNL A   1      33.704  23.016  25.931  1.00  0.00     0.287 C 
ATOM     19  H   UNL A   1      31.795  23.598  25.859  1.00  0.00     0.164 HD
ATOM     20  O   UNL A   1      33.546  22.707  27.122  1.00  0.00    -0.266 OA
BRANCH  18  21
ATOM     21  C   UNL A   1      34.966  22.841  25.243  1.00  0.00     0.191 A 
ATOM     22  C   UNL A   1      35.508  21.826  24.474  1.00  0.00     0.056 A 
ATOM     23  O   UNL A   1      35.849  23.894  25.265  1.00  0.00    -0.459 OA
ATOM     24  C   UNL A   1      36.774  22.281  24.018  1.00  0.00     0.043 A 
ATOM     25  C   UNL A   1      36.936  23.543  24.534  1.00  0.00     0.196 A 
ENDBRANCH  18  21
ENDBRANCH  15  17
ENDBRANCH  12  15
ENDBRANCH   7  11
ENDBRANCH   4   7
ENDBRANCH   2   3
ENDBRANCH   1   2
BRANCH   1  26
ATOM     26  C   UNL A   1      31.370  32.131  26.476  1.00  0.00     0.023 C 
BRANCH  26  27
ATOM     27  C   UNL A   1      32.682  32.474  27.154  1.00  0.00     0.116 C 
BRANCH  27  28
ATOM     28  N   UNL A   1      32.715  33.854  27.592  1.00  0.00    -0.352 N 
ATOM     29  C   UNL A   1      33.480  34.440  28.574  1.00  0.00     0.251 C 
ATOM     30  H   UNL A   1      32.101  34.463  27.119  1.00  0.00     0.163 HD
ATOM     31  O   UNL A   1      33.166  35.559  28.976  1.00  0.00    -0.269 OA
BRANCH  29  32
ATOM     32  C   UNL A   1      34.657  33.743  29.162  1.00  0.00     0.039 A 
ATOM     33  C   UNL A   1      34.435  32.666  30.027  1.00  0.00     0.014 A 
ATOM     34  C   UNL A   1      35.968  34.170  28.931  1.00  0.00     0.014 A 
ATOM     35  C   UNL A   1      35.515  32.015  30.632  1.00  0.00     0.010 A 
ATOM     36  C   UNL A   1      37.047  33.455  29.451  1.00  0.00     0.010 A 
ATOM     37  C   UNL A   1      36.836  32.390  30.338  1.00  0.00    -0.014 A 
BRANCH  37  38
ATOM     38  C   UNL A   1      37.994  31.727  31.001  1.00  0.00     0.031 A 
ATOM     39  C   UNL A   1      38.786  30.676  30.261  1.00  0.00     0.074 A 
ATOM     40  C   UNL A   1      38.323  32.045  32.269  1.00  0.00     0.049 A 
ATOM     41  N   UNL A   1      39.805  29.961  30.670  1.00  0.00    -0.248 NA
ATOM     42  C   UNL A   1      38.362  30.372  28.886  1.00  0.00     0.031 C 
ATOM     43  C   UNL A   1      37.618  33.018  33.105  1.00  0.00     0.029 A 
ATOM     44  N   UNL A   1      39.335  31.588  33.078  1.00  0.00    -0.354 N 
ATOM     45  C   UNL A   1      40.125  29.112  29.615  1.00  0.00     0.074 A 
ATOM     46  C   UNL A   1      39.153  29.358  28.572  1.00  0.00     0.031 C 
ATOM     47  C   UNL A   1      38.241  33.112  34.291  1.00  0.00     0.029 A 
ATOM     48  C   UNL A   1      39.357  32.173  34.324  1.00  0.00     0.049 A 
ATOM     49  H   UNL A   1      39.985  30.906  32.793  1.00  0.00     0.167 HD
ATOM     50  C   UNL A   1      41.147  28.226  29.511  1.00  0.00     0.034 A 
ATOM     51  C   UNL A   1      40.176  31.969  35.376  1.00  0.00     0.034 A 
ATOM     52  C   UNL A   1      42.123  28.006  30.552  1.00  0.00     0.049 A 
ATOM     53  C   UNL A   1      41.291  30.958  35.249  1.00  0.00     0.074 A 
ATOM     54  C   UNL A   1      43.234  27.181  30.529  1.00  0.00     0.029 A 
ATOM     55  N   UNL A   1      42.101  28.605  31.805  1.00  0.00    -0.354 N 
ATOM     56  N   UNL A   1      41.610  30.204  34.222  1.00  0.00    -0.248 NA
ATOM     57  C   UNL A   1      42.160  30.781  36.418  1.00  0.00     0.031 C 
ATOM     58  C   UNL A   1      43.838  27.222  31.790  1.00  0.00     0.029 A 
ATOM     59  C   UNL A   1      43.157  28.140  32.574  1.00  0.00     0.049 A 
ATOM     60  H   UNL A   1      41.434  29.264  32.103  1.00  0.00     0.167 HD
ATOM     61  C   UNL A   1      42.739  29.488  34.614  1.00  0.00     0.074 A 
ATOM     62  C   UNL A   1      43.051  29.913  35.962  1.00  0.00     0.031 C 
ATOM     63  C   UNL A   1      43.455  28.565  33.921  1.00  0.00     0.034 A 
BRANCH  50  64
ATOM     64  C   UNL A   1      41.243  27.412  28.241  1.00  0.00     0.023 A 
ATOM     65  C   UNL A   1      40.881  26.053  28.198  1.00  0.00     0.031 A 
ATOM     66  C   UNL A   1      41.723  27.999  27.056  1.00  0.00     0.131 A 
ATOM     67  C   UNL A   1      41.075  25.311  27.023  1.00  0.00     0.055 A 
ATOM     68  C   UNL A   1      41.833  27.276  25.866  1.00  0.00     0.041 A 
ATOM     69  F   UNL A   1      42.104  29.286  27.035  1.00  0.00    -0.206 F 
ATOM     70  C   UNL A   1      41.523  25.919  25.848  1.00  0.00     0.022 A 
BRANCH  67  71
ATOM     71  S   UNL A   1      40.870  23.509  27.091  1.00  0.00     0.124 S 
ATOM     72  O   UNL A   1      41.465  23.193  28.387  1.00  0.00    -0.237 OA
ATOM     73  O   UNL A   1      39.425  23.352  26.995  1.00  0.00    -0.237 OA
ATOM     74  O   UNL A   1      41.628  23.034  25.934  1.00  0.00    -0.744 OA
ENDBRANCH  67  71
ENDBRANCH  50  64
BRANCH  51  75
ATOM     75  C   UNL A   1      39.980  32.723  36.650  1.00  0.00     0.023 A 
ATOM     76  C   UNL A   1      39.058  32.288  37.615  1.00  0.00     0.031 A 
ATOM     77  C   UNL A   1      40.674  33.921  36.897  1.00  0.00     0.131 A 
ATOM     78  C   UNL A   1      38.817  33.068  38.757  1.00  0.00     0.055 A 
ATOM     79  C   UNL A   1      40.474  34.664  38.062  1.00  0.00     0.041 A 
ATOM     80  F   UNL A   1      41.567  34.385  36.008  1.00  0.00    -0.206 F 
ATOM     81  C   UNL A   1      39.530  34.246  38.994  1.00  0.00     0.022 A 
BRANCH  78  82
ATOM     82  S   UNL A   1      37.486  32.572  39.885  1.00  0.00     0.124 S 
ATOM     83  O   UNL A   1      38.101  31.460  40.600  1.00  0.00    -0.237 OA
ATOM     84  O   UNL A   1      37.272  33.792  40.656  1.00  0.00    -0.237 OA
ATOM     85  O   UNL A   1      36.394  32.208  38.983  1.00  0.00    -0.744 OA
ENDBRANCH  78  82
ENDBRANCH  51  75
BRANCH  63  86
ATOM     86  C   UNL A   1      44.678  27.993  34.597  1.00  0.00     0.023 A 
ATOM     87  C   UNL A   1      44.624  26.813  35.359  1.00  0.00     0.031 A 
ATOM     88  C   UNL A   1      45.917  28.649  34.484  1.00  0.00     0.131 A 
ATOM     89  C   UNL A   1      45.772  26.356  36.024  1.00  0.00     0.055 A 
ATOM     90  C   UNL A   1      47.070  28.154  35.094  1.00  0.00     0.041 A 
ATOM     91  F   UNL A   1      46.029  29.782  33.772  1.00  0.00    -0.206 F 
ATOM     92  C   UNL A   1      46.998  27.009  35.881  1.00  0.00     0.022 A 
BRANCH  89  93
ATOM     93  S   UNL A   1      45.620  24.951  37.161  1.00  0.00     0.124 S 
ATOM     94  O   UNL A   1      46.671  24.059  36.682  1.00  0.00    -0.237 OA
ATOM     95  O   UNL A   1      45.853  25.572  38.460  1.00  0.00    -0.237 OA
ATOM     96  O   UNL A   1      44.255  24.475  36.938  1.00  0.00    -0.744 OA
ENDBRANCH  89  93
ENDBRANCH  63  86
ENDBRANCH  37  38
ENDBRANCH  29  32
ENDBRANCH  27  28
ENDBRANCH  26  27
ENDBRANCH   1  26
TORSDOF 19
ENDMDL
