MODEL 1
REMARK VINA RESULT:     -12.0      0.000      0.000
REMARK SMILES O=C(NCCCCNC(=O)[C@@]1([NH2+]C2CC2)CCC[C@@H]([NH+]2CCS(=O)(=O)CC2)C1)c1ccc(-c2c3nc(c(-c4cc(S(=O)(=O)[O-])ccc4F)c4ccc([nH]4)c(-c4cc(S(=O)(=O)[O-])ccc4F)c4nc(c(-c5cc(S(=O)(=O)[O-])ccc5F)c5ccc2[nH]5)C=C4)C=C3)cc1
REMARK SMILES IDX 5 1 4 2 3 3 1 4 2 5 29 7 30 8 91 9 31 10 90 11 32 12 33 13
REMARK SMILES IDX 34 14 84 15 35 16 89 17 83 18 85 19 36 20 88 21 82 22 81 23
REMARK SMILES IDX 37 25 69 26 49 27 68 28 50 29 53 30 67 31 86 32 51 33 52 34
REMARK SMILES IDX 66 36 87 37 54 38 38 39 39 40 47 41 40 42 46 43 48 44 45 45
REMARK SMILES IDX 41 46 42 47 43 48 44 49 70 50 71 51 79 52 72 53 78 54 80 55
REMARK SMILES IDX 77 56 73 57 74 58 75 59 76 60 55 61 56 62 64 63 57 64 63 65
REMARK SMILES IDX 65 66 62 67 58 68 59 69 60 70 61 71 6 72 7 73 8 74 9 75
REMARK SMILES IDX 10 77 11 78 16 79 28 80 17 81 19 82 18 83 12 84 13 87 14 88
REMARK SMILES IDX 15 89 20 90 21 91 27 92 22 94 26 95 23 96 24 97 25 98
REMARK H PARENT 3 6 85 24 53 35 8 76 12 85 12 86 20 93
REMARK Flexibility Score: inf
ROOT
ATOM      1  C   UNL A   1      31.491  31.892  26.781  1.00  0.00     0.023 C 
ENDROOT
BRANCH   1   2
ATOM      2  C   UNL A   1      32.744  32.608  27.259  1.00  0.00     0.116 C 
BRANCH   2   3
ATOM      3  N   UNL A   1      32.482  33.946  27.786  1.00  0.00    -0.352 N 
ATOM      4  O   UNL A   1      32.790  35.680  29.215  1.00  0.00    -0.269 OA
ATOM      5  C   UNL A   1      33.178  34.605  28.773  1.00  0.00     0.251 C 
ATOM      6  H   UNL A   1      31.721  34.430  27.390  1.00  0.00     0.163 HD
BRANCH   5   7
ATOM      7  C   UNL A   1      34.394  33.953  29.289  1.00  0.00     0.039 A 
ATOM      8  C   UNL A   1      34.257  33.020  30.316  1.00  0.00     0.014 A 
ATOM      9  C   UNL A   1      35.652  34.378  28.863  1.00  0.00     0.014 A 
ATOM     10  C   UNL A   1      35.372  32.659  31.047  1.00  0.00     0.010 A 
ATOM     11  C   UNL A   1      36.789  33.894  29.514  1.00  0.00     0.010 A 
ATOM     12  C   UNL A   1      36.656  33.052  30.629  1.00  0.00    -0.014 A 
BRANCH  12  13
ATOM     13  C   UNL A   1      37.821  32.468  31.339  1.00  0.00     0.031 A 
ATOM     14  C   UNL A   1      38.219  32.911  32.717  1.00  0.00     0.074 A 
ATOM     15  C   UNL A   1      38.469  31.454  30.727  1.00  0.00     0.049 A 
ATOM     16  N   UNL A   1      39.185  32.456  33.474  1.00  0.00    -0.248 NA
ATOM     17  C   UNL A   1      37.448  34.005  33.323  1.00  0.00     0.031 C 
ATOM     18  C   UNL A   1      38.162  30.958  29.379  1.00  0.00     0.029 A 
ATOM     19  N   UNL A   1      39.477  30.633  31.154  1.00  0.00    -0.354 N 
ATOM     20  C   UNL A   1      39.148  33.211  34.641  1.00  0.00     0.074 A 
ATOM     21  C   UNL A   1      38.085  34.182  34.474  1.00  0.00     0.031 C 
ATOM     22  C   UNL A   1      38.898  29.871  29.130  1.00  0.00     0.029 A 
ATOM     23  C   UNL A   1      39.814  29.662  30.241  1.00  0.00     0.049 A 
ATOM     24  H   UNL A   1      39.916  30.729  32.030  1.00  0.00     0.167 HD
ATOM     25  C   UNL A   1      39.926  33.093  35.747  1.00  0.00     0.034 A 
ATOM     26  C   UNL A   1      40.779  28.726  30.273  1.00  0.00     0.034 A 
ATOM     27  C   UNL A   1      40.984  32.118  35.881  1.00  0.00     0.049 A 
ATOM     28  C   UNL A   1      41.651  28.652  31.493  1.00  0.00     0.074 A 
ATOM     29  C   UNL A   1      41.836  31.911  36.953  1.00  0.00     0.029 A 
ATOM     30  N   UNL A   1      41.339  31.183  34.914  1.00  0.00    -0.354 N 
ATOM     31  N   UNL A   1      41.603  29.380  32.585  1.00  0.00    -0.248 NA
ATOM     32  C   UNL A   1      42.702  27.632  31.487  1.00  0.00     0.031 C 
ATOM     33  C   UNL A   1      42.747  30.906  36.608  1.00  0.00     0.029 A 
ATOM     34  C   UNL A   1      42.412  30.421  35.354  1.00  0.00     0.049 A 
ATOM     35  H   UNL A   1      40.894  31.078  34.042  1.00  0.00     0.167 HD
ATOM     36  C   UNL A   1      42.616  28.895  33.404  1.00  0.00     0.074 A 
ATOM     37  C   UNL A   1      43.221  27.784  32.695  1.00  0.00     0.031 C 
ATOM     38  C   UNL A   1      43.020  29.333  34.623  1.00  0.00     0.034 A 
BRANCH  25  39
ATOM     39  C   UNL A   1      39.688  34.064  36.881  1.00  0.00     0.023 A 
ATOM     40  C   UNL A   1      39.178  33.644  38.122  1.00  0.00     0.031 A 
ATOM     41  C   UNL A   1      39.989  35.430  36.724  1.00  0.00     0.131 A 
ATOM     42  C   UNL A   1      38.934  34.584  39.136  1.00  0.00     0.055 A 
ATOM     43  C   UNL A   1      39.816  36.348  37.762  1.00  0.00     0.041 A 
ATOM     44  F   UNL A   1      40.456  35.898  35.556  1.00  0.00    -0.206 F 
ATOM     45  C   UNL A   1      39.276  35.930  38.974  1.00  0.00     0.022 A 
BRANCH  42  46
ATOM     46  S   UNL A   1      38.054  34.046  40.627  1.00  0.00     0.124 S 
ATOM     47  O   UNL A   1      36.963  33.258  40.057  1.00  0.00    -0.237 OA
ATOM     48  O   UNL A   1      39.077  33.294  41.344  1.00  0.00    -0.237 OA
ATOM     49  O   UNL A   1      37.644  35.300  41.256  1.00  0.00    -0.744 OA
ENDBRANCH  42  46
ENDBRANCH  25  39
BRANCH  26  50
ATOM     50  C   UNL A   1      41.009  27.842  29.093  1.00  0.00     0.023 A 
ATOM     51  C   UNL A   1      42.022  28.113  28.165  1.00  0.00     0.031 A 
ATOM     52  C   UNL A   1      40.179  26.729  28.856  1.00  0.00     0.131 A 
ATOM     53  C   UNL A   1      42.142  27.321  27.012  1.00  0.00     0.055 A 
ATOM     54  C   UNL A   1      40.352  25.898  27.750  1.00  0.00     0.041 A 
ATOM     55  F   UNL A   1      39.191  26.421  29.712  1.00  0.00    -0.206 F 
ATOM     56  C   UNL A   1      41.326  26.205  26.809  1.00  0.00     0.022 A 
BRANCH  53  57
ATOM     57  S   UNL A   1      43.296  27.847  25.717  1.00  0.00     0.124 S 
ATOM     58  O   UNL A   1      43.762  29.127  26.239  1.00  0.00    -0.237 OA
ATOM     59  O   UNL A   1      44.269  26.760  25.722  1.00  0.00    -0.237 OA
ATOM     60  O   UNL A   1      42.455  27.927  24.525  1.00  0.00    -0.744 OA
ENDBRANCH  53  57
ENDBRANCH  26  50
BRANCH  38  61
ATOM     61  C   UNL A   1      44.157  28.573  35.263  1.00  0.00     0.023 A 
ATOM     62  C   UNL A   1      43.920  27.479  36.115  1.00  0.00     0.031 A 
ATOM     63  C   UNL A   1      45.486  28.985  35.070  1.00  0.00     0.131 A 
ATOM     64  C   UNL A   1      44.987  26.894  36.812  1.00  0.00     0.055 A 
ATOM     65  C   UNL A   1      46.552  28.346  35.705  1.00  0.00     0.041 A 
ATOM     66  F   UNL A   1      45.772  30.026  34.272  1.00  0.00    -0.206 F 
ATOM     67  C   UNL A   1      46.303  27.307  36.598  1.00  0.00     0.022 A 
BRANCH  64  68
ATOM     68  S   UNL A   1      44.612  25.681  38.108  1.00  0.00     0.124 S 
ATOM     69  O   UNL A   1      45.933  25.134  38.400  1.00  0.00    -0.237 OA
ATOM     70  O   UNL A   1      44.023  26.513  39.151  1.00  0.00    -0.237 OA
ATOM     71  O   UNL A   1      43.688  24.757  37.455  1.00  0.00    -0.744 OA
ENDBRANCH  64  68
ENDBRANCH  38  61
ENDBRANCH  12  13
ENDBRANCH   5   7
ENDBRANCH   2   3
ENDBRANCH   1   2
BRANCH   1  72
ATOM     72  C   UNL A   1      31.781  30.651  25.944  1.00  0.00     0.023 C 
BRANCH  72  73
ATOM     73  C   UNL A   1      32.714  29.666  26.635  1.00  0.00     0.116 C 
BRANCH  73  74
ATOM     74  N   UNL A   1      32.042  28.430  26.975  1.00  0.00    -0.351 N 
ATOM     75  C   UNL A   1      31.539  27.387  26.264  1.00  0.00     0.281 C 
ATOM     76  H   UNL A   1      31.921  28.319  27.947  1.00  0.00     0.163 HD
ATOM     77  O   UNL A   1      30.915  26.559  26.944  1.00  0.00    -0.268 OA
BRANCH  75  78
ATOM     78  C   UNL A   1      31.791  27.123  24.737  1.00  0.00     0.181 C 
ATOM     79  C   UNL A   1      33.042  27.718  24.090  1.00  0.00     0.079 C 
ATOM     80  C   UNL A   1      31.952  25.567  24.720  1.00  0.00     0.144 C 
ATOM     81  C   UNL A   1      33.306  27.200  22.683  1.00  0.00     0.013 C 
ATOM     82  C   UNL A   1      32.723  24.871  23.580  1.00  0.00     0.190 C 
ATOM     83  C   UNL A   1      33.723  25.741  22.790  1.00  0.00     0.065 C 
BRANCH  78  84
ATOM     84  N   UNL A   1      30.570  27.422  23.953  1.00  0.00    -0.331 N 
ATOM     85  H   UNL A   1      29.801  27.023  24.490  1.00  0.00     0.347 HD
ATOM     86  H   UNL A   1      30.851  27.055  23.042  1.00  0.00     0.347 HD
BRANCH  84  87
ATOM     87  C   UNL A   1      30.114  28.753  23.558  1.00  0.00     0.183 C 
ATOM     88  C   UNL A   1      30.263  29.401  22.217  1.00  0.00     0.071 C 
ATOM     89  C   UNL A   1      28.903  28.988  22.704  1.00  0.00     0.071 C 
ENDBRANCH  84  87
ENDBRANCH  78  84
BRANCH  82  90
ATOM     90  N   UNL A   1      33.350  23.579  23.961  1.00  0.00    -0.331 N 
ATOM     91  C   UNL A   1      32.433  22.449  24.148  1.00  0.00     0.278 C 
ATOM     92  C   UNL A   1      34.446  23.566  24.941  1.00  0.00     0.278 C 
ATOM     93  H   UNL A   1      33.842  23.430  23.080  1.00  0.00     0.348 HD
ATOM     94  C   UNL A   1      31.739  22.358  25.494  1.00  0.00     0.198 C 
ATOM     95  C   UNL A   1      34.091  23.598  26.417  1.00  0.00     0.198 C 
ATOM     96  S   UNL A   1      32.903  22.351  26.832  1.00  0.00     0.161 S 
ATOM     97  O   UNL A   1      32.208  22.787  28.025  1.00  0.00    -0.228 OA
ATOM     98  O   UNL A   1      33.589  21.069  26.811  1.00  0.00    -0.228 OA
ENDBRANCH  82  90
ENDBRANCH  75  78
ENDBRANCH  73  74
ENDBRANCH  72  73
ENDBRANCH   1  72
TORSDOF 17
ENDMDL
MODEL 2
REMARK VINA RESULT:     -11.9      1.560      7.879
REMARK SMILES O=C(NCCCCNC(=O)[C@@]1([NH2+]C2CC2)CCC[C@@H]([NH+]2CCS(=O)(=O)CC2)C1)c1ccc(-c2c3nc(c(-c4cc(S(=O)(=O)[O-])ccc4F)c4ccc([nH]4)c(-c4cc(S(=O)(=O)[O-])ccc4F)c4nc(c(-c5cc(S(=O)(=O)[O-])ccc5F)c5ccc2[nH]5)C=C4)C=C3)cc1
REMARK SMILES IDX 5 1 4 2 3 3 1 4 2 5 29 7 30 8 91 9 31 10 90 11 32 12 33 13
REMARK SMILES IDX 34 14 84 15 35 16 89 17 83 18 85 19 36 20 88 21 82 22 81 23
REMARK SMILES IDX 37 25 69 26 49 27 68 28 50 29 53 30 67 31 86 32 51 33 52 34
REMARK SMILES IDX 66 36 87 37 54 38 38 39 39 40 47 41 40 42 46 43 48 44 45 45
REMARK SMILES IDX 41 46 42 47 43 48 44 49 70 50 71 51 79 52 72 53 78 54 80 55
REMARK SMILES IDX 77 56 73 57 74 58 75 59 76 60 55 61 56 62 64 63 57 64 63 65
REMARK SMILES IDX 65 66 62 67 58 68 59 69 60 70 61 71 6 72 7 73 8 74 9 75
REMARK SMILES IDX 10 77 11 78 16 79 28 80 17 81 19 82 18 83 12 84 13 87 14 88
REMARK SMILES IDX 15 89 20 90 21 91 27 92 22 94 26 95 23 96 24 97 25 98
REMARK H PARENT 3 6 85 24 53 35 8 76 12 85 12 86 20 93
REMARK Flexibility Score: inf
ROOT
ATOM      1  C   UNL A   1      31.596  32.862  26.599  1.00  0.00     0.023 C 
ENDROOT
BRANCH   1   2
ATOM      2  C   UNL A   1      32.815  33.241  27.424  1.00  0.00     0.116 C 
BRANCH   2   3
ATOM      3  N   UNL A   1      32.711  34.563  28.038  1.00  0.00    -0.352 N 
ATOM      4  O   UNL A   1      33.209  36.147  29.584  1.00  0.00    -0.269 OA
ATOM      5  C   UNL A   1      33.467  35.064  29.072  1.00  0.00     0.251 C 
ATOM      6  H   UNL A   1      32.022  35.163  27.670  1.00  0.00     0.163 HD
BRANCH   5   7
ATOM      7  C   UNL A   1      34.586  34.234  29.553  1.00  0.00     0.039 A 
ATOM      8  C   UNL A   1      34.325  33.283  30.538  1.00  0.00     0.014 A 
ATOM      9  C   UNL A   1      35.889  34.506  29.139  1.00  0.00     0.014 A 
ATOM     10  C   UNL A   1      35.382  32.744  31.246  1.00  0.00     0.010 A 
ATOM     11  C   UNL A   1      36.952  33.846  29.761  1.00  0.00     0.010 A 
ATOM     12  C   UNL A   1      36.707  32.981  30.839  1.00  0.00    -0.014 A 
BRANCH  12  13
ATOM     13  C   UNL A   1      37.783  32.215  31.516  1.00  0.00     0.031 A 
ATOM     14  C   UNL A   1      38.520  31.100  30.831  1.00  0.00     0.074 A 
ATOM     15  C   UNL A   1      38.137  32.616  32.755  1.00  0.00     0.049 A 
ATOM     16  N   UNL A   1      39.512  30.377  31.285  1.00  0.00    -0.248 NA
ATOM     17  C   UNL A   1      38.089  30.740  29.474  1.00  0.00     0.031 C 
ATOM     18  C   UNL A   1      37.472  33.687  33.509  1.00  0.00     0.029 A 
ATOM     19  N   UNL A   1      39.151  32.217  33.582  1.00  0.00    -0.354 N 
ATOM     20  C   UNL A   1      39.821  29.470  30.278  1.00  0.00     0.074 A 
ATOM     21  C   UNL A   1      38.880  29.710  29.201  1.00  0.00     0.031 C 
ATOM     22  C   UNL A   1      38.147  33.916  34.640  1.00  0.00     0.029 A 
ATOM     23  C   UNL A   1      39.216  32.936  34.753  1.00  0.00     0.049 A 
ATOM     24  H   UNL A   1      39.774  31.488  33.360  1.00  0.00     0.167 HD
ATOM     25  C   UNL A   1      40.803  28.534  30.257  1.00  0.00     0.034 A 
ATOM     26  C   UNL A   1      40.021  32.801  35.822  1.00  0.00     0.034 A 
ATOM     27  C   UNL A   1      41.722  28.314  31.351  1.00  0.00     0.049 A 
ATOM     28  C   UNL A   1      41.069  31.725  35.784  1.00  0.00     0.074 A 
ATOM     29  C   UNL A   1      42.752  27.393  31.441  1.00  0.00     0.029 A 
ATOM     30  N   UNL A   1      41.725  29.022  32.549  1.00  0.00    -0.354 N 
ATOM     31  N   UNL A   1      41.341  30.873  34.822  1.00  0.00    -0.248 NA
ATOM     32  C   UNL A   1      41.918  31.595  36.971  1.00  0.00     0.031 C 
ATOM     33  C   UNL A   1      43.328  27.494  32.712  1.00  0.00     0.029 A 
ATOM     34  C   UNL A   1      42.718  28.538  33.390  1.00  0.00     0.049 A 
ATOM     35  H   UNL A   1      41.111  29.758  32.769  1.00  0.00     0.167 HD
ATOM     36  C   UNL A   1      42.405  30.110  35.288  1.00  0.00     0.074 A 
ATOM     37  C   UNL A   1      42.750  30.638  36.594  1.00  0.00     0.031 C 
ATOM     38  C   UNL A   1      43.033  29.060  34.699  1.00  0.00     0.034 A 
BRANCH  25  39
ATOM     39  C   UNL A   1      40.911  27.654  29.033  1.00  0.00     0.023 A 
ATOM     40  C   UNL A   1      41.905  27.856  28.060  1.00  0.00     0.031 A 
ATOM     41  C   UNL A   1      40.013  26.587  28.842  1.00  0.00     0.131 A 
ATOM     42  C   UNL A   1      41.946  27.041  26.918  1.00  0.00     0.055 A 
ATOM     43  C   UNL A   1      40.106  25.732  27.742  1.00  0.00     0.041 A 
ATOM     44  F   UNL A   1      39.028  26.356  29.723  1.00  0.00    -0.206 F 
ATOM     45  C   UNL A   1      41.070  25.963  26.765  1.00  0.00     0.022 A 
BRANCH  42  46
ATOM     46  S   UNL A   1      43.081  27.482  25.575  1.00  0.00     0.124 S 
ATOM     47  O   UNL A   1      44.126  28.205  26.297  1.00  0.00    -0.237 OA
ATOM     48  O   UNL A   1      43.460  26.179  25.040  1.00  0.00    -0.237 OA
ATOM     49  O   UNL A   1      42.263  28.307  24.688  1.00  0.00    -0.744 OA
ENDBRANCH  42  46
ENDBRANCH  25  39
BRANCH  26  50
ATOM     50  C   UNL A   1      39.821  33.655  37.028  1.00  0.00     0.023 A 
ATOM     51  C   UNL A   1      39.170  33.166  38.167  1.00  0.00     0.031 A 
ATOM     52  C   UNL A   1      40.243  34.998  37.036  1.00  0.00     0.131 A 
ATOM     53  C   UNL A   1      38.905  34.027  39.243  1.00  0.00     0.055 A 
ATOM     54  C   UNL A   1      40.047  35.829  38.139  1.00  0.00     0.041 A 
ATOM     55  F   UNL A   1      40.872  35.522  35.971  1.00  0.00    -0.206 F 
ATOM     56  C   UNL A   1      39.356  35.350  39.244  1.00  0.00     0.022 A 
BRANCH  53  57
ATOM     57  S   UNL A   1      37.848  33.431  40.590  1.00  0.00     0.124 S 
ATOM     58  O   UNL A   1      38.693  32.409  41.198  1.00  0.00    -0.237 OA
ATOM     59  O   UNL A   1      37.644  34.645  41.373  1.00  0.00    -0.237 OA
ATOM     60  O   UNL A   1      36.664  32.931  39.895  1.00  0.00    -0.744 OA
ENDBRANCH  53  57
ENDBRANCH  26  50
BRANCH  38  61
ATOM     61  C   UNL A   1      44.175  28.446  35.471  1.00  0.00     0.023 A 
ATOM     62  C   UNL A   1      45.501  28.879  35.287  1.00  0.00     0.031 A 
ATOM     63  C   UNL A   1      43.946  27.377  36.353  1.00  0.00     0.131 A 
ATOM     64  C   UNL A   1      46.553  28.187  35.904  1.00  0.00     0.055 A 
ATOM     65  C   UNL A   1      44.991  26.744  37.027  1.00  0.00     0.041 A 
ATOM     66  F   UNL A   1      42.702  26.919  36.565  1.00  0.00    -0.206 F 
ATOM     67  C   UNL A   1      46.306  27.135  36.787  1.00  0.00     0.022 A 
BRANCH  64  68
ATOM     68  S   UNL A   1      48.255  28.591  35.422  1.00  0.00     0.124 S 
ATOM     69  O   UNL A   1      48.873  27.271  35.361  1.00  0.00    -0.237 OA
ATOM     70  O   UNL A   1      48.065  29.265  34.142  1.00  0.00    -0.237 OA
ATOM     71  O   UNL A   1      48.724  29.447  36.509  1.00  0.00    -0.744 OA
ENDBRANCH  64  68
ENDBRANCH  38  61
ENDBRANCH  12  13
ENDBRANCH   5   7
ENDBRANCH   2   3
ENDBRANCH   1   2
BRANCH   1  72
ATOM     72  C   UNL A   1      31.494  31.367  26.314  1.00  0.00     0.023 C 
BRANCH  72  73
ATOM     73  C   UNL A   1      32.636  30.563  26.921  1.00  0.00     0.116 C 
BRANCH  73  74
ATOM     74  N   UNL A   1      32.163  29.372  27.594  1.00  0.00    -0.351 N 
ATOM     75  C   UNL A   1      31.853  28.109  27.199  1.00  0.00     0.281 C 
ATOM     76  H   UNL A   1      32.036  29.508  28.561  1.00  0.00     0.163 HD
ATOM     77  O   UNL A   1      31.353  27.404  28.089  1.00  0.00    -0.268 OA
BRANCH  75  78
ATOM     78  C   UNL A   1      32.185  27.487  25.796  1.00  0.00     0.181 C 
ATOM     79  C   UNL A   1      33.553  27.774  25.176  1.00  0.00     0.079 C 
ATOM     80  C   UNL A   1      32.130  25.958  26.119  1.00  0.00     0.144 C 
ATOM     81  C   UNL A   1      33.852  26.932  23.944  1.00  0.00     0.013 C 
ATOM     82  C   UNL A   1      32.885  24.943  25.237  1.00  0.00     0.190 C 
ATOM     83  C   UNL A   1      34.055  25.494  24.394  1.00  0.00     0.065 C 
BRANCH  78  84
ATOM     84  N   UNL A   1      31.083  27.749  24.842  1.00  0.00    -0.331 N 
ATOM     85  H   UNL A   1      30.266  27.941  25.421  1.00  0.00     0.347 HD
ATOM     86  H   UNL A   1      31.155  26.917  24.256  1.00  0.00     0.347 HD
BRANCH  84  87
ATOM     87  C   UNL A   1      31.074  28.783  23.809  1.00  0.00     0.183 C 
ATOM     88  C   UNL A   1      30.489  28.687  22.435  1.00  0.00     0.071 C 
ATOM     89  C   UNL A   1      29.857  29.588  23.460  1.00  0.00     0.071 C 
ENDBRANCH  84  87
ENDBRANCH  78  84
BRANCH  82  90
ATOM     90  N   UNL A   1      33.296  23.701  25.943  1.00  0.00    -0.331 N 
ATOM     91  C   UNL A   1      34.410  22.958  25.344  1.00  0.00     0.278 C 
ATOM     92  C   UNL A   1      32.267  22.804  26.490  1.00  0.00     0.278 C 
ATOM     93  H   UNL A   1      33.652  24.163  26.780  1.00  0.00     0.348 HD
ATOM     94  C   UNL A   1      34.061  22.031  24.194  1.00  0.00     0.198 C 
ATOM     95  C   UNL A   1      31.605  21.811  25.552  1.00  0.00     0.198 C 
ATOM     96  S   UNL A   1      32.803  20.867  24.648  1.00  0.00     0.161 S 
ATOM     97  O   UNL A   1      32.169  20.404  23.432  1.00  0.00    -0.228 OA
ATOM     98  O   UNL A   1      33.397  19.915  25.573  1.00  0.00    -0.228 OA
ENDBRANCH  82  90
ENDBRANCH  75  78
ENDBRANCH  73  74
ENDBRANCH  72  73
ENDBRANCH   1  72
TORSDOF 17
ENDMDL
MODEL 3
REMARK VINA RESULT:     -11.9      5.582      9.978
REMARK SMILES O=C(NCCCCNC(=O)[C@@]1([NH2+]C2CC2)CCC[C@@H]([NH+]2CCS(=O)(=O)CC2)C1)c1ccc(-c2c3nc(c(-c4cc(S(=O)(=O)[O-])ccc4F)c4ccc([nH]4)c(-c4cc(S(=O)(=O)[O-])ccc4F)c4nc(c(-c5cc(S(=O)(=O)[O-])ccc5F)c5ccc2[nH]5)C=C4)C=C3)cc1
REMARK SMILES IDX 5 1 4 2 3 3 1 4 2 5 29 7 30 8 91 9 31 10 90 11 32 12 33 13
REMARK SMILES IDX 34 14 84 15 35 16 89 17 83 18 85 19 36 20 88 21 82 22 81 23
REMARK SMILES IDX 37 25 69 26 49 27 68 28 50 29 53 30 67 31 86 32 51 33 52 34
REMARK SMILES IDX 66 36 87 37 54 38 38 39 39 40 47 41 40 42 46 43 48 44 45 45
REMARK SMILES IDX 41 46 42 47 43 48 44 49 70 50 71 51 79 52 72 53 78 54 80 55
REMARK SMILES IDX 77 56 73 57 74 58 75 59 76 60 55 61 56 62 64 63 57 64 63 65
REMARK SMILES IDX 65 66 62 67 58 68 59 69 60 70 61 71 6 72 7 73 8 74 9 75
REMARK SMILES IDX 10 77 11 78 16 79 28 80 17 81 19 82 18 83 12 84 13 87 14 88
REMARK SMILES IDX 15 89 20 90 21 91 27 92 22 94 26 95 23 96 24 97 25 98
REMARK H PARENT 3 6 85 24 53 35 8 76 12 85 12 86 20 93
REMARK Flexibility Score: inf
ROOT
ATOM      1  C   UNL A   1      38.441  19.444  25.014  1.00  0.00     0.023 C 
ENDROOT
BRANCH   1   2
ATOM      2  C   UNL A   1      39.526  20.030  25.903  1.00  0.00     0.116 C 
BRANCH   2   3
ATOM      3  N   UNL A   1      40.704  19.173  26.022  1.00  0.00    -0.352 N 
ATOM      4  O   UNL A   1      42.926  18.765  26.228  1.00  0.00    -0.269 OA
ATOM      5  C   UNL A   1      41.999  19.566  26.268  1.00  0.00     0.251 C 
ATOM      6  H   UNL A   1      40.554  18.206  25.913  1.00  0.00     0.163 HD
BRANCH   5   7
ATOM      7  C   UNL A   1      42.227  20.992  26.560  1.00  0.00     0.039 A 
ATOM      8  C   UNL A   1      42.405  21.864  25.487  1.00  0.00     0.014 A 
ATOM      9  C   UNL A   1      42.411  21.418  27.875  1.00  0.00     0.014 A 
ATOM     10  C   UNL A   1      42.957  23.109  25.720  1.00  0.00     0.010 A 
ATOM     11  C   UNL A   1      42.829  22.729  28.113  1.00  0.00     0.010 A 
ATOM     12  C   UNL A   1      43.132  23.576  27.035  1.00  0.00    -0.014 A 
BRANCH  12  13
ATOM     13  C   UNL A   1      43.539  24.992  27.215  1.00  0.00     0.031 A 
ATOM     14  C   UNL A   1      42.612  26.020  27.798  1.00  0.00     0.074 A 
ATOM     15  C   UNL A   1      44.814  25.309  26.907  1.00  0.00     0.049 A 
ATOM     16  N   UNL A   1      42.849  27.281  28.055  1.00  0.00    -0.248 NA
ATOM     17  C   UNL A   1      41.246  25.588  28.127  1.00  0.00     0.031 C 
ATOM     18  C   UNL A   1      45.790  24.380  26.324  1.00  0.00     0.029 A 
ATOM     19  N   UNL A   1      45.526  26.466  27.075  1.00  0.00    -0.354 N 
ATOM     20  C   UNL A   1      41.664  27.800  28.566  1.00  0.00     0.074 A 
ATOM     21  C   UNL A   1      40.697  26.721  28.546  1.00  0.00     0.031 C 
ATOM     22  C   UNL A   1      46.986  24.973  26.267  1.00  0.00     0.029 A 
ATOM     23  C   UNL A   1      46.842  26.357  26.692  1.00  0.00     0.049 A 
ATOM     24  H   UNL A   1      45.134  27.294  27.435  1.00  0.00     0.167 HD
ATOM     25  C   UNL A   1      41.418  29.056  29.016  1.00  0.00     0.034 A 
ATOM     26  C   UNL A   1      47.822  27.277  26.649  1.00  0.00     0.034 A 
ATOM     27  C   UNL A   1      42.404  30.113  29.018  1.00  0.00     0.049 A 
ATOM     28  C   UNL A   1      47.504  28.670  27.112  1.00  0.00     0.074 A 
ATOM     29  C   UNL A   1      42.265  31.423  29.445  1.00  0.00     0.029 A 
ATOM     30  N   UNL A   1      43.715  29.987  28.569  1.00  0.00    -0.354 N 
ATOM     31  N   UNL A   1      46.373  29.141  27.588  1.00  0.00    -0.248 NA
ATOM     32  C   UNL A   1      48.589  29.650  27.038  1.00  0.00     0.031 C 
ATOM     33  C   UNL A   1      43.461  32.102  29.191  1.00  0.00     0.029 A 
ATOM     34  C   UNL A   1      44.382  31.199  28.684  1.00  0.00     0.049 A 
ATOM     35  H   UNL A   1      44.113  29.157  28.219  1.00  0.00     0.167 HD
ATOM     36  C   UNL A   1      46.619  30.478  27.879  1.00  0.00     0.074 A 
ATOM     37  C   UNL A   1      48.015  30.718  27.570  1.00  0.00     0.031 C 
ATOM     38  C   UNL A   1      45.767  31.426  28.347  1.00  0.00     0.034 A 
BRANCH  25  39
ATOM     39  C   UNL A   1      40.024  29.367  29.507  1.00  0.00     0.023 A 
ATOM     40  C   UNL A   1      39.718  29.432  30.878  1.00  0.00     0.031 A 
ATOM     41  C   UNL A   1      38.984  29.615  28.591  1.00  0.00     0.131 A 
ATOM     42  C   UNL A   1      38.400  29.684  31.292  1.00  0.00     0.055 A 
ATOM     43  C   UNL A   1      37.692  29.941  29.010  1.00  0.00     0.041 A 
ATOM     44  F   UNL A   1      39.207  29.545  27.269  1.00  0.00    -0.206 F 
ATOM     45  C   UNL A   1      37.391  29.966  30.367  1.00  0.00     0.022 A 
BRANCH  42  46
ATOM     46  S   UNL A   1      37.995  29.520  33.052  1.00  0.00     0.124 S 
ATOM     47  O   UNL A   1      37.388  28.192  33.093  1.00  0.00    -0.237 OA
ATOM     48  O   UNL A   1      39.301  29.645  33.689  1.00  0.00    -0.237 OA
ATOM     49  O   UNL A   1      37.073  30.627  33.298  1.00  0.00    -0.744 OA
ENDBRANCH  42  46
ENDBRANCH  25  39
BRANCH  26  50
ATOM     50  C   UNL A   1      49.160  26.927  26.089  1.00  0.00     0.023 A 
ATOM     51  C   UNL A   1      49.559  27.370  24.822  1.00  0.00     0.031 A 
ATOM     52  C   UNL A   1      50.044  26.098  26.806  1.00  0.00     0.131 A 
ATOM     53  C   UNL A   1      50.779  26.935  24.283  1.00  0.00     0.055 A 
ATOM     54  C   UNL A   1      51.291  25.732  26.299  1.00  0.00     0.041 A 
ATOM     55  F   UNL A   1      49.715  25.642  28.025  1.00  0.00    -0.206 F 
ATOM     56  C   UNL A   1      51.656  26.135  25.021  1.00  0.00     0.022 A 
BRANCH  53  57
ATOM     57  S   UNL A   1      51.149  27.325  22.552  1.00  0.00     0.124 S 
ATOM     58  O   UNL A   1      51.241  28.780  22.589  1.00  0.00    -0.237 OA
ATOM     59  O   UNL A   1      52.402  26.608  22.343  1.00  0.00    -0.237 OA
ATOM     60  O   UNL A   1      49.997  26.790  21.830  1.00  0.00    -0.744 OA
ENDBRANCH  53  57
ENDBRANCH  26  50
BRANCH  38  61
ATOM     61  C   UNL A   1      46.355  32.798  28.572  1.00  0.00     0.023 A 
ATOM     62  C   UNL A   1      46.526  33.706  27.512  1.00  0.00     0.031 A 
ATOM     63  C   UNL A   1      46.806  33.179  29.848  1.00  0.00     0.131 A 
ATOM     64  C   UNL A   1      47.213  34.910  27.727  1.00  0.00     0.055 A 
ATOM     65  C   UNL A   1      47.417  34.413  30.072  1.00  0.00     0.041 A 
ATOM     66  F   UNL A   1      46.673  32.351  30.896  1.00  0.00    -0.206 F 
ATOM     67  C   UNL A   1      47.643  35.277  29.003  1.00  0.00     0.022 A 
BRANCH  64  68
ATOM     68  S   UNL A   1      47.662  35.920  26.288  1.00  0.00     0.124 S 
ATOM     69  O   UNL A   1      46.456  36.717  26.091  1.00  0.00    -0.237 OA
ATOM     70  O   UNL A   1      48.833  36.644  26.769  1.00  0.00    -0.237 OA
ATOM     71  O   UNL A   1      47.929  34.930  25.247  1.00  0.00    -0.744 OA
ENDBRANCH  64  68
ENDBRANCH  38  61
ENDBRANCH  12  13
ENDBRANCH   5   7
ENDBRANCH   2   3
ENDBRANCH   1   2
BRANCH   1  72
ATOM     72  C   UNL A   1      37.162  20.274  24.986  1.00  0.00     0.023 C 
BRANCH  72  73
ATOM     73  C   UNL A   1      37.419  21.773  25.082  1.00  0.00     0.116 C 
BRANCH  73  74
ATOM     74  N   UNL A   1      36.737  22.506  24.036  1.00  0.00    -0.351 N 
ATOM     75  C   UNL A   1      35.436  22.758  23.736  1.00  0.00     0.281 C 
ATOM     76  H   UNL A   1      37.361  22.918  23.395  1.00  0.00     0.163 HD
ATOM     77  O   UNL A   1      35.265  23.343  22.656  1.00  0.00    -0.268 OA
BRANCH  75  78
ATOM     78  C   UNL A   1      34.214  22.476  24.681  1.00  0.00     0.181 C 
ATOM     79  C   UNL A   1      34.412  22.609  26.190  1.00  0.00     0.079 C 
ATOM     80  C   UNL A   1      33.221  23.600  24.238  1.00  0.00     0.144 C 
ATOM     81  C   UNL A   1      33.114  22.551  26.983  1.00  0.00     0.013 C 
ATOM     82  C   UNL A   1      32.113  24.088  25.194  1.00  0.00     0.190 C 
ATOM     83  C   UNL A   1      32.331  23.823  26.698  1.00  0.00     0.065 C 
BRANCH  78  84
ATOM     84  N   UNL A   1      33.570  21.191  24.321  1.00  0.00    -0.331 N 
ATOM     85  H   UNL A   1      33.763  21.061  23.328  1.00  0.00     0.347 HD
ATOM     86  H   UNL A   1      32.629  21.358  24.679  1.00  0.00     0.347 HD
BRANCH  84  87
ATOM     87  C   UNL A   1      33.846  19.895  24.938  1.00  0.00     0.183 C 
ATOM     88  C   UNL A   1      32.849  18.888  25.418  1.00  0.00     0.071 C 
ATOM     89  C   UNL A   1      33.698  18.589  24.214  1.00  0.00     0.071 C 
ENDBRANCH  84  87
ENDBRANCH  78  84
BRANCH  82  90
ATOM     90  N   UNL A   1      31.684  25.493  24.972  1.00  0.00    -0.331 N 
ATOM     91  C   UNL A   1      30.851  25.734  23.789  1.00  0.00     0.278 C 
ATOM     92  C   UNL A   1      32.639  26.588  25.204  1.00  0.00     0.278 C 
ATOM     93  H   UNL A   1      31.078  25.554  25.791  1.00  0.00     0.348 HD
ATOM     94  C   UNL A   1      31.582  25.887  22.468  1.00  0.00     0.198 C 
ATOM     95  C   UNL A   1      33.626  26.927  24.101  1.00  0.00     0.198 C 
ATOM     96  S   UNL A   1      32.811  27.163  22.545  1.00  0.00     0.161 S 
ATOM     97  O   UNL A   1      33.780  26.907  21.500  1.00  0.00    -0.228 OA
ATOM     98  O   UNL A   1      32.118  28.440  22.604  1.00  0.00    -0.228 OA
ENDBRANCH  82  90
ENDBRANCH  75  78
ENDBRANCH  73  74
ENDBRANCH  72  73
ENDBRANCH   1  72
TORSDOF 17
ENDMDL
