MODEL 1
REMARK VINA RESULT:     -12.0      0.000      0.000
REMARK SMILES C[C@H]1[C@H](C(=O)NCCCCNC(=O)c2ccc(-c3c4nc(c(-c5cc(S(=O)(=O)[O-])ccc5F)c5ccc([nH]5)c(-c5cc(S(=O)(=O)[O-])ccc5F)c5nc(c(-c6cc(S(=O)(=O)[O-])ccc6F)c6ccc3[nH]6)C=C5)C=C4)cc2)CCN1C(=O)[C@H]1CC=CCC1
REMARK SMILES IDX 9 1 8 2 7 3 6 4 4 5 5 6 3 8 1 9 2 10 79 11 77 12 78 13 80 14
REMARK SMILES IDX 81 15 82 16 83 17 87 18 84 19 86 20 85 21 10 22 11 23 12 24
REMARK SMILES IDX 13 26 14 27 15 28 76 29 16 30 75 31 17 32 18 33 19 34 69 35
REMARK SMILES IDX 20 36 74 37 68 38 70 39 21 40 73 41 67 42 66 43 22 45 54 46
REMARK SMILES IDX 34 47 53 48 35 49 38 50 52 51 71 52 36 53 37 54 51 56 72 57
REMARK SMILES IDX 39 58 23 59 24 60 32 61 25 62 31 63 33 64 30 65 26 66 27 67
REMARK SMILES IDX 28 68 29 69 55 70 56 71 64 72 57 73 63 74 65 75 62 76 58 77
REMARK SMILES IDX 59 78 60 79 61 80 40 81 41 82 49 83 42 84 48 85 50 86 47 87
REMARK SMILES IDX 43 88 44 89 45 90 46 91
REMARK H PARENT 6 7 11 25 70 44 38 55
REMARK Flexibility Score: inf
ROOT
ATOM      1  C   UNL A   1      31.816  29.095  26.516  1.00  0.00     0.023 C 
ENDROOT
BRANCH   1   2
ATOM      2  C   UNL A   1      31.993  27.722  27.143  1.00  0.00     0.023 C 
BRANCH   2   3
ATOM      3  C   UNL A   1      31.854  26.536  26.194  1.00  0.00     0.116 C 
BRANCH   3   4
ATOM      4  N   UNL A   1      33.138  26.026  25.756  1.00  0.00    -0.356 N 
ATOM      5  C   UNL A   1      33.689  24.789  25.841  1.00  0.00     0.225 C 
ATOM      6  O   UNL A   1      34.809  24.638  25.342  1.00  0.00    -0.275 OA
ATOM      7  H   UNL A   1      33.712  26.696  25.317  1.00  0.00     0.163 HD
BRANCH   5   8
ATOM      8  C   UNL A   1      33.025  23.615  26.544  1.00  0.00     0.102 C 
ATOM      9  C   UNL A   1      31.054  22.273  25.797  1.00  0.00     0.032 C 
ATOM     10  C   UNL A   1      32.548  22.522  25.569  1.00  0.00     0.094 C 
ATOM     11  N   UNL A   1      33.346  21.344  25.902  1.00  0.00    -0.339 N 
ATOM     12  C   UNL A   1      33.855  22.916  27.619  1.00  0.00     0.037 C 
ATOM     13  C   UNL A   1      33.797  21.434  27.282  1.00  0.00     0.120 C 
BRANCH  11  14
ATOM     14  C   UNL A   1      33.686  20.236  25.160  1.00  0.00     0.226 C 
ATOM     15  O   UNL A   1      34.848  20.140  24.735  1.00  0.00    -0.275 OA
BRANCH  14  16
ATOM     16  C   UNL A   1      32.712  19.102  24.779  1.00  0.00     0.083 C 
ATOM     17  C   UNL A   1      32.656  18.708  23.304  1.00  0.00     0.040 C 
ATOM     18  C   UNL A   1      32.628  17.927  25.756  1.00  0.00     0.018 C 
ATOM     19  C   UNL A   1      33.193  17.348  22.975  1.00  0.00    -0.030 C 
ATOM     20  C   UNL A   1      33.401  16.667  25.365  1.00  0.00     0.028 C 
ATOM     21  C   UNL A   1      33.520  16.435  23.896  1.00  0.00    -0.031 C 
ENDBRANCH  14  16
ENDBRANCH  11  14
ENDBRANCH   5   8
ENDBRANCH   3   4
ENDBRANCH   2   3
ENDBRANCH   1   2
BRANCH   1  22
ATOM     22  C   UNL A   1      33.114  29.857  26.329  1.00  0.00     0.116 C 
BRANCH  22  23
ATOM     23  N   UNL A   1      33.020  31.241  26.779  1.00  0.00    -0.352 N 
ATOM     24  C   UNL A   1      33.835  31.943  27.635  1.00  0.00     0.251 C 
ATOM     25  H   UNL A   1      32.260  31.748  26.415  1.00  0.00     0.163 HD
ATOM     26  O   UNL A   1      33.482  33.044  28.049  1.00  0.00    -0.269 OA
BRANCH  24  27
ATOM     27  C   UNL A   1      35.114  31.348  28.076  1.00  0.00     0.039 A 
ATOM     28  C   UNL A   1      36.272  32.128  28.074  1.00  0.00     0.014 A 
ATOM     29  C   UNL A   1      35.155  30.031  28.532  1.00  0.00     0.014 A 
ATOM     30  C   UNL A   1      37.450  31.608  28.615  1.00  0.00     0.010 A 
ATOM     31  C   UNL A   1      36.287  29.562  29.181  1.00  0.00     0.010 A 
ATOM     32  C   UNL A   1      37.454  30.339  29.218  1.00  0.00    -0.014 A 
BRANCH  32  33
ATOM     33  C   UNL A   1      38.668  29.781  29.869  1.00  0.00     0.031 A 
ATOM     34  C   UNL A   1      39.079  30.284  31.228  1.00  0.00     0.074 A 
ATOM     35  C   UNL A   1      39.439  28.894  29.208  1.00  0.00     0.049 A 
ATOM     36  N   UNL A   1      40.159  30.025  31.917  1.00  0.00    -0.248 NA
ATOM     37  C   UNL A   1      38.172  31.246  31.875  1.00  0.00     0.031 C 
ATOM     38  C   UNL A   1      39.174  28.377  27.862  1.00  0.00     0.029 A 
ATOM     39  N   UNL A   1      40.608  28.278  29.572  1.00  0.00    -0.354 N 
ATOM     40  C   UNL A   1      40.074  30.812  33.061  1.00  0.00     0.074 A 
ATOM     41  C   UNL A   1      38.878  31.614  32.932  1.00  0.00     0.031 C 
ATOM     42  C   UNL A   1      40.133  27.498  27.532  1.00  0.00     0.029 A 
ATOM     43  C   UNL A   1      41.107  27.424  28.615  1.00  0.00     0.049 A 
ATOM     44  H   UNL A   1      41.050  28.431  30.438  1.00  0.00     0.167 HD
ATOM     45  C   UNL A   1      40.900  30.839  34.136  1.00  0.00     0.034 A 
ATOM     46  C   UNL A   1      42.227  26.673  28.610  1.00  0.00     0.034 A 
ATOM     47  C   UNL A   1      42.069  30.005  34.260  1.00  0.00     0.049 A 
ATOM     48  C   UNL A   1      43.128  26.715  29.818  1.00  0.00     0.074 A 
ATOM     49  C   UNL A   1      42.941  29.895  35.329  1.00  0.00     0.029 A 
ATOM     50  N   UNL A   1      42.529  29.133  33.281  1.00  0.00    -0.354 N 
ATOM     51  N   UNL A   1      43.006  27.424  30.917  1.00  0.00    -0.248 NA
ATOM     52  C   UNL A   1      44.312  25.846  29.790  1.00  0.00     0.031 C 
ATOM     53  C   UNL A   1      43.961  29.007  34.971  1.00  0.00     0.029 A 
ATOM     54  C   UNL A   1      43.686  28.503  33.709  1.00  0.00     0.049 A 
ATOM     55  H   UNL A   1      42.095  28.985  32.409  1.00  0.00     0.167 HD
ATOM     56  C   UNL A   1      44.082  27.062  31.723  1.00  0.00     0.074 A 
ATOM     57  C   UNL A   1      44.830  26.061  30.991  1.00  0.00     0.031 C 
ATOM     58  C   UNL A   1      44.422  27.513  32.958  1.00  0.00     0.034 A 
BRANCH  45  59
ATOM     59  C   UNL A   1      40.567  31.811  35.244  1.00  0.00     0.023 A 
ATOM     60  C   UNL A   1      39.504  31.581  36.135  1.00  0.00     0.031 A 
ATOM     61  C   UNL A   1      41.293  33.006  35.387  1.00  0.00     0.131 A 
ATOM     62  C   UNL A   1      39.141  32.565  37.066  1.00  0.00     0.055 A 
ATOM     63  C   UNL A   1      40.984  33.943  36.376  1.00  0.00     0.041 A 
ATOM     64  F   UNL A   1      42.306  33.295  34.554  1.00  0.00    -0.206 F 
ATOM     65  C   UNL A   1      39.890  33.734  37.211  1.00  0.00     0.022 A 
BRANCH  62  66
ATOM     66  S   UNL A   1      37.582  32.365  37.972  1.00  0.00     0.124 S 
ATOM     67  O   UNL A   1      37.447  30.910  38.005  1.00  0.00    -0.237 OA
ATOM     68  O   UNL A   1      37.874  33.008  39.248  1.00  0.00    -0.237 OA
ATOM     69  O   UNL A   1      36.606  33.056  37.132  1.00  0.00    -0.744 OA
ENDBRANCH  62  66
ENDBRANCH  45  59
BRANCH  46  70
ATOM     70  C   UNL A   1      42.564  25.821  27.433  1.00  0.00     0.023 A 
ATOM     71  C   UNL A   1      42.121  24.491  27.355  1.00  0.00     0.031 A 
ATOM     72  C   UNL A   1      43.366  26.310  26.388  1.00  0.00     0.131 A 
ATOM     73  C   UNL A   1      42.523  23.680  26.282  1.00  0.00     0.055 A 
ATOM     74  C   UNL A   1      43.720  25.516  25.294  1.00  0.00     0.041 A 
ATOM     75  F   UNL A   1      43.811  27.576  26.408  1.00  0.00    -0.206 F 
ATOM     76  C   UNL A   1      43.308  24.187  25.244  1.00  0.00     0.022 A 
BRANCH  73  77
ATOM     77  S   UNL A   1      42.072  21.923  26.304  1.00  0.00     0.124 S 
ATOM     78  O   UNL A   1      42.927  21.384  25.252  1.00  0.00    -0.237 OA
ATOM     79  O   UNL A   1      42.417  21.541  27.670  1.00  0.00    -0.237 OA
ATOM     80  O   UNL A   1      40.643  21.935  26.004  1.00  0.00    -0.744 OA
ENDBRANCH  73  77
ENDBRANCH  46  70
BRANCH  58  81
ATOM     81  C   UNL A   1      45.632  26.886  33.605  1.00  0.00     0.023 A 
ATOM     82  C   UNL A   1      45.533  25.714  34.374  1.00  0.00     0.031 A 
ATOM     83  C   UNL A   1      46.898  27.476  33.455  1.00  0.00     0.131 A 
ATOM     84  C   UNL A   1      46.672  25.200  35.012  1.00  0.00     0.055 A 
ATOM     85  C   UNL A   1      48.039  26.926  34.040  1.00  0.00     0.041 A 
ATOM     86  F   UNL A   1      47.049  28.598  32.732  1.00  0.00    -0.206 F 
ATOM     87  C   UNL A   1      47.927  25.789  34.835  1.00  0.00     0.022 A 
BRANCH  84  88
ATOM     88  S   UNL A   1      46.475  23.803  36.151  1.00  0.00     0.124 S 
ATOM     89  O   UNL A   1      46.375  24.477  37.442  1.00  0.00    -0.237 OA
ATOM     90  O   UNL A   1      45.254  23.172  35.665  1.00  0.00    -0.237 OA
ATOM     91  O   UNL A   1      47.697  23.024  35.952  1.00  0.00    -0.744 OA
ENDBRANCH  84  88
ENDBRANCH  58  81
ENDBRANCH  32  33
ENDBRANCH  24  27
ENDBRANCH  22  23
ENDBRANCH   1  22
TORSDOF 16
ENDMDL
MODEL 2
REMARK VINA RESULT:     -12.0      2.176      2.580
REMARK SMILES C[C@H]1[C@H](C(=O)NCCCCNC(=O)c2ccc(-c3c4nc(c(-c5cc(S(=O)(=O)[O-])ccc5F)c5ccc([nH]5)c(-c5cc(S(=O)(=O)[O-])ccc5F)c5nc(c(-c6cc(S(=O)(=O)[O-])ccc6F)c6ccc3[nH]6)C=C5)C=C4)cc2)CCN1C(=O)[C@H]1CC=CCC1
REMARK SMILES IDX 9 1 8 2 7 3 6 4 4 5 5 6 3 8 1 9 2 10 79 11 77 12 78 13 80 14
REMARK SMILES IDX 81 15 82 16 83 17 87 18 84 19 86 20 85 21 10 22 11 23 12 24
REMARK SMILES IDX 13 26 14 27 15 28 76 29 16 30 75 31 17 32 18 33 19 34 69 35
REMARK SMILES IDX 20 36 74 37 68 38 70 39 21 40 73 41 67 42 66 43 22 45 54 46
REMARK SMILES IDX 34 47 53 48 35 49 38 50 52 51 71 52 36 53 37 54 51 56 72 57
REMARK SMILES IDX 39 58 23 59 24 60 32 61 25 62 31 63 33 64 30 65 26 66 27 67
REMARK SMILES IDX 28 68 29 69 55 70 56 71 64 72 57 73 63 74 65 75 62 76 58 77
REMARK SMILES IDX 59 78 60 79 61 80 40 81 41 82 49 83 42 84 48 85 50 86 47 87
REMARK SMILES IDX 43 88 44 89 45 90 46 91
REMARK H PARENT 6 7 11 25 70 44 38 55
REMARK Flexibility Score: inf
ROOT
ATOM      1  C   UNL A   1      33.287  27.736  26.841  1.00  0.00     0.023 C 
ENDROOT
BRANCH   1   2
ATOM      2  C   UNL A   1      31.802  27.925  26.582  1.00  0.00     0.023 C 
BRANCH   2   3
ATOM      3  C   UNL A   1      31.111  26.797  25.823  1.00  0.00     0.116 C 
BRANCH   3   4
ATOM      4  N   UNL A   1      31.050  25.570  26.591  1.00  0.00    -0.356 N 
ATOM      5  C   UNL A   1      31.810  24.447  26.550  1.00  0.00     0.225 C 
ATOM      6  O   UNL A   1      31.541  23.556  27.362  1.00  0.00    -0.275 OA
ATOM      7  H   UNL A   1      30.330  25.547  27.263  1.00  0.00     0.163 HD
BRANCH   5   8
ATOM      8  C   UNL A   1      32.930  24.221  25.544  1.00  0.00     0.102 C 
ATOM      9  C   UNL A   1      35.298  23.554  25.981  1.00  0.00     0.032 C 
ATOM     10  C   UNL A   1      33.853  23.048  25.923  1.00  0.00     0.094 C 
ATOM     11  N   UNL A   1      33.670  22.063  24.860  1.00  0.00    -0.339 N 
ATOM     12  C   UNL A   1      32.498  23.993  24.096  1.00  0.00     0.037 C 
ATOM     13  C   UNL A   1      33.220  22.730  23.648  1.00  0.00     0.120 C 
BRANCH  11  14
ATOM     14  C   UNL A   1      33.869  20.702  24.837  1.00  0.00     0.226 C 
ATOM     15  O   UNL A   1      35.024  20.267  24.968  1.00  0.00    -0.275 OA
BRANCH  14  16
ATOM     16  C   UNL A   1      32.755  19.656  24.623  1.00  0.00     0.083 C 
ATOM     17  C   UNL A   1      32.446  19.265  23.178  1.00  0.00     0.040 C 
ATOM     18  C   UNL A   1      32.718  18.494  25.619  1.00  0.00     0.018 C 
ATOM     19  C   UNL A   1      32.808  17.862  22.794  1.00  0.00    -0.030 C 
ATOM     20  C   UNL A   1      33.313  17.172  25.137  1.00  0.00     0.028 C 
ATOM     21  C   UNL A   1      33.191  16.926  23.670  1.00  0.00    -0.031 C 
ENDBRANCH  14  16
ENDBRANCH  11  14
ENDBRANCH   5   8
ENDBRANCH   3   4
ENDBRANCH   2   3
ENDBRANCH   1   2
BRANCH   1  22
ATOM     22  C   UNL A   1      34.166  28.768  26.161  1.00  0.00     0.116 C 
BRANCH  22  23
ATOM     23  N   UNL A   1      33.827  30.133  26.548  1.00  0.00    -0.352 N 
ATOM     24  C   UNL A   1      34.389  30.938  27.509  1.00  0.00     0.251 C 
ATOM     25  H   UNL A   1      33.084  30.538  26.045  1.00  0.00     0.163 HD
ATOM     26  O   UNL A   1      33.838  31.989  27.825  1.00  0.00    -0.269 OA
BRANCH  24  27
ATOM     27  C   UNL A   1      35.636  30.512  28.179  1.00  0.00     0.039 A 
ATOM     28  C   UNL A   1      35.564  29.796  29.375  1.00  0.00     0.014 A 
ATOM     29  C   UNL A   1      36.874  30.784  27.597  1.00  0.00     0.014 A 
ATOM     30  C   UNL A   1      36.733  29.279  29.937  1.00  0.00     0.010 A 
ATOM     31  C   UNL A   1      38.015  30.166  28.086  1.00  0.00     0.010 A 
ATOM     32  C   UNL A   1      37.962  29.417  29.270  1.00  0.00    -0.014 A 
BRANCH  32  33
ATOM     33  C   UNL A   1      39.215  28.819  29.798  1.00  0.00     0.031 A 
ATOM     34  C   UNL A   1      39.871  29.423  31.012  1.00  0.00     0.074 A 
ATOM     35  C   UNL A   1      39.803  27.798  29.143  1.00  0.00     0.049 A 
ATOM     36  N   UNL A   1      41.023  29.138  31.562  1.00  0.00    -0.248 NA
ATOM     37  C   UNL A   1      39.153  30.531  31.665  1.00  0.00     0.031 C 
ATOM     38  C   UNL A   1      39.292  27.167  27.922  1.00  0.00     0.029 A 
ATOM     39  N   UNL A   1      40.964  27.116  29.403  1.00  0.00    -0.354 N 
ATOM     40  C   UNL A   1      41.178  30.047  32.604  1.00  0.00     0.074 A 
ATOM     41  C   UNL A   1      40.042  30.941  32.556  1.00  0.00     0.031 C 
ATOM     42  C   UNL A   1      40.117  26.171  27.563  1.00  0.00     0.029 A 
ATOM     43  C   UNL A   1      41.239  26.121  28.493  1.00  0.00     0.049 A 
ATOM     44  H   UNL A   1      41.546  27.318  30.171  1.00  0.00     0.167 HD
ATOM     45  C   UNL A   1      42.161  30.111  33.535  1.00  0.00     0.034 A 
ATOM     46  C   UNL A   1      42.283  25.272  28.414  1.00  0.00     0.034 A 
ATOM     47  C   UNL A   1      43.267  29.188  33.586  1.00  0.00     0.049 A 
ATOM     48  C   UNL A   1      43.363  25.357  29.464  1.00  0.00     0.074 A 
ATOM     49  C   UNL A   1      44.285  29.111  34.520  1.00  0.00     0.029 A 
ATOM     50  N   UNL A   1      43.500  28.177  32.661  1.00  0.00    -0.354 N 
ATOM     51  N   UNL A   1      43.469  26.188  30.475  1.00  0.00    -0.248 NA
ATOM     52  C   UNL A   1      44.457  24.382  29.367  1.00  0.00     0.031 C 
ATOM     53  C   UNL A   1      45.164  28.097  34.127  1.00  0.00     0.029 A 
ATOM     54  C   UNL A   1      44.658  27.490  32.988  1.00  0.00     0.049 A 
ATOM     55  H   UNL A   1      42.925  27.978  31.887  1.00  0.00     0.167 HD
ATOM     56  C   UNL A   1      44.626  25.814  31.153  1.00  0.00     0.074 A 
ATOM     57  C   UNL A   1      45.172  24.675  30.444  1.00  0.00     0.031 C 
ATOM     58  C   UNL A   1      45.189  26.360  32.261  1.00  0.00     0.034 A 
BRANCH  45  59
ATOM     59  C   UNL A   1      42.081  31.223  34.555  1.00  0.00     0.023 A 
ATOM     60  C   UNL A   1      42.742  32.450  34.365  1.00  0.00     0.031 A 
ATOM     61  C   UNL A   1      41.370  31.042  35.754  1.00  0.00     0.131 A 
ATOM     62  C   UNL A   1      42.755  33.407  35.388  1.00  0.00     0.055 A 
ATOM     63  C   UNL A   1      41.311  32.036  36.734  1.00  0.00     0.041 A 
ATOM     64  F   UNL A   1      40.736  29.886  36.005  1.00  0.00    -0.206 F 
ATOM     65  C   UNL A   1      42.021  33.221  36.562  1.00  0.00     0.022 A 
BRANCH  62  66
ATOM     66  S   UNL A   1      43.872  34.828  35.231  1.00  0.00     0.124 S 
ATOM     67  O   UNL A   1      45.155  34.167  34.995  1.00  0.00    -0.237 OA
ATOM     68  O   UNL A   1      43.308  35.549  34.096  1.00  0.00    -0.237 OA
ATOM     69  O   UNL A   1      43.755  35.501  36.522  1.00  0.00    -0.744 OA
ENDBRANCH  62  66
ENDBRANCH  45  59
BRANCH  46  70
ATOM     70  C   UNL A   1      42.366  24.271  27.311  1.00  0.00     0.023 A 
ATOM     71  C   UNL A   1      41.579  23.109  27.331  1.00  0.00     0.031 A 
ATOM     72  C   UNL A   1      43.261  24.441  26.241  1.00  0.00     0.131 A 
ATOM     73  C   UNL A   1      41.735  22.138  26.329  1.00  0.00     0.055 A 
ATOM     74  C   UNL A   1      43.376  23.498  25.217  1.00  0.00     0.041 A 
ATOM     75  F   UNL A   1      44.033  25.537  26.168  1.00  0.00    -0.206 F 
ATOM     76  C   UNL A   1      42.619  22.331  25.265  1.00  0.00     0.022 A 
BRANCH  73  77
ATOM     77  S   UNL A   1      40.825  20.577  26.483  1.00  0.00     0.124 S 
ATOM     78  O   UNL A   1      41.614  19.689  25.635  1.00  0.00    -0.237 OA
ATOM     79  O   UNL A   1      40.899  20.325  27.918  1.00  0.00    -0.237 OA
ATOM     80  O   UNL A   1      39.495  20.907  25.977  1.00  0.00    -0.744 OA
ENDBRANCH  73  77
ENDBRANCH  46  70
BRANCH  58  81
ATOM     81  C   UNL A   1      46.433  25.694  32.796  1.00  0.00     0.023 A 
ATOM     82  C   UNL A   1      46.367  24.659  33.744  1.00  0.00     0.031 A 
ATOM     83  C   UNL A   1      47.700  26.109  32.353  1.00  0.00     0.131 A 
ATOM     84  C   UNL A   1      47.549  24.112  34.262  1.00  0.00     0.055 A 
ATOM     85  C   UNL A   1      48.873  25.518  32.825  1.00  0.00     0.041 A 
ATOM     86  F   UNL A   1      47.821  27.095  31.449  1.00  0.00    -0.206 F 
ATOM     87  C   UNL A   1      48.802  24.523  33.795  1.00  0.00     0.022 A 
BRANCH  84  88
ATOM     88  S   UNL A   1      47.433  22.918  35.621  1.00  0.00     0.124 S 
ATOM     89  O   UNL A   1      47.056  21.695  34.918  1.00  0.00    -0.237 OA
ATOM     90  O   UNL A   1      48.782  22.944  36.177  1.00  0.00    -0.237 OA
ATOM     91  O   UNL A   1      46.396  23.481  36.485  1.00  0.00    -0.744 OA
ENDBRANCH  84  88
ENDBRANCH  58  81
ENDBRANCH  32  33
ENDBRANCH  24  27
ENDBRANCH  22  23
ENDBRANCH   1  22
TORSDOF 16
ENDMDL
MODEL 3
REMARK VINA RESULT:     -11.9      1.506      7.753
REMARK SMILES C[C@H]1[C@H](C(=O)NCCCCNC(=O)c2ccc(-c3c4nc(c(-c5cc(S(=O)(=O)[O-])ccc5F)c5ccc([nH]5)c(-c5cc(S(=O)(=O)[O-])ccc5F)c5nc(c(-c6cc(S(=O)(=O)[O-])ccc6F)c6ccc3[nH]6)C=C5)C=C4)cc2)CCN1C(=O)[C@H]1CC=CCC1
REMARK SMILES IDX 9 1 8 2 7 3 6 4 4 5 5 6 3 8 1 9 2 10 79 11 77 12 78 13 80 14
REMARK SMILES IDX 81 15 82 16 83 17 87 18 84 19 86 20 85 21 10 22 11 23 12 24
REMARK SMILES IDX 13 26 14 27 15 28 76 29 16 30 75 31 17 32 18 33 19 34 69 35
REMARK SMILES IDX 20 36 74 37 68 38 70 39 21 40 73 41 67 42 66 43 22 45 54 46
REMARK SMILES IDX 34 47 53 48 35 49 38 50 52 51 71 52 36 53 37 54 51 56 72 57
REMARK SMILES IDX 39 58 23 59 24 60 32 61 25 62 31 63 33 64 30 65 26 66 27 67
REMARK SMILES IDX 28 68 29 69 55 70 56 71 64 72 57 73 63 74 65 75 62 76 58 77
REMARK SMILES IDX 59 78 60 79 61 80 40 81 41 82 49 83 42 84 48 85 50 86 47 87
REMARK SMILES IDX 43 88 44 89 45 90 46 91
REMARK H PARENT 6 7 11 25 70 44 38 55
REMARK Flexibility Score: inf
ROOT
ATOM      1  C   UNL A   1      31.612  28.475  26.212  1.00  0.00     0.023 C 
ENDROOT
BRANCH   1   2
ATOM      2  C   UNL A   1      32.001  27.006  26.251  1.00  0.00     0.023 C 
BRANCH   2   3
ATOM      3  C   UNL A   1      30.859  26.011  26.075  1.00  0.00     0.116 C 
BRANCH   3   4
ATOM      4  N   UNL A   1      31.068  24.791  26.829  1.00  0.00    -0.356 N 
ATOM      5  C   UNL A   1      31.814  23.689  26.565  1.00  0.00     0.225 C 
ATOM      6  O   UNL A   1      31.827  22.801  27.423  1.00  0.00    -0.275 OA
ATOM      7  H   UNL A   1      30.583  24.756  27.686  1.00  0.00     0.163 HD
BRANCH   5   8
ATOM      8  C   UNL A   1      32.586  23.482  25.270  1.00  0.00     0.102 C 
ATOM      9  C   UNL A   1      34.864  22.503  24.961  1.00  0.00     0.032 C 
ATOM     10  C   UNL A   1      33.397  22.173  25.255  1.00  0.00     0.094 C 
ATOM     11  N   UNL A   1      32.802  21.372  24.188  1.00  0.00    -0.339 N 
ATOM     12  C   UNL A   1      31.762  23.507  23.983  1.00  0.00     0.037 C 
ATOM     13  C   UNL A   1      32.151  22.247  23.225  1.00  0.00     0.120 C 
BRANCH  11  14
ATOM     14  C   UNL A   1      32.789  20.013  23.970  1.00  0.00     0.226 C 
ATOM     15  O   UNL A   1      32.152  19.573  23.000  1.00  0.00    -0.275 OA
BRANCH  14  16
ATOM     16  C   UNL A   1      33.487  18.973  24.870  1.00  0.00     0.083 C 
ATOM     17  C   UNL A   1      32.586  18.109  25.751  1.00  0.00     0.040 C 
ATOM     18  C   UNL A   1      34.674  18.231  24.251  1.00  0.00     0.018 C 
ATOM     19  C   UNL A   1      32.528  16.655  25.389  1.00  0.00    -0.030 C 
ATOM     20  C   UNL A   1      34.397  16.816  23.746  1.00  0.00     0.028 C 
ATOM     21  C   UNL A   1      33.340  16.077  24.497  1.00  0.00    -0.031 C 
ENDBRANCH  14  16
ENDBRANCH  11  14
ENDBRANCH   5   8
ENDBRANCH   3   4
ENDBRANCH   2   3
ENDBRANCH   1   2
BRANCH   1  22
ATOM     22  C   UNL A   1      32.775  29.411  25.944  1.00  0.00     0.116 C 
BRANCH  22  23
ATOM     23  N   UNL A   1      32.449  30.803  26.231  1.00  0.00    -0.352 N 
ATOM     24  C   UNL A   1      33.067  31.693  27.078  1.00  0.00     0.251 C 
ATOM     25  H   UNL A   1      31.672  31.159  25.745  1.00  0.00     0.163 HD
ATOM     26  O   UNL A   1      32.528  32.765  27.336  1.00  0.00    -0.269 OA
BRANCH  24  27
ATOM     27  C   UNL A   1      34.359  31.332  27.698  1.00  0.00     0.039 A 
ATOM     28  C   UNL A   1      35.281  32.335  28.000  1.00  0.00     0.014 A 
ATOM     29  C   UNL A   1      34.636  30.003  28.020  1.00  0.00     0.014 A 
ATOM     30  C   UNL A   1      36.442  32.010  28.706  1.00  0.00     0.010 A 
ATOM     31  C   UNL A   1      35.723  29.703  28.827  1.00  0.00     0.010 A 
ATOM     32  C   UNL A   1      36.648  30.700  29.168  1.00  0.00    -0.014 A 
BRANCH  32  33
ATOM     33  C   UNL A   1      37.834  30.331  29.984  1.00  0.00     0.031 A 
ATOM     34  C   UNL A   1      38.877  29.413  29.402  1.00  0.00     0.074 A 
ATOM     35  C   UNL A   1      37.928  30.748  31.263  1.00  0.00     0.049 A 
ATOM     36  N   UNL A   1      39.919  28.871  29.977  1.00  0.00    -0.248 NA
ATOM     37  C   UNL A   1      38.693  29.015  27.997  1.00  0.00     0.031 C 
ATOM     38  C   UNL A   1      36.950  31.592  31.955  1.00  0.00     0.029 A 
ATOM     39  N   UNL A   1      38.887  30.510  32.214  1.00  0.00    -0.354 N 
ATOM     40  C   UNL A   1      40.495  28.048  29.014  1.00  0.00     0.074 A 
ATOM     41  C   UNL A   1      39.641  28.103  27.848  1.00  0.00     0.031 C 
ATOM     42  C   UNL A   1      37.378  31.828  33.205  1.00  0.00     0.029 A 
ATOM     43  C   UNL A   1      38.631  31.114  33.423  1.00  0.00     0.049 A 
ATOM     44  H   UNL A   1      39.685  29.958  32.047  1.00  0.00     0.167 HD
ATOM     45  C   UNL A   1      41.648  27.339  29.083  1.00  0.00     0.034 A 
ATOM     46  C   UNL A   1      39.325  31.089  34.579  1.00  0.00     0.034 A 
ATOM     47  C   UNL A   1      42.503  27.326  30.243  1.00  0.00     0.049 A 
ATOM     48  C   UNL A   1      40.608  30.297  34.632  1.00  0.00     0.074 A 
ATOM     49  C   UNL A   1      43.727  26.701  30.407  1.00  0.00     0.029 A 
ATOM     50  N   UNL A   1      42.224  27.971  31.443  1.00  0.00    -0.354 N 
ATOM     51  N   UNL A   1      41.169  29.568  33.695  1.00  0.00    -0.248 NA
ATOM     52  C   UNL A   1      41.356  30.335  35.895  1.00  0.00     0.031 C 
ATOM     53  C   UNL A   1      44.156  26.916  31.721  1.00  0.00     0.029 A 
ATOM     54  C   UNL A   1      43.238  27.737  32.356  1.00  0.00     0.049 A 
ATOM     55  H   UNL A   1      41.422  28.516  31.616  1.00  0.00     0.167 HD
ATOM     56  C   UNL A   1      42.352  29.085  34.247  1.00  0.00     0.074 A 
ATOM     57  C   UNL A   1      42.430  29.621  35.591  1.00  0.00     0.031 C 
ATOM     58  C   UNL A   1      43.291  28.275  33.696  1.00  0.00     0.034 A 
BRANCH  45  59
ATOM     59  C   UNL A   1      42.031  26.515  27.876  1.00  0.00     0.023 A 
ATOM     60  C   UNL A   1      41.571  25.197  27.705  1.00  0.00     0.031 A 
ATOM     61  C   UNL A   1      42.901  27.037  26.903  1.00  0.00     0.131 A 
ATOM     62  C   UNL A   1      42.051  24.418  26.642  1.00  0.00     0.055 A 
ATOM     63  C   UNL A   1      43.305  26.286  25.796  1.00  0.00     0.041 A 
ATOM     64  F   UNL A   1      43.392  28.281  27.020  1.00  0.00    -0.206 F 
ATOM     65  C   UNL A   1      42.893  24.961  25.670  1.00  0.00     0.022 A 
BRANCH  62  66
ATOM     66  S   UNL A   1      41.684  22.642  26.637  1.00  0.00     0.124 S 
ATOM     67  O   UNL A   1      40.223  22.644  26.690  1.00  0.00    -0.237 OA
ATOM     68  O   UNL A   1      42.277  22.200  25.380  1.00  0.00    -0.237 OA
ATOM     69  O   UNL A   1      42.343  22.152  27.846  1.00  0.00    -0.744 OA
ENDBRANCH  62  66
ENDBRANCH  45  59
BRANCH  46  70
ATOM     70  C   UNL A   1      38.833  31.828  35.777  1.00  0.00     0.023 A 
ATOM     71  C   UNL A   1      38.177  31.157  36.820  1.00  0.00     0.031 A 
ATOM     72  C   UNL A   1      38.976  33.223  35.879  1.00  0.00     0.131 A 
ATOM     73  C   UNL A   1      37.644  31.883  37.897  1.00  0.00     0.055 A 
ATOM     74  C   UNL A   1      38.491  33.936  36.978  1.00  0.00     0.041 A 
ATOM     75  F   UNL A   1      39.601  33.915  34.914  1.00  0.00    -0.206 F 
ATOM     76  C   UNL A   1      37.809  33.267  37.990  1.00  0.00     0.022 A 
BRANCH  73  77
ATOM     77  S   UNL A   1      36.656  31.001  39.136  1.00  0.00     0.124 S 
ATOM     78  O   UNL A   1      36.474  29.701  38.501  1.00  0.00    -0.237 OA
ATOM     79  O   UNL A   1      37.538  31.028  40.299  1.00  0.00    -0.237 OA
ATOM     80  O   UNL A   1      35.449  31.816  39.252  1.00  0.00    -0.744 OA
ENDBRANCH  73  77
ENDBRANCH  46  70
BRANCH  58  81
ATOM     81  C   UNL A   1      44.505  27.964  34.538  1.00  0.00     0.023 A 
ATOM     82  C   UNL A   1      44.574  26.809  35.334  1.00  0.00     0.031 A 
ATOM     83  C   UNL A   1      45.602  28.842  34.545  1.00  0.00     0.131 A 
ATOM     84  C   UNL A   1      45.694  26.591  36.150  1.00  0.00     0.055 A 
ATOM     85  C   UNL A   1      46.740  28.589  35.312  1.00  0.00     0.041 A 
ATOM     86  F   UNL A   1      45.588  29.962  33.804  1.00  0.00    -0.206 F 
ATOM     87  C   UNL A   1      46.785  27.465  36.130  1.00  0.00     0.022 A 
BRANCH  84  88
ATOM     88  S   UNL A   1      45.668  25.195  37.308  1.00  0.00     0.124 S 
ATOM     89  O   UNL A   1      46.833  24.427  36.882  1.00  0.00    -0.237 OA
ATOM     90  O   UNL A   1      45.781  25.860  38.601  1.00  0.00    -0.237 OA
ATOM     91  O   UNL A   1      44.377  24.558  37.049  1.00  0.00    -0.744 OA
ENDBRANCH  84  88
ENDBRANCH  58  81
ENDBRANCH  32  33
ENDBRANCH  24  27
ENDBRANCH  22  23
ENDBRANCH   1  22
TORSDOF 16
ENDMDL
