MODEL 1
REMARK VINA RESULT:     -12.7      0.000      0.000
REMARK SMILES CC(/C=C1\SC(=S)N(CC(=O)NCC(=O)NCCCCNC(=O)c2ccc(-c3c4nc(c(-c5cc(S(=O)(=O)[O-])ccc5F)c5ccc([nH]5)c(-c5cc(S(=O)(=O)[O-])ccc5F)c5nc(c(-c6cc(S(=O)(=O)[O-])ccc6F)c6ccc3[nH]6)C=C5)C=C4)cc2)C1=O)=C\c1ccccc1
REMARK SMILES IDX 17 1 16 2 14 3 15 4 13 6 12 7 10 8 11 9 9 11 8 12 3 13 4 14
REMARK SMILES IDX 5 15 87 16 6 17 88 18 7 19 2 20 1 21 89 22 90 23 91 24 95 25
REMARK SMILES IDX 92 26 94 27 93 28 18 29 19 30 20 31 21 32 22 33 23 35 24 36
REMARK SMILES IDX 25 37 86 38 26 39 85 40 27 41 28 42 29 43 79 44 30 45 84 46
REMARK SMILES IDX 78 47 80 48 31 49 83 50 77 51 76 52 32 54 64 55 44 56 63 57
REMARK SMILES IDX 45 58 48 59 62 60 81 61 46 62 47 63 61 65 82 66 49 67 33 68
REMARK SMILES IDX 34 69 42 70 35 71 41 72 43 73 40 74 36 75 37 76 38 77 39 78
REMARK SMILES IDX 65 79 66 80 74 81 67 82 73 83 75 84 72 85 68 86 69 87 70 88
REMARK SMILES IDX 71 89 50 90 51 91 59 92 52 93 58 94 60 95 57 96 53 97 54 98
REMARK SMILES IDX 55 99 56 100
REMARK H PARENT 16 5 12 10 21 34 80 53 48 64
REMARK Flexibility Score: inf
ROOT
ATOM      1  C   UNL A   1      32.176  26.355  26.483  1.00  0.00     0.116 C 
ENDROOT
BRANCH   1   2
ATOM      2  N   UNL A   1      30.995  25.543  26.671  1.00  0.00    -0.355 N 
ATOM      3  C   UNL A   1      30.923  24.182  26.799  1.00  0.00     0.239 C 
ATOM      4  O   UNL A   1      29.884  23.694  27.251  1.00  0.00    -0.273 OA
ATOM      5  H   UNL A   1      30.138  26.027  26.710  1.00  0.00     0.163 HD
BRANCH   3   6
ATOM      6  C   UNL A   1      32.161  23.299  26.552  1.00  0.00     0.216 C 
BRANCH   6   7
ATOM      7  N   UNL A   1      31.855  21.943  26.125  1.00  0.00    -0.345 N 
ATOM      8  C   UNL A   1      32.142  21.241  24.998  1.00  0.00     0.240 C 
ATOM      9  O   UNL A   1      31.894  20.029  25.045  1.00  0.00    -0.273 OA
ATOM     10  H   UNL A   1      31.337  21.430  26.786  1.00  0.00     0.164 HD
BRANCH   8  11
ATOM     11  C   UNL A   1      32.910  21.811  23.790  1.00  0.00     0.227 C 
BRANCH  11  12
ATOM     12  N   UNL A   1      32.890  23.260  23.581  1.00  0.00    -0.283 N 
ATOM     13  C   UNL A   1      30.778  26.127  22.953  1.00  0.00     0.024 C 
ATOM     14  C   UNL A   1      31.839  25.324  23.111  1.00  0.00     0.080 C 
ATOM     15  S   UNL A   1      33.473  25.765  23.387  1.00  0.00    -0.054 SA
ATOM     16  C   UNL A   1      31.698  23.840  23.169  1.00  0.00     0.266 C 
ATOM     17  C   UNL A   1      33.983  24.098  23.631  1.00  0.00     0.148 C 
ATOM     18  O   UNL A   1      30.656  23.248  22.956  1.00  0.00    -0.268 OA
ATOM     19  S   UNL A   1      35.582  23.693  23.889  1.00  0.00    -0.052 S 
BRANCH  13  20
ATOM     20  C   UNL A   1      30.749  27.587  22.911  1.00  0.00    -0.049 C 
ATOM     21  C   UNL A   1      32.051  28.251  22.559  1.00  0.00     0.044 C 
ATOM     22  C   UNL A   1      29.579  28.231  23.110  1.00  0.00     0.011 C 
BRANCH  22  23
ATOM     23  C   UNL A   1      29.242  29.652  22.863  1.00  0.00    -0.025 A 
ATOM     24  C   UNL A   1      29.469  30.597  23.875  1.00  0.00     0.008 A 
ATOM     25  C   UNL A   1      28.535  30.067  21.724  1.00  0.00     0.008 A 
ATOM     26  C   UNL A   1      29.051  31.926  23.725  1.00  0.00     0.001 A 
ATOM     27  C   UNL A   1      28.140  31.398  21.561  1.00  0.00     0.001 A 
ATOM     28  C   UNL A   1      28.404  32.329  22.561  1.00  0.00     0.000 A 
ENDBRANCH  22  23
ENDBRANCH  13  20
ENDBRANCH  11  12
ENDBRANCH   8  11
ENDBRANCH   6   7
ENDBRANCH   3   6
ENDBRANCH   1   2
BRANCH   1  29
ATOM     29  C   UNL A   1      32.121  27.718  27.164  1.00  0.00     0.023 C 
BRANCH  29  30
ATOM     30  C   UNL A   1      31.645  28.853  26.255  1.00  0.00     0.023 C 
BRANCH  30  31
ATOM     31  C   UNL A   1      32.695  29.913  25.915  1.00  0.00     0.116 C 
BRANCH  31  32
ATOM     32  N   UNL A   1      32.385  31.253  26.389  1.00  0.00    -0.352 N 
ATOM     33  C   UNL A   1      33.117  32.042  27.257  1.00  0.00     0.251 C 
ATOM     34  H   UNL A   1      31.549  31.648  26.048  1.00  0.00     0.163 HD
ATOM     35  O   UNL A   1      32.672  33.124  27.627  1.00  0.00    -0.269 OA
BRANCH  33  36
ATOM     36  C   UNL A   1      34.427  31.564  27.764  1.00  0.00     0.039 A 
ATOM     37  C   UNL A   1      35.464  32.472  27.985  1.00  0.00     0.014 A 
ATOM     38  C   UNL A   1      34.628  30.215  28.047  1.00  0.00     0.014 A 
ATOM     39  C   UNL A   1      36.656  32.034  28.577  1.00  0.00     0.010 A 
ATOM     40  C   UNL A   1      35.784  29.787  28.694  1.00  0.00     0.010 A 
ATOM     41  C   UNL A   1      36.807  30.695  28.987  1.00  0.00    -0.014 A 
BRANCH  41  42
ATOM     42  C   UNL A   1      37.980  30.252  29.792  1.00  0.00     0.031 A 
ATOM     43  C   UNL A   1      38.971  29.256  29.250  1.00  0.00     0.074 A 
ATOM     44  C   UNL A   1      38.094  30.684  31.064  1.00  0.00     0.049 A 
ATOM     45  N   UNL A   1      40.025  28.735  29.829  1.00  0.00    -0.248 NA
ATOM     46  C   UNL A   1      38.724  28.751  27.895  1.00  0.00     0.031 C 
ATOM     47  C   UNL A   1      37.147  31.575  31.739  1.00  0.00     0.029 A 
ATOM     48  N   UNL A   1      39.047  30.434  32.019  1.00  0.00    -0.354 N 
ATOM     49  C   UNL A   1      40.554  27.825  28.918  1.00  0.00     0.074 A 
ATOM     50  C   UNL A   1      39.668  27.830  27.774  1.00  0.00     0.031 C 
ATOM     51  C   UNL A   1      37.593  31.837  32.976  1.00  0.00     0.029 A 
ATOM     52  C   UNL A   1      38.833  31.102  33.202  1.00  0.00     0.049 A 
ATOM     53  H   UNL A   1      39.813  29.833  31.871  1.00  0.00     0.167 HD
ATOM     54  C   UNL A   1      41.681  27.073  29.020  1.00  0.00     0.034 A 
ATOM     55  C   UNL A   1      39.554  31.129  34.339  1.00  0.00     0.034 A 
ATOM     56  C   UNL A   1      42.566  27.108  30.163  1.00  0.00     0.049 A 
ATOM     57  C   UNL A   1      40.834  30.337  34.409  1.00  0.00     0.074 A 
ATOM     58  C   UNL A   1      43.778  26.461  30.336  1.00  0.00     0.029 A 
ATOM     59  N   UNL A   1      42.337  27.829  31.329  1.00  0.00    -0.354 N 
ATOM     60  N   UNL A   1      41.361  29.538  33.510  1.00  0.00    -0.248 NA
ATOM     61  C   UNL A   1      41.626  30.469  35.637  1.00  0.00     0.031 C 
ATOM     62  C   UNL A   1      44.246  26.733  31.627  1.00  0.00     0.029 A 
ATOM     63  C   UNL A   1      43.372  27.623  32.231  1.00  0.00     0.049 A 
ATOM     64  H   UNL A   1      41.554  28.402  31.493  1.00  0.00     0.167 HD
ATOM     65  C   UNL A   1      42.566  29.101  34.054  1.00  0.00     0.074 A 
ATOM     66  C   UNL A   1      42.693  29.739  35.347  1.00  0.00     0.031 C 
ATOM     67  C   UNL A   1      43.487  28.254  33.526  1.00  0.00     0.034 A 
BRANCH  54  68
ATOM     68  C   UNL A   1      42.013  26.140  27.874  1.00  0.00     0.023 A 
ATOM     69  C   UNL A   1      41.544  24.815  27.838  1.00  0.00     0.031 A 
ATOM     70  C   UNL A   1      42.823  26.571  26.807  1.00  0.00     0.131 A 
ATOM     71  C   UNL A   1      41.961  23.946  26.818  1.00  0.00     0.055 A 
ATOM     72  C   UNL A   1      43.150  25.731  25.739  1.00  0.00     0.041 A 
ATOM     73  F   UNL A   1      43.324  27.816  26.786  1.00  0.00    -0.206 F 
ATOM     74  C   UNL A   1      42.734  24.403  25.749  1.00  0.00     0.022 A 
BRANCH  71  75
ATOM     75  S   UNL A   1      41.620  22.176  27.004  1.00  0.00     0.124 S 
ATOM     76  O   UNL A   1      42.471  21.834  28.142  1.00  0.00    -0.237 OA
ATOM     77  O   UNL A   1      40.183  22.154  27.248  1.00  0.00    -0.237 OA
ATOM     78  O   UNL A   1      42.046  21.608  25.726  1.00  0.00    -0.744 OA
ENDBRANCH  71  75
ENDBRANCH  54  68
BRANCH  55  79
ATOM     79  C   UNL A   1      39.107  31.964  35.491  1.00  0.00     0.023 A 
ATOM     80  C   UNL A   1      38.434  31.388  36.579  1.00  0.00     0.031 A 
ATOM     81  C   UNL A   1      39.329  33.352  35.512  1.00  0.00     0.131 A 
ATOM     82  C   UNL A   1      37.964  32.200  37.622  1.00  0.00     0.055 A 
ATOM     83  C   UNL A   1      38.909  34.149  36.579  1.00  0.00     0.041 A 
ATOM     84  F   UNL A   1      39.977  33.953  34.501  1.00  0.00    -0.206 F 
ATOM     85  C   UNL A   1      38.211  33.575  37.637  1.00  0.00     0.022 A 
BRANCH  82  86
ATOM     86  S   UNL A   1      36.951  31.442  38.922  1.00  0.00     0.124 S 
ATOM     87  O   UNL A   1      35.755  32.275  38.890  1.00  0.00    -0.237 OA
ATOM     88  O   UNL A   1      36.799  30.078  38.428  1.00  0.00    -0.237 OA
ATOM     89  O   UNL A   1      37.778  31.580  40.119  1.00  0.00    -0.744 OA
ENDBRANCH  82  86
ENDBRANCH  55  79
BRANCH  67  90
ATOM     90  C   UNL A   1      44.741  28.013  34.333  1.00  0.00     0.023 A 
ATOM     91  C   UNL A   1      44.835  26.967  35.268  1.00  0.00     0.031 A 
ATOM     92  C   UNL A   1      45.852  28.863  34.182  1.00  0.00     0.131 A 
ATOM     93  C   UNL A   1      45.984  26.841  36.064  1.00  0.00     0.055 A 
ATOM     94  C   UNL A   1      47.018  28.690  34.927  1.00  0.00     0.041 A 
ATOM     95  F   UNL A   1      45.819  29.882  33.307  1.00  0.00    -0.206 F 
ATOM     96  C   UNL A   1      47.084  27.683  35.886  1.00  0.00     0.022 A 
BRANCH  93  97
ATOM     97  S   UNL A   1      45.978  25.630  37.415  1.00  0.00     0.124 S 
ATOM     98  O   UNL A   1      47.353  25.708  37.896  1.00  0.00    -0.237 OA
ATOM     99  O   UNL A   1      44.959  26.167  38.310  1.00  0.00    -0.237 OA
ATOM    100  O   UNL A   1      45.623  24.377  36.752  1.00  0.00    -0.744 OA
ENDBRANCH  93  97
ENDBRANCH  67  90
ENDBRANCH  41  42
ENDBRANCH  33  36
ENDBRANCH  31  32
ENDBRANCH  30  31
ENDBRANCH  29  30
ENDBRANCH   1  29
TORSDOF 19
ENDMDL
MODEL 2
REMARK VINA RESULT:     -12.5      1.473      7.423
REMARK SMILES CC(/C=C1\SC(=S)N(CC(=O)NCC(=O)NCCCCNC(=O)c2ccc(-c3c4nc(c(-c5cc(S(=O)(=O)[O-])ccc5F)c5ccc([nH]5)c(-c5cc(S(=O)(=O)[O-])ccc5F)c5nc(c(-c6cc(S(=O)(=O)[O-])ccc6F)c6ccc3[nH]6)C=C5)C=C4)cc2)C1=O)=C\c1ccccc1
REMARK SMILES IDX 17 1 16 2 14 3 15 4 13 6 12 7 10 8 11 9 9 11 8 12 3 13 4 14
REMARK SMILES IDX 5 15 87 16 6 17 88 18 7 19 2 20 1 21 89 22 90 23 91 24 95 25
REMARK SMILES IDX 92 26 94 27 93 28 18 29 19 30 20 31 21 32 22 33 23 35 24 36
REMARK SMILES IDX 25 37 86 38 26 39 85 40 27 41 28 42 29 43 79 44 30 45 84 46
REMARK SMILES IDX 78 47 80 48 31 49 83 50 77 51 76 52 32 54 64 55 44 56 63 57
REMARK SMILES IDX 45 58 48 59 62 60 81 61 46 62 47 63 61 65 82 66 49 67 33 68
REMARK SMILES IDX 34 69 42 70 35 71 41 72 43 73 40 74 36 75 37 76 38 77 39 78
REMARK SMILES IDX 65 79 66 80 74 81 67 82 73 83 75 84 72 85 68 86 69 87 70 88
REMARK SMILES IDX 71 89 50 90 51 91 59 92 52 93 58 94 60 95 57 96 53 97 54 98
REMARK SMILES IDX 55 99 56 100
REMARK H PARENT 16 5 12 10 21 34 80 53 48 64
REMARK Flexibility Score: inf
ROOT
ATOM      1  C   UNL A   1      31.663  26.245  26.754  1.00  0.00     0.116 C 
ENDROOT
BRANCH   1   2
ATOM      2  N   UNL A   1      30.562  25.312  26.825  1.00  0.00    -0.355 N 
ATOM      3  C   UNL A   1      30.620  23.946  26.878  1.00  0.00     0.239 C 
ATOM      4  O   UNL A   1      29.612  23.333  27.238  1.00  0.00    -0.273 OA
ATOM      5  H   UNL A   1      29.659  25.707  26.836  1.00  0.00     0.163 HD
BRANCH   3   6
ATOM      6  C   UNL A   1      31.954  23.204  26.664  1.00  0.00     0.216 C 
BRANCH   6   7
ATOM      7  N   UNL A   1      31.808  21.816  26.252  1.00  0.00    -0.345 N 
ATOM      8  C   UNL A   1      32.255  21.119  25.175  1.00  0.00     0.240 C 
ATOM      9  O   UNL A   1      32.113  19.891  25.237  1.00  0.00    -0.273 OA
ATOM     10  H   UNL A   1      31.281  21.273  26.882  1.00  0.00     0.164 HD
BRANCH   8  11
ATOM     11  C   UNL A   1      33.074  21.730  24.022  1.00  0.00     0.227 C 
BRANCH  11  12
ATOM     12  N   UNL A   1      32.990  23.176  23.807  1.00  0.00    -0.283 N 
ATOM     13  C   UNL A   1      30.801  25.908  22.900  1.00  0.00     0.024 C 
ATOM     14  C   UNL A   1      31.881  25.172  23.197  1.00  0.00     0.080 C 
ATOM     15  S   UNL A   1      33.434  25.713  23.682  1.00  0.00    -0.054 SA
ATOM     16  C   UNL A   1      31.827  23.682  23.242  1.00  0.00     0.266 C 
ATOM     17  C   UNL A   1      34.012  24.080  23.996  1.00  0.00     0.148 C 
ATOM     18  O   UNL A   1      30.861  23.026  22.898  1.00  0.00    -0.268 OA
ATOM     19  S   UNL A   1      35.586  23.775  24.460  1.00  0.00    -0.052 S 
BRANCH  13  20
ATOM     20  C   UNL A   1      30.686  27.362  22.849  1.00  0.00    -0.049 C 
ATOM     21  C   UNL A   1      31.894  28.090  22.329  1.00  0.00     0.044 C 
ATOM     22  C   UNL A   1      29.517  27.946  23.190  1.00  0.00     0.011 C 
BRANCH  22  23
ATOM     23  C   UNL A   1      29.073  29.343  22.976  1.00  0.00    -0.025 A 
ATOM     24  C   UNL A   1      28.412  29.679  21.785  1.00  0.00     0.008 A 
ATOM     25  C   UNL A   1      29.447  30.386  23.836  1.00  0.00     0.008 A 
ATOM     26  C   UNL A   1      28.086  31.010  21.495  1.00  0.00     0.001 A 
ATOM     27  C   UNL A   1      29.101  31.713  23.560  1.00  0.00     0.001 A 
ATOM     28  C   UNL A   1      28.415  32.022  22.390  1.00  0.00     0.000 A 
ENDBRANCH  22  23
ENDBRANCH  13  20
ENDBRANCH  11  12
ENDBRANCH   8  11
ENDBRANCH   6   7
ENDBRANCH   3   6
ENDBRANCH   1   2
BRANCH   1  29
ATOM     29  C   UNL A   1      31.308  27.599  26.149  1.00  0.00     0.023 C 
BRANCH  29  30
ATOM     30  C   UNL A   1      31.789  28.797  26.971  1.00  0.00     0.023 C 
BRANCH  30  31
ATOM     31  C   UNL A   1      32.646  29.816  26.215  1.00  0.00     0.116 C 
BRANCH  31  32
ATOM     32  N   UNL A   1      32.421  31.202  26.594  1.00  0.00    -0.352 N 
ATOM     33  C   UNL A   1      33.236  32.020  27.355  1.00  0.00     0.251 C 
ATOM     34  H   UNL A   1      31.586  31.609  26.267  1.00  0.00     0.163 HD
ATOM     35  O   UNL A   1      32.861  33.148  27.659  1.00  0.00    -0.269 OA
BRANCH  33  36
ATOM     36  C   UNL A   1      34.551  31.521  27.829  1.00  0.00     0.039 A 
ATOM     37  C   UNL A   1      35.608  32.412  28.019  1.00  0.00     0.014 A 
ATOM     38  C   UNL A   1      34.736  30.169  28.111  1.00  0.00     0.014 A 
ATOM     39  C   UNL A   1      36.808  31.955  28.581  1.00  0.00     0.010 A 
ATOM     40  C   UNL A   1      35.901  29.724  28.729  1.00  0.00     0.010 A 
ATOM     41  C   UNL A   1      36.947  30.615  28.991  1.00  0.00    -0.014 A 
BRANCH  41  42
ATOM     42  C   UNL A   1      38.133  30.154  29.766  1.00  0.00     0.031 A 
ATOM     43  C   UNL A   1      38.378  30.622  31.176  1.00  0.00     0.074 A 
ATOM     44  C   UNL A   1      39.050  29.380  29.150  1.00  0.00     0.049 A 
ATOM     45  N   UNL A   1      39.378  30.351  31.978  1.00  0.00    -0.248 NA
ATOM     46  C   UNL A   1      37.391  31.547  31.744  1.00  0.00     0.031 C 
ATOM     47  C   UNL A   1      38.977  28.938  27.755  1.00  0.00     0.029 A 
ATOM     48  N   UNL A   1      40.220  28.830  29.609  1.00  0.00    -0.354 N 
ATOM     49  C   UNL A   1      39.152  31.087  33.138  1.00  0.00     0.074 A 
ATOM     50  C   UNL A   1      37.949  31.857  32.905  1.00  0.00     0.031 C 
ATOM     51  C   UNL A   1      40.025  28.144  27.489  1.00  0.00     0.029 A 
ATOM     52  C   UNL A   1      40.869  28.054  28.677  1.00  0.00     0.049 A 
ATOM     53  H   UNL A   1      40.564  28.977  30.520  1.00  0.00     0.167 HD
ATOM     54  C   UNL A   1      39.869  31.103  34.292  1.00  0.00     0.034 A 
ATOM     55  C   UNL A   1      42.009  27.343  28.765  1.00  0.00     0.034 A 
ATOM     56  C   UNL A   1      41.052  30.301  34.511  1.00  0.00     0.049 A 
ATOM     57  C   UNL A   1      42.756  27.324  30.073  1.00  0.00     0.074 A 
ATOM     58  C   UNL A   1      41.803  30.168  35.666  1.00  0.00     0.029 A 
ATOM     59  N   UNL A   1      41.658  29.495  33.555  1.00  0.00    -0.354 N 
ATOM     60  N   UNL A   1      42.488  27.967  31.187  1.00  0.00    -0.248 NA
ATOM     61  C   UNL A   1      43.944  26.465  30.144  1.00  0.00     0.031 C 
ATOM     62  C   UNL A   1      42.898  29.341  35.391  1.00  0.00     0.029 A 
ATOM     63  C   UNL A   1      42.784  28.883  34.089  1.00  0.00     0.049 A 
ATOM     64  H   UNL A   1      41.337  29.375  32.632  1.00  0.00     0.167 HD
ATOM     65  C   UNL A   1      43.458  27.561  32.100  1.00  0.00     0.074 A 
ATOM     66  C   UNL A   1      44.301  26.606  31.411  1.00  0.00     0.031 C 
ATOM     67  C   UNL A   1      43.629  27.939  33.393  1.00  0.00     0.034 A 
BRANCH  54  68
ATOM     68  C   UNL A   1      39.403  32.025  35.400  1.00  0.00     0.023 A 
ATOM     69  C   UNL A   1      39.849  33.355  35.493  1.00  0.00     0.031 A 
ATOM     70  C   UNL A   1      38.511  31.568  36.388  1.00  0.00     0.131 A 
ATOM     71  C   UNL A   1      39.483  34.146  36.593  1.00  0.00     0.055 A 
ATOM     72  C   UNL A   1      38.068  32.395  37.425  1.00  0.00     0.041 A 
ATOM     73  F   UNL A   1      38.061  30.304  36.374  1.00  0.00    -0.206 F 
ATOM     74  C   UNL A   1      38.569  33.688  37.543  1.00  0.00     0.022 A 
BRANCH  71  75
ATOM     75  S   UNL A   1      40.354  35.715  36.851  1.00  0.00     0.124 S 
ATOM     76  O   UNL A   1      41.738  35.327  36.584  1.00  0.00    -0.237 OA
ATOM     77  O   UNL A   1      39.732  36.589  35.863  1.00  0.00    -0.237 OA
ATOM     78  O   UNL A   1      40.066  36.043  38.246  1.00  0.00    -0.744 OA
ENDBRANCH  71  75
ENDBRANCH  54  68
BRANCH  55  79
ATOM     79  C   UNL A   1      42.496  26.557  27.594  1.00  0.00     0.023 A 
ATOM     80  C   UNL A   1      42.141  25.208  27.436  1.00  0.00     0.031 A 
ATOM     81  C   UNL A   1      43.336  27.137  26.628  1.00  0.00     0.131 A 
ATOM     82  C   UNL A   1      42.662  24.469  26.363  1.00  0.00     0.055 A 
ATOM     83  C   UNL A   1      43.806  26.412  25.531  1.00  0.00     0.041 A 
ATOM     84  F   UNL A   1      43.697  28.426  26.726  1.00  0.00    -0.206 F 
ATOM     85  C   UNL A   1      43.479  25.066  25.401  1.00  0.00     0.022 A 
BRANCH  82  86
ATOM     86  S   UNL A   1      42.320  22.689  26.291  1.00  0.00     0.124 S 
ATOM     87  O   UNL A   1      42.913  22.222  27.539  1.00  0.00    -0.237 OA
ATOM     88  O   UNL A   1      40.863  22.664  26.222  1.00  0.00    -0.237 OA
ATOM     89  O   UNL A   1      43.007  22.262  25.073  1.00  0.00    -0.744 OA
ENDBRANCH  82  86
ENDBRANCH  55  79
BRANCH  67  90
ATOM     90  C   UNL A   1      44.745  27.273  34.161  1.00  0.00     0.023 A 
ATOM     91  C   UNL A   1      44.529  26.124  34.944  1.00  0.00     0.031 A 
ATOM     92  C   UNL A   1      46.044  27.813  34.130  1.00  0.00     0.131 A 
ATOM     93  C   UNL A   1      45.575  25.597  35.717  1.00  0.00     0.055 A 
ATOM     94  C   UNL A   1      47.096  27.242  34.846  1.00  0.00     0.041 A 
ATOM     95  F   UNL A   1      46.310  28.911  33.404  1.00  0.00    -0.206 F 
ATOM     96  C   UNL A   1      46.862  26.137  35.658  1.00  0.00     0.022 A 
BRANCH  93  97
ATOM     97  S   UNL A   1      45.203  24.263  36.889  1.00  0.00     0.124 S 
ATOM     98  O   UNL A   1      44.674  23.226  36.009  1.00  0.00    -0.237 OA
ATOM     99  O   UNL A   1      46.510  23.993  37.478  1.00  0.00    -0.237 OA
ATOM    100  O   UNL A   1      44.226  24.864  37.795  1.00  0.00    -0.744 OA
ENDBRANCH  93  97
ENDBRANCH  67  90
ENDBRANCH  41  42
ENDBRANCH  33  36
ENDBRANCH  31  32
ENDBRANCH  30  31
ENDBRANCH  29  30
ENDBRANCH   1  29
TORSDOF 19
ENDMDL
MODEL 3
REMARK VINA RESULT:     -12.4      1.548      7.430
REMARK SMILES CC(/C=C1\SC(=S)N(CC(=O)NCC(=O)NCCCCNC(=O)c2ccc(-c3c4nc(c(-c5cc(S(=O)(=O)[O-])ccc5F)c5ccc([nH]5)c(-c5cc(S(=O)(=O)[O-])ccc5F)c5nc(c(-c6cc(S(=O)(=O)[O-])ccc6F)c6ccc3[nH]6)C=C5)C=C4)cc2)C1=O)=C\c1ccccc1
REMARK SMILES IDX 17 1 16 2 14 3 15 4 13 6 12 7 10 8 11 9 9 11 8 12 3 13 4 14
REMARK SMILES IDX 5 15 87 16 6 17 88 18 7 19 2 20 1 21 89 22 90 23 91 24 95 25
REMARK SMILES IDX 92 26 94 27 93 28 18 29 19 30 20 31 21 32 22 33 23 35 24 36
REMARK SMILES IDX 25 37 86 38 26 39 85 40 27 41 28 42 29 43 79 44 30 45 84 46
REMARK SMILES IDX 78 47 80 48 31 49 83 50 77 51 76 52 32 54 64 55 44 56 63 57
REMARK SMILES IDX 45 58 48 59 62 60 81 61 46 62 47 63 61 65 82 66 49 67 33 68
REMARK SMILES IDX 34 69 42 70 35 71 41 72 43 73 40 74 36 75 37 76 38 77 39 78
REMARK SMILES IDX 65 79 66 80 74 81 67 82 73 83 75 84 72 85 68 86 69 87 70 88
REMARK SMILES IDX 71 89 50 90 51 91 59 92 52 93 58 94 60 95 57 96 53 97 54 98
REMARK SMILES IDX 55 99 56 100
REMARK H PARENT 16 5 12 10 21 34 80 53 48 64
REMARK Flexibility Score: inf
ROOT
ATOM      1  C   UNL A   1      31.578  26.440  26.495  1.00  0.00     0.116 C 
ENDROOT
BRANCH   1   2
ATOM      2  N   UNL A   1      30.463  25.540  26.683  1.00  0.00    -0.355 N 
ATOM      3  C   UNL A   1      30.500  24.189  26.896  1.00  0.00     0.239 C 
ATOM      4  O   UNL A   1      29.486  23.640  27.333  1.00  0.00    -0.273 OA
ATOM      5  H   UNL A   1      29.567  25.948  26.654  1.00  0.00     0.163 HD
BRANCH   3   6
ATOM      6  C   UNL A   1      31.820  23.405  26.761  1.00  0.00     0.216 C 
BRANCH   6   7
ATOM      7  N   UNL A   1      31.666  22.058  26.233  1.00  0.00    -0.345 N 
ATOM      8  C   UNL A   1      32.239  21.402  25.190  1.00  0.00     0.240 C 
ATOM      9  O   UNL A   1      32.022  20.185  25.140  1.00  0.00    -0.273 OA
ATOM     10  H   UNL A   1      31.016  21.512  26.732  1.00  0.00     0.164 HD
BRANCH   8  11
ATOM     11  C   UNL A   1      33.263  22.030  24.224  1.00  0.00     0.227 C 
BRANCH  11  12
ATOM     12  N   UNL A   1      33.214  23.478  24.013  1.00  0.00    -0.283 N 
ATOM     13  C   UNL A   1      31.178  26.227  22.842  1.00  0.00     0.024 C 
ATOM     14  C   UNL A   1      32.205  25.484  23.276  1.00  0.00     0.080 C 
ATOM     15  S   UNL A   1      33.680  26.014  23.972  1.00  0.00    -0.054 SA
ATOM     16  C   UNL A   1      32.140  23.994  23.300  1.00  0.00     0.266 C 
ATOM     17  C   UNL A   1      34.204  24.376  24.347  1.00  0.00     0.148 C 
ATOM     18  O   UNL A   1      31.227  23.345  22.822  1.00  0.00    -0.268 OA
ATOM     19  S   UNL A   1      35.700  24.060  25.017  1.00  0.00    -0.052 S 
BRANCH  13  20
ATOM     20  C   UNL A   1      31.075  27.683  22.789  1.00  0.00    -0.049 C 
ATOM     21  C   UNL A   1      32.341  28.408  22.425  1.00  0.00     0.044 C 
ATOM     22  C   UNL A   1      29.876  28.270  22.989  1.00  0.00     0.011 C 
BRANCH  22  23
ATOM     23  C   UNL A   1      29.468  29.670  22.734  1.00  0.00    -0.025 A 
ATOM     24  C   UNL A   1      29.403  30.573  23.806  1.00  0.00     0.008 A 
ATOM     25  C   UNL A   1      28.966  30.088  21.492  1.00  0.00     0.008 A 
ATOM     26  C   UNL A   1      28.905  31.870  23.624  1.00  0.00     0.001 A 
ATOM     27  C   UNL A   1      28.492  31.390  21.303  1.00  0.00     0.001 A 
ATOM     28  C   UNL A   1      28.467  32.282  22.369  1.00  0.00     0.000 A 
ENDBRANCH  22  23
ENDBRANCH  13  20
ENDBRANCH  11  12
ENDBRANCH   8  11
ENDBRANCH   6   7
ENDBRANCH   3   6
ENDBRANCH   1   2
BRANCH   1  29
ATOM     29  C   UNL A   1      31.427  27.790  27.187  1.00  0.00     0.023 C 
BRANCH  29  30
ATOM     30  C   UNL A   1      31.703  28.992  26.281  1.00  0.00     0.023 C 
BRANCH  30  31
ATOM     31  C   UNL A   1      33.025  29.720  26.534  1.00  0.00     0.116 C 
BRANCH  31  32
ATOM     32  N   UNL A   1      32.889  31.122  26.899  1.00  0.00    -0.352 N 
ATOM     33  C   UNL A   1      33.788  31.914  27.590  1.00  0.00     0.251 C 
ATOM     34  H   UNL A   1      32.054  31.562  26.617  1.00  0.00     0.163 HD
ATOM     35  O   UNL A   1      33.484  33.063  27.895  1.00  0.00    -0.269 OA
BRANCH  33  36
ATOM     36  C   UNL A   1      35.106  31.362  27.990  1.00  0.00     0.039 A 
ATOM     37  C   UNL A   1      36.199  32.213  28.156  1.00  0.00     0.014 A 
ATOM     38  C   UNL A   1      35.260  29.997  28.228  1.00  0.00     0.014 A 
ATOM     39  C   UNL A   1      37.407  31.704  28.649  1.00  0.00     0.010 A 
ATOM     40  C   UNL A   1      36.437  29.499  28.780  1.00  0.00     0.010 A 
ATOM     41  C   UNL A   1      37.521  30.350  29.017  1.00  0.00    -0.014 A 
BRANCH  41  42
ATOM     42  C   UNL A   1      38.726  29.831  29.725  1.00  0.00     0.031 A 
ATOM     43  C   UNL A   1      39.108  30.333  31.092  1.00  0.00     0.074 A 
ATOM     44  C   UNL A   1      39.536  28.969  29.079  1.00  0.00     0.049 A 
ATOM     45  N   UNL A   1      40.143  30.018  31.833  1.00  0.00    -0.248 NA
ATOM     46  C   UNL A   1      38.234  31.349  31.689  1.00  0.00     0.031 C 
ATOM     47  C   UNL A   1      39.328  28.480  27.713  1.00  0.00     0.029 A 
ATOM     48  N   UNL A   1      40.695  28.350  29.476  1.00  0.00    -0.354 N 
ATOM     49  C   UNL A   1      40.056  30.812  32.972  1.00  0.00     0.074 A 
ATOM     50  C   UNL A   1      38.897  31.661  32.793  1.00  0.00     0.031 C 
ATOM     51  C   UNL A   1      40.294  27.601  27.408  1.00  0.00     0.029 A 
ATOM     52  C   UNL A   1      41.215  27.493  28.535  1.00  0.00     0.049 A 
ATOM     53  H   UNL A   1      41.115  28.505  30.354  1.00  0.00     0.167 HD
ATOM     54  C   UNL A   1      40.856  30.818  34.070  1.00  0.00     0.034 A 
ATOM     55  C   UNL A   1      42.305  26.702  28.572  1.00  0.00     0.034 A 
ATOM     56  C   UNL A   1      41.992  29.939  34.239  1.00  0.00     0.049 A 
ATOM     57  C   UNL A   1      43.143  26.677  29.824  1.00  0.00     0.074 A 
ATOM     58  C   UNL A   1      42.815  29.795  35.343  1.00  0.00     0.029 A 
ATOM     59  N   UNL A   1      42.466  29.054  33.278  1.00  0.00    -0.354 N 
ATOM     60  N   UNL A   1      43.006  27.381  30.924  1.00  0.00    -0.248 NA
ATOM     61  C   UNL A   1      44.269  25.736  29.846  1.00  0.00     0.031 C 
ATOM     62  C   UNL A   1      43.825  28.878  35.026  1.00  0.00     0.029 A 
ATOM     63  C   UNL A   1      43.582  28.381  33.756  1.00  0.00     0.049 A 
ATOM     64  H   UNL A   1      42.069  28.924  32.386  1.00  0.00     0.167 HD
ATOM     65  C   UNL A   1      44.009  26.938  31.783  1.00  0.00     0.074 A 
ATOM     66  C   UNL A   1      44.728  25.898  31.078  1.00  0.00     0.031 C 
ATOM     67  C   UNL A   1      44.302  27.351  33.043  1.00  0.00     0.034 A 
BRANCH  54  68
ATOM     68  C   UNL A   1      40.541  31.814  35.168  1.00  0.00     0.023 A 
ATOM     69  C   UNL A   1      39.525  31.580  36.111  1.00  0.00     0.031 A 
ATOM     70  C   UNL A   1      41.254  33.023  35.269  1.00  0.00     0.131 A 
ATOM     71  C   UNL A   1      39.187  32.571  37.045  1.00  0.00     0.055 A 
ATOM     72  C   UNL A   1      40.983  33.962  36.268  1.00  0.00     0.041 A 
ATOM     73  F   UNL A   1      42.224  33.322  34.390  1.00  0.00    -0.206 F 
ATOM     74  C   UNL A   1      39.930  33.748  37.153  1.00  0.00     0.022 A 
BRANCH  71  75
ATOM     75  S   UNL A   1      37.657  32.370  37.997  1.00  0.00     0.124 S 
ATOM     76  O   UNL A   1      37.442  30.928  37.900  1.00  0.00    -0.237 OA
ATOM     77  O   UNL A   1      38.034  32.875  39.312  1.00  0.00    -0.237 OA
ATOM     78  O   UNL A   1      36.689  33.186  37.266  1.00  0.00    -0.744 OA
ENDBRANCH  71  75
ENDBRANCH  54  68
BRANCH  55  79
ATOM     79  C   UNL A   1      42.645  25.839  27.405  1.00  0.00     0.023 A 
ATOM     80  C   UNL A   1      42.183  24.516  27.330  1.00  0.00     0.031 A 
ATOM     81  C   UNL A   1      43.452  26.317  26.358  1.00  0.00     0.131 A 
ATOM     82  C   UNL A   1      42.568  23.700  26.256  1.00  0.00     0.055 A 
ATOM     83  C   UNL A   1      43.786  25.518  25.263  1.00  0.00     0.041 A 
ATOM     84  F   UNL A   1      43.912  27.578  26.375  1.00  0.00    -0.206 F 
ATOM     85  C   UNL A   1      43.354  24.196  25.214  1.00  0.00     0.022 A 
BRANCH  82  86
ATOM     86  S   UNL A   1      42.093  21.949  26.284  1.00  0.00     0.124 S 
ATOM     87  O   UNL A   1      42.904  21.404  25.202  1.00  0.00    -0.237 OA
ATOM     88  O   UNL A   1      42.475  21.555  27.636  1.00  0.00    -0.237 OA
ATOM     89  O   UNL A   1      40.654  21.985  26.031  1.00  0.00    -0.744 OA
ENDBRANCH  82  86
ENDBRANCH  55  79
BRANCH  67  90
ATOM     90  C   UNL A   1      45.423  26.632  33.758  1.00  0.00     0.023 A 
ATOM     91  C   UNL A   1      46.757  27.070  33.679  1.00  0.00     0.031 A 
ATOM     92  C   UNL A   1      45.152  25.474  34.508  1.00  0.00     0.131 A 
ATOM     93  C   UNL A   1      47.776  26.316  34.280  1.00  0.00     0.055 A 
ATOM     94  C   UNL A   1      46.162  24.768  35.162  1.00  0.00     0.041 A 
ATOM     95  F   UNL A   1      43.898  25.006  34.615  1.00  0.00    -0.206 F 
ATOM     96  C   UNL A   1      47.486  25.178  35.037  1.00  0.00     0.022 A 
BRANCH  93  97
ATOM     97  S   UNL A   1      49.502  26.778  33.965  1.00  0.00     0.124 S 
ATOM     98  O   UNL A   1      49.994  25.623  33.222  1.00  0.00    -0.237 OA
ATOM     99  O   UNL A   1      49.359  28.012  33.200  1.00  0.00    -0.237 OA
ATOM    100  O   UNL A   1      50.065  26.940  35.304  1.00  0.00    -0.744 OA
ENDBRANCH  93  97
ENDBRANCH  67  90
ENDBRANCH  41  42
ENDBRANCH  33  36
ENDBRANCH  31  32
ENDBRANCH  30  31
ENDBRANCH  29  30
ENDBRANCH   1  29
TORSDOF 19
ENDMDL
