MODEL 1
REMARK VINA RESULT:     -12.1      0.000      0.000
REMARK SMILES O=C(CCc1nc(-c2ccccc2)c(-c2ccccc2)o1)NCCCCNC(=O)c1ccc(-c2c3nc(c(-c4cc(S(=O)(=O)[O-])ccc4F)c4ccc([nH]4)c(-c4cc(S(=O)(=O)[O-])ccc4F)c4nc(c(-c5cc(S(=O)(=O)[O-])ccc5F)c5ccc2[nH]5)C=C4)C=C3)cc1
REMARK SMILES IDX 24 1 23 2 22 3 1 4 2 5 3 7 4 8 5 9 6 10 21 11 7 12 14 13
REMARK SMILES IDX 8 14 9 15 13 16 10 17 12 18 11 19 15 20 16 21 20 22 17 23
REMARK SMILES IDX 19 24 18 25 25 26 26 27 27 28 28 29 29 31 30 32 31 33 92 34
REMARK SMILES IDX 32 35 91 36 33 37 34 38 35 39 85 40 36 41 90 42 84 43 86 44
REMARK SMILES IDX 37 45 89 46 83 47 82 48 38 50 70 51 50 52 69 53 51 54 54 55
REMARK SMILES IDX 68 56 87 57 52 58 53 59 67 61 88 62 55 63 39 64 40 65 48 66
REMARK SMILES IDX 41 67 47 68 49 69 46 70 42 71 43 72 44 73 45 74 71 75 72 76
REMARK SMILES IDX 80 77 73 78 79 79 81 80 78 81 74 82 75 83 76 84 77 85 56 86
REMARK SMILES IDX 57 87 65 88 58 89 64 90 66 91 63 92 59 93 60 94 61 95 62 96
REMARK H PARENT 22 6 27 30 86 49 54 60
REMARK Flexibility Score: inf
ROOT
ATOM      1  C   UNL A   1      31.721  29.916  26.842  1.00  0.00     0.023 C 
ENDROOT
BRANCH   1   2
ATOM      2  C   UNL A   1      32.233  29.078  25.668  1.00  0.00     0.116 C 
BRANCH   2   3
ATOM      3  N   UNL A   1      31.618  27.766  25.613  1.00  0.00    -0.356 N 
ATOM      4  O   UNL A   1      30.193  28.202  23.860  1.00  0.00    -0.275 OA
ATOM      5  C   UNL A   1      30.656  27.424  24.689  1.00  0.00     0.220 C 
ATOM      6  H   UNL A   1      31.902  27.088  26.267  1.00  0.00     0.163 HD
BRANCH   5   7
ATOM      7  C   UNL A   1      30.181  25.987  24.782  1.00  0.00     0.110 C 
BRANCH   7   8
ATOM      8  C   UNL A   1      30.500  25.182  23.528  1.00  0.00     0.107 C 
BRANCH   8   9
ATOM      9  C   UNL A   1      31.658  24.271  23.714  1.00  0.00     0.196 A 
ATOM     10  N   UNL A   1      32.887  24.586  24.059  1.00  0.00    -0.213 NA
ATOM     11  O   UNL A   1      31.416  22.926  23.629  1.00  0.00    -0.440 OA
ATOM     12  C   UNL A   1      33.525  23.371  24.171  1.00  0.00     0.117 A 
ATOM     13  C   UNL A   1      32.621  22.347  23.942  1.00  0.00     0.162 A 
BRANCH  12  14
ATOM     14  C   UNL A   1      34.915  23.247  24.562  1.00  0.00     0.004 A 
ATOM     15  C   UNL A   1      35.786  22.371  23.903  1.00  0.00     0.010 A 
ATOM     16  C   UNL A   1      35.406  24.026  25.621  1.00  0.00     0.010 A 
ATOM     17  C   UNL A   1      37.117  22.256  24.312  1.00  0.00     0.001 A 
ATOM     18  C   UNL A   1      36.733  23.897  26.041  1.00  0.00     0.001 A 
ATOM     19  C   UNL A   1      37.585  23.009  25.389  1.00  0.00     0.000 A 
ENDBRANCH  12  14
BRANCH  13  20
ATOM     20  C   UNL A   1      32.626  20.902  24.085  1.00  0.00     0.020 A 
ATOM     21  C   UNL A   1      32.945  20.272  25.290  1.00  0.00     0.012 A 
ATOM     22  C   UNL A   1      32.271  20.108  22.990  1.00  0.00     0.012 A 
ATOM     23  C   UNL A   1      32.877  18.876  25.392  1.00  0.00     0.001 A 
ATOM     24  C   UNL A   1      32.220  18.718  23.082  1.00  0.00     0.001 A 
ATOM     25  C   UNL A   1      32.513  18.101  24.291  1.00  0.00     0.000 A 
ENDBRANCH  13  20
ENDBRANCH   8   9
ENDBRANCH   7   8
ENDBRANCH   5   7
ENDBRANCH   2   3
ENDBRANCH   1   2
BRANCH   1  26
ATOM     26  C   UNL A   1      31.675  31.428  26.607  1.00  0.00     0.023 C 
BRANCH  26  27
ATOM     27  C   UNL A   1      32.889  32.222  27.074  1.00  0.00     0.116 C 
BRANCH  27  28
ATOM     28  N   UNL A   1      32.616  33.592  27.455  1.00  0.00    -0.352 N 
ATOM     29  C   UNL A   1      33.221  34.355  28.434  1.00  0.00     0.251 C 
ATOM     30  H   UNL A   1      31.902  34.041  26.946  1.00  0.00     0.163 HD
ATOM     31  O   UNL A   1      32.762  35.471  28.682  1.00  0.00    -0.269 OA
BRANCH  29  32
ATOM     32  C   UNL A   1      34.385  33.847  29.218  1.00  0.00     0.039 A 
ATOM     33  C   UNL A   1      34.156  32.979  30.290  1.00  0.00     0.014 A 
ATOM     34  C   UNL A   1      35.696  34.233  28.934  1.00  0.00     0.014 A 
ATOM     35  C   UNL A   1      35.234  32.457  31.023  1.00  0.00     0.010 A 
ATOM     36  C   UNL A   1      36.773  33.669  29.625  1.00  0.00     0.010 A 
ATOM     37  C   UNL A   1      36.558  32.772  30.676  1.00  0.00    -0.014 A 
BRANCH  37  38
ATOM     38  C   UNL A   1      37.722  32.141  31.363  1.00  0.00     0.031 A 
ATOM     39  C   UNL A   1      38.489  31.015  30.720  1.00  0.00     0.074 A 
ATOM     40  C   UNL A   1      38.043  32.534  32.614  1.00  0.00     0.049 A 
ATOM     41  N   UNL A   1      39.513  30.340  31.183  1.00  0.00    -0.248 NA
ATOM     42  C   UNL A   1      38.033  30.575  29.394  1.00  0.00     0.031 C 
ATOM     43  C   UNL A   1      37.351  33.579  33.371  1.00  0.00     0.029 A 
ATOM     44  N   UNL A   1      39.021  32.097  33.473  1.00  0.00    -0.354 N 
ATOM     45  C   UNL A   1      39.831  29.403  30.204  1.00  0.00     0.074 A 
ATOM     46  C   UNL A   1      38.847  29.557  29.151  1.00  0.00     0.031 C 
ATOM     47  C   UNL A   1      37.934  33.711  34.573  1.00  0.00     0.029 A 
ATOM     48  C   UNL A   1      39.020  32.742  34.689  1.00  0.00     0.049 A 
ATOM     49  H   UNL A   1      39.664  31.388  33.240  1.00  0.00     0.167 HD
ATOM     50  C   UNL A   1      40.859  28.515  30.175  1.00  0.00     0.034 A 
ATOM     51  C   UNL A   1      39.798  32.574  35.777  1.00  0.00     0.034 A 
ATOM     52  C   UNL A   1      41.827  28.366  31.237  1.00  0.00     0.049 A 
ATOM     53  C   UNL A   1      40.907  31.553  35.740  1.00  0.00     0.074 A 
ATOM     54  C   UNL A   1      42.946  27.548  31.274  1.00  0.00     0.029 A 
ATOM     55  N   UNL A   1      41.786  29.027  32.458  1.00  0.00    -0.354 N 
ATOM     56  N   UNL A   1      41.246  30.737  34.768  1.00  0.00    -0.248 NA
ATOM     57  C   UNL A   1      41.748  31.444  36.938  1.00  0.00     0.031 C 
ATOM     58  C   UNL A   1      43.527  27.650  32.542  1.00  0.00     0.029 A 
ATOM     59  C   UNL A   1      42.830  28.602  33.268  1.00  0.00     0.049 A 
ATOM     60  H   UNL A   1      41.114  29.700  32.711  1.00  0.00     0.167 HD
ATOM     61  C   UNL A   1      42.367  30.048  35.227  1.00  0.00     0.074 A 
ATOM     62  C   UNL A   1      42.650  30.553  36.554  1.00  0.00     0.031 C 
ATOM     63  C   UNL A   1      43.100  29.093  34.600  1.00  0.00     0.034 A 
BRANCH  50  64
ATOM     64  C   UNL A   1      40.976  27.616  28.965  1.00  0.00     0.023 A 
ATOM     65  C   UNL A   1      41.967  27.818  27.988  1.00  0.00     0.031 A 
ATOM     66  C   UNL A   1      40.092  26.537  28.785  1.00  0.00     0.131 A 
ATOM     67  C   UNL A   1      42.006  27.002  26.845  1.00  0.00     0.055 A 
ATOM     68  C   UNL A   1      40.188  25.677  27.689  1.00  0.00     0.041 A 
ATOM     69  F   UNL A   1      39.111  26.301  29.672  1.00  0.00    -0.206 F 
ATOM     70  C   UNL A   1      41.140  25.916  26.702  1.00  0.00     0.022 A 
BRANCH  67  71
ATOM     71  S   UNL A   1      43.108  27.470  25.484  1.00  0.00     0.124 S 
ATOM     72  O   UNL A   1      43.553  26.163  25.003  1.00  0.00    -0.237 OA
ATOM     73  O   UNL A   1      42.218  28.208  24.596  1.00  0.00    -0.237 OA
ATOM     74  O   UNL A   1      44.143  28.268  26.139  1.00  0.00    -0.744 OA
ENDBRANCH  67  71
ENDBRANCH  50  64
BRANCH  51  75
ATOM     75  C   UNL A   1      39.567  33.397  37.000  1.00  0.00     0.023 A 
ATOM     76  C   UNL A   1      38.931  32.852  38.126  1.00  0.00     0.031 A 
ATOM     77  C   UNL A   1      39.940  34.752  37.042  1.00  0.00     0.131 A 
ATOM     78  C   UNL A   1      38.641  33.669  39.230  1.00  0.00     0.055 A 
ATOM     79  C   UNL A   1      39.701  35.547  38.166  1.00  0.00     0.041 A 
ATOM     80  F   UNL A   1      40.555  35.321  35.994  1.00  0.00    -0.206 F 
ATOM     81  C   UNL A   1      39.035  35.009  39.263  1.00  0.00     0.022 A 
BRANCH  78  82
ATOM     82  S   UNL A   1      37.654  32.977  40.584  1.00  0.00     0.124 S 
ATOM     83  O   UNL A   1      38.273  31.668  40.763  1.00  0.00    -0.237 OA
ATOM     84  O   UNL A   1      37.884  33.946  41.651  1.00  0.00    -0.237 OA
ATOM     85  O   UNL A   1      36.297  32.959  40.042  1.00  0.00    -0.744 OA
ENDBRANCH  78  82
ENDBRANCH  51  75
BRANCH  63  86
ATOM     86  C   UNL A   1      44.313  28.563  35.332  1.00  0.00     0.023 A 
ATOM     87  C   UNL A   1      44.216  27.529  36.280  1.00  0.00     0.031 A 
ATOM     88  C   UNL A   1      45.584  29.114  35.085  1.00  0.00     0.131 A 
ATOM     89  C   UNL A   1      45.356  27.122  36.992  1.00  0.00     0.055 A 
ATOM     90  C   UNL A   1      46.725  28.658  35.747  1.00  0.00     0.041 A 
ATOM     91  F   UNL A   1      45.738  30.107  34.196  1.00  0.00    -0.206 F 
ATOM     92  C   UNL A   1      46.613  27.666  36.717  1.00  0.00     0.022 A 
BRANCH  89  93
ATOM     93  S   UNL A   1      45.157  25.944  38.357  1.00  0.00     0.124 S 
ATOM     94  O   UNL A   1      44.791  26.822  39.463  1.00  0.00    -0.237 OA
ATOM     95  O   UNL A   1      44.099  25.069  37.862  1.00  0.00    -0.237 OA
ATOM     96  O   UNL A   1      46.475  25.322  38.469  1.00  0.00    -0.744 OA
ENDBRANCH  89  93
ENDBRANCH  63  86
ENDBRANCH  37  38
ENDBRANCH  29  32
ENDBRANCH  27  28
ENDBRANCH  26  27
ENDBRANCH   1  26
TORSDOF 18
ENDMDL
MODEL 2
REMARK VINA RESULT:     -12.1      3.019      8.258
REMARK SMILES O=C(CCc1nc(-c2ccccc2)c(-c2ccccc2)o1)NCCCCNC(=O)c1ccc(-c2c3nc(c(-c4cc(S(=O)(=O)[O-])ccc4F)c4ccc([nH]4)c(-c4cc(S(=O)(=O)[O-])ccc4F)c4nc(c(-c5cc(S(=O)(=O)[O-])ccc5F)c5ccc2[nH]5)C=C4)C=C3)cc1
REMARK SMILES IDX 24 1 23 2 22 3 1 4 2 5 3 7 4 8 5 9 6 10 21 11 7 12 14 13
REMARK SMILES IDX 8 14 9 15 13 16 10 17 12 18 11 19 15 20 16 21 20 22 17 23
REMARK SMILES IDX 19 24 18 25 25 26 26 27 27 28 28 29 29 31 30 32 31 33 92 34
REMARK SMILES IDX 32 35 91 36 33 37 34 38 35 39 85 40 36 41 90 42 84 43 86 44
REMARK SMILES IDX 37 45 89 46 83 47 82 48 38 50 70 51 50 52 69 53 51 54 54 55
REMARK SMILES IDX 68 56 87 57 52 58 53 59 67 61 88 62 55 63 39 64 40 65 48 66
REMARK SMILES IDX 41 67 47 68 49 69 46 70 42 71 43 72 44 73 45 74 71 75 72 76
REMARK SMILES IDX 80 77 73 78 79 79 81 80 78 81 74 82 75 83 76 84 77 85 56 86
REMARK SMILES IDX 57 87 65 88 58 89 64 90 66 91 63 92 59 93 60 94 61 95 62 96
REMARK H PARENT 22 6 27 30 86 49 54 60
REMARK Flexibility Score: inf
ROOT
ATOM      1  C   UNL A   1      32.257  27.974  27.230  1.00  0.00     0.023 C 
ENDROOT
BRANCH   1   2
ATOM      2  C   UNL A   1      31.023  27.460  26.486  1.00  0.00     0.116 C 
BRANCH   2   3
ATOM      3  N   UNL A   1      31.353  26.874  25.200  1.00  0.00    -0.356 N 
ATOM      4  O   UNL A   1      30.363  28.491  23.897  1.00  0.00    -0.275 OA
ATOM      5  C   UNL A   1      31.014  27.455  24.000  1.00  0.00     0.220 C 
ATOM      6  H   UNL A   1      31.843  26.020  25.187  1.00  0.00     0.163 HD
BRANCH   5   7
ATOM      7  C   UNL A   1      31.496  26.697  22.778  1.00  0.00     0.110 C 
BRANCH   7   8
ATOM      8  C   UNL A   1      31.018  25.250  22.758  1.00  0.00     0.107 C 
BRANCH   8   9
ATOM      9  C   UNL A   1      32.082  24.293  23.152  1.00  0.00     0.196 A 
ATOM     10  N   UNL A   1      33.279  24.563  23.623  1.00  0.00    -0.213 NA
ATOM     11  O   UNL A   1      31.763  22.962  23.136  1.00  0.00    -0.440 OA
ATOM     12  C   UNL A   1      33.817  23.326  23.901  1.00  0.00     0.117 A 
ATOM     13  C   UNL A   1      32.881  22.341  23.638  1.00  0.00     0.162 A 
BRANCH  12  14
ATOM     14  C   UNL A   1      35.139  23.155  24.470  1.00  0.00     0.004 A 
ATOM     15  C   UNL A   1      35.559  23.895  25.582  1.00  0.00     0.010 A 
ATOM     16  C   UNL A   1      36.020  22.223  23.901  1.00  0.00     0.010 A 
ATOM     17  C   UNL A   1      36.845  23.725  26.100  1.00  0.00     0.001 A 
ATOM     18  C   UNL A   1      37.313  22.067  24.409  1.00  0.00     0.001 A 
ATOM     19  C   UNL A   1      37.725  22.822  25.505  1.00  0.00     0.000 A 
ENDBRANCH  12  14
BRANCH  13  20
ATOM     20  C   UNL A   1      32.772  20.914  23.885  1.00  0.00     0.020 A 
ATOM     21  C   UNL A   1      33.016  20.353  25.140  1.00  0.00     0.012 A 
ATOM     22  C   UNL A   1      32.381  20.070  22.840  1.00  0.00     0.012 A 
ATOM     23  C   UNL A   1      32.839  18.978  25.341  1.00  0.00     0.001 A 
ATOM     24  C   UNL A   1      32.222  18.698  23.031  1.00  0.00     0.001 A 
ATOM     25  C   UNL A   1      32.441  18.152  24.289  1.00  0.00     0.000 A 
ENDBRANCH  13  20
ENDBRANCH   8   9
ENDBRANCH   7   8
ENDBRANCH   5   7
ENDBRANCH   2   3
ENDBRANCH   1   2
BRANCH   1  26
ATOM     26  C   UNL A   1      33.567  27.950  26.439  1.00  0.00     0.023 C 
BRANCH  26  27
ATOM     27  C   UNL A   1      33.920  29.224  25.680  1.00  0.00     0.116 C 
BRANCH  27  28
ATOM     28  N   UNL A   1      33.692  30.454  26.409  1.00  0.00    -0.352 N 
ATOM     29  C   UNL A   1      34.402  30.974  27.473  1.00  0.00     0.251 C 
ATOM     30  H   UNL A   1      32.926  30.993  26.105  1.00  0.00     0.163 HD
ATOM     31  O   UNL A   1      33.974  31.984  28.032  1.00  0.00    -0.269 OA
BRANCH  29  32
ATOM     32  C   UNL A   1      35.646  30.324  27.979  1.00  0.00     0.039 A 
ATOM     33  C   UNL A   1      36.826  30.442  27.238  1.00  0.00     0.014 A 
ATOM     34  C   UNL A   1      35.665  29.575  29.158  1.00  0.00     0.014 A 
ATOM     35  C   UNL A   1      38.019  29.871  27.708  1.00  0.00     0.010 A 
ATOM     36  C   UNL A   1      36.865  29.057  29.657  1.00  0.00     0.010 A 
ATOM     37  C   UNL A   1      38.058  29.200  28.941  1.00  0.00    -0.014 A 
BRANCH  37  38
ATOM     38  C   UNL A   1      39.334  28.686  29.517  1.00  0.00     0.031 A 
ATOM     39  C   UNL A   1      39.990  29.370  30.689  1.00  0.00     0.074 A 
ATOM     40  C   UNL A   1      39.951  27.639  28.930  1.00  0.00     0.049 A 
ATOM     41  N   UNL A   1      41.108  29.070  31.303  1.00  0.00    -0.248 NA
ATOM     42  C   UNL A   1      39.312  30.558  31.228  1.00  0.00     0.031 C 
ATOM     43  C   UNL A   1      39.449  26.917  27.759  1.00  0.00     0.029 A 
ATOM     44  N   UNL A   1      41.134  27.008  29.225  1.00  0.00    -0.354 N 
ATOM     45  C   UNL A   1      41.266  30.023  32.304  1.00  0.00     0.074 A 
ATOM     46  C   UNL A   1      40.159  30.949  32.171  1.00  0.00     0.031 C 
ATOM     47  C   UNL A   1      40.310  25.935  27.445  1.00  0.00     0.029 A 
ATOM     48  C   UNL A   1      41.439  25.974  28.369  1.00  0.00     0.049 A 
ATOM     49  H   UNL A   1      41.710  27.269  29.980  1.00  0.00     0.167 HD
ATOM     50  C   UNL A   1      42.228  30.107  33.260  1.00  0.00     0.034 A 
ATOM     51  C   UNL A   1      42.506  25.151  28.325  1.00  0.00     0.034 A 
ATOM     52  C   UNL A   1      43.333  29.182  33.376  1.00  0.00     0.049 A 
ATOM     53  C   UNL A   1      43.585  25.288  29.369  1.00  0.00     0.074 A 
ATOM     54  C   UNL A   1      44.319  29.136  34.348  1.00  0.00     0.029 A 
ATOM     55  N   UNL A   1      43.616  28.157  32.483  1.00  0.00    -0.354 N 
ATOM     56  N   UNL A   1      43.670  26.142  30.363  1.00  0.00    -0.248 NA
ATOM     57  C   UNL A   1      44.702  24.338  29.296  1.00  0.00     0.031 C 
ATOM     58  C   UNL A   1      45.241  28.145  33.997  1.00  0.00     0.029 A 
ATOM     59  C   UNL A   1      44.784  27.505  32.857  1.00  0.00     0.049 A 
ATOM     60  H   UNL A   1      43.068  27.925  31.699  1.00  0.00     0.167 HD
ATOM     61  C   UNL A   1      44.829  25.802  31.057  1.00  0.00     0.074 A 
ATOM     62  C   UNL A   1      45.402  24.661  30.374  1.00  0.00     0.031 C 
ATOM     63  C   UNL A   1      45.364  26.378  32.164  1.00  0.00     0.034 A 
BRANCH  50  64
ATOM     64  C   UNL A   1      42.145  31.252  34.244  1.00  0.00     0.023 A 
ATOM     65  C   UNL A   1      41.197  31.267  35.282  1.00  0.00     0.031 A 
ATOM     66  C   UNL A   1      43.030  32.343  34.150  1.00  0.00     0.131 A 
ATOM     67  C   UNL A   1      41.108  32.377  36.137  1.00  0.00     0.055 A 
ATOM     68  C   UNL A   1      42.991  33.405  35.056  1.00  0.00     0.041 A 
ATOM     69  F   UNL A   1      43.946  32.398  33.170  1.00  0.00    -0.206 F 
ATOM     70  C   UNL A   1      42.016  33.434  36.048  1.00  0.00     0.022 A 
BRANCH  67  71
ATOM     71  S   UNL A   1      39.698  32.485  37.272  1.00  0.00     0.124 S 
ATOM     72  O   UNL A   1      38.919  31.311  36.885  1.00  0.00    -0.237 OA
ATOM     73  O   UNL A   1      40.339  32.424  38.580  1.00  0.00    -0.237 OA
ATOM     74  O   UNL A   1      39.083  33.768  36.935  1.00  0.00    -0.744 OA
ENDBRANCH  67  71
ENDBRANCH  50  64
BRANCH  51  75
ATOM     75  C   UNL A   1      42.611  24.114  27.259  1.00  0.00     0.023 A 
ATOM     76  C   UNL A   1      41.972  22.872  27.395  1.00  0.00     0.031 A 
ATOM     77  C   UNL A   1      43.388  24.334  26.107  1.00  0.00     0.131 A 
ATOM     78  C   UNL A   1      42.159  21.877  26.424  1.00  0.00     0.055 A 
ATOM     79  C   UNL A   1      43.525  23.361  25.114  1.00  0.00     0.041 A 
ATOM     80  F   UNL A   1      44.016  25.505  25.924  1.00  0.00    -0.206 F 
ATOM     81  C   UNL A   1      42.919  22.118  25.277  1.00  0.00     0.022 A 
BRANCH  78  82
ATOM     82  S   UNL A   1      41.472  20.227  26.729  1.00  0.00     0.124 S 
ATOM     83  O   UNL A   1      40.056  20.526  26.915  1.00  0.00    -0.237 OA
ATOM     84  O   UNL A   1      41.823  19.522  25.500  1.00  0.00    -0.237 OA
ATOM     85  O   UNL A   1      42.179  19.780  27.926  1.00  0.00    -0.744 OA
ENDBRANCH  78  82
ENDBRANCH  51  75
BRANCH  63  86
ATOM     86  C   UNL A   1      46.615  25.747  32.734  1.00  0.00     0.023 A 
ATOM     87  C   UNL A   1      46.561  24.737  33.710  1.00  0.00     0.031 A 
ATOM     88  C   UNL A   1      47.883  26.177  32.301  1.00  0.00     0.131 A 
ATOM     89  C   UNL A   1      47.748  24.235  34.267  1.00  0.00     0.055 A 
ATOM     90  C   UNL A   1      49.061  25.626  32.809  1.00  0.00     0.041 A 
ATOM     91  F   UNL A   1      47.999  27.142  31.375  1.00  0.00    -0.206 F 
ATOM     92  C   UNL A   1      48.998  24.660  33.808  1.00  0.00     0.022 A 
BRANCH  89  93
ATOM     93  S   UNL A   1      47.639  23.096  35.674  1.00  0.00     0.124 S 
ATOM     94  O   UNL A   1      46.266  23.302  36.124  1.00  0.00    -0.237 OA
ATOM     95  O   UNL A   1      47.918  21.805  35.052  1.00  0.00    -0.237 OA
ATOM     96  O   UNL A   1      48.671  23.579  36.589  1.00  0.00    -0.744 OA
ENDBRANCH  89  93
ENDBRANCH  63  86
ENDBRANCH  37  38
ENDBRANCH  29  32
ENDBRANCH  27  28
ENDBRANCH  26  27
ENDBRANCH   1  26
TORSDOF 18
ENDMDL
MODEL 3
REMARK VINA RESULT:     -12.1      0.565      2.193
REMARK SMILES O=C(CCc1nc(-c2ccccc2)c(-c2ccccc2)o1)NCCCCNC(=O)c1ccc(-c2c3nc(c(-c4cc(S(=O)(=O)[O-])ccc4F)c4ccc([nH]4)c(-c4cc(S(=O)(=O)[O-])ccc4F)c4nc(c(-c5cc(S(=O)(=O)[O-])ccc5F)c5ccc2[nH]5)C=C4)C=C3)cc1
REMARK SMILES IDX 24 1 23 2 22 3 1 4 2 5 3 7 4 8 5 9 6 10 21 11 7 12 14 13
REMARK SMILES IDX 8 14 9 15 13 16 10 17 12 18 11 19 15 20 16 21 20 22 17 23
REMARK SMILES IDX 19 24 18 25 25 26 26 27 27 28 28 29 29 31 30 32 31 33 92 34
REMARK SMILES IDX 32 35 91 36 33 37 34 38 35 39 85 40 36 41 90 42 84 43 86 44
REMARK SMILES IDX 37 45 89 46 83 47 82 48 38 50 70 51 50 52 69 53 51 54 54 55
REMARK SMILES IDX 68 56 87 57 52 58 53 59 67 61 88 62 55 63 39 64 40 65 48 66
REMARK SMILES IDX 41 67 47 68 49 69 46 70 42 71 43 72 44 73 45 74 71 75 72 76
REMARK SMILES IDX 80 77 73 78 79 79 81 80 78 81 74 82 75 83 76 84 77 85 56 86
REMARK SMILES IDX 57 87 65 88 58 89 64 90 66 91 63 92 59 93 60 94 61 95 62 96
REMARK H PARENT 22 6 27 30 86 49 54 60
REMARK Flexibility Score: inf
ROOT
ATOM      1  C   UNL A   1      31.685  30.146  26.672  1.00  0.00     0.023 C 
ENDROOT
BRANCH   1   2
ATOM      2  C   UNL A   1      32.354  29.494  25.460  1.00  0.00     0.116 C 
BRANCH   2   3
ATOM      3  N   UNL A   1      31.766  28.211  25.124  1.00  0.00    -0.356 N 
ATOM      4  O   UNL A   1      31.115  28.756  22.986  1.00  0.00    -0.275 OA
ATOM      5  C   UNL A   1      31.211  27.937  23.895  1.00  0.00     0.220 C 
ATOM      6  H   UNL A   1      31.765  27.504  25.809  1.00  0.00     0.163 HD
BRANCH   5   7
ATOM      7  C   UNL A   1      30.694  26.519  23.743  1.00  0.00     0.110 C 
BRANCH   7   8
ATOM      8  C   UNL A   1      31.459  25.725  22.692  1.00  0.00     0.107 C 
BRANCH   8   9
ATOM      9  C   UNL A   1      32.091  24.502  23.248  1.00  0.00     0.196 A 
ATOM     10  N   UNL A   1      31.650  23.264  23.186  1.00  0.00    -0.213 NA
ATOM     11  O   UNL A   1      33.336  24.637  23.801  1.00  0.00    -0.440 OA
ATOM     12  C   UNL A   1      32.649  22.524  23.777  1.00  0.00     0.117 A 
ATOM     13  C   UNL A   1      33.701  23.353  24.125  1.00  0.00     0.162 A 
BRANCH  12  14
ATOM     14  C   UNL A   1      32.587  21.081  23.902  1.00  0.00     0.004 A 
ATOM     15  C   UNL A   1      32.868  20.438  25.115  1.00  0.00     0.010 A 
ATOM     16  C   UNL A   1      32.230  20.306  22.789  1.00  0.00     0.010 A 
ATOM     17  C   UNL A   1      32.819  19.045  25.204  1.00  0.00     0.001 A 
ATOM     18  C   UNL A   1      32.199  18.911  22.875  1.00  0.00     0.001 A 
ATOM     19  C   UNL A   1      32.499  18.282  24.082  1.00  0.00     0.000 A 
ENDBRANCH  12  14
BRANCH  13  20
ATOM     20  C   UNL A   1      35.062  23.168  24.596  1.00  0.00     0.020 A 
ATOM     21  C   UNL A   1      35.932  22.240  24.020  1.00  0.00     0.012 A 
ATOM     22  C   UNL A   1      35.536  23.965  25.643  1.00  0.00     0.012 A 
ATOM     23  C   UNL A   1      37.255  22.141  24.471  1.00  0.00     0.001 A 
ATOM     24  C   UNL A   1      36.845  23.858  26.108  1.00  0.00     0.001 A 
ATOM     25  C   UNL A   1      37.711  22.951  25.512  1.00  0.00     0.000 A 
ENDBRANCH  13  20
ENDBRANCH   8   9
ENDBRANCH   7   8
ENDBRANCH   5   7
ENDBRANCH   2   3
ENDBRANCH   1   2
BRANCH   1  26
ATOM     26  C   UNL A   1      31.594  31.674  26.638  1.00  0.00     0.023 C 
BRANCH  26  27
ATOM     27  C   UNL A   1      32.797  32.434  27.183  1.00  0.00     0.116 C 
BRANCH  27  28
ATOM     28  N   UNL A   1      32.533  33.804  27.569  1.00  0.00    -0.352 N 
ATOM     29  C   UNL A   1      33.143  34.560  28.549  1.00  0.00     0.251 C 
ATOM     30  H   UNL A   1      31.820  34.259  27.063  1.00  0.00     0.163 HD
ATOM     31  O   UNL A   1      32.691  35.678  28.802  1.00  0.00    -0.269 OA
BRANCH  29  32
ATOM     32  C   UNL A   1      34.306  34.044  29.329  1.00  0.00     0.039 A 
ATOM     33  C   UNL A   1      34.071  33.239  30.449  1.00  0.00     0.014 A 
ATOM     34  C   UNL A   1      35.624  34.361  28.996  1.00  0.00     0.014 A 
ATOM     35  C   UNL A   1      35.145  32.709  31.181  1.00  0.00     0.010 A 
ATOM     36  C   UNL A   1      36.695  33.787  29.687  1.00  0.00     0.010 A 
ATOM     37  C   UNL A   1      36.471  32.951  30.787  1.00  0.00    -0.014 A 
BRANCH  37  38
ATOM     38  C   UNL A   1      37.626  32.307  31.477  1.00  0.00     0.031 A 
ATOM     39  C   UNL A   1      38.346  31.136  30.860  1.00  0.00     0.074 A 
ATOM     40  C   UNL A   1      37.981  32.731  32.708  1.00  0.00     0.049 A 
ATOM     41  N   UNL A   1      39.356  30.445  31.329  1.00  0.00    -0.248 NA
ATOM     42  C   UNL A   1      37.855  30.667  29.557  1.00  0.00     0.031 C 
ATOM     43  C   UNL A   1      37.335  33.823  33.440  1.00  0.00     0.029 A 
ATOM     44  N   UNL A   1      38.959  32.292  33.565  1.00  0.00    -0.354 N 
ATOM     45  C   UNL A   1      39.628  29.466  30.378  1.00  0.00     0.074 A 
ATOM     46  C   UNL A   1      38.632  29.615  29.336  1.00  0.00     0.031 C 
ATOM     47  C   UNL A   1      37.942  33.976  34.627  1.00  0.00     0.029 A 
ATOM     48  C   UNL A   1      38.999  32.978  34.758  1.00  0.00     0.049 A 
ATOM     49  H   UNL A   1      39.576  31.556  33.347  1.00  0.00     0.167 HD
ATOM     50  C   UNL A   1      40.626  28.545  30.363  1.00  0.00     0.034 A 
ATOM     51  C   UNL A   1      39.790  32.822  35.839  1.00  0.00     0.034 A 
ATOM     52  C   UNL A   1      41.608  28.401  31.413  1.00  0.00     0.049 A 
ATOM     53  C   UNL A   1      40.865  31.765  35.819  1.00  0.00     0.074 A 
ATOM     54  C   UNL A   1      42.701  27.549  31.460  1.00  0.00     0.029 A 
ATOM     55  N   UNL A   1      41.608  29.103  32.611  1.00  0.00    -0.354 N 
ATOM     56  N   UNL A   1      41.162  30.907  34.871  1.00  0.00    -0.248 NA
ATOM     57  C   UNL A   1      41.723  31.670  37.007  1.00  0.00     0.031 C 
ATOM     58  C   UNL A   1      43.306  27.675  32.715  1.00  0.00     0.029 A 
ATOM     59  C   UNL A   1      42.652  28.672  33.419  1.00  0.00     0.049 A 
ATOM     60  H   UNL A   1      40.962  29.806  32.853  1.00  0.00     0.167 HD
ATOM     61  C   UNL A   1      42.268  30.198  35.334  1.00  0.00     0.074 A 
ATOM     62  C   UNL A   1      42.590  30.737  36.639  1.00  0.00     0.031 C 
ATOM     63  C   UNL A   1      42.961  29.199  34.729  1.00  0.00     0.034 A 
BRANCH  50  64
ATOM     64  C   UNL A   1      40.695  27.603  29.182  1.00  0.00     0.023 A 
ATOM     65  C   UNL A   1      41.632  27.779  28.148  1.00  0.00     0.031 A 
ATOM     66  C   UNL A   1      39.819  26.506  29.089  1.00  0.00     0.131 A 
ATOM     67  C   UNL A   1      41.624  26.921  27.037  1.00  0.00     0.055 A 
ATOM     68  C   UNL A   1      39.871  25.606  28.022  1.00  0.00     0.041 A 
ATOM     69  F   UNL A   1      38.888  26.292  30.034  1.00  0.00    -0.206 F 
ATOM     70  C   UNL A   1      40.768  25.820  26.979  1.00  0.00     0.022 A 
BRANCH  67  71
ATOM     71  S   UNL A   1      42.648  27.351  25.604  1.00  0.00     0.124 S 
ATOM     72  O   UNL A   1      42.148  28.685  25.275  1.00  0.00    -0.237 OA
ATOM     73  O   UNL A   1      43.998  27.291  26.151  1.00  0.00    -0.237 OA
ATOM     74  O   UNL A   1      42.322  26.315  24.625  1.00  0.00    -0.744 OA
ENDBRANCH  67  71
ENDBRANCH  50  64
BRANCH  51  75
ATOM     75  C   UNL A   1      39.606  33.692  37.036  1.00  0.00     0.023 A 
ATOM     76  C   UNL A   1      38.973  33.206  38.191  1.00  0.00     0.031 A 
ATOM     77  C   UNL A   1      40.021  35.036  37.027  1.00  0.00     0.131 A 
ATOM     78  C   UNL A   1      38.728  34.069  39.271  1.00  0.00     0.055 A 
ATOM     79  C   UNL A   1      39.827  35.875  38.126  1.00  0.00     0.041 A 
ATOM     80  F   UNL A   1      40.636  35.550  35.950  1.00  0.00    -0.206 F 
ATOM     81  C   UNL A   1      39.164  35.395  39.252  1.00  0.00     0.022 A 
BRANCH  78  82
ATOM     82  S   UNL A   1      37.743  33.454  40.664  1.00  0.00     0.124 S 
ATOM     83  O   UNL A   1      38.521  32.295  41.088  1.00  0.00    -0.237 OA
ATOM     84  O   UNL A   1      37.753  34.600  41.568  1.00  0.00    -0.237 OA
ATOM     85  O   UNL A   1      36.448  33.151  40.058  1.00  0.00    -0.744 OA
ENDBRANCH  78  82
ENDBRANCH  51  75
BRANCH  63  86
ATOM     86  C   UNL A   1      44.168  28.655  35.459  1.00  0.00     0.023 A 
ATOM     87  C   UNL A   1      44.066  27.603  36.386  1.00  0.00     0.031 A 
ATOM     88  C   UNL A   1      45.440  29.211  35.233  1.00  0.00     0.131 A 
ATOM     89  C   UNL A   1      45.200  27.183  37.098  1.00  0.00     0.055 A 
ATOM     90  C   UNL A   1      46.578  28.743  35.893  1.00  0.00     0.041 A 
ATOM     91  F   UNL A   1      45.601  30.222  34.364  1.00  0.00    -0.206 F 
ATOM     92  C   UNL A   1      46.459  27.733  36.843  1.00  0.00     0.022 A 
BRANCH  89  93
ATOM     93  S   UNL A   1      44.992  25.978  38.439  1.00  0.00     0.124 S 
ATOM     94  O   UNL A   1      44.271  26.760  39.438  1.00  0.00    -0.237 OA
ATOM     95  O   UNL A   1      44.230  24.917  37.789  1.00  0.00    -0.237 OA
ATOM     96  O   UNL A   1      46.364  25.624  38.799  1.00  0.00    -0.744 OA
ENDBRANCH  89  93
ENDBRANCH  63  86
ENDBRANCH  37  38
ENDBRANCH  29  32
ENDBRANCH  27  28
ENDBRANCH  26  27
ENDBRANCH   1  26
TORSDOF 18
ENDMDL
