MODEL 1
REMARK VINA RESULT:      -9.6      0.000      0.000
REMARK SMILES CCC(C)(C)c1ccc(O[C@H](F)C(=O)NCCCCNC(=O)c2ccc(-c3c4nc(c(-c5cc(S(=O)(=O)[O-])ccc5F)c5ccc([nH]5)c(-c5cc(S(=O)(=O)[O-])ccc5F)c5nc(c(-c6cc(S(=O)(=O)[O-])ccc6F)c6ccc3[nH]6)C=C5)C=C4)cc2)cc1
REMARK SMILES IDX 17 1 16 2 15 3 13 4 14 5 11 7 12 8 10 9 9 10 6 11 7 12 87 13
REMARK SMILES IDX 8 14 86 15 3 16 4 17 5 18 2 19 1 20 18 21 19 22 20 23 21 24
REMARK SMILES IDX 22 26 23 27 24 28 85 29 25 30 84 31 26 32 27 33 28 34 78 35
REMARK SMILES IDX 29 36 83 37 77 38 79 39 30 40 82 41 76 42 75 43 31 45 63 46
REMARK SMILES IDX 43 47 62 48 44 49 47 50 61 51 80 52 45 53 46 54 60 56 81 57
REMARK SMILES IDX 48 58 32 59 33 60 41 61 34 62 40 63 42 64 39 65 35 66 36 67
REMARK SMILES IDX 37 68 38 69 64 70 65 71 73 72 66 73 72 74 74 75 71 76 67 77
REMARK SMILES IDX 68 78 69 79 70 80 49 81 50 82 58 83 51 84 57 85 59 86 56 87
REMARK SMILES IDX 52 88 53 89 54 90 55 91
REMARK H PARENT 15 6 20 25 79 44 47 55
REMARK Flexibility Score: inf
ROOT
ATOM      1  C   UNL A   1      33.321  35.239  28.808  1.00  0.00     0.023 C 
ENDROOT
BRANCH   1   2
ATOM      2  C   UNL A   1      33.337  35.819  30.216  1.00  0.00     0.116 C 
BRANCH   2   3
ATOM      3  N   UNL A   1      33.076  34.830  31.246  1.00  0.00    -0.350 N 
ATOM      4  C   UNL A   1      33.939  34.378  32.217  1.00  0.00     0.294 C 
ATOM      5  O   UNL A   1      33.513  33.579  33.057  1.00  0.00    -0.267 OA
ATOM      6  H   UNL A   1      32.175  34.436  31.251  1.00  0.00     0.163 HD
BRANCH   4   7
ATOM      7  C   UNL A   1      35.406  34.847  32.210  1.00  0.00     0.440 C 
ATOM      8  F   UNL A   1      35.664  35.567  33.334  1.00  0.00    -0.191 F 
BRANCH   7   9
ATOM      9  O   UNL A   1      36.271  33.719  32.056  1.00  0.00    -0.452 OA
BRANCH   9  10
ATOM     10  C   UNL A   1      37.568  33.805  31.654  1.00  0.00     0.123 A 
ATOM     11  C   UNL A   1      40.352  34.140  31.119  1.00  0.00    -0.042 A 
ATOM     12  C   UNL A   1      39.426  33.894  30.098  1.00  0.00     0.008 A 
ATOM     13  C   UNL A   1      39.834  34.271  32.419  1.00  0.00     0.008 A 
ATOM     14  C   UNL A   1      38.064  33.708  30.362  1.00  0.00     0.047 A 
ATOM     15  C   UNL A   1      38.465  34.112  32.678  1.00  0.00     0.047 A 
BRANCH  11  16
ATOM     16  C   UNL A   1      41.863  34.279  30.853  1.00  0.00    -0.011 C 
ATOM     17  C   UNL A   1      42.479  35.307  31.829  1.00  0.00     0.016 C 
ATOM     18  C   UNL A   1      42.053  34.801  29.408  1.00  0.00     0.016 C 
BRANCH  16  19
ATOM     19  C   UNL A   1      42.672  32.945  30.960  1.00  0.00     0.008 C 
ATOM     20  C   UNL A   1      42.565  31.997  29.765  1.00  0.00     0.005 C 
ENDBRANCH  16  19
ENDBRANCH  11  16
ENDBRANCH   9  10
ENDBRANCH   7   9
ENDBRANCH   4   7
ENDBRANCH   2   3
ENDBRANCH   1   2
BRANCH   1  21
ATOM     21  C   UNL A   1      34.655  34.676  28.323  1.00  0.00     0.023 C 
BRANCH  21  22
ATOM     22  C   UNL A   1      34.935  33.229  28.714  1.00  0.00     0.116 C 
BRANCH  22  23
ATOM     23  N   UNL A   1      34.160  32.270  27.944  1.00  0.00    -0.352 N 
ATOM     24  C   UNL A   1      34.474  30.982  27.582  1.00  0.00     0.251 C 
ATOM     25  H   UNL A   1      33.281  32.590  27.637  1.00  0.00     0.163 HD
ATOM     26  O   UNL A   1      33.736  30.383  26.800  1.00  0.00    -0.269 OA
BRANCH  24  27
ATOM     27  C   UNL A   1      35.704  30.332  28.090  1.00  0.00     0.039 A 
ATOM     28  C   UNL A   1      36.848  30.346  27.289  1.00  0.00     0.014 A 
ATOM     29  C   UNL A   1      35.743  29.704  29.340  1.00  0.00     0.014 A 
ATOM     30  C   UNL A   1      38.037  29.787  27.763  1.00  0.00     0.010 A 
ATOM     31  C   UNL A   1      36.951  29.225  29.845  1.00  0.00     0.010 A 
ATOM     32  C   UNL A   1      38.113  29.254  29.061  1.00  0.00    -0.014 A 
BRANCH  32  33
ATOM     33  C   UNL A   1      39.406  28.742  29.590  1.00  0.00     0.031 A 
ATOM     34  C   UNL A   1      40.007  29.316  30.847  1.00  0.00     0.074 A 
ATOM     35  C   UNL A   1      40.051  27.761  28.924  1.00  0.00     0.049 A 
ATOM     36  N   UNL A   1      41.096  28.960  31.481  1.00  0.00    -0.248 NA
ATOM     37  C   UNL A   1      39.309  30.458  31.459  1.00  0.00     0.031 C 
ATOM     38  C   UNL A   1      39.599  27.163  27.664  1.00  0.00     0.029 A 
ATOM     39  N   UNL A   1      41.208  27.082  29.212  1.00  0.00    -0.354 N 
ATOM     40  C   UNL A   1      41.218  29.833  32.557  1.00  0.00     0.074 A 
ATOM     41  C   UNL A   1      40.125  30.776  32.453  1.00  0.00     0.031 C 
ATOM     42  C   UNL A   1      40.437  26.171  27.322  1.00  0.00     0.029 A 
ATOM     43  C   UNL A   1      41.508  26.089  28.307  1.00  0.00     0.049 A 
ATOM     44  H   UNL A   1      41.770  27.287  29.994  1.00  0.00     0.167 HD
ATOM     45  C   UNL A   1      42.141  29.835  33.552  1.00  0.00     0.034 A 
ATOM     46  C   UNL A   1      42.528  25.208  28.279  1.00  0.00     0.034 A 
ATOM     47  C   UNL A   1      43.218  28.878  33.648  1.00  0.00     0.049 A 
ATOM     48  C   UNL A   1      43.543  25.237  29.394  1.00  0.00     0.074 A 
ATOM     49  C   UNL A   1      44.164  28.744  34.650  1.00  0.00     0.029 A 
ATOM     50  N   UNL A   1      43.505  27.899  32.704  1.00  0.00    -0.354 N 
ATOM     51  N   UNL A   1      43.591  26.017  30.451  1.00  0.00    -0.248 NA
ATOM     52  C   UNL A   1      44.630  24.254  29.321  1.00  0.00     0.031 C 
ATOM     53  C   UNL A   1      45.068  27.745  34.273  1.00  0.00     0.029 A 
ATOM     54  C   UNL A   1      44.635  27.188  33.080  1.00  0.00     0.049 A 
ATOM     55  H   UNL A   1      42.982  27.735  31.886  1.00  0.00     0.167 HD
ATOM     56  C   UNL A   1      44.695  25.590  31.184  1.00  0.00     0.074 A 
ATOM     57  C   UNL A   1      45.259  24.466  30.465  1.00  0.00     0.031 C 
ATOM     58  C   UNL A   1      45.202  26.082  32.346  1.00  0.00     0.034 A 
BRANCH  45  59
ATOM     59  C   UNL A   1      42.044  30.920  34.600  1.00  0.00     0.023 A 
ATOM     60  C   UNL A   1      42.773  32.118  34.502  1.00  0.00     0.031 A 
ATOM     61  C   UNL A   1      41.207  30.752  35.718  1.00  0.00     0.131 A 
ATOM     62  C   UNL A   1      42.700  33.071  35.531  1.00  0.00     0.055 A 
ATOM     63  C   UNL A   1      41.076  31.739  36.698  1.00  0.00     0.041 A 
ATOM     64  F   UNL A   1      40.503  29.621  35.881  1.00  0.00    -0.206 F 
ATOM     65  C   UNL A   1      41.836  32.902  36.614  1.00  0.00     0.022 A 
BRANCH  62  66
ATOM     66  S   UNL A   1      43.850  34.474  35.499  1.00  0.00     0.124 S 
ATOM     67  O   UNL A   1      44.708  34.127  34.370  1.00  0.00    -0.237 OA
ATOM     68  O   UNL A   1      42.957  35.610  35.299  1.00  0.00    -0.237 OA
ATOM     69  O   UNL A   1      44.500  34.414  36.808  1.00  0.00    -0.744 OA
ENDBRANCH  62  66
ENDBRANCH  45  59
BRANCH  46  70
ATOM     70  C   UNL A   1      42.653  24.214  27.170  1.00  0.00     0.023 A 
ATOM     71  C   UNL A   1      41.994  22.976  27.235  1.00  0.00     0.031 A 
ATOM     72  C   UNL A   1      43.491  24.454  26.068  1.00  0.00     0.131 A 
ATOM     73  C   UNL A   1      42.236  22.000  26.255  1.00  0.00     0.055 A 
ATOM     74  C   UNL A   1      43.677  23.505  25.061  1.00  0.00     0.041 A 
ATOM     75  F   UNL A   1      44.145  25.621  25.953  1.00  0.00    -0.206 F 
ATOM     76  C   UNL A   1      43.062  22.262  25.160  1.00  0.00     0.022 A 
BRANCH  73  77
ATOM     77  S   UNL A   1      41.549  20.337  26.497  1.00  0.00     0.124 S 
ATOM     78  O   UNL A   1      42.159  19.947  27.762  1.00  0.00    -0.237 OA
ATOM     79  O   UNL A   1      40.115  20.606  26.532  1.00  0.00    -0.237 OA
ATOM     80  O   UNL A   1      42.016  19.604  25.324  1.00  0.00    -0.744 OA
ENDBRANCH  73  77
ENDBRANCH  46  70
BRANCH  58  81
ATOM     81  C   UNL A   1      46.407  25.369  32.918  1.00  0.00     0.023 A 
ATOM     82  C   UNL A   1      46.274  24.326  33.852  1.00  0.00     0.031 A 
ATOM     83  C   UNL A   1      47.707  25.780  32.574  1.00  0.00     0.131 A 
ATOM     84  C   UNL A   1      47.412  23.797  34.479  1.00  0.00     0.055 A 
ATOM     85  C   UNL A   1      48.840  25.189  33.138  1.00  0.00     0.041 A 
ATOM     86  F   UNL A   1      47.901  26.771  31.689  1.00  0.00    -0.206 F 
ATOM     87  C   UNL A   1      48.695  24.209  34.115  1.00  0.00     0.022 A 
BRANCH  84  88
ATOM     88  S   UNL A   1      47.182  22.676  35.888  1.00  0.00     0.124 S 
ATOM     89  O   UNL A   1      46.000  21.922  35.485  1.00  0.00    -0.237 OA
ATOM     90  O   UNL A   1      48.438  21.932  35.901  1.00  0.00    -0.237 OA
ATOM     91  O   UNL A   1      46.986  23.582  37.018  1.00  0.00    -0.744 OA
ENDBRANCH  84  88
ENDBRANCH  58  81
ENDBRANCH  32  33
ENDBRANCH  24  27
ENDBRANCH  22  23
ENDBRANCH  21  22
ENDBRANCH   1  21
TORSDOF 18
ENDMDL
MODEL 2
REMARK VINA RESULT:      -9.5      4.228      7.106
REMARK SMILES CCC(C)(C)c1ccc(O[C@H](F)C(=O)NCCCCNC(=O)c2ccc(-c3c4nc(c(-c5cc(S(=O)(=O)[O-])ccc5F)c5ccc([nH]5)c(-c5cc(S(=O)(=O)[O-])ccc5F)c5nc(c(-c6cc(S(=O)(=O)[O-])ccc6F)c6ccc3[nH]6)C=C5)C=C4)cc2)cc1
REMARK SMILES IDX 17 1 16 2 15 3 13 4 14 5 11 7 12 8 10 9 9 10 6 11 7 12 87 13
REMARK SMILES IDX 8 14 86 15 3 16 4 17 5 18 2 19 1 20 18 21 19 22 20 23 21 24
REMARK SMILES IDX 22 26 23 27 24 28 85 29 25 30 84 31 26 32 27 33 28 34 78 35
REMARK SMILES IDX 29 36 83 37 77 38 79 39 30 40 82 41 76 42 75 43 31 45 63 46
REMARK SMILES IDX 43 47 62 48 44 49 47 50 61 51 80 52 45 53 46 54 60 56 81 57
REMARK SMILES IDX 48 58 32 59 33 60 41 61 34 62 40 63 42 64 39 65 35 66 36 67
REMARK SMILES IDX 37 68 38 69 64 70 65 71 73 72 66 73 72 74 74 75 71 76 67 77
REMARK SMILES IDX 68 78 69 79 70 80 49 81 50 82 58 83 51 84 57 85 59 86 56 87
REMARK SMILES IDX 52 88 53 89 54 90 55 91
REMARK H PARENT 15 6 20 25 79 44 47 55
REMARK Flexibility Score: inf
ROOT
ATOM      1  C   UNL A   1      31.824  30.515  26.869  1.00  0.00     0.023 C 
ENDROOT
BRANCH   1   2
ATOM      2  C   UNL A   1      32.302  29.849  25.585  1.00  0.00     0.116 C 
BRANCH   2   3
ATOM      3  N   UNL A   1      31.379  30.013  24.477  1.00  0.00    -0.350 N 
ATOM      4  C   UNL A   1      30.722  29.030  23.776  1.00  0.00     0.294 C 
ATOM      5  O   UNL A   1      29.915  29.367  22.904  1.00  0.00    -0.267 OA
ATOM      6  H   UNL A   1      31.203  30.939  24.192  1.00  0.00     0.163 HD
BRANCH   4   7
ATOM      7  C   UNL A   1      31.030  27.549  24.071  1.00  0.00     0.440 C 
ATOM      8  F   UNL A   1      29.906  26.803  23.907  1.00  0.00    -0.191 F 
BRANCH   7   9
ATOM      9  O   UNL A   1      32.118  27.113  23.251  1.00  0.00    -0.452 OA
BRANCH   9  10
ATOM     10  C   UNL A   1      32.983  26.123  23.600  1.00  0.00     0.123 A 
ATOM     11  C   UNL A   1      34.852  24.226  24.628  1.00  0.00    -0.042 A 
ATOM     12  C   UNL A   1      34.517  24.273  23.269  1.00  0.00     0.008 A 
ATOM     13  C   UNL A   1      34.264  25.199  25.454  1.00  0.00     0.008 A 
ATOM     14  C   UNL A   1      33.584  25.189  22.768  1.00  0.00     0.047 A 
ATOM     15  C   UNL A   1      33.351  26.133  24.946  1.00  0.00     0.047 A 
BRANCH  11  16
ATOM     16  C   UNL A   1      35.824  23.180  25.206  1.00  0.00    -0.011 C 
ATOM     17  C   UNL A   1      36.350  22.267  24.075  1.00  0.00     0.016 C 
ATOM     18  C   UNL A   1      35.048  22.306  26.220  1.00  0.00     0.016 C 
BRANCH  16  19
ATOM     19  C   UNL A   1      37.050  23.779  25.971  1.00  0.00     0.008 C 
ATOM     20  C   UNL A   1      38.298  22.896  26.033  1.00  0.00     0.005 C 
ENDBRANCH  16  19
ENDBRANCH  11  16
ENDBRANCH   9  10
ENDBRANCH   7   9
ENDBRANCH   4   7
ENDBRANCH   2   3
ENDBRANCH   1   2
BRANCH   1  21
ATOM     21  C   UNL A   1      31.719  32.037  26.810  1.00  0.00     0.023 C 
BRANCH  21  22
ATOM     22  C   UNL A   1      32.943  32.797  27.310  1.00  0.00     0.116 C 
BRANCH  22  23
ATOM     23  N   UNL A   1      32.620  34.106  27.851  1.00  0.00    -0.352 N 
ATOM     24  C   UNL A   1      33.226  34.806  28.867  1.00  0.00     0.251 C 
ATOM     25  H   UNL A   1      31.854  34.559  27.429  1.00  0.00     0.163 HD
ATOM     26  O   UNL A   1      32.706  35.845  29.272  1.00  0.00    -0.269 OA
BRANCH  24  27
ATOM     27  C   UNL A   1      34.469  34.301  29.496  1.00  0.00     0.039 A 
ATOM     28  C   UNL A   1      34.365  33.533  30.658  1.00  0.00     0.014 A 
ATOM     29  C   UNL A   1      35.731  34.582  28.962  1.00  0.00     0.014 A 
ATOM     30  C   UNL A   1      35.515  33.000  31.245  1.00  0.00     0.010 A 
ATOM     31  C   UNL A   1      36.868  33.977  29.500  1.00  0.00     0.010 A 
ATOM     32  C   UNL A   1      36.776  33.184  30.651  1.00  0.00    -0.014 A 
BRANCH  32  33
ATOM     33  C   UNL A   1      37.984  32.537  31.234  1.00  0.00     0.031 A 
ATOM     34  C   UNL A   1      38.597  33.056  32.508  1.00  0.00     0.074 A 
ATOM     35  C   UNL A   1      38.540  31.484  30.600  1.00  0.00     0.049 A 
ATOM     36  N   UNL A   1      39.615  32.589  33.186  1.00  0.00    -0.248 NA
ATOM     37  C   UNL A   1      38.008  34.275  33.085  1.00  0.00     0.031 C 
ATOM     38  C   UNL A   1      38.072  30.925  29.327  1.00  0.00     0.029 A 
ATOM     39  N   UNL A   1      39.602  30.684  30.938  1.00  0.00    -0.354 N 
ATOM     40  C   UNL A   1      39.793  33.455  34.260  1.00  0.00     0.074 A 
ATOM     41  C   UNL A   1      38.816  34.513  34.107  1.00  0.00     0.031 C 
ATOM     42  C   UNL A   1      38.807  29.842  29.026  1.00  0.00     0.029 A 
ATOM     43  C   UNL A   1      39.824  29.654  30.052  1.00  0.00     0.049 A 
ATOM     44  H   UNL A   1      40.154  30.834  31.739  1.00  0.00     0.167 HD
ATOM     45  C   UNL A   1      40.672  33.366  35.290  1.00  0.00     0.034 A 
ATOM     46  C   UNL A   1      40.740  28.665  30.069  1.00  0.00     0.034 A 
ATOM     47  C   UNL A   1      41.632  32.297  35.435  1.00  0.00     0.049 A 
ATOM     48  C   UNL A   1      41.709  28.594  31.223  1.00  0.00     0.074 A 
ATOM     49  C   UNL A   1      42.519  32.071  36.473  1.00  0.00     0.029 A 
ATOM     50  N   UNL A   1      41.843  31.282  34.509  1.00  0.00    -0.354 N 
ATOM     51  N   UNL A   1      41.804  29.375  32.275  1.00  0.00    -0.248 NA
ATOM     52  C   UNL A   1      42.682  27.495  31.199  1.00  0.00     0.031 C 
ATOM     53  C   UNL A   1      43.319  30.973  36.139  1.00  0.00     0.029 A 
ATOM     54  C   UNL A   1      42.873  30.454  34.934  1.00  0.00     0.049 A 
ATOM     55  H   UNL A   1      41.336  31.167  33.673  1.00  0.00     0.167 HD
ATOM     56  C   UNL A   1      42.826  28.837  33.054  1.00  0.00     0.074 A 
ATOM     57  C   UNL A   1      43.287  27.650  32.365  1.00  0.00     0.031 C 
ATOM     58  C   UNL A   1      43.340  29.283  34.230  1.00  0.00     0.034 A 
BRANCH  45  59
ATOM     59  C   UNL A   1      40.657  34.467  36.326  1.00  0.00     0.023 A 
ATOM     60  C   UNL A   1      40.113  34.278  37.608  1.00  0.00     0.031 A 
ATOM     61  C   UNL A   1      41.198  35.731  36.024  1.00  0.00     0.131 A 
ATOM     62  C   UNL A   1      40.064  35.347  38.516  1.00  0.00     0.055 A 
ATOM     63  C   UNL A   1      41.220  36.767  36.959  1.00  0.00     0.041 A 
ATOM     64  F   UNL A   1      41.711  35.982  34.809  1.00  0.00    -0.206 F 
ATOM     65  C   UNL A   1      40.639  36.582  38.210  1.00  0.00     0.022 A 
BRANCH  62  66
ATOM     66  S   UNL A   1      39.122  35.141  40.053  1.00  0.00     0.124 S 
ATOM     67  O   UNL A   1      38.433  36.426  40.150  1.00  0.00    -0.237 OA
ATOM     68  O   UNL A   1      38.283  33.986  39.756  1.00  0.00    -0.237 OA
ATOM     69  O   UNL A   1      40.156  34.919  41.062  1.00  0.00    -0.744 OA
ENDBRANCH  62  66
ENDBRANCH  45  59
BRANCH  46  70
ATOM     70  C   UNL A   1      40.795  27.650  28.974  1.00  0.00     0.023 A 
ATOM     71  C   UNL A   1      41.740  27.755  27.940  1.00  0.00     0.031 A 
ATOM     72  C   UNL A   1      39.857  26.606  28.902  1.00  0.00     0.131 A 
ATOM     73  C   UNL A   1      41.685  26.876  26.846  1.00  0.00     0.055 A 
ATOM     74  C   UNL A   1      39.848  25.693  27.845  1.00  0.00     0.041 A 
ATOM     75  F   UNL A   1      38.932  26.455  29.862  1.00  0.00    -0.206 F 
ATOM     76  C   UNL A   1      40.754  25.837  26.799  1.00  0.00     0.022 A 
BRANCH  73  77
ATOM     77  S   UNL A   1      42.772  27.188  25.427  1.00  0.00     0.124 S 
ATOM     78  O   UNL A   1      44.045  27.460  26.082  1.00  0.00    -0.237 OA
ATOM     79  O   UNL A   1      42.681  25.929  24.695  1.00  0.00    -0.237 OA
ATOM     80  O   UNL A   1      42.149  28.335  24.769  1.00  0.00    -0.744 OA
ENDBRANCH  73  77
ENDBRANCH  46  70
BRANCH  58  81
ATOM     81  C   UNL A   1      44.436  28.448  34.853  1.00  0.00     0.023 A 
ATOM     82  C   UNL A   1      44.157  27.467  35.822  1.00  0.00     0.031 A 
ATOM     83  C   UNL A   1      45.783  28.678  34.522  1.00  0.00     0.131 A 
ATOM     84  C   UNL A   1      45.208  26.825  36.492  1.00  0.00     0.055 A 
ATOM     85  C   UNL A   1      46.823  27.973  35.132  1.00  0.00     0.041 A 
ATOM     86  F   UNL A   1      46.115  29.602  33.606  1.00  0.00    -0.206 F 
ATOM     87  C   UNL A   1      46.539  27.058  36.141  1.00  0.00     0.022 A 
BRANCH  84  88
ATOM     88  S   UNL A   1      44.816  25.797  37.936  1.00  0.00     0.124 S 
ATOM     89  O   UNL A   1      44.509  24.512  37.318  1.00  0.00    -0.237 OA
ATOM     90  O   UNL A   1      46.056  25.855  38.704  1.00  0.00    -0.237 OA
ATOM     91  O   UNL A   1      43.677  26.482  38.545  1.00  0.00    -0.744 OA
ENDBRANCH  84  88
ENDBRANCH  58  81
ENDBRANCH  32  33
ENDBRANCH  24  27
ENDBRANCH  22  23
ENDBRANCH  21  22
ENDBRANCH   1  21
TORSDOF 18
ENDMDL
MODEL 3
REMARK VINA RESULT:      -9.4      1.936      2.279
REMARK SMILES CCC(C)(C)c1ccc(O[C@H](F)C(=O)NCCCCNC(=O)c2ccc(-c3c4nc(c(-c5cc(S(=O)(=O)[O-])ccc5F)c5ccc([nH]5)c(-c5cc(S(=O)(=O)[O-])ccc5F)c5nc(c(-c6cc(S(=O)(=O)[O-])ccc6F)c6ccc3[nH]6)C=C5)C=C4)cc2)cc1
REMARK SMILES IDX 17 1 16 2 15 3 13 4 14 5 11 7 12 8 10 9 9 10 6 11 7 12 87 13
REMARK SMILES IDX 8 14 86 15 3 16 4 17 5 18 2 19 1 20 18 21 19 22 20 23 21 24
REMARK SMILES IDX 22 26 23 27 24 28 85 29 25 30 84 31 26 32 27 33 28 34 78 35
REMARK SMILES IDX 29 36 83 37 77 38 79 39 30 40 82 41 76 42 75 43 31 45 63 46
REMARK SMILES IDX 43 47 62 48 44 49 47 50 61 51 80 52 45 53 46 54 60 56 81 57
REMARK SMILES IDX 48 58 32 59 33 60 41 61 34 62 40 63 42 64 39 65 35 66 36 67
REMARK SMILES IDX 37 68 38 69 64 70 65 71 73 72 66 73 72 74 74 75 71 76 67 77
REMARK SMILES IDX 68 78 69 79 70 80 49 81 50 82 58 83 51 84 57 85 59 86 56 87
REMARK SMILES IDX 52 88 53 89 54 90 55 91
REMARK H PARENT 15 6 20 25 79 44 47 55
REMARK Flexibility Score: inf
ROOT
ATOM      1  C   UNL A   1      33.122  35.139  29.179  1.00  0.00     0.023 C 
ENDROOT
BRANCH   1   2
ATOM      2  C   UNL A   1      33.962  35.239  30.446  1.00  0.00     0.116 C 
BRANCH   2   3
ATOM      3  N   UNL A   1      33.368  34.556  31.581  1.00  0.00    -0.350 N 
ATOM      4  C   UNL A   1      33.975  33.674  32.443  1.00  0.00     0.294 C 
ATOM      5  O   UNL A   1      33.324  33.245  33.401  1.00  0.00    -0.267 OA
ATOM      6  H   UNL A   1      32.419  34.747  31.754  1.00  0.00     0.163 HD
BRANCH   4   7
ATOM      7  C   UNL A   1      35.423  33.221  32.176  1.00  0.00     0.440 C 
ATOM      8  F   UNL A   1      35.424  32.133  31.361  1.00  0.00    -0.191 F 
BRANCH   7   9
ATOM      9  O   UNL A   1      36.179  34.316  31.651  1.00  0.00    -0.452 OA
BRANCH   9  10
ATOM     10  C   UNL A   1      37.464  34.213  31.217  1.00  0.00     0.123 A 
ATOM     11  C   UNL A   1      40.253  34.147  30.608  1.00  0.00    -0.042 A 
ATOM     12  C   UNL A   1      39.275  34.008  29.616  1.00  0.00     0.008 A 
ATOM     13  C   UNL A   1      39.792  34.379  31.916  1.00  0.00     0.008 A 
ATOM     14  C   UNL A   1      37.907  34.018  29.916  1.00  0.00     0.047 A 
ATOM     15  C   UNL A   1      38.422  34.416  32.210  1.00  0.00     0.047 A 
BRANCH  11  16
ATOM     16  C   UNL A   1      41.760  34.070  30.303  1.00  0.00    -0.011 C 
ATOM     17  C   UNL A   1      42.574  34.430  31.567  1.00  0.00     0.016 C 
ATOM     18  C   UNL A   1      42.084  35.107  29.201  1.00  0.00     0.016 C 
BRANCH  16  19
ATOM     19  C   UNL A   1      42.251  32.682  29.775  1.00  0.00     0.008 C 
ATOM     20  C   UNL A   1      43.368  32.016  30.579  1.00  0.00     0.005 C 
ENDBRANCH  16  19
ENDBRANCH  11  16
ENDBRANCH   9  10
ENDBRANCH   7   9
ENDBRANCH   4   7
ENDBRANCH   2   3
ENDBRANCH   1   2
BRANCH   1  21
ATOM     21  C   UNL A   1      33.714  34.265  28.075  1.00  0.00     0.023 C 
BRANCH  21  22
ATOM     22  C   UNL A   1      34.271  32.921  28.532  1.00  0.00     0.116 C 
BRANCH  22  23
ATOM     23  N   UNL A   1      33.738  31.798  27.781  1.00  0.00    -0.352 N 
ATOM     24  C   UNL A   1      34.323  30.590  27.482  1.00  0.00     0.251 C 
ATOM     25  H   UNL A   1      32.824  31.919  27.435  1.00  0.00     0.163 HD
ATOM     26  O   UNL A   1      33.753  29.825  26.704  1.00  0.00    -0.269 OA
BRANCH  24  27
ATOM     27  C   UNL A   1      35.640  30.226  28.053  1.00  0.00     0.039 A 
ATOM     28  C   UNL A   1      35.680  29.642  29.321  1.00  0.00     0.014 A 
ATOM     29  C   UNL A   1      36.833  30.459  27.360  1.00  0.00     0.014 A 
ATOM     30  C   UNL A   1      36.903  29.240  29.864  1.00  0.00     0.010 A 
ATOM     31  C   UNL A   1      38.041  29.978  27.866  1.00  0.00     0.010 A 
ATOM     32  C   UNL A   1      38.093  29.369  29.127  1.00  0.00    -0.014 A 
BRANCH  32  33
ATOM     33  C   UNL A   1      39.378  28.856  29.677  1.00  0.00     0.031 A 
ATOM     34  C   UNL A   1      39.988  29.470  30.910  1.00  0.00     0.074 A 
ATOM     35  C   UNL A   1      40.005  27.839  29.050  1.00  0.00     0.049 A 
ATOM     36  N   UNL A   1      41.071  29.121  31.558  1.00  0.00    -0.248 NA
ATOM     37  C   UNL A   1      39.310  30.646  31.476  1.00  0.00     0.031 C 
ATOM     38  C   UNL A   1      39.544  27.200  27.814  1.00  0.00     0.029 A 
ATOM     39  N   UNL A   1      41.151  27.153  29.365  1.00  0.00    -0.354 N 
ATOM     40  C   UNL A   1      41.208  30.033  32.599  1.00  0.00     0.074 A 
ATOM     41  C   UNL A   1      40.131  30.990  32.457  1.00  0.00     0.031 C 
ATOM     42  C   UNL A   1      40.365  26.181  27.512  1.00  0.00     0.029 A 
ATOM     43  C   UNL A   1      41.435  26.120  28.500  1.00  0.00     0.049 A 
ATOM     44  H   UNL A   1      41.717  27.379  30.139  1.00  0.00     0.167 HD
ATOM     45  C   UNL A   1      42.131  30.058  33.593  1.00  0.00     0.034 A 
ATOM     46  C   UNL A   1      42.440  25.221  28.507  1.00  0.00     0.034 A 
ATOM     47  C   UNL A   1      43.192  29.088  33.728  1.00  0.00     0.049 A 
ATOM     48  C   UNL A   1      43.455  25.278  29.621  1.00  0.00     0.074 A 
ATOM     49  C   UNL A   1      44.136  28.978  34.735  1.00  0.00     0.029 A 
ATOM     50  N   UNL A   1      43.462  28.068  32.823  1.00  0.00    -0.354 N 
ATOM     51  N   UNL A   1      43.516  26.097  30.647  1.00  0.00    -0.248 NA
ATOM     52  C   UNL A   1      44.525  24.274  29.587  1.00  0.00     0.031 C 
ATOM     53  C   UNL A   1      45.022  27.950  34.398  1.00  0.00     0.029 A 
ATOM     54  C   UNL A   1      44.581  27.354  33.228  1.00  0.00     0.049 A 
ATOM     55  H   UNL A   1      42.936  27.880  32.012  1.00  0.00     0.167 HD
ATOM     56  C   UNL A   1      44.613  25.681  31.397  1.00  0.00     0.074 A 
ATOM     57  C   UNL A   1      45.158  24.521  30.722  1.00  0.00     0.031 C 
ATOM     58  C   UNL A   1      45.129  26.210  32.538  1.00  0.00     0.034 A 
BRANCH  45  59
ATOM     59  C   UNL A   1      42.053  31.186  34.598  1.00  0.00     0.023 A 
ATOM     60  C   UNL A   1      41.019  31.268  35.548  1.00  0.00     0.031 A 
ATOM     61  C   UNL A   1      43.030  32.197  34.605  1.00  0.00     0.131 A 
ATOM     62  C   UNL A   1      40.952  32.366  36.420  1.00  0.00     0.055 A 
ATOM     63  C   UNL A   1      43.004  33.244  35.529  1.00  0.00     0.041 A 
ATOM     64  F   UNL A   1      44.030  32.188  33.709  1.00  0.00    -0.206 F 
ATOM     65  C   UNL A   1      41.952  33.340  36.435  1.00  0.00     0.022 A 
BRANCH  62  66
ATOM     66  S   UNL A   1      39.469  32.573  37.444  1.00  0.00     0.124 S 
ATOM     67  O   UNL A   1      40.046  32.666  38.783  1.00  0.00    -0.237 OA
ATOM     68  O   UNL A   1      38.886  33.800  36.912  1.00  0.00    -0.237 OA
ATOM     69  O   UNL A   1      38.702  31.355  37.187  1.00  0.00    -0.744 OA
ENDBRANCH  62  66
ENDBRANCH  45  59
BRANCH  46  70
ATOM     70  C   UNL A   1      42.547  24.182  27.439  1.00  0.00     0.023 A 
ATOM     71  C   UNL A   1      41.828  22.979  27.528  1.00  0.00     0.031 A 
ATOM     72  C   UNL A   1      43.426  24.343  26.354  1.00  0.00     0.131 A 
ATOM     73  C   UNL A   1      42.051  21.957  26.591  1.00  0.00     0.055 A 
ATOM     74  C   UNL A   1      43.595  23.349  25.387  1.00  0.00     0.041 A 
ATOM     75  F   UNL A   1      44.138  25.473  26.216  1.00  0.00    -0.206 F 
ATOM     76  C   UNL A   1      42.918  22.140  25.512  1.00  0.00     0.022 A 
BRANCH  73  77
ATOM     77  S   UNL A   1      41.279  20.339  26.872  1.00  0.00     0.124 S 
ATOM     78  O   UNL A   1      40.130  20.400  25.978  1.00  0.00    -0.237 OA
ATOM     79  O   UNL A   1      42.348  19.424  26.484  1.00  0.00    -0.237 OA
ATOM     80  O   UNL A   1      40.964  20.358  28.299  1.00  0.00    -0.744 OA
ENDBRANCH  73  77
ENDBRANCH  46  70
BRANCH  58  81
ATOM     81  C   UNL A   1      46.321  25.500  33.138  1.00  0.00     0.023 A 
ATOM     82  C   UNL A   1      47.639  25.827  32.769  1.00  0.00     0.031 A 
ATOM     83  C   UNL A   1      46.137  24.439  34.043  1.00  0.00     0.131 A 
ATOM     84  C   UNL A   1      48.709  25.043  33.225  1.00  0.00     0.055 A 
ATOM     85  C   UNL A   1      47.214  23.717  34.560  1.00  0.00     0.041 A 
ATOM     86  F   UNL A   1      44.904  24.078  34.433  1.00  0.00    -0.206 F 
ATOM     87  C   UNL A   1      48.507  24.002  34.133  1.00  0.00     0.022 A 
BRANCH  84  88
ATOM     88  S   UNL A   1      50.349  25.306  32.492  1.00  0.00     0.124 S 
ATOM     89  O   UNL A   1      50.529  24.086  31.712  1.00  0.00    -0.237 OA
ATOM     90  O   UNL A   1      50.153  26.531  31.724  1.00  0.00    -0.237 OA
ATOM     91  O   UNL A   1      51.226  25.435  33.654  1.00  0.00    -0.744 OA
ENDBRANCH  84  88
ENDBRANCH  58  81
ENDBRANCH  32  33
ENDBRANCH  24  27
ENDBRANCH  22  23
ENDBRANCH  21  22
ENDBRANCH   1  21
TORSDOF 18
ENDMDL
