MODEL 1
REMARK VINA RESULT:     -11.5      0.000      0.000
REMARK SMILES COc1ccccc1C[N@@H+](C)[C@@H](C)c1ccc(C(=O)NCCCCNC(=O)c2ccc(-c3c4nc(c(-c5cc(S(=O)(=O)[O-])ccc5F)c5ccc([nH]5)c(-c5cc(S(=O)(=O)[O-])ccc5F)c5nc(c(-c6cc(S(=O)(=O)[O-])ccc6F)c6ccc3[nH]6)C=C5)C=C4)cc2)o1
REMARK SMILES IDX 21 1 20 2 18 3 19 4 17 6 14 7 15 8 91 9 16 10 12 11 13 12
REMARK SMILES IDX 10 13 11 14 9 16 8 17 3 18 4 19 5 20 7 21 6 22 2 23 1 24
REMARK SMILES IDX 22 25 23 26 24 27 25 28 26 29 27 31 28 32 29 33 90 34 30 35
REMARK SMILES IDX 89 36 31 37 32 38 33 39 83 40 34 41 88 42 82 43 84 44 35 45
REMARK SMILES IDX 87 46 81 47 80 48 36 50 68 51 48 52 67 53 49 54 52 55 66 56
REMARK SMILES IDX 85 57 50 58 51 59 65 61 86 62 53 63 37 64 38 65 46 66 39 67
REMARK SMILES IDX 45 68 47 69 44 70 40 71 41 72 42 73 43 74 69 75 70 76 78 77
REMARK SMILES IDX 71 78 77 79 79 80 76 81 72 82 73 83 74 84 75 85 54 86 55 87
REMARK SMILES IDX 63 88 56 89 62 90 64 91 61 92 57 93 58 94 59 95 60 96
REMARK H PARENT 20 5 10 15 25 30 84 49 52 60
REMARK Flexibility Score: inf
ROOT
ATOM      1  C   UNL A   1      33.540  28.296  22.947  1.00  0.00     0.116 C 
ENDROOT
BRANCH   1   2
ATOM      2  N   UNL A   1      33.265  27.449  21.802  1.00  0.00    -0.349 N 
ATOM      3  C   UNL A   1      33.175  26.073  21.753  1.00  0.00     0.287 C 
ATOM      4  O   UNL A   1      33.158  25.551  20.634  1.00  0.00    -0.266 OA
ATOM      5  H   UNL A   1      33.123  27.918  20.948  1.00  0.00     0.163 HD
BRANCH   3   6
ATOM      6  C   UNL A   1      33.088  25.322  22.984  1.00  0.00     0.191 A 
ATOM      7  C   UNL A   1      33.815  23.883  24.496  1.00  0.00     0.161 A 
ATOM      8  C   UNL A   1      32.578  24.320  24.927  1.00  0.00     0.053 A 
ATOM      9  O   UNL A   1      34.109  24.461  23.293  1.00  0.00    -0.450 OA
ATOM     10  C   UNL A   1      32.118  25.247  23.965  1.00  0.00     0.057 A 
BRANCH   7  11
ATOM     11  C   UNL A   1      34.825  22.907  25.037  1.00  0.00     0.248 C 
ATOM     12  C   UNL A   1      35.889  22.579  23.974  1.00  0.00     0.084 C 
BRANCH  11  13
ATOM     13  N   UNL A   1      34.213  21.730  25.707  1.00  0.00    -0.325 N 
ATOM     14  C   UNL A   1      34.185  21.904  27.161  1.00  0.00     0.333 C 
ATOM     15  H   UNL A   1      33.262  21.698  25.336  1.00  0.00     0.348 HD
BRANCH  13  16
ATOM     16  C   UNL A   1      34.815  20.429  25.373  1.00  0.00     0.303 C 
BRANCH  16  17
ATOM     17  C   UNL A   1      33.985  19.555  24.460  1.00  0.00     0.048 A 
ATOM     18  C   UNL A   1      34.234  18.187  24.270  1.00  0.00     0.127 A 
ATOM     19  C   UNL A   1      33.443  17.434  23.395  1.00  0.00     0.047 A 
ATOM     20  C   UNL A   1      32.367  18.024  22.732  1.00  0.00     0.004 A 
ATOM     21  C   UNL A   1      32.894  20.131  23.780  1.00  0.00     0.013 A 
ATOM     22  C   UNL A   1      32.093  19.375  22.922  1.00  0.00     0.001 A 
BRANCH  18  23
ATOM     23  O   UNL A   1      35.330  17.551  24.793  1.00  0.00    -0.496 OA
ATOM     24  C   UNL A   1      35.116  16.163  25.027  1.00  0.00     0.278 C 
ENDBRANCH  18  23
ENDBRANCH  16  17
ENDBRANCH  13  16
ENDBRANCH  11  13
ENDBRANCH   7  11
ENDBRANCH   3   6
ENDBRANCH   1   2
BRANCH   1  25
ATOM     25  C   UNL A   1      32.285  29.015  23.441  1.00  0.00     0.023 C 
BRANCH  25  26
ATOM     26  C   UNL A   1      31.960  28.824  24.924  1.00  0.00     0.023 C 
BRANCH  26  27
ATOM     27  C   UNL A   1      32.980  29.396  25.907  1.00  0.00     0.116 C 
BRANCH  27  28
ATOM     28  N   UNL A   1      32.660  30.747  26.340  1.00  0.00    -0.352 N 
ATOM     29  C   UNL A   1      33.327  31.572  27.215  1.00  0.00     0.251 C 
ATOM     30  H   UNL A   1      31.842  31.129  25.946  1.00  0.00     0.163 HD
ATOM     31  O   UNL A   1      32.813  32.639  27.541  1.00  0.00    -0.269 OA
BRANCH  29  32
ATOM     32  C   UNL A   1      34.630  31.166  27.791  1.00  0.00     0.039 A 
ATOM     33  C   UNL A   1      35.644  32.124  27.901  1.00  0.00     0.014 A 
ATOM     34  C   UNL A   1      34.864  29.856  28.219  1.00  0.00     0.014 A 
ATOM     35  C   UNL A   1      36.856  31.790  28.511  1.00  0.00     0.010 A 
ATOM     36  C   UNL A   1      36.048  29.542  28.884  1.00  0.00     0.010 A 
ATOM     37  C   UNL A   1      37.053  30.508  29.047  1.00  0.00    -0.014 A 
BRANCH  37  38
ATOM     38  C   UNL A   1      38.289  30.172  29.802  1.00  0.00     0.031 A 
ATOM     39  C   UNL A   1      39.274  29.177  29.252  1.00  0.00     0.074 A 
ATOM     40  C   UNL A   1      38.486  30.710  31.022  1.00  0.00     0.049 A 
ATOM     41  N   UNL A   1      40.367  28.704  29.797  1.00  0.00    -0.248 NA
ATOM     42  C   UNL A   1      38.973  28.619  27.926  1.00  0.00     0.031 C 
ATOM     43  C   UNL A   1      37.576  31.644  31.690  1.00  0.00     0.029 A 
ATOM     44  N   UNL A   1      39.507  30.542  31.923  1.00  0.00    -0.354 N 
ATOM     45  C   UNL A   1      40.876  27.780  28.890  1.00  0.00     0.074 A 
ATOM     46  C   UNL A   1      39.941  27.725  27.785  1.00  0.00     0.031 C 
ATOM     47  C   UNL A   1      38.089  31.978  32.885  1.00  0.00     0.029 A 
ATOM     48  C   UNL A   1      39.343  31.260  33.085  1.00  0.00     0.049 A 
ATOM     49  H   UNL A   1      40.284  29.962  31.753  1.00  0.00     0.167 HD
ATOM     50  C   UNL A   1      42.023  27.059  28.964  1.00  0.00     0.034 A 
ATOM     51  C   UNL A   1      40.111  31.326  34.190  1.00  0.00     0.034 A 
ATOM     52  C   UNL A   1      42.953  27.134  30.065  1.00  0.00     0.049 A 
ATOM     53  C   UNL A   1      41.390  30.533  34.241  1.00  0.00     0.074 A 
ATOM     54  C   UNL A   1      44.171  26.490  30.214  1.00  0.00     0.029 A 
ATOM     55  N   UNL A   1      42.769  27.897  31.211  1.00  0.00    -0.354 N 
ATOM     56  N   UNL A   1      41.882  29.701  33.353  1.00  0.00    -0.248 NA
ATOM     57  C   UNL A   1      42.223  30.701  35.439  1.00  0.00     0.031 C 
ATOM     58  C   UNL A   1      44.697  26.824  31.468  1.00  0.00     0.029 A 
ATOM     59  C   UNL A   1      43.839  27.724  32.079  1.00  0.00     0.049 A 
ATOM     60  H   UNL A   1      41.993  28.476  31.384  1.00  0.00     0.167 HD
ATOM     61  C   UNL A   1      43.095  29.265  33.876  1.00  0.00     0.074 A 
ATOM     62  C   UNL A   1      43.266  29.938  35.148  1.00  0.00     0.031 C 
ATOM     63  C   UNL A   1      43.989  28.389  33.351  1.00  0.00     0.034 A 
BRANCH  50  64
ATOM     64  C   UNL A   1      42.312  26.108  27.828  1.00  0.00     0.023 A 
ATOM     65  C   UNL A   1      41.775  24.808  27.799  1.00  0.00     0.031 A 
ATOM     66  C   UNL A   1      43.163  26.490  26.775  1.00  0.00     0.131 A 
ATOM     67  C   UNL A   1      42.159  23.912  26.790  1.00  0.00     0.055 A 
ATOM     68  C   UNL A   1      43.477  25.620  25.730  1.00  0.00     0.041 A 
ATOM     69  F   UNL A   1      43.719  27.712  26.756  1.00  0.00    -0.206 F 
ATOM     70  C   UNL A   1      42.987  24.318  25.741  1.00  0.00     0.022 A 
BRANCH  67  71
ATOM     71  S   UNL A   1      41.674  22.172  26.947  1.00  0.00     0.124 S 
ATOM     72  O   UNL A   1      40.258  22.291  27.288  1.00  0.00    -0.237 OA
ATOM     73  O   UNL A   1      41.969  21.642  25.620  1.00  0.00    -0.237 OA
ATOM     74  O   UNL A   1      42.528  21.674  28.023  1.00  0.00    -0.744 OA
ENDBRANCH  67  71
ENDBRANCH  50  64
BRANCH  51  75
ATOM     75  C   UNL A   1      39.699  32.175  35.341  1.00  0.00     0.023 A 
ATOM     76  C   UNL A   1      38.900  31.654  36.371  1.00  0.00     0.031 A 
ATOM     77  C   UNL A   1      40.071  33.528  35.410  1.00  0.00     0.131 A 
ATOM     78  C   UNL A   1      38.463  32.493  37.406  1.00  0.00     0.055 A 
ATOM     79  C   UNL A   1      39.668  34.349  36.464  1.00  0.00     0.041 A 
ATOM     80  F   UNL A   1      40.843  34.069  34.455  1.00  0.00    -0.206 F 
ATOM     81  C   UNL A   1      38.848  33.835  37.465  1.00  0.00     0.022 A 
BRANCH  78  82
ATOM     82  S   UNL A   1      37.323  31.819  38.646  1.00  0.00     0.124 S 
ATOM     83  O   UNL A   1      36.186  32.726  38.533  1.00  0.00    -0.237 OA
ATOM     84  O   UNL A   1      37.113  30.461  38.156  1.00  0.00    -0.237 OA
ATOM     85  O   UNL A   1      38.080  31.918  39.893  1.00  0.00    -0.744 OA
ENDBRANCH  78  82
ENDBRANCH  51  75
BRANCH  63  86
ATOM     86  C   UNL A   1      45.248  28.148  34.145  1.00  0.00     0.023 A 
ATOM     87  C   UNL A   1      45.339  27.109  35.087  1.00  0.00     0.031 A 
ATOM     88  C   UNL A   1      46.358  28.996  33.983  1.00  0.00     0.131 A 
ATOM     89  C   UNL A   1      46.494  26.977  35.873  1.00  0.00     0.055 A 
ATOM     90  C   UNL A   1      47.524  28.829  34.730  1.00  0.00     0.041 A 
ATOM     91  F   UNL A   1      46.322  30.005  33.099  1.00  0.00    -0.206 F 
ATOM     92  C   UNL A   1      47.592  27.823  35.691  1.00  0.00     0.022 A 
BRANCH  89  93
ATOM     93  S   UNL A   1      46.507  25.745  37.204  1.00  0.00     0.124 S 
ATOM     94  O   UNL A   1      47.281  26.422  38.238  1.00  0.00    -0.237 OA
ATOM     95  O   UNL A   1      45.084  25.572  37.481  1.00  0.00    -0.237 OA
ATOM     96  O   UNL A   1      47.164  24.589  36.595  1.00  0.00    -0.744 OA
ENDBRANCH  89  93
ENDBRANCH  63  86
ENDBRANCH  37  38
ENDBRANCH  29  32
ENDBRANCH  27  28
ENDBRANCH  26  27
ENDBRANCH  25  26
ENDBRANCH   1  25
TORSDOF 19
ENDMDL
MODEL 2
REMARK VINA RESULT:     -11.4      4.928      8.111
REMARK SMILES COc1ccccc1C[N@@H+](C)[C@@H](C)c1ccc(C(=O)NCCCCNC(=O)c2ccc(-c3c4nc(c(-c5cc(S(=O)(=O)[O-])ccc5F)c5ccc([nH]5)c(-c5cc(S(=O)(=O)[O-])ccc5F)c5nc(c(-c6cc(S(=O)(=O)[O-])ccc6F)c6ccc3[nH]6)C=C5)C=C4)cc2)o1
REMARK SMILES IDX 21 1 20 2 18 3 19 4 17 6 14 7 15 8 91 9 16 10 12 11 13 12
REMARK SMILES IDX 10 13 11 14 9 16 8 17 3 18 4 19 5 20 7 21 6 22 2 23 1 24
REMARK SMILES IDX 22 25 23 26 24 27 25 28 26 29 27 31 28 32 29 33 90 34 30 35
REMARK SMILES IDX 89 36 31 37 32 38 33 39 83 40 34 41 88 42 82 43 84 44 35 45
REMARK SMILES IDX 87 46 81 47 80 48 36 50 68 51 48 52 67 53 49 54 52 55 66 56
REMARK SMILES IDX 85 57 50 58 51 59 65 61 86 62 53 63 37 64 38 65 46 66 39 67
REMARK SMILES IDX 45 68 47 69 44 70 40 71 41 72 42 73 43 74 69 75 70 76 78 77
REMARK SMILES IDX 71 78 77 79 79 80 76 81 72 82 73 83 74 84 75 85 54 86 55 87
REMARK SMILES IDX 63 88 56 89 62 90 64 91 61 92 57 93 58 94 59 95 60 96
REMARK H PARENT 20 5 10 15 25 30 84 49 52 60
REMARK Flexibility Score: inf
ROOT
ATOM      1  C   UNL A   1      34.177  20.115  25.419  1.00  0.00     0.116 C 
ENDROOT
BRANCH   1   2
ATOM      2  N   UNL A   1      33.788  20.696  26.689  1.00  0.00    -0.349 N 
ATOM      3  C   UNL A   1      33.054  21.841  26.922  1.00  0.00     0.287 C 
ATOM      4  O   UNL A   1      33.035  22.271  28.079  1.00  0.00    -0.266 OA
ATOM      5  H   UNL A   1      34.087  20.209  27.491  1.00  0.00     0.163 HD
BRANCH   3   6
ATOM      6  C   UNL A   1      32.341  22.462  25.829  1.00  0.00     0.191 A 
ATOM      7  C   UNL A   1      32.138  23.818  24.095  1.00  0.00     0.161 A 
ATOM      8  C   UNL A   1      30.906  23.223  24.279  1.00  0.00     0.053 A 
ATOM      9  O   UNL A   1      33.002  23.386  25.063  1.00  0.00    -0.450 OA
ATOM     10  C   UNL A   1      31.038  22.349  25.381  1.00  0.00     0.057 A 
BRANCH   7  11
ATOM     11  C   UNL A   1      32.675  24.834  23.122  1.00  0.00     0.248 C 
ATOM     12  C   UNL A   1      34.192  24.658  22.932  1.00  0.00     0.084 C 
BRANCH  11  13
ATOM     13  N   UNL A   1      32.227  26.223  23.409  1.00  0.00    -0.325 N 
ATOM     14  C   UNL A   1      31.633  26.842  22.223  1.00  0.00     0.333 C 
ATOM     15  H   UNL A   1      31.525  26.112  24.142  1.00  0.00     0.348 HD
BRANCH  13  16
ATOM     16  C   UNL A   1      33.255  27.113  23.973  1.00  0.00     0.303 C 
BRANCH  16  17
ATOM     17  C   UNL A   1      32.798  27.959  25.140  1.00  0.00     0.048 A 
ATOM     18  C   UNL A   1      32.112  27.434  26.246  1.00  0.00     0.127 A 
ATOM     19  C   UNL A   1      31.695  28.270  27.288  1.00  0.00     0.047 A 
ATOM     20  C   UNL A   1      31.995  29.631  27.263  1.00  0.00     0.004 A 
ATOM     21  C   UNL A   1      33.089  29.337  25.134  1.00  0.00     0.013 A 
ATOM     22  C   UNL A   1      32.691  30.167  26.183  1.00  0.00     0.001 A 
BRANCH  18  23
ATOM     23  O   UNL A   1      31.681  26.134  26.305  1.00  0.00    -0.496 OA
ATOM     24  C   UNL A   1      30.263  26.009  26.272  1.00  0.00     0.278 C 
ENDBRANCH  18  23
ENDBRANCH  16  17
ENDBRANCH  13  16
ENDBRANCH  11  13
ENDBRANCH   7  11
ENDBRANCH   3   6
ENDBRANCH   1   2
BRANCH   1  25
ATOM     25  C   UNL A   1      35.290  20.914  24.741  1.00  0.00     0.023 C 
BRANCH  25  26
ATOM     26  C   UNL A   1      36.390  21.428  25.673  1.00  0.00     0.023 C 
BRANCH  26  27
ATOM     27  C   UNL A   1      37.793  21.491  25.072  1.00  0.00     0.116 C 
BRANCH  27  28
ATOM     28  N   UNL A   1      38.723  20.563  25.696  1.00  0.00    -0.352 N 
ATOM     29  C   UNL A   1      39.834  20.816  26.467  1.00  0.00     0.251 C 
ATOM     30  H   UNL A   1      38.527  19.611  25.546  1.00  0.00     0.163 HD
ATOM     31  O   UNL A   1      40.560  19.881  26.796  1.00  0.00    -0.269 OA
BRANCH  29  32
ATOM     32  C   UNL A   1      40.178  22.201  26.864  1.00  0.00     0.039 A 
ATOM     33  C   UNL A   1      41.127  22.394  27.874  1.00  0.00     0.014 A 
ATOM     34  C   UNL A   1      39.576  23.307  26.258  1.00  0.00     0.014 A 
ATOM     35  C   UNL A   1      41.528  23.688  28.216  1.00  0.00     0.010 A 
ATOM     36  C   UNL A   1      40.023  24.594  26.555  1.00  0.00     0.010 A 
ATOM     37  C   UNL A   1      41.012  24.798  27.530  1.00  0.00    -0.014 A 
BRANCH  37  38
ATOM     38  C   UNL A   1      41.514  26.171  27.800  1.00  0.00     0.031 A 
ATOM     39  C   UNL A   1      42.899  26.576  27.373  1.00  0.00     0.074 A 
ATOM     40  C   UNL A   1      40.747  27.031  28.499  1.00  0.00     0.049 A 
ATOM     41  N   UNL A   1      43.536  27.700  27.584  1.00  0.00    -0.248 NA
ATOM     42  C   UNL A   1      43.679  25.571  26.637  1.00  0.00     0.031 C 
ATOM     43  C   UNL A   1      39.408  26.739  29.018  1.00  0.00     0.029 A 
ATOM     44  N   UNL A   1      40.984  28.320  28.904  1.00  0.00    -0.354 N 
ATOM     45  C   UNL A   1      44.798  27.534  27.024  1.00  0.00     0.074 A 
ATOM     46  C   UNL A   1      44.849  26.180  26.510  1.00  0.00     0.031 C 
ATOM     47  C   UNL A   1      38.938  27.822  29.656  1.00  0.00     0.029 A 
ATOM     48  C   UNL A   1      39.950  28.873  29.623  1.00  0.00     0.049 A 
ATOM     49  H   UNL A   1      41.816  28.804  28.699  1.00  0.00     0.167 HD
ATOM     50  C   UNL A   1      45.813  28.430  26.931  1.00  0.00     0.034 A 
ATOM     51  C   UNL A   1      39.832  30.086  30.198  1.00  0.00     0.034 A 
ATOM     52  C   UNL A   1      45.744  29.781  27.435  1.00  0.00     0.049 A 
ATOM     53  C   UNL A   1      40.963  31.072  30.065  1.00  0.00     0.074 A 
ATOM     54  C   UNL A   1      46.691  30.788  27.343  1.00  0.00     0.029 A 
ATOM     55  N   UNL A   1      44.666  30.316  28.130  1.00  0.00    -0.354 N 
ATOM     56  N   UNL A   1      42.131  30.915  29.488  1.00  0.00    -0.248 NA
ATOM     57  C   UNL A   1      40.749  32.403  30.647  1.00  0.00     0.031 C 
ATOM     58  C   UNL A   1      46.208  31.912  28.025  1.00  0.00     0.029 A 
ATOM     59  C   UNL A   1      44.934  31.630  28.490  1.00  0.00     0.049 A 
ATOM     60  H   UNL A   1      43.834  29.835  28.338  1.00  0.00     0.167 HD
ATOM     61  C   UNL A   1      42.783  32.138  29.618  1.00  0.00     0.074 A 
ATOM     62  C   UNL A   1      41.871  33.023  30.314  1.00  0.00     0.031 C 
ATOM     63  C   UNL A   1      44.022  32.497  29.198  1.00  0.00     0.034 A 
BRANCH  50  64
ATOM     64  C   UNL A   1      47.090  27.959  26.280  1.00  0.00     0.023 A 
ATOM     65  C   UNL A   1      47.313  28.109  24.900  1.00  0.00     0.031 A 
ATOM     66  C   UNL A   1      48.086  27.320  27.040  1.00  0.00     0.131 A 
ATOM     67  C   UNL A   1      48.459  27.554  24.309  1.00  0.00     0.055 A 
ATOM     68  C   UNL A   1      49.262  26.841  26.460  1.00  0.00     0.041 A 
ATOM     69  F   UNL A   1      47.922  27.132  28.360  1.00  0.00    -0.206 F 
ATOM     70  C   UNL A   1      49.446  26.942  25.085  1.00  0.00     0.022 A 
BRANCH  67  71
ATOM     71  S   UNL A   1      48.570  27.518  22.500  1.00  0.00     0.124 S 
ATOM     72  O   UNL A   1      47.349  28.224  22.116  1.00  0.00    -0.237 OA
ATOM     73  O   UNL A   1      49.821  28.224  22.247  1.00  0.00    -0.237 OA
ATOM     74  O   UNL A   1      48.581  26.092  22.185  1.00  0.00    -0.744 OA
ENDBRANCH  67  71
ENDBRANCH  50  64
BRANCH  51  75
ATOM     75  C   UNL A   1      38.599  30.443  30.953  1.00  0.00     0.023 A 
ATOM     76  C   UNL A   1      37.556  31.148  30.335  1.00  0.00     0.031 A 
ATOM     77  C   UNL A   1      38.464  30.111  32.311  1.00  0.00     0.131 A 
ATOM     78  C   UNL A   1      36.437  31.539  31.087  1.00  0.00     0.055 A 
ATOM     79  C   UNL A   1      37.331  30.465  33.045  1.00  0.00     0.041 A 
ATOM     80  F   UNL A   1      39.431  29.427  32.943  1.00  0.00    -0.206 F 
ATOM     81  C   UNL A   1      36.313  31.193  32.435  1.00  0.00     0.022 A 
BRANCH  78  82
ATOM     82  S   UNL A   1      35.172  32.564  30.289  1.00  0.00     0.124 S 
ATOM     83  O   UNL A   1      35.938  33.747  29.914  1.00  0.00    -0.237 OA
ATOM     84  O   UNL A   1      34.735  31.707  29.193  1.00  0.00    -0.237 OA
ATOM     85  O   UNL A   1      34.184  32.770  31.348  1.00  0.00    -0.744 OA
ENDBRANCH  78  82
ENDBRANCH  51  75
BRANCH  63  86
ATOM     86  C   UNL A   1      44.436  33.925  29.452  1.00  0.00     0.023 A 
ATOM     87  C   UNL A   1      44.047  34.969  28.596  1.00  0.00     0.031 A 
ATOM     88  C   UNL A   1      45.262  34.236  30.546  1.00  0.00     0.131 A 
ATOM     89  C   UNL A   1      44.530  36.268  28.814  1.00  0.00     0.055 A 
ATOM     90  C   UNL A   1      45.699  35.539  30.788  1.00  0.00     0.041 A 
ATOM     91  F   UNL A   1      45.665  33.275  31.392  1.00  0.00    -0.206 F 
ATOM     92  C   UNL A   1      45.344  36.561  29.913  1.00  0.00     0.022 A 
BRANCH  89  93
ATOM     93  S   UNL A   1      44.161  37.553  27.588  1.00  0.00     0.124 S 
ATOM     94  O   UNL A   1      45.472  37.792  26.993  1.00  0.00    -0.237 OA
ATOM     95  O   UNL A   1      43.182  36.893  26.731  1.00  0.00    -0.237 OA
ATOM     96  O   UNL A   1      43.637  38.655  28.394  1.00  0.00    -0.744 OA
ENDBRANCH  89  93
ENDBRANCH  63  86
ENDBRANCH  37  38
ENDBRANCH  29  32
ENDBRANCH  27  28
ENDBRANCH  26  27
ENDBRANCH  25  26
ENDBRANCH   1  25
TORSDOF 19
ENDMDL
MODEL 3
REMARK VINA RESULT:     -11.4      1.302      2.089
REMARK SMILES COc1ccccc1C[N@@H+](C)[C@@H](C)c1ccc(C(=O)NCCCCNC(=O)c2ccc(-c3c4nc(c(-c5cc(S(=O)(=O)[O-])ccc5F)c5ccc([nH]5)c(-c5cc(S(=O)(=O)[O-])ccc5F)c5nc(c(-c6cc(S(=O)(=O)[O-])ccc6F)c6ccc3[nH]6)C=C5)C=C4)cc2)o1
REMARK SMILES IDX 21 1 20 2 18 3 19 4 17 6 14 7 15 8 91 9 16 10 12 11 13 12
REMARK SMILES IDX 10 13 11 14 9 16 8 17 3 18 4 19 5 20 7 21 6 22 2 23 1 24
REMARK SMILES IDX 22 25 23 26 24 27 25 28 26 29 27 31 28 32 29 33 90 34 30 35
REMARK SMILES IDX 89 36 31 37 32 38 33 39 83 40 34 41 88 42 82 43 84 44 35 45
REMARK SMILES IDX 87 46 81 47 80 48 36 50 68 51 48 52 67 53 49 54 52 55 66 56
REMARK SMILES IDX 85 57 50 58 51 59 65 61 86 62 53 63 37 64 38 65 46 66 39 67
REMARK SMILES IDX 45 68 47 69 44 70 40 71 41 72 42 73 43 74 69 75 70 76 78 77
REMARK SMILES IDX 71 78 77 79 79 80 76 81 72 82 73 83 74 84 75 85 54 86 55 87
REMARK SMILES IDX 63 88 56 89 62 90 64 91 61 92 57 93 58 94 59 95 60 96
REMARK H PARENT 20 5 10 15 25 30 84 49 52 60
REMARK Flexibility Score: inf
ROOT
ATOM      1  C   UNL A   1      34.022  28.152  23.019  1.00  0.00     0.116 C 
ENDROOT
BRANCH   1   2
ATOM      2  N   UNL A   1      33.751  27.352  21.840  1.00  0.00    -0.349 N 
ATOM      3  C   UNL A   1      32.806  26.362  21.672  1.00  0.00     0.287 C 
ATOM      4  O   UNL A   1      32.903  25.659  20.662  1.00  0.00    -0.266 OA
ATOM      5  H   UNL A   1      34.317  27.542  21.057  1.00  0.00     0.163 HD
BRANCH   3   6
ATOM      6  C   UNL A   1      31.757  26.207  22.653  1.00  0.00     0.191 A 
ATOM      7  C   UNL A   1      30.946  25.654  24.634  1.00  0.00     0.161 A 
ATOM      8  C   UNL A   1      29.876  26.082  23.874  1.00  0.00     0.053 A 
ATOM      9  O   UNL A   1      32.086  25.691  23.880  1.00  0.00    -0.450 OA
ATOM     10  C   UNL A   1      30.396  26.444  22.611  1.00  0.00     0.057 A 
BRANCH   7  11
ATOM     11  C   UNL A   1      31.088  25.133  26.039  1.00  0.00     0.248 C 
ATOM     12  C   UNL A   1      32.030  26.031  26.861  1.00  0.00     0.084 C 
BRANCH  11  13
ATOM     13  N   UNL A   1      31.382  23.676  26.105  1.00  0.00    -0.325 N 
ATOM     14  C   UNL A   1      30.319  22.953  26.805  1.00  0.00     0.333 C 
ATOM     15  H   UNL A   1      31.424  23.387  25.126  1.00  0.00     0.348 HD
BRANCH  13  16
ATOM     16  C   UNL A   1      32.689  23.322  26.682  1.00  0.00     0.303 C 
BRANCH  16  17
ATOM     17  C   UNL A   1      33.824  23.227  25.686  1.00  0.00     0.048 A 
ATOM     18  C   UNL A   1      33.682  22.654  24.413  1.00  0.00     0.127 A 
ATOM     19  C   UNL A   1      34.774  22.576  23.542  1.00  0.00     0.047 A 
ATOM     20  C   UNL A   1      36.009  23.108  23.910  1.00  0.00     0.004 A 
ATOM     21  C   UNL A   1      35.080  23.757  26.039  1.00  0.00     0.013 A 
ATOM     22  C   UNL A   1      36.164  23.698  25.161  1.00  0.00     0.001 A 
BRANCH  18  23
ATOM     23  O   UNL A   1      32.539  22.011  24.010  1.00  0.00    -0.496 OA
ATOM     24  C   UNL A   1      32.526  20.627  24.344  1.00  0.00     0.278 C 
ENDBRANCH  18  23
ENDBRANCH  16  17
ENDBRANCH  13  16
ENDBRANCH  11  13
ENDBRANCH   7  11
ENDBRANCH   3   6
ENDBRANCH   1   2
BRANCH   1  25
ATOM     25  C   UNL A   1      33.046  29.322  23.154  1.00  0.00     0.023 C 
BRANCH  25  26
ATOM     26  C   UNL A   1      32.159  29.296  24.401  1.00  0.00     0.023 C 
BRANCH  26  27
ATOM     27  C   UNL A   1      32.852  29.653  25.715  1.00  0.00     0.116 C 
BRANCH  27  28
ATOM     28  N   UNL A   1      32.502  30.978  26.203  1.00  0.00    -0.352 N 
ATOM     29  C   UNL A   1      33.121  31.757  27.152  1.00  0.00     0.251 C 
ATOM     30  H   UNL A   1      31.702  31.377  25.791  1.00  0.00     0.163 HD
ATOM     31  O   UNL A   1      32.585  32.804  27.509  1.00  0.00    -0.269 OA
BRANCH  29  32
ATOM     32  C   UNL A   1      34.397  31.326  27.769  1.00  0.00     0.039 A 
ATOM     33  C   UNL A   1      35.391  32.285  27.995  1.00  0.00     0.014 A 
ATOM     34  C   UNL A   1      34.625  29.993  28.122  1.00  0.00     0.014 A 
ATOM     35  C   UNL A   1      36.574  31.923  28.645  1.00  0.00     0.010 A 
ATOM     36  C   UNL A   1      35.777  29.647  28.826  1.00  0.00     0.010 A 
ATOM     37  C   UNL A   1      36.759  30.609  29.105  1.00  0.00    -0.014 A 
BRANCH  37  38
ATOM     38  C   UNL A   1      37.959  30.236  29.901  1.00  0.00     0.031 A 
ATOM     39  C   UNL A   1      38.961  29.255  29.358  1.00  0.00     0.074 A 
ATOM     40  C   UNL A   1      38.104  30.727  31.148  1.00  0.00     0.049 A 
ATOM     41  N   UNL A   1      40.026  28.754  29.933  1.00  0.00    -0.248 NA
ATOM     42  C   UNL A   1      38.716  28.749  28.000  1.00  0.00     0.031 C 
ATOM     43  C   UNL A   1      37.171  31.642  31.810  1.00  0.00     0.029 A 
ATOM     44  N   UNL A   1      39.083  30.517  32.086  1.00  0.00    -0.354 N 
ATOM     45  C   UNL A   1      40.569  27.861  29.016  1.00  0.00     0.074 A 
ATOM     46  C   UNL A   1      39.684  27.854  27.869  1.00  0.00     0.031 C 
ATOM     47  C   UNL A   1      37.632  31.928  33.038  1.00  0.00     0.029 A 
ATOM     48  C   UNL A   1      38.871  31.192  33.266  1.00  0.00     0.049 A 
ATOM     49  H   UNL A   1      39.864  29.938  31.930  1.00  0.00     0.167 HD
ATOM     50  C   UNL A   1      41.707  27.128  29.113  1.00  0.00     0.034 A 
ATOM     51  C   UNL A   1      39.590  31.211  34.406  1.00  0.00     0.034 A 
ATOM     52  C   UNL A   1      42.588  27.154  30.256  1.00  0.00     0.049 A 
ATOM     53  C   UNL A   1      40.861  30.407  34.484  1.00  0.00     0.074 A 
ATOM     54  C   UNL A   1      43.794  26.496  30.434  1.00  0.00     0.029 A 
ATOM     55  N   UNL A   1      42.357  27.876  31.421  1.00  0.00    -0.354 N 
ATOM     56  N   UNL A   1      41.386  29.605  33.588  1.00  0.00    -0.248 NA
ATOM     57  C   UNL A   1      41.640  30.524  35.723  1.00  0.00     0.031 C 
ATOM     58  C   UNL A   1      44.265  26.779  31.723  1.00  0.00     0.029 A 
ATOM     59  C   UNL A   1      43.387  27.663  32.328  1.00  0.00     0.049 A 
ATOM     60  H   UNL A   1      41.578  28.454  31.581  1.00  0.00     0.167 HD
ATOM     61  C   UNL A   1      42.573  29.140  34.147  1.00  0.00     0.074 A 
ATOM     62  C   UNL A   1      42.690  29.764  35.450  1.00  0.00     0.031 C 
ATOM     63  C   UNL A   1      43.484  28.278  33.629  1.00  0.00     0.034 A 
BRANCH  50  64
ATOM     64  C   UNL A   1      42.041  26.218  27.955  1.00  0.00     0.023 A 
ATOM     65  C   UNL A   1      41.593  24.886  27.912  1.00  0.00     0.031 A 
ATOM     66  C   UNL A   1      42.847  26.675  26.897  1.00  0.00     0.131 A 
ATOM     67  C   UNL A   1      42.019  24.035  26.881  1.00  0.00     0.055 A 
ATOM     68  C   UNL A   1      43.201  25.845  25.831  1.00  0.00     0.041 A 
ATOM     69  F   UNL A   1      43.320  27.931  26.891  1.00  0.00    -0.206 F 
ATOM     70  C   UNL A   1      42.801  24.513  25.827  1.00  0.00     0.022 A 
BRANCH  67  71
ATOM     71  S   UNL A   1      41.655  22.263  27.014  1.00  0.00     0.124 S 
ATOM     72  O   UNL A   1      41.920  21.806  25.652  1.00  0.00    -0.237 OA
ATOM     73  O   UNL A   1      42.603  21.823  28.032  1.00  0.00    -0.237 OA
ATOM     74  O   UNL A   1      40.250  22.231  27.413  1.00  0.00    -0.744 OA
ENDBRANCH  67  71
ENDBRANCH  50  64
BRANCH  51  75
ATOM     75  C   UNL A   1      39.132  32.020  35.569  1.00  0.00     0.023 A 
ATOM     76  C   UNL A   1      38.440  31.422  36.634  1.00  0.00     0.031 A 
ATOM     77  C   UNL A   1      39.352  33.406  35.615  1.00  0.00     0.131 A 
ATOM     78  C   UNL A   1      37.953  32.217  37.683  1.00  0.00     0.055 A 
ATOM     79  C   UNL A   1      38.901  34.188  36.681  1.00  0.00     0.041 A 
ATOM     80  F   UNL A   1      40.018  34.022  34.625  1.00  0.00    -0.206 F 
ATOM     81  C   UNL A   1      38.187  33.594  37.718  1.00  0.00     0.022 A 
BRANCH  78  82
ATOM     82  S   UNL A   1      36.949  31.431  38.972  1.00  0.00     0.124 S 
ATOM     83  O   UNL A   1      35.745  32.255  38.958  1.00  0.00    -0.237 OA
ATOM     84  O   UNL A   1      36.805  30.074  38.457  1.00  0.00    -0.237 OA
ATOM     85  O   UNL A   1      37.777  31.555  40.170  1.00  0.00    -0.744 OA
ENDBRANCH  78  82
ENDBRANCH  51  75
BRANCH  63  86
ATOM     86  C   UNL A   1      44.705  27.998  34.470  1.00  0.00     0.023 A 
ATOM     87  C   UNL A   1      44.744  26.929  35.381  1.00  0.00     0.031 A 
ATOM     88  C   UNL A   1      45.829  28.837  34.381  1.00  0.00     0.131 A 
ATOM     89  C   UNL A   1      45.862  26.759  36.211  1.00  0.00     0.055 A 
ATOM     90  C   UNL A   1      46.960  28.633  35.172  1.00  0.00     0.041 A 
ATOM     91  F   UNL A   1      45.843  29.873  33.529  1.00  0.00    -0.206 F 
ATOM     92  C   UNL A   1      46.976  27.597  36.103  1.00  0.00     0.022 A 
BRANCH  89  93
ATOM     93  S   UNL A   1      45.804  25.487  37.503  1.00  0.00     0.124 S 
ATOM     94  O   UNL A   1      46.800  25.972  38.453  1.00  0.00    -0.237 OA
ATOM     95  O   UNL A   1      44.415  25.555  37.944  1.00  0.00    -0.237 OA
ATOM     96  O   UNL A   1      46.170  24.261  36.793  1.00  0.00    -0.744 OA
ENDBRANCH  89  93
ENDBRANCH  63  86
ENDBRANCH  37  38
ENDBRANCH  29  32
ENDBRANCH  27  28
ENDBRANCH  26  27
ENDBRANCH  25  26
ENDBRANCH   1  25
TORSDOF 19
ENDMDL
