MODEL 1
REMARK VINA RESULT:     -10.7      0.000      0.000
REMARK SMILES O=C(NCCCCNC(=O)c1nc(/N=C/c2cccc([N+](=O)[O-])c2)n[nH]1)c1ccc(-c2c3nc(c(-c4cc(S(=O)(=O)[O-])ccc4F)c4ccc([nH]4)c(-c4cc(S(=O)(=O)[O-])ccc4F)c4nc(c(-c5cc(S(=O)(=O)[O-])ccc5F)c5ccc2[nH]5)C=C4)C=C3)cc1
REMARK SMILES IDX 5 1 4 2 3 3 1 4 2 5 27 7 28 8 89 9 29 10 88 11 30 12 31 13
REMARK SMILES IDX 32 14 82 15 33 16 87 17 81 18 83 19 34 20 86 21 80 22 79 23
REMARK SMILES IDX 35 25 67 26 47 27 66 28 48 29 51 30 65 31 84 32 49 33 50 34
REMARK SMILES IDX 64 36 85 37 52 38 36 39 37 40 45 41 38 42 44 43 46 44 43 45
REMARK SMILES IDX 39 46 40 47 41 48 42 49 68 50 69 51 77 52 70 53 76 54 78 55
REMARK SMILES IDX 75 56 71 57 72 58 73 59 74 60 53 61 54 62 62 63 55 64 61 65
REMARK SMILES IDX 63 66 60 67 56 68 57 69 58 70 59 71 6 72 7 73 8 74 9 75
REMARK SMILES IDX 10 77 11 78 12 79 26 80 13 81 25 82 14 84 15 85 16 86 17 87
REMARK SMILES IDX 24 88 18 89 20 90 19 91 21 92 22 93 23 94
REMARK H PARENT 3 6 83 24 51 35 8 76 26 83
REMARK Flexibility Score: inf
ROOT
ATOM      1  C   UNL A   1      35.652  33.682  28.712  1.00  0.00     0.023 C 
ENDROOT
BRANCH   1   2
ATOM      2  C   UNL A   1      34.962  32.539  29.448  1.00  0.00     0.116 C 
BRANCH   2   3
ATOM      3  N   UNL A   1      34.277  31.623  28.550  1.00  0.00    -0.352 N 
ATOM      4  O   UNL A   1      34.111  29.925  27.076  1.00  0.00    -0.269 OA
ATOM      5  C   UNL A   1      34.782  30.514  27.917  1.00  0.00     0.251 C 
ATOM      6  H   UNL A   1      33.330  31.824  28.372  1.00  0.00     0.163 HD
BRANCH   5   7
ATOM      7  C   UNL A   1      36.145  30.050  28.250  1.00  0.00     0.039 A 
ATOM      8  C   UNL A   1      37.199  30.253  27.353  1.00  0.00     0.014 A 
ATOM      9  C   UNL A   1      36.369  29.411  29.472  1.00  0.00     0.014 A 
ATOM     10  C   UNL A   1      38.454  29.728  27.633  1.00  0.00     0.010 A 
ATOM     11  C   UNL A   1      37.648  28.947  29.783  1.00  0.00     0.010 A 
ATOM     12  C   UNL A   1      38.699  29.095  28.862  1.00  0.00    -0.014 A 
BRANCH  12  13
ATOM     13  C   UNL A   1      40.084  28.704  29.218  1.00  0.00     0.031 A 
ATOM     14  C   UNL A   1      40.932  29.562  30.111  1.00  0.00     0.074 A 
ATOM     15  C   UNL A   1      40.568  27.557  28.701  1.00  0.00     0.049 A 
ATOM     16  N   UNL A   1      42.173  29.383  30.482  1.00  0.00    -0.248 NA
ATOM     17  C   UNL A   1      40.313  30.781  30.653  1.00  0.00     0.031 C 
ATOM     18  C   UNL A   1      39.825  26.658  27.812  1.00  0.00     0.029 A 
ATOM     19  N   UNL A   1      41.791  26.952  28.833  1.00  0.00    -0.354 N 
ATOM     20  C   UNL A   1      42.496  30.472  31.282  1.00  0.00     0.074 A 
ATOM     21  C   UNL A   1      41.321  31.316  31.335  1.00  0.00     0.031 C 
ATOM     22  C   UNL A   1      40.600  25.613  27.492  1.00  0.00     0.029 A 
ATOM     23  C   UNL A   1      41.916  25.800  28.090  1.00  0.00     0.049 A 
ATOM     24  H   UNL A   1      42.510  27.306  29.406  1.00  0.00     0.167 HD
ATOM     25  C   UNL A   1      43.669  30.736  31.910  1.00  0.00     0.034 A 
ATOM     26  C   UNL A   1      42.983  25.008  27.873  1.00  0.00     0.034 A 
ATOM     27  C   UNL A   1      44.821  29.869  31.854  1.00  0.00     0.049 A 
ATOM     28  C   UNL A   1      44.283  25.359  28.543  1.00  0.00     0.074 A 
ATOM     29  C   UNL A   1      46.022  29.990  32.531  1.00  0.00     0.029 A 
ATOM     30  N   UNL A   1      44.928  28.736  31.057  1.00  0.00    -0.354 N 
ATOM     31  N   UNL A   1      44.548  26.357  29.355  1.00  0.00    -0.248 NA
ATOM     32  C   UNL A   1      45.428  24.483  28.267  1.00  0.00     0.031 C 
ATOM     33  C   UNL A   1      46.880  28.977  32.087  1.00  0.00     0.029 A 
ATOM     34  C   UNL A   1      46.194  28.183  31.183  1.00  0.00     0.049 A 
ATOM     35  H   UNL A   1      44.212  28.379  30.485  1.00  0.00     0.167 HD
ATOM     36  C   UNL A   1      45.890  26.223  29.690  1.00  0.00     0.074 A 
ATOM     37  C   UNL A   1      46.371  25.033  29.019  1.00  0.00     0.031 C 
ATOM     38  C   UNL A   1      46.660  27.013  30.480  1.00  0.00     0.034 A 
BRANCH  25  39
ATOM     39  C   UNL A   1      43.792  32.030  32.672  1.00  0.00     0.023 A 
ATOM     40  C   UNL A   1      44.226  33.219  32.062  1.00  0.00     0.031 A 
ATOM     41  C   UNL A   1      43.424  32.080  34.029  1.00  0.00     0.131 A 
ATOM     42  C   UNL A   1      44.315  34.400  32.818  1.00  0.00     0.055 A 
ATOM     43  C   UNL A   1      43.461  33.268  34.761  1.00  0.00     0.041 A 
ATOM     44  F   UNL A   1      43.019  30.969  34.666  1.00  0.00    -0.206 F 
ATOM     45  C   UNL A   1      43.915  34.436  34.156  1.00  0.00     0.022 A 
BRANCH  42  46
ATOM     46  S   UNL A   1      45.038  35.875  32.049  1.00  0.00     0.124 S 
ATOM     47  O   UNL A   1      45.593  36.572  33.207  1.00  0.00    -0.237 OA
ATOM     48  O   UNL A   1      46.008  35.305  31.123  1.00  0.00    -0.237 OA
ATOM     49  O   UNL A   1      43.892  36.533  31.425  1.00  0.00    -0.744 OA
ENDBRANCH  42  46
ENDBRANCH  25  39
BRANCH  26  50
ATOM     50  C   UNL A   1      42.888  23.858  26.932  1.00  0.00     0.023 A 
ATOM     51  C   UNL A   1      42.215  22.680  27.288  1.00  0.00     0.031 A 
ATOM     52  C   UNL A   1      43.513  23.906  25.671  1.00  0.00     0.131 A 
ATOM     53  C   UNL A   1      42.220  21.583  26.413  1.00  0.00     0.055 A 
ATOM     54  C   UNL A   1      43.466  22.834  24.781  1.00  0.00     0.041 A 
ATOM     55  F   UNL A   1      44.171  25.010  25.281  1.00  0.00    -0.206 F 
ATOM     56  C   UNL A   1      42.829  21.656  25.158  1.00  0.00     0.022 A 
BRANCH  53  57
ATOM     57  S   UNL A   1      41.507  20.017  26.985  1.00  0.00     0.124 S 
ATOM     58  O   UNL A   1      42.701  19.253  27.328  1.00  0.00    -0.237 OA
ATOM     59  O   UNL A   1      40.680  20.453  28.105  1.00  0.00    -0.237 OA
ATOM     60  O   UNL A   1      40.770  19.533  25.818  1.00  0.00    -0.744 OA
ENDBRANCH  53  57
ENDBRANCH  26  50
BRANCH  38  61
ATOM     61  C   UNL A   1      48.095  26.593  30.657  1.00  0.00     0.023 A 
ATOM     62  C   UNL A   1      48.471  25.683  31.660  1.00  0.00     0.031 A 
ATOM     63  C   UNL A   1      49.100  27.124  29.828  1.00  0.00     0.131 A 
ATOM     64  C   UNL A   1      49.825  25.367  31.842  1.00  0.00     0.055 A 
ATOM     65  C   UNL A   1      50.439  26.762  29.978  1.00  0.00     0.041 A 
ATOM     66  F   UNL A   1      48.793  28.000  28.859  1.00  0.00    -0.206 F 
ATOM     67  C   UNL A   1      50.809  25.888  30.998  1.00  0.00     0.022 A 
BRANCH  64  68
ATOM     68  S   UNL A   1      50.292  24.319  33.246  1.00  0.00     0.124 S 
ATOM     69  O   UNL A   1      49.067  24.312  34.038  1.00  0.00    -0.237 OA
ATOM     70  O   UNL A   1      50.639  23.059  32.598  1.00  0.00    -0.237 OA
ATOM     71  O   UNL A   1      51.416  25.034  33.848  1.00  0.00    -0.744 OA
ENDBRANCH  64  68
ENDBRANCH  38  61
ENDBRANCH  12  13
ENDBRANCH   5   7
ENDBRANCH   2   3
ENDBRANCH   1   2
BRANCH   1  72
ATOM     72  C   UNL A   1      34.708  34.743  28.148  1.00  0.00     0.023 C 
BRANCH  72  73
ATOM     73  C   UNL A   1      33.426  34.940  28.954  1.00  0.00     0.116 C 
BRANCH  73  74
ATOM     74  N   UNL A   1      33.404  36.243  29.604  1.00  0.00    -0.349 N 
ATOM     75  C   UNL A   1      33.338  36.526  30.948  1.00  0.00     0.288 C 
ATOM     76  H   UNL A   1      33.441  37.022  29.003  1.00  0.00     0.163 HD
ATOM     77  O   UNL A   1      33.056  37.675  31.296  1.00  0.00    -0.266 OA
BRANCH  75  78
ATOM     78  C   UNL A   1      33.572  35.477  31.905  1.00  0.00     0.216 A 
ATOM     79  N   UNL A   1      34.733  35.109  32.406  1.00  0.00    -0.185 NA
ATOM     80  N   UNL A   1      32.595  34.710  32.468  1.00  0.00    -0.253 N 
ATOM     81  C   UNL A   1      34.415  34.051  33.203  1.00  0.00     0.268 A 
ATOM     82  N   UNL A   1      33.115  33.764  33.272  1.00  0.00    -0.132 NA
ATOM     83  H   UNL A   1      31.631  34.832  32.307  1.00  0.00     0.192 HD
BRANCH  81  84
ATOM     84  N   UNL A   1      35.347  33.238  33.840  1.00  0.00    -0.218 NA
ATOM     85  C   UNL A   1      36.406  33.088  33.113  1.00  0.00     0.123 C 
BRANCH  85  86
ATOM     86  C   UNL A   1      37.507  32.202  33.534  1.00  0.00    -0.000 A 
ATOM     87  C   UNL A   1      38.553  32.747  34.286  1.00  0.00     0.010 A 
ATOM     88  C   UNL A   1      37.512  30.852  33.174  1.00  0.00     0.095 A 
ATOM     89  C   UNL A   1      39.605  31.932  34.709  1.00  0.00     0.008 A 
ATOM     90  C   UNL A   1      38.579  30.047  33.589  1.00  0.00     0.270 A 
ATOM     91  C   UNL A   1      39.621  30.580  34.363  1.00  0.00     0.085 A 
BRANCH  90  92
ATOM     92  N   UNL A   1      38.612  28.631  33.207  1.00  0.00     0.062 N 
ATOM     93  O   UNL A   1      37.527  28.051  33.058  1.00  0.00    -0.258 OA
ATOM     94  O   UNL A   1      39.719  28.097  33.056  1.00  0.00    -0.258 OA
ENDBRANCH  90  92
ENDBRANCH  85  86
ENDBRANCH  81  84
ENDBRANCH  75  78
ENDBRANCH  73  74
ENDBRANCH  72  73
ENDBRANCH   1  72
TORSDOF 17
ENDMDL
MODEL 2
REMARK VINA RESULT:     -10.7      5.132     10.725
REMARK SMILES O=C(NCCCCNC(=O)c1nc(/N=C/c2cccc([N+](=O)[O-])c2)n[nH]1)c1ccc(-c2c3nc(c(-c4cc(S(=O)(=O)[O-])ccc4F)c4ccc([nH]4)c(-c4cc(S(=O)(=O)[O-])ccc4F)c4nc(c(-c5cc(S(=O)(=O)[O-])ccc5F)c5ccc2[nH]5)C=C4)C=C3)cc1
REMARK SMILES IDX 5 1 4 2 3 3 1 4 2 5 27 7 28 8 89 9 29 10 88 11 30 12 31 13
REMARK SMILES IDX 32 14 82 15 33 16 87 17 81 18 83 19 34 20 86 21 80 22 79 23
REMARK SMILES IDX 35 25 67 26 47 27 66 28 48 29 51 30 65 31 84 32 49 33 50 34
REMARK SMILES IDX 64 36 85 37 52 38 36 39 37 40 45 41 38 42 44 43 46 44 43 45
REMARK SMILES IDX 39 46 40 47 41 48 42 49 68 50 69 51 77 52 70 53 76 54 78 55
REMARK SMILES IDX 75 56 71 57 72 58 73 59 74 60 53 61 54 62 62 63 55 64 61 65
REMARK SMILES IDX 63 66 60 67 56 68 57 69 58 70 59 71 6 72 7 73 8 74 9 75
REMARK SMILES IDX 10 77 11 78 12 79 26 80 13 81 25 82 14 84 15 85 16 86 17 87
REMARK SMILES IDX 24 88 18 89 20 90 19 91 21 92 22 93 23 94
REMARK H PARENT 3 6 83 24 51 35 8 76 26 83
REMARK Flexibility Score: inf
ROOT
ATOM      1  C   UNL A   1      31.704  31.286  26.412  1.00  0.00     0.023 C 
ENDROOT
BRANCH   1   2
ATOM      2  C   UNL A   1      32.857  31.943  27.160  1.00  0.00     0.116 C 
BRANCH   2   3
ATOM      3  N   UNL A   1      32.591  33.331  27.499  1.00  0.00    -0.352 N 
ATOM      4  O   UNL A   1      32.774  35.228  28.705  1.00  0.00    -0.269 OA
ATOM      5  C   UNL A   1      33.213  34.114  28.440  1.00  0.00     0.251 C 
ATOM      6  H   UNL A   1      31.870  33.767  26.989  1.00  0.00     0.163 HD
BRANCH   5   7
ATOM      7  C   UNL A   1      34.406  33.591  29.139  1.00  0.00     0.039 A 
ATOM      8  C   UNL A   1      34.264  32.695  30.205  1.00  0.00     0.014 A 
ATOM      9  C   UNL A   1      35.675  33.998  28.722  1.00  0.00     0.014 A 
ATOM     10  C   UNL A   1      35.385  32.286  30.916  1.00  0.00     0.010 A 
ATOM     11  C   UNL A   1      36.805  33.528  29.393  1.00  0.00     0.010 A 
ATOM     12  C   UNL A   1      36.668  32.676  30.500  1.00  0.00    -0.014 A 
BRANCH  12  13
ATOM     13  C   UNL A   1      37.858  32.085  31.158  1.00  0.00     0.031 A 
ATOM     14  C   UNL A   1      38.648  30.989  30.505  1.00  0.00     0.074 A 
ATOM     15  C   UNL A   1      38.204  32.553  32.375  1.00  0.00     0.049 A 
ATOM     16  N   UNL A   1      39.685  30.339  30.965  1.00  0.00    -0.248 NA
ATOM     17  C   UNL A   1      38.217  30.560  29.165  1.00  0.00     0.031 C 
ATOM     18  C   UNL A   1      37.491  33.610  33.100  1.00  0.00     0.029 A 
ATOM     19  N   UNL A   1      39.223  32.203  33.221  1.00  0.00    -0.354 N 
ATOM     20  C   UNL A   1      40.022  29.410  29.988  1.00  0.00     0.074 A 
ATOM     21  C   UNL A   1      39.069  29.573  28.910  1.00  0.00     0.031 C 
ATOM     22  C   UNL A   1      38.104  33.831  34.272  1.00  0.00     0.029 A 
ATOM     23  C   UNL A   1      39.204  32.887  34.415  1.00  0.00     0.049 A 
ATOM     24  H   UNL A   1      39.905  31.529  32.996  1.00  0.00     0.167 HD
ATOM     25  C   UNL A   1      41.034  28.507  29.999  1.00  0.00     0.034 A 
ATOM     26  C   UNL A   1      39.956  32.739  35.522  1.00  0.00     0.034 A 
ATOM     27  C   UNL A   1      41.980  28.377  31.081  1.00  0.00     0.049 A 
ATOM     28  C   UNL A   1      41.036  31.692  35.521  1.00  0.00     0.074 A 
ATOM     29  C   UNL A   1      43.100  27.566  31.151  1.00  0.00     0.029 A 
ATOM     30  N   UNL A   1      41.904  29.052  32.293  1.00  0.00    -0.354 N 
ATOM     31  N   UNL A   1      41.384  30.871  34.557  1.00  0.00    -0.248 NA
ATOM     32  C   UNL A   1      41.821  31.548  36.752  1.00  0.00     0.031 C 
ATOM     33  C   UNL A   1      43.656  27.695  32.429  1.00  0.00     0.029 A 
ATOM     34  C   UNL A   1      42.923  28.635  33.135  1.00  0.00     0.049 A 
ATOM     35  H   UNL A   1      41.225  29.728  32.520  1.00  0.00     0.167 HD
ATOM     36  C   UNL A   1      42.434  30.116  35.067  1.00  0.00     0.074 A 
ATOM     37  C   UNL A   1      42.682  30.601  36.409  1.00  0.00     0.031 C 
ATOM     38  C   UNL A   1      43.132  29.111  34.481  1.00  0.00     0.034 A 
BRANCH  25  39
ATOM     39  C   UNL A   1      41.150  27.555  28.836  1.00  0.00     0.023 A 
ATOM     40  C   UNL A   1      42.113  27.722  27.827  1.00  0.00     0.031 A 
ATOM     41  C   UNL A   1      40.304  26.434  28.764  1.00  0.00     0.131 A 
ATOM     42  C   UNL A   1      42.183  26.800  26.770  1.00  0.00     0.055 A 
ATOM     43  C   UNL A   1      40.415  25.491  27.741  1.00  0.00     0.041 A 
ATOM     44  F   UNL A   1      39.355  26.236  29.693  1.00  0.00    -0.206 F 
ATOM     45  C   UNL A   1      41.355  25.675  26.732  1.00  0.00     0.022 A 
BRANCH  42  46
ATOM     46  S   UNL A   1      43.320  27.133  25.396  1.00  0.00     0.124 S 
ATOM     47  O   UNL A   1      43.580  25.787  24.891  1.00  0.00    -0.237 OA
ATOM     48  O   UNL A   1      42.525  27.996  24.531  1.00  0.00    -0.237 OA
ATOM     49  O   UNL A   1      44.460  27.779  26.043  1.00  0.00    -0.744 OA
ENDBRANCH  42  46
ENDBRANCH  25  39
BRANCH  26  50
ATOM     50  C   UNL A   1      39.668  33.546  36.741  1.00  0.00     0.023 A 
ATOM     51  C   UNL A   1      40.428  34.680  37.058  1.00  0.00     0.031 A 
ATOM     52  C   UNL A   1      38.650  33.162  37.634  1.00  0.00     0.131 A 
ATOM     53  C   UNL A   1      40.190  35.366  38.259  1.00  0.00     0.055 A 
ATOM     54  C   UNL A   1      38.377  33.881  38.797  1.00  0.00     0.041 A 
ATOM     55  F   UNL A   1      37.892  32.083  37.378  1.00  0.00    -0.206 F 
ATOM     56  C   UNL A   1      39.161  34.982  39.123  1.00  0.00     0.022 A 
BRANCH  53  57
ATOM     57  S   UNL A   1      41.314  36.709  38.728  1.00  0.00     0.124 S 
ATOM     58  O   UNL A   1      42.021  36.956  37.476  1.00  0.00    -0.237 OA
ATOM     59  O   UNL A   1      40.382  37.747  39.154  1.00  0.00    -0.237 OA
ATOM     60  O   UNL A   1      42.121  36.120  39.794  1.00  0.00    -0.744 OA
ENDBRANCH  53  57
ENDBRANCH  26  50
BRANCH  38  61
ATOM     61  C   UNL A   1      44.231  28.487  35.300  1.00  0.00     0.023 A 
ATOM     62  C   UNL A   1      43.965  27.443  36.201  1.00  0.00     0.031 A 
ATOM     63  C   UNL A   1      45.553  28.955  35.194  1.00  0.00     0.131 A 
ATOM     64  C   UNL A   1      44.999  26.931  37.000  1.00  0.00     0.055 A 
ATOM     65  C   UNL A   1      46.587  28.404  35.950  1.00  0.00     0.041 A 
ATOM     66  F   UNL A   1      45.857  29.955  34.351  1.00  0.00    -0.206 F 
ATOM     67  C   UNL A   1      46.310  27.394  36.868  1.00  0.00     0.022 A 
BRANCH  64  68
ATOM     68  S   UNL A   1      44.591  25.699  38.266  1.00  0.00     0.124 S 
ATOM     69  O   UNL A   1      43.585  24.889  37.586  1.00  0.00    -0.237 OA
ATOM     70  O   UNL A   1      45.877  25.052  38.503  1.00  0.00    -0.237 OA
ATOM     71  O   UNL A   1      44.090  26.504  39.379  1.00  0.00    -0.744 OA
ENDBRANCH  64  68
ENDBRANCH  38  61
ENDBRANCH  12  13
ENDBRANCH   5   7
ENDBRANCH   2   3
ENDBRANCH   1   2
BRANCH   1  72
ATOM     72  C   UNL A   1      31.854  29.780  26.197  1.00  0.00     0.023 C 
BRANCH  72  73
ATOM     73  C   UNL A   1      32.293  29.385  24.788  1.00  0.00     0.116 C 
BRANCH  73  74
ATOM     74  N   UNL A   1      31.177  29.433  23.853  1.00  0.00    -0.349 N 
ATOM     75  C   UNL A   1      31.008  28.718  22.690  1.00  0.00     0.288 C 
ATOM     76  H   UNL A   1      30.451  30.057  24.082  1.00  0.00     0.163 HD
ATOM     77  O   UNL A   1      30.139  29.084  21.894  1.00  0.00    -0.266 OA
BRANCH  75  78
ATOM     78  C   UNL A   1      31.857  27.588  22.423  1.00  0.00     0.216 A 
ATOM     79  N   UNL A   1      31.660  26.343  22.807  1.00  0.00    -0.185 NA
ATOM     80  N   UNL A   1      33.005  27.638  21.689  1.00  0.00    -0.253 N 
ATOM     81  C   UNL A   1      32.768  25.692  22.356  1.00  0.00     0.268 A 
ATOM     82  N   UNL A   1      33.626  26.444  21.666  1.00  0.00    -0.132 NA
ATOM     83  H   UNL A   1      33.338  28.445  21.234  1.00  0.00     0.192 HD
BRANCH  81  84
ATOM     84  N   UNL A   1      33.075  24.367  22.649  1.00  0.00    -0.218 NA
ATOM     85  C   UNL A   1      33.913  24.292  23.631  1.00  0.00     0.123 C 
BRANCH  85  86
ATOM     86  C   UNL A   1      34.458  22.996  24.077  1.00  0.00    -0.000 A 
ATOM     87  C   UNL A   1      35.832  22.898  24.324  1.00  0.00     0.010 A 
ATOM     88  C   UNL A   1      33.621  21.888  24.235  1.00  0.00     0.095 A 
ATOM     89  C   UNL A   1      36.377  21.688  24.758  1.00  0.00     0.008 A 
ATOM     90  C   UNL A   1      34.180  20.676  24.656  1.00  0.00     0.270 A 
ATOM     91  C   UNL A   1      35.553  20.573  24.926  1.00  0.00     0.085 A 
BRANCH  90  92
ATOM     92  N   UNL A   1      33.323  19.496  24.810  1.00  0.00     0.062 N 
ATOM     93  O   UNL A   1      32.164  19.677  25.211  1.00  0.00    -0.258 OA
ATOM     94  O   UNL A   1      33.804  18.388  24.533  1.00  0.00    -0.258 OA
ENDBRANCH  90  92
ENDBRANCH  85  86
ENDBRANCH  81  84
ENDBRANCH  75  78
ENDBRANCH  73  74
ENDBRANCH  72  73
ENDBRANCH   1  72
TORSDOF 17
ENDMDL
MODEL 3
REMARK VINA RESULT:     -10.6      1.261      1.518
REMARK SMILES O=C(NCCCCNC(=O)c1nc(/N=C/c2cccc([N+](=O)[O-])c2)n[nH]1)c1ccc(-c2c3nc(c(-c4cc(S(=O)(=O)[O-])ccc4F)c4ccc([nH]4)c(-c4cc(S(=O)(=O)[O-])ccc4F)c4nc(c(-c5cc(S(=O)(=O)[O-])ccc5F)c5ccc2[nH]5)C=C4)C=C3)cc1
REMARK SMILES IDX 5 1 4 2 3 3 1 4 2 5 27 7 28 8 89 9 29 10 88 11 30 12 31 13
REMARK SMILES IDX 32 14 82 15 33 16 87 17 81 18 83 19 34 20 86 21 80 22 79 23
REMARK SMILES IDX 35 25 67 26 47 27 66 28 48 29 51 30 65 31 84 32 49 33 50 34
REMARK SMILES IDX 64 36 85 37 52 38 36 39 37 40 45 41 38 42 44 43 46 44 43 45
REMARK SMILES IDX 39 46 40 47 41 48 42 49 68 50 69 51 77 52 70 53 76 54 78 55
REMARK SMILES IDX 75 56 71 57 72 58 73 59 74 60 53 61 54 62 62 63 55 64 61 65
REMARK SMILES IDX 63 66 60 67 56 68 57 69 58 70 59 71 6 72 7 73 8 74 9 75
REMARK SMILES IDX 10 77 11 78 12 79 26 80 13 81 25 82 14 84 15 85 16 86 17 87
REMARK SMILES IDX 24 88 18 89 20 90 19 91 21 92 22 93 23 94
REMARK H PARENT 3 6 83 24 51 35 8 76 26 83
REMARK Flexibility Score: inf
ROOT
ATOM      1  C   UNL A   1      35.646  33.657  28.687  1.00  0.00     0.023 C 
ENDROOT
BRANCH   1   2
ATOM      2  C   UNL A   1      34.969  32.525  29.452  1.00  0.00     0.116 C 
BRANCH   2   3
ATOM      3  N   UNL A   1      34.273  31.593  28.581  1.00  0.00    -0.352 N 
ATOM      4  O   UNL A   1      34.089  29.870  27.138  1.00  0.00    -0.269 OA
ATOM      5  C   UNL A   1      34.771  30.474  27.958  1.00  0.00     0.251 C 
ATOM      6  H   UNL A   1      33.323  31.788  28.415  1.00  0.00     0.163 HD
BRANCH   5   7
ATOM      7  C   UNL A   1      36.141  30.020  28.277  1.00  0.00     0.039 A 
ATOM      8  C   UNL A   1      37.181  30.216  27.362  1.00  0.00     0.014 A 
ATOM      9  C   UNL A   1      36.385  29.396  29.503  1.00  0.00     0.014 A 
ATOM     10  C   UNL A   1      38.442  29.699  27.631  1.00  0.00     0.010 A 
ATOM     11  C   UNL A   1      37.670  28.942  29.801  1.00  0.00     0.010 A 
ATOM     12  C   UNL A   1      38.707  29.082  28.864  1.00  0.00    -0.014 A 
BRANCH  12  13
ATOM     13  C   UNL A   1      40.098  28.700  29.204  1.00  0.00     0.031 A 
ATOM     14  C   UNL A   1      40.954  29.569  30.079  1.00  0.00     0.074 A 
ATOM     15  C   UNL A   1      40.582  27.551  28.690  1.00  0.00     0.049 A 
ATOM     16  N   UNL A   1      42.201  29.399  30.435  1.00  0.00    -0.248 NA
ATOM     17  C   UNL A   1      40.337  30.789  30.620  1.00  0.00     0.031 C 
ATOM     18  C   UNL A   1      39.830  26.642  27.817  1.00  0.00     0.029 A 
ATOM     19  N   UNL A   1      41.808  26.953  28.810  1.00  0.00    -0.354 N 
ATOM     20  C   UNL A   1      42.529  30.496  31.222  1.00  0.00     0.074 A 
ATOM     21  C   UNL A   1      41.350  31.334  31.283  1.00  0.00     0.031 C 
ATOM     22  C   UNL A   1      40.607  25.598  27.496  1.00  0.00     0.029 A 
ATOM     23  C   UNL A   1      41.929  25.796  28.075  1.00  0.00     0.049 A 
ATOM     24  H   UNL A   1      42.533  27.315  29.370  1.00  0.00     0.167 HD
ATOM     25  C   UNL A   1      43.709  30.770  31.832  1.00  0.00     0.034 A 
ATOM     26  C   UNL A   1      42.997  25.007  27.850  1.00  0.00     0.034 A 
ATOM     27  C   UNL A   1      44.864  29.908  31.767  1.00  0.00     0.049 A 
ATOM     28  C   UNL A   1      44.305  25.369  28.499  1.00  0.00     0.074 A 
ATOM     29  C   UNL A   1      46.074  30.040  32.427  1.00  0.00     0.029 A 
ATOM     30  N   UNL A   1      44.966  28.770  30.978  1.00  0.00    -0.354 N 
ATOM     31  N   UNL A   1      44.575  26.375  29.300  1.00  0.00    -0.248 NA
ATOM     32  C   UNL A   1      45.450  24.497  28.215  1.00  0.00     0.031 C 
ATOM     33  C   UNL A   1      46.931  29.028  31.980  1.00  0.00     0.029 A 
ATOM     34  C   UNL A   1      46.236  28.224  31.092  1.00  0.00     0.049 A 
ATOM     35  H   UNL A   1      44.244  28.405  30.418  1.00  0.00     0.167 HD
ATOM     36  C   UNL A   1      45.923  26.251  29.618  1.00  0.00     0.074 A 
ATOM     37  C   UNL A   1      46.400  25.057  28.950  1.00  0.00     0.031 C 
ATOM     38  C   UNL A   1      46.699  27.050  30.392  1.00  0.00     0.034 A 
BRANCH  25  39
ATOM     39  C   UNL A   1      43.836  32.071  32.583  1.00  0.00     0.023 A 
ATOM     40  C   UNL A   1      43.654  32.153  33.973  1.00  0.00     0.031 A 
ATOM     41  C   UNL A   1      44.188  33.245  31.892  1.00  0.00     0.131 A 
ATOM     42  C   UNL A   1      43.793  33.390  34.624  1.00  0.00     0.055 A 
ATOM     43  C   UNL A   1      44.379  34.460  32.551  1.00  0.00     0.041 A 
ATOM     44  F   UNL A   1      44.357  33.227  30.560  1.00  0.00    -0.206 F 
ATOM     45  C   UNL A   1      44.174  34.538  33.926  1.00  0.00     0.022 A 
BRANCH  42  46
ATOM     46  S   UNL A   1      43.387  33.497  36.388  1.00  0.00     0.124 S 
ATOM     47  O   UNL A   1      42.929  34.880  36.506  1.00  0.00    -0.237 OA
ATOM     48  O   UNL A   1      42.362  32.471  36.540  1.00  0.00    -0.237 OA
ATOM     49  O   UNL A   1      44.658  33.211  37.051  1.00  0.00    -0.744 OA
ENDBRANCH  42  46
ENDBRANCH  25  39
BRANCH  26  50
ATOM     50  C   UNL A   1      42.895  23.850  26.919  1.00  0.00     0.023 A 
ATOM     51  C   UNL A   1      42.243  22.667  27.297  1.00  0.00     0.031 A 
ATOM     52  C   UNL A   1      43.493  23.896  25.645  1.00  0.00     0.131 A 
ATOM     53  C   UNL A   1      42.243  21.563  26.431  1.00  0.00     0.055 A 
ATOM     54  C   UNL A   1      43.439  22.816  24.764  1.00  0.00     0.041 A 
ATOM     55  F   UNL A   1      44.130  25.003  25.233  1.00  0.00    -0.206 F 
ATOM     56  C   UNL A   1      42.823  21.634  25.162  1.00  0.00     0.022 A 
BRANCH  53  57
ATOM     57  S   UNL A   1      41.559  19.994  27.029  1.00  0.00     0.124 S 
ATOM     58  O   UNL A   1      42.768  19.250  27.361  1.00  0.00    -0.237 OA
ATOM     59  O   UNL A   1      40.743  20.430  28.156  1.00  0.00    -0.237 OA
ATOM     60  O   UNL A   1      40.812  19.489  25.878  1.00  0.00    -0.744 OA
ENDBRANCH  53  57
ENDBRANCH  26  50
BRANCH  38  61
ATOM     61  C   UNL A   1      48.138  26.639  30.553  1.00  0.00     0.023 A 
ATOM     62  C   UNL A   1      48.541  25.787  31.595  1.00  0.00     0.031 A 
ATOM     63  C   UNL A   1      49.120  27.119  29.668  1.00  0.00     0.131 A 
ATOM     64  C   UNL A   1      49.900  25.480  31.758  1.00  0.00     0.055 A 
ATOM     65  C   UNL A   1      50.462  26.764  29.801  1.00  0.00     0.041 A 
ATOM     66  F   UNL A   1      48.786  27.939  28.659  1.00  0.00    -0.206 F 
ATOM     67  C   UNL A   1      50.860  25.949  30.859  1.00  0.00     0.022 A 
BRANCH  64  68
ATOM     68  S   UNL A   1      50.405  24.513  33.207  1.00  0.00     0.124 S 
ATOM     69  O   UNL A   1      50.394  23.152  32.679  1.00  0.00    -0.237 OA
ATOM     70  O   UNL A   1      51.719  25.067  33.513  1.00  0.00    -0.237 OA
ATOM     71  O   UNL A   1      49.366  24.804  34.193  1.00  0.00    -0.744 OA
ENDBRANCH  64  68
ENDBRANCH  38  61
ENDBRANCH  12  13
ENDBRANCH   5   7
ENDBRANCH   2   3
ENDBRANCH   1   2
BRANCH   1  72
ATOM     72  C   UNL A   1      34.690  34.698  28.106  1.00  0.00     0.023 C 
BRANCH  72  73
ATOM     73  C   UNL A   1      33.412  34.903  28.917  1.00  0.00     0.116 C 
BRANCH  73  74
ATOM     74  N   UNL A   1      33.379  36.223  29.531  1.00  0.00    -0.349 N 
ATOM     75  C   UNL A   1      33.320  36.542  30.867  1.00  0.00     0.288 C 
ATOM     76  H   UNL A   1      33.402  36.986  28.908  1.00  0.00     0.163 HD
ATOM     77  O   UNL A   1      33.028  37.697  31.186  1.00  0.00    -0.266 OA
BRANCH  75  78
ATOM     78  C   UNL A   1      33.574  35.522  31.851  1.00  0.00     0.216 A 
ATOM     79  N   UNL A   1      34.746  35.161  32.331  1.00  0.00    -0.185 NA
ATOM     80  N   UNL A   1      32.608  34.782  32.465  1.00  0.00    -0.253 N 
ATOM     81  C   UNL A   1      34.443  34.133  33.170  1.00  0.00     0.268 A 
ATOM     82  N   UNL A   1      33.144  33.859  33.285  1.00  0.00    -0.132 NA
ATOM     83  H   UNL A   1      31.641  34.907  32.328  1.00  0.00     0.192 HD
BRANCH  81  84
ATOM     84  N   UNL A   1      35.387  33.333  33.806  1.00  0.00    -0.218 NA
ATOM     85  C   UNL A   1      36.417  33.139  33.049  1.00  0.00     0.123 C 
BRANCH  85  86
ATOM     86  C   UNL A   1      37.522  32.255  33.467  1.00  0.00    -0.000 A 
ATOM     87  C   UNL A   1      38.598  32.814  34.164  1.00  0.00     0.010 A 
ATOM     88  C   UNL A   1      37.499  30.893  33.158  1.00  0.00     0.095 A 
ATOM     89  C   UNL A   1      39.654  32.002  34.583  1.00  0.00     0.008 A 
ATOM     90  C   UNL A   1      38.570  30.090  33.568  1.00  0.00     0.270 A 
ATOM     91  C   UNL A   1      39.644  30.638  34.287  1.00  0.00     0.085 A 
BRANCH  90  92
ATOM     92  N   UNL A   1      38.575  28.661  33.238  1.00  0.00     0.062 N 
ATOM     93  O   UNL A   1      37.479  28.109  33.060  1.00  0.00    -0.258 OA
ATOM     94  O   UNL A   1      39.670  28.088  33.157  1.00  0.00    -0.258 OA
ENDBRANCH  90  92
ENDBRANCH  85  86
ENDBRANCH  81  84
ENDBRANCH  75  78
ENDBRANCH  73  74
ENDBRANCH  72  73
ENDBRANCH   1  72
TORSDOF 17
ENDMDL
