MODEL 1
REMARK VINA RESULT:     -12.0      0.000      0.000
REMARK SMILES Cc1ccc(Cl)c(Nc2ccccc2C(=O)NCC(=O)NCCCCNC(=O)c2ccc(-c3c4nc(c(-c5cc(S(=O)(=O)[O-])ccc5F)c5ccc([nH]5)c(-c5cc(S(=O)(=O)[O-])ccc5F)c5nc(c(-c6cc(S(=O)(=O)[O-])ccc6F)c6ccc3[nH]6)C=C5)C=C4)cc2)c1Cl
REMARK SMILES IDX 23 1 22 2 21 3 19 4 20 5 18 7 17 8 15 9 16 10 14 12 9 13
REMARK SMILES IDX 10 14 11 15 13 16 12 17 8 18 7 20 1 21 2 22 3 23 92 24 4 25
REMARK SMILES IDX 93 26 5 27 6 28 24 29 25 30 26 31 27 32 28 34 29 35 30 36
REMARK SMILES IDX 91 37 31 38 90 39 32 40 33 41 34 42 84 43 35 44 89 45 83 46
REMARK SMILES IDX 85 47 36 48 88 49 82 50 81 51 37 53 69 54 49 55 68 56 50 57
REMARK SMILES IDX 53 58 67 59 86 60 51 61 52 62 66 64 87 65 54 66 38 67 39 68
REMARK SMILES IDX 47 69 40 70 46 71 48 72 45 73 41 74 42 75 43 76 44 77 70 78
REMARK SMILES IDX 71 79 79 80 72 81 78 82 80 83 77 84 73 85 74 86 75 87 76 88
REMARK SMILES IDX 55 89 56 90 64 91 57 92 63 93 65 94 62 95 58 96 59 97 60 98
REMARK SMILES IDX 61 99
REMARK H PARENT 21 6 17 11 8 19 26 33 85 52 53 63
REMARK Flexibility Score: inf
ROOT
ATOM      1  C   UNL A   1      37.012  19.373  25.070  1.00  0.00     0.023 C 
ENDROOT
BRANCH   1   2
ATOM      2  C   UNL A   1      35.910  20.423  24.990  1.00  0.00     0.116 C 
BRANCH   2   3
ATOM      3  N   UNL A   1      34.626  19.773  24.900  1.00  0.00    -0.355 N 
ATOM      4  C   UNL A   1      33.532  20.032  25.669  1.00  0.00     0.239 C 
ATOM      5  O   UNL A   1      32.551  19.291  25.573  1.00  0.00    -0.273 OA
ATOM      6  H   UNL A   1      34.530  19.074  24.213  1.00  0.00     0.163 HD
BRANCH   4   7
ATOM      7  C   UNL A   1      33.442  21.371  26.395  1.00  0.00     0.216 C 
BRANCH   7   8
ATOM      8  N   UNL A   1      32.242  22.168  26.527  1.00  0.00    -0.343 N 
ATOM      9  C   UNL A   1      31.435  22.768  25.585  1.00  0.00     0.253 C 
ATOM     10  O   UNL A   1      30.255  22.917  25.925  1.00  0.00    -0.269 OA
ATOM     11  H   UNL A   1      31.950  22.308  27.457  1.00  0.00     0.164 HD
BRANCH   9  12
ATOM     12  C   UNL A   1      31.892  23.441  24.316  1.00  0.00     0.063 A 
ATOM     13  C   UNL A   1      31.701  24.756  23.830  1.00  0.00     0.051 A 
ATOM     14  C   UNL A   1      32.173  25.058  22.524  1.00  0.00     0.027 A 
ATOM     15  C   UNL A   1      32.877  24.142  21.744  1.00  0.00     0.002 A 
ATOM     16  C   UNL A   1      32.625  22.534  23.501  1.00  0.00     0.016 A 
ATOM     17  C   UNL A   1      33.125  22.879  22.245  1.00  0.00     0.001 A 
BRANCH  13  18
ATOM     18  N   UNL A   1      31.211  25.889  24.517  1.00  0.00    -0.352 N 
ATOM     19  H   UNL A   1      30.304  25.761  24.876  1.00  0.00     0.167 HD
BRANCH  18  20
ATOM     20  C   UNL A   1      31.747  27.170  24.796  1.00  0.00     0.077 A 
ATOM     21  C   UNL A   1      34.241  28.869  27.149  1.00  0.00     0.046 C 
ATOM     22  C   UNL A   1      33.130  28.659  26.158  1.00  0.00    -0.030 A 
ATOM     23  C   UNL A   1      32.296  29.736  25.821  1.00  0.00     0.006 A 
ATOM     24  C   UNL A   1      32.877  27.387  25.606  1.00  0.00     0.069 A 
ATOM     25  C   UNL A   1      31.253  29.568  24.916  1.00  0.00     0.023 A 
ATOM     26  Cl  UNL A   1      34.046  26.122  25.848  1.00  0.00    -0.082 Cl
ATOM     27  C   UNL A   1      30.991  28.302  24.401  1.00  0.00     0.066 A 
ATOM     28  Cl  UNL A   1      29.616  28.125  23.355  1.00  0.00    -0.082 Cl
ENDBRANCH  18  20
ENDBRANCH  13  18
ENDBRANCH   9  12
ENDBRANCH   7   8
ENDBRANCH   4   7
ENDBRANCH   2   3
ENDBRANCH   1   2
BRANCH   1  29
ATOM     29  C   UNL A   1      38.400  19.961  24.810  1.00  0.00     0.023 C 
BRANCH  29  30
ATOM     30  C   UNL A   1      39.266  20.066  26.055  1.00  0.00     0.116 C 
BRANCH  30  31
ATOM     31  N   UNL A   1      40.430  19.192  25.986  1.00  0.00    -0.352 N 
ATOM     32  C   UNL A   1      41.754  19.546  26.040  1.00  0.00     0.251 C 
ATOM     33  H   UNL A   1      40.243  18.230  25.890  1.00  0.00     0.163 HD
ATOM     34  O   UNL A   1      42.627  18.737  25.787  1.00  0.00    -0.269 OA
BRANCH  32  35
ATOM     35  C   UNL A   1      42.082  20.947  26.380  1.00  0.00     0.039 A 
ATOM     36  C   UNL A   1      42.419  21.262  27.695  1.00  0.00     0.014 A 
ATOM     37  C   UNL A   1      42.127  21.918  25.374  1.00  0.00     0.014 A 
ATOM     38  C   UNL A   1      42.853  22.553  27.996  1.00  0.00     0.010 A 
ATOM     39  C   UNL A   1      42.630  23.180  25.664  1.00  0.00     0.010 A 
ATOM     40  C   UNL A   1      42.993  23.512  26.979  1.00  0.00    -0.014 A 
BRANCH  40  41
ATOM     41  C   UNL A   1      43.504  24.874  27.273  1.00  0.00     0.031 A 
ATOM     42  C   UNL A   1      42.568  25.917  27.824  1.00  0.00     0.074 A 
ATOM     43  C   UNL A   1      44.785  25.183  26.988  1.00  0.00     0.049 A 
ATOM     44  N   UNL A   1      42.798  27.178  28.083  1.00  0.00    -0.248 NA
ATOM     45  C   UNL A   1      41.184  25.493  28.091  1.00  0.00     0.031 C 
ATOM     46  C   UNL A   1      45.769  24.264  26.411  1.00  0.00     0.029 A 
ATOM     47  N   UNL A   1      45.479  26.359  27.135  1.00  0.00    -0.354 N 
ATOM     48  C   UNL A   1      41.586  27.701  28.520  1.00  0.00     0.074 A 
ATOM     49  C   UNL A   1      40.613  26.634  28.446  1.00  0.00     0.031 C 
ATOM     50  C   UNL A   1      46.944  24.903  26.277  1.00  0.00     0.029 A 
ATOM     51  C   UNL A   1      46.788  26.288  26.710  1.00  0.00     0.049 A 
ATOM     52  H   UNL A   1      45.079  27.176  27.509  1.00  0.00     0.167 HD
ATOM     53  C   UNL A   1      41.318  28.954  28.961  1.00  0.00     0.034 A 
ATOM     54  C   UNL A   1      47.745  27.235  26.665  1.00  0.00     0.034 A 
ATOM     55  C   UNL A   1      42.309  29.995  29.062  1.00  0.00     0.049 A 
ATOM     56  C   UNL A   1      47.412  28.624  27.158  1.00  0.00     0.074 A 
ATOM     57  C   UNL A   1      42.165  31.272  29.576  1.00  0.00     0.029 A 
ATOM     58  N   UNL A   1      43.626  29.885  28.637  1.00  0.00    -0.354 N 
ATOM     59  N   UNL A   1      46.279  29.080  27.643  1.00  0.00    -0.248 NA
ATOM     60  C   UNL A   1      48.489  29.622  27.111  1.00  0.00     0.031 C 
ATOM     61  C   UNL A   1      43.369  31.956  29.393  1.00  0.00     0.029 A 
ATOM     62  C   UNL A   1      44.293  31.082  28.842  1.00  0.00     0.049 A 
ATOM     63  H   UNL A   1      44.028  29.075  28.246  1.00  0.00     0.167 HD
ATOM     64  C   UNL A   1      46.524  30.405  27.997  1.00  0.00     0.074 A 
ATOM     65  C   UNL A   1      47.914  30.667  27.686  1.00  0.00     0.031 C 
ATOM     66  C   UNL A   1      45.681  31.324  28.531  1.00  0.00     0.034 A 
BRANCH  53  67
ATOM     67  C   UNL A   1      39.895  29.280  29.342  1.00  0.00     0.023 A 
ATOM     68  C   UNL A   1      39.486  29.374  30.683  1.00  0.00     0.031 A 
ATOM     69  C   UNL A   1      38.937  29.520  28.341  1.00  0.00     0.131 A 
ATOM     70  C   UNL A   1      38.145  29.653  30.987  1.00  0.00     0.055 A 
ATOM     71  C   UNL A   1      37.621  29.868  28.650  1.00  0.00     0.041 A 
ATOM     72  F   UNL A   1      39.265  29.420  27.043  1.00  0.00    -0.206 F 
ATOM     73  C   UNL A   1      37.215  29.927  29.980  1.00  0.00     0.022 A 
BRANCH  70  74
ATOM     74  S   UNL A   1      37.606  29.552  32.716  1.00  0.00     0.124 S 
ATOM     75  O   UNL A   1      36.352  30.300  32.677  1.00  0.00    -0.237 OA
ATOM     76  O   UNL A   1      37.486  28.114  32.925  1.00  0.00    -0.237 OA
ATOM     77  O   UNL A   1      38.690  30.201  33.450  1.00  0.00    -0.744 OA
ENDBRANCH  70  74
ENDBRANCH  53  67
BRANCH  54  78
ATOM     78  C   UNL A   1      49.104  26.934  26.125  1.00  0.00     0.023 A 
ATOM     79  C   UNL A   1      49.494  27.391  24.855  1.00  0.00     0.031 A 
ATOM     80  C   UNL A   1      50.000  26.107  26.826  1.00  0.00     0.131 A 
ATOM     81  C   UNL A   1      50.705  26.959  24.295  1.00  0.00     0.055 A 
ATOM     82  C   UNL A   1      51.236  25.735  26.293  1.00  0.00     0.041 A 
ATOM     83  F   UNL A   1      49.682  25.641  28.045  1.00  0.00    -0.206 F 
ATOM     84  C   UNL A   1      51.585  26.144  25.010  1.00  0.00     0.022 A 
BRANCH  81  85
ATOM     85  S   UNL A   1      51.050  27.364  22.560  1.00  0.00     0.124 S 
ATOM     86  O   UNL A   1      52.372  26.776  22.375  1.00  0.00    -0.237 OA
ATOM     87  O   UNL A   1      49.949  26.699  21.871  1.00  0.00    -0.237 OA
ATOM     88  O   UNL A   1      51.008  28.825  22.537  1.00  0.00    -0.744 OA
ENDBRANCH  81  85
ENDBRANCH  54  78
BRANCH  66  89
ATOM     89  C   UNL A   1      46.261  32.674  28.870  1.00  0.00     0.023 A 
ATOM     90  C   UNL A   1      46.237  33.742  27.956  1.00  0.00     0.031 A 
ATOM     91  C   UNL A   1      46.853  32.891  30.127  1.00  0.00     0.131 A 
ATOM     92  C   UNL A   1      46.850  34.959  28.290  1.00  0.00     0.055 A 
ATOM     93  C   UNL A   1      47.401  34.125  30.478  1.00  0.00     0.041 A 
ATOM     94  F   UNL A   1      46.903  31.906  31.038  1.00  0.00    -0.206 F 
ATOM     95  C   UNL A   1      47.414  35.163  29.552  1.00  0.00     0.022 A 
BRANCH  92  96
ATOM     96  S   UNL A   1      46.981  36.245  27.017  1.00  0.00     0.124 S 
ATOM     97  O   UNL A   1      45.584  36.594  26.793  1.00  0.00    -0.237 OA
ATOM     98  O   UNL A   1      47.793  37.260  27.682  1.00  0.00    -0.237 OA
ATOM     99  O   UNL A   1      47.638  35.559  25.905  1.00  0.00    -0.744 OA
ENDBRANCH  92  96
ENDBRANCH  66  89
ENDBRANCH  40  41
ENDBRANCH  32  35
ENDBRANCH  30  31
ENDBRANCH  29  30
ENDBRANCH   1  29
TORSDOF 18
ENDMDL
MODEL 2
REMARK VINA RESULT:     -11.9      2.382      7.632
REMARK SMILES Cc1ccc(Cl)c(Nc2ccccc2C(=O)NCC(=O)NCCCCNC(=O)c2ccc(-c3c4nc(c(-c5cc(S(=O)(=O)[O-])ccc5F)c5ccc([nH]5)c(-c5cc(S(=O)(=O)[O-])ccc5F)c5nc(c(-c6cc(S(=O)(=O)[O-])ccc6F)c6ccc3[nH]6)C=C5)C=C4)cc2)c1Cl
REMARK SMILES IDX 23 1 22 2 21 3 19 4 20 5 18 7 17 8 15 9 16 10 14 12 9 13
REMARK SMILES IDX 10 14 11 15 13 16 12 17 8 18 7 20 1 21 2 22 3 23 92 24 4 25
REMARK SMILES IDX 93 26 5 27 6 28 24 29 25 30 26 31 27 32 28 34 29 35 30 36
REMARK SMILES IDX 91 37 31 38 90 39 32 40 33 41 34 42 84 43 35 44 89 45 83 46
REMARK SMILES IDX 85 47 36 48 88 49 82 50 81 51 37 53 69 54 49 55 68 56 50 57
REMARK SMILES IDX 53 58 67 59 86 60 51 61 52 62 66 64 87 65 54 66 38 67 39 68
REMARK SMILES IDX 47 69 40 70 46 71 48 72 45 73 41 74 42 75 43 76 44 77 70 78
REMARK SMILES IDX 71 79 79 80 72 81 78 82 80 83 77 84 73 85 74 86 75 87 76 88
REMARK SMILES IDX 55 89 56 90 64 91 57 92 63 93 65 94 62 95 58 96 59 97 60 98
REMARK SMILES IDX 61 99
REMARK H PARENT 21 6 17 11 8 19 26 33 85 52 53 63
REMARK Flexibility Score: inf
ROOT
ATOM      1  C   UNL A   1      36.515  19.864  25.042  1.00  0.00     0.023 C 
ENDROOT
BRANCH   1   2
ATOM      2  C   UNL A   1      35.117  20.397  24.750  1.00  0.00     0.116 C 
BRANCH   2   3
ATOM      3  N   UNL A   1      34.153  19.333  24.889  1.00  0.00    -0.355 N 
ATOM      4  C   UNL A   1      32.864  19.458  25.312  1.00  0.00     0.239 C 
ATOM      5  O   UNL A   1      32.207  18.437  25.520  1.00  0.00    -0.273 OA
ATOM      6  H   UNL A   1      34.457  18.427  24.653  1.00  0.00     0.163 HD
BRANCH   4   7
ATOM      7  C   UNL A   1      32.194  20.827  25.235  1.00  0.00     0.216 C 
BRANCH   7   8
ATOM      8  N   UNL A   1      31.721  21.588  26.371  1.00  0.00    -0.343 N 
ATOM      9  C   UNL A   1      31.701  22.943  26.618  1.00  0.00     0.253 C 
ATOM     10  O   UNL A   1      30.804  23.323  27.381  1.00  0.00    -0.269 OA
ATOM     11  H   UNL A   1      31.347  21.039  27.098  1.00  0.00     0.164 HD
BRANCH   9  12
ATOM     12  C   UNL A   1      32.770  23.936  26.239  1.00  0.00     0.063 A 
ATOM     13  C   UNL A   1      32.713  25.331  26.006  1.00  0.00     0.051 A 
ATOM     14  C   UNL A   1      33.895  25.977  25.550  1.00  0.00     0.027 A 
ATOM     15  C   UNL A   1      35.112  25.312  25.402  1.00  0.00     0.002 A 
ATOM     16  C   UNL A   1      34.028  23.290  26.091  1.00  0.00     0.016 A 
ATOM     17  C   UNL A   1      35.184  23.965  25.696  1.00  0.00     0.001 A 
BRANCH  13  18
ATOM     18  N   UNL A   1      31.664  26.232  26.288  1.00  0.00    -0.352 N 
ATOM     19  H   UNL A   1      31.141  25.980  27.083  1.00  0.00     0.167 HD
BRANCH  18  20
ATOM     20  C   UNL A   1      31.204  27.421  25.671  1.00  0.00     0.077 A 
ATOM     21  C   UNL A   1      29.714  28.636  22.363  1.00  0.00     0.046 C 
ATOM     22  C   UNL A   1      30.368  28.632  23.716  1.00  0.00    -0.030 A 
ATOM     23  C   UNL A   1      30.942  29.814  24.207  1.00  0.00     0.006 A 
ATOM     24  C   UNL A   1      30.462  27.448  24.475  1.00  0.00     0.069 A 
ATOM     25  C   UNL A   1      31.563  29.836  25.452  1.00  0.00     0.023 A 
ATOM     26  Cl  UNL A   1      29.553  26.054  23.970  1.00  0.00    -0.082 Cl
ATOM     27  C   UNL A   1      31.681  28.656  26.179  1.00  0.00     0.066 A 
ATOM     28  Cl  UNL A   1      32.555  28.716  27.679  1.00  0.00    -0.082 Cl
ENDBRANCH  18  20
ENDBRANCH  13  18
ENDBRANCH   9  12
ENDBRANCH   7   8
ENDBRANCH   4   7
ENDBRANCH   2   3
ENDBRANCH   1   2
BRANCH   1  29
ATOM     29  C   UNL A   1      37.613  20.853  24.646  1.00  0.00     0.023 C 
BRANCH  29  30
ATOM     30  C   UNL A   1      38.581  21.181  25.772  1.00  0.00     0.116 C 
BRANCH  30  31
ATOM     31  N   UNL A   1      39.532  20.101  26.006  1.00  0.00    -0.352 N 
ATOM     32  C   UNL A   1      40.857  20.205  26.341  1.00  0.00     0.251 C 
ATOM     33  H   UNL A   1      39.179  19.187  25.912  1.00  0.00     0.163 HD
ATOM     34  O   UNL A   1      41.582  19.228  26.329  1.00  0.00    -0.269 OA
BRANCH  32  35
ATOM     35  C   UNL A   1      41.382  21.544  26.685  1.00  0.00     0.039 A 
ATOM     36  C   UNL A   1      41.845  22.371  25.664  1.00  0.00     0.014 A 
ATOM     37  C   UNL A   1      41.337  21.992  28.009  1.00  0.00     0.014 A 
ATOM     38  C   UNL A   1      42.220  23.680  25.965  1.00  0.00     0.010 A 
ATOM     39  C   UNL A   1      41.641  23.318  28.292  1.00  0.00     0.010 A 
ATOM     40  C   UNL A   1      42.091  24.174  27.274  1.00  0.00    -0.014 A 
BRANCH  40  41
ATOM     41  C   UNL A   1      42.436  25.580  27.602  1.00  0.00     0.031 A 
ATOM     42  C   UNL A   1      43.840  26.074  27.375  1.00  0.00     0.074 A 
ATOM     43  C   UNL A   1      41.506  26.385  28.155  1.00  0.00     0.049 A 
ATOM     44  N   UNL A   1      44.360  27.239  27.657  1.00  0.00    -0.248 NA
ATOM     45  C   UNL A   1      44.791  25.121  26.779  1.00  0.00     0.031 C 
ATOM     46  C   UNL A   1      40.126  25.999  28.460  1.00  0.00     0.029 A 
ATOM     47  N   UNL A   1      41.581  27.692  28.569  1.00  0.00    -0.354 N 
ATOM     48  C   UNL A   1      45.700  27.153  27.296  1.00  0.00     0.074 A 
ATOM     49  C   UNL A   1      45.924  25.806  26.820  1.00  0.00     0.031 C 
ATOM     50  C   UNL A   1      39.480  27.052  28.988  1.00  0.00     0.029 A 
ATOM     51  C   UNL A   1      40.407  28.172  29.106  1.00  0.00     0.049 A 
ATOM     52  H   UNL A   1      42.398  28.235  28.489  1.00  0.00     0.167 HD
ATOM     53  C   UNL A   1      46.651  28.118  27.343  1.00  0.00     0.034 A 
ATOM     54  C   UNL A   1      40.119  29.374  29.644  1.00  0.00     0.034 A 
ATOM     55  C   UNL A   1      46.400  29.466  27.786  1.00  0.00     0.049 A 
ATOM     56  C   UNL A   1      41.203  30.426  29.685  1.00  0.00     0.074 A 
ATOM     57  C   UNL A   1      47.268  30.544  27.791  1.00  0.00     0.029 A 
ATOM     58  N   UNL A   1      45.198  29.921  28.311  1.00  0.00    -0.354 N 
ATOM     59  N   UNL A   1      42.445  30.351  29.266  1.00  0.00    -0.248 NA
ATOM     60  C   UNL A   1      40.842  31.729  30.260  1.00  0.00     0.031 C 
ATOM     61  C   UNL A   1      46.616  31.628  28.386  1.00  0.00     0.029 A 
ATOM     62  C   UNL A   1      45.314  31.253  28.676  1.00  0.00     0.049 A 
ATOM     63  H   UNL A   1      44.382  29.378  28.408  1.00  0.00     0.167 HD
ATOM     64  C   UNL A   1      42.998  31.610  29.489  1.00  0.00     0.074 A 
ATOM     65  C   UNL A   1      41.949  32.427  30.061  1.00  0.00     0.031 C 
ATOM     66  C   UNL A   1      44.256  32.054  29.241  1.00  0.00     0.034 A 
BRANCH  53  67
ATOM     67  C   UNL A   1      48.053  27.749  26.927  1.00  0.00     0.023 A 
ATOM     68  C   UNL A   1      49.027  27.357  27.861  1.00  0.00     0.031 A 
ATOM     69  C   UNL A   1      48.413  27.772  25.568  1.00  0.00     0.131 A 
ATOM     70  C   UNL A   1      50.326  27.048  27.428  1.00  0.00     0.055 A 
ATOM     71  C   UNL A   1      49.686  27.395  25.137  1.00  0.00     0.041 A 
ATOM     72  F   UNL A   1      47.530  28.162  24.635  1.00  0.00    -0.206 F 
ATOM     73  C   UNL A   1      50.655  27.039  26.070  1.00  0.00     0.022 A 
BRANCH  70  74
ATOM     74  S   UNL A   1      51.612  26.759  28.674  1.00  0.00     0.124 S 
ATOM     75  O   UNL A   1      52.617  26.038  27.898  1.00  0.00    -0.237 OA
ATOM     76  O   UNL A   1      51.968  28.113  29.080  1.00  0.00    -0.237 OA
ATOM     77  O   UNL A   1      50.930  25.961  29.691  1.00  0.00    -0.744 OA
ENDBRANCH  70  74
ENDBRANCH  53  67
BRANCH  54  78
ATOM     78  C   UNL A   1      38.766  29.664  30.205  1.00  0.00     0.023 A 
ATOM     79  C   UNL A   1      37.815  30.382  29.461  1.00  0.00     0.031 A 
ATOM     80  C   UNL A   1      38.433  29.309  31.525  1.00  0.00     0.131 A 
ATOM     81  C   UNL A   1      36.615  30.790  30.063  1.00  0.00     0.055 A 
ATOM     82  C   UNL A   1      37.208  29.658  32.097  1.00  0.00     0.041 A 
ATOM     83  F   UNL A   1      39.302  28.621  32.283  1.00  0.00    -0.206 F 
ATOM     84  C   UNL A   1      36.299  30.421  31.372  1.00  0.00     0.022 A 
BRANCH  81  85
ATOM     85  S   UNL A   1      35.534  31.929  29.154  1.00  0.00     0.124 S 
ATOM     86  O   UNL A   1      36.477  32.960  28.735  1.00  0.00    -0.237 OA
ATOM     87  O   UNL A   1      35.010  31.070  28.098  1.00  0.00    -0.237 OA
ATOM     88  O   UNL A   1      34.559  32.346  30.159  1.00  0.00    -0.744 OA
ENDBRANCH  81  85
ENDBRANCH  54  78
BRANCH  66  89
ATOM     89  C   UNL A   1      44.542  33.506  29.533  1.00  0.00     0.023 A 
ATOM     90  C   UNL A   1      44.267  34.519  28.596  1.00  0.00     0.031 A 
ATOM     91  C   UNL A   1      45.105  33.880  30.766  1.00  0.00     0.131 A 
ATOM     92  C   UNL A   1      44.613  35.848  28.885  1.00  0.00     0.055 A 
ATOM     93  C   UNL A   1      45.385  35.212  31.073  1.00  0.00     0.041 A 
ATOM     94  F   UNL A   1      45.387  32.954  31.696  1.00  0.00    -0.206 F 
ATOM     95  C   UNL A   1      45.152  36.202  30.124  1.00  0.00     0.022 A 
BRANCH  92  96
ATOM     96  S   UNL A   1      44.434  37.095  27.581  1.00  0.00     0.124 S 
ATOM     97  O   UNL A   1      44.119  38.294  28.349  1.00  0.00    -0.237 OA
ATOM     98  O   UNL A   1      45.749  37.072  26.945  1.00  0.00    -0.237 OA
ATOM     99  O   UNL A   1      43.341  36.577  26.758  1.00  0.00    -0.744 OA
ENDBRANCH  92  96
ENDBRANCH  66  89
ENDBRANCH  40  41
ENDBRANCH  32  35
ENDBRANCH  30  31
ENDBRANCH  29  30
ENDBRANCH   1  29
TORSDOF 18
ENDMDL
MODEL 3
REMARK VINA RESULT:     -11.9      1.751      2.222
REMARK SMILES Cc1ccc(Cl)c(Nc2ccccc2C(=O)NCC(=O)NCCCCNC(=O)c2ccc(-c3c4nc(c(-c5cc(S(=O)(=O)[O-])ccc5F)c5ccc([nH]5)c(-c5cc(S(=O)(=O)[O-])ccc5F)c5nc(c(-c6cc(S(=O)(=O)[O-])ccc6F)c6ccc3[nH]6)C=C5)C=C4)cc2)c1Cl
REMARK SMILES IDX 23 1 22 2 21 3 19 4 20 5 18 7 17 8 15 9 16 10 14 12 9 13
REMARK SMILES IDX 10 14 11 15 13 16 12 17 8 18 7 20 1 21 2 22 3 23 92 24 4 25
REMARK SMILES IDX 93 26 5 27 6 28 24 29 25 30 26 31 27 32 28 34 29 35 30 36
REMARK SMILES IDX 91 37 31 38 90 39 32 40 33 41 34 42 84 43 35 44 89 45 83 46
REMARK SMILES IDX 85 47 36 48 88 49 82 50 81 51 37 53 69 54 49 55 68 56 50 57
REMARK SMILES IDX 53 58 67 59 86 60 51 61 52 62 66 64 87 65 54 66 38 67 39 68
REMARK SMILES IDX 47 69 40 70 46 71 48 72 45 73 41 74 42 75 43 76 44 77 70 78
REMARK SMILES IDX 71 79 79 80 72 81 78 82 80 83 77 84 73 85 74 86 75 87 76 88
REMARK SMILES IDX 55 89 56 90 64 91 57 92 63 93 65 94 62 95 58 96 59 97 60 98
REMARK SMILES IDX 61 99
REMARK H PARENT 21 6 17 11 8 19 26 33 85 52 53 63
REMARK Flexibility Score: inf
ROOT
ATOM      1  C   UNL A   1      36.558  19.732  24.959  1.00  0.00     0.023 C 
ENDROOT
BRANCH   1   2
ATOM      2  C   UNL A   1      35.150  20.311  25.026  1.00  0.00     0.116 C 
BRANCH   2   3
ATOM      3  N   UNL A   1      34.182  19.243  24.980  1.00  0.00    -0.355 N 
ATOM      4  C   UNL A   1      32.849  19.345  25.238  1.00  0.00     0.239 C 
ATOM      5  O   UNL A   1      32.177  18.315  25.302  1.00  0.00    -0.273 OA
ATOM      6  H   UNL A   1      34.520  18.350  24.737  1.00  0.00     0.163 HD
BRANCH   4   7
ATOM      7  C   UNL A   1      32.186  20.717  25.150  1.00  0.00     0.216 C 
BRANCH   7   8
ATOM      8  N   UNL A   1      31.763  21.512  26.282  1.00  0.00    -0.343 N 
ATOM      9  C   UNL A   1      31.839  22.865  26.527  1.00  0.00     0.253 C 
ATOM     10  O   UNL A   1      30.968  23.310  27.284  1.00  0.00    -0.269 OA
ATOM     11  H   UNL A   1      31.345  20.992  27.007  1.00  0.00     0.164 HD
BRANCH   9  12
ATOM     12  C   UNL A   1      32.980  23.777  26.154  1.00  0.00     0.063 A 
ATOM     13  C   UNL A   1      32.995  25.082  25.607  1.00  0.00     0.051 A 
ATOM     14  C   UNL A   1      34.255  25.643  25.261  1.00  0.00     0.027 A 
ATOM     15  C   UNL A   1      35.465  24.996  25.509  1.00  0.00     0.002 A 
ATOM     16  C   UNL A   1      34.231  23.150  26.407  1.00  0.00     0.016 A 
ATOM     17  C   UNL A   1      35.453  23.750  26.107  1.00  0.00     0.001 A 
BRANCH  13  18
ATOM     18  N   UNL A   1      31.927  25.995  25.467  1.00  0.00    -0.352 N 
ATOM     19  H   UNL A   1      31.276  25.944  26.204  1.00  0.00     0.167 HD
BRANCH  18  20
ATOM     20  C   UNL A   1      31.593  26.967  24.493  1.00  0.00     0.077 A 
ATOM     21  C   UNL A   1      30.156  30.504  24.233  1.00  0.00     0.046 C 
ATOM     22  C   UNL A   1      30.612  29.119  23.867  1.00  0.00    -0.030 A 
ATOM     23  C   UNL A   1      30.297  28.604  22.600  1.00  0.00     0.006 A 
ATOM     24  C   UNL A   1      31.301  28.310  24.793  1.00  0.00     0.069 A 
ATOM     25  C   UNL A   1      30.697  27.321  22.238  1.00  0.00     0.023 A 
ATOM     26  Cl  UNL A   1      31.885  29.033  26.263  1.00  0.00    -0.082 Cl
ATOM     27  C   UNL A   1      31.347  26.518  23.170  1.00  0.00     0.066 A 
ATOM     28  Cl  UNL A   1      31.734  24.891  22.703  1.00  0.00    -0.082 Cl
ENDBRANCH  18  20
ENDBRANCH  13  18
ENDBRANCH   9  12
ENDBRANCH   7   8
ENDBRANCH   4   7
ENDBRANCH   2   3
ENDBRANCH   1   2
BRANCH   1  29
ATOM     29  C   UNL A   1      37.611  20.791  24.627  1.00  0.00     0.023 C 
BRANCH  29  30
ATOM     30  C   UNL A   1      38.633  21.009  25.731  1.00  0.00     0.116 C 
BRANCH  30  31
ATOM     31  N   UNL A   1      39.506  19.854  25.902  1.00  0.00    -0.352 N 
ATOM     32  C   UNL A   1      40.854  19.848  26.155  1.00  0.00     0.251 C 
ATOM     33  H   UNL A   1      39.076  18.972  25.827  1.00  0.00     0.163 HD
ATOM     34  O   UNL A   1      41.496  18.816  26.093  1.00  0.00    -0.269 OA
BRANCH  32  35
ATOM     35  C   UNL A   1      41.505  21.138  26.470  1.00  0.00     0.039 A 
ATOM     36  C   UNL A   1      41.872  21.983  25.425  1.00  0.00     0.014 A 
ATOM     37  C   UNL A   1      41.675  21.527  27.803  1.00  0.00     0.014 A 
ATOM     38  C   UNL A   1      42.369  23.253  25.718  1.00  0.00     0.010 A 
ATOM     39  C   UNL A   1      42.099  22.818  28.089  1.00  0.00     0.010 A 
ATOM     40  C   UNL A   1      42.456  23.693  27.050  1.00  0.00    -0.014 A 
BRANCH  40  41
ATOM     41  C   UNL A   1      42.931  25.060  27.377  1.00  0.00     0.031 A 
ATOM     42  C   UNL A   1      41.986  26.042  28.018  1.00  0.00     0.074 A 
ATOM     43  C   UNL A   1      44.183  25.431  27.043  1.00  0.00     0.049 A 
ATOM     44  N   UNL A   1      42.182  27.299  28.319  1.00  0.00    -0.248 NA
ATOM     45  C   UNL A   1      40.634  25.553  28.334  1.00  0.00     0.031 C 
ATOM     46  C   UNL A   1      45.170  24.575  26.380  1.00  0.00     0.029 A 
ATOM     47  N   UNL A   1      44.841  26.625  27.207  1.00  0.00    -0.354 N 
ATOM     48  C   UNL A   1      40.975  27.756  28.838  1.00  0.00     0.074 A 
ATOM     49  C   UNL A   1      40.040  26.656  28.765  1.00  0.00     0.031 C 
ATOM     50  C   UNL A   1      46.313  25.265  26.216  1.00  0.00     0.029 A 
ATOM     51  C   UNL A   1      46.127  26.623  26.716  1.00  0.00     0.049 A 
ATOM     52  H   UNL A   1      44.430  27.410  27.635  1.00  0.00     0.167 HD
ATOM     53  C   UNL A   1      40.684  28.979  29.345  1.00  0.00     0.034 A 
ATOM     54  C   UNL A   1      47.046  27.608  26.664  1.00  0.00     0.034 A 
ATOM     55  C   UNL A   1      41.640  30.052  29.443  1.00  0.00     0.049 A 
ATOM     56  C   UNL A   1      46.687  28.961  27.233  1.00  0.00     0.074 A 
ATOM     57  C   UNL A   1      41.475  31.300  30.017  1.00  0.00     0.029 A 
ATOM     58  N   UNL A   1      42.937  30.011  28.948  1.00  0.00    -0.354 N 
ATOM     59  N   UNL A   1      45.564  29.352  27.792  1.00  0.00    -0.248 NA
ATOM     60  C   UNL A   1      47.722  30.002  27.177  1.00  0.00     0.031 C 
ATOM     61  C   UNL A   1      42.643  32.038  29.805  1.00  0.00     0.029 A 
ATOM     62  C   UNL A   1      43.569  31.224  29.173  1.00  0.00     0.049 A 
ATOM     63  H   UNL A   1      43.348  29.234  28.504  1.00  0.00     0.167 HD
ATOM     64  C   UNL A   1      45.778  30.670  28.190  1.00  0.00     0.074 A 
ATOM     65  C   UNL A   1      47.139  30.998  27.823  1.00  0.00     0.031 C 
ATOM     66  C   UNL A   1      44.929  31.532  28.805  1.00  0.00     0.034 A 
BRANCH  53  67
ATOM     67  C   UNL A   1      39.271  29.232  29.809  1.00  0.00     0.023 A 
ATOM     68  C   UNL A   1      38.352  29.961  29.035  1.00  0.00     0.031 A 
ATOM     69  C   UNL A   1      38.834  28.717  31.042  1.00  0.00     0.131 A 
ATOM     70  C   UNL A   1      37.057  30.193  29.523  1.00  0.00     0.055 A 
ATOM     71  C   UNL A   1      37.522  28.890  31.489  1.00  0.00     0.041 A 
ATOM     72  F   UNL A   1      39.675  28.034  31.834  1.00  0.00    -0.206 F 
ATOM     73  C   UNL A   1      36.627  29.640  30.732  1.00  0.00     0.022 A 
BRANCH  70  74
ATOM     74  S   UNL A   1      35.970  31.316  28.602  1.00  0.00     0.124 S 
ATOM     75  O   UNL A   1      36.883  32.407  28.275  1.00  0.00    -0.237 OA
ATOM     76  O   UNL A   1      35.536  30.488  27.483  1.00  0.00    -0.237 OA
ATOM     77  O   UNL A   1      34.927  31.652  29.570  1.00  0.00    -0.744 OA
ENDBRANCH  70  74
ENDBRANCH  53  67
BRANCH  54  78
ATOM     78  C   UNL A   1      48.386  27.382  26.045  1.00  0.00     0.023 A 
ATOM     79  C   UNL A   1      48.593  27.600  24.673  1.00  0.00     0.031 A 
ATOM     80  C   UNL A   1      49.455  26.857  26.794  1.00  0.00     0.131 A 
ATOM     81  C   UNL A   1      49.807  27.223  24.078  1.00  0.00     0.055 A 
ATOM     82  C   UNL A   1      50.685  26.549  26.210  1.00  0.00     0.041 A 
ATOM     83  F   UNL A   1      49.316  26.630  28.111  1.00  0.00    -0.206 F 
ATOM     84  C   UNL A   1      50.859  26.711  24.840  1.00  0.00     0.022 A 
BRANCH  81  85
ATOM     85  S   UNL A   1      49.939  27.282  22.270  1.00  0.00     0.124 S 
ATOM     86  O   UNL A   1      51.286  26.766  22.054  1.00  0.00    -0.237 OA
ATOM     87  O   UNL A   1      48.844  26.411  21.859  1.00  0.00    -0.237 OA
ATOM     88  O   UNL A   1      49.756  28.699  21.962  1.00  0.00    -0.744 OA
ENDBRANCH  81  85
ENDBRANCH  54  78
BRANCH  66  89
ATOM     89  C   UNL A   1      45.475  32.889  29.173  1.00  0.00     0.023 A 
ATOM     90  C   UNL A   1      45.213  34.031  28.395  1.00  0.00     0.031 A 
ATOM     91  C   UNL A   1      46.278  33.038  30.318  1.00  0.00     0.131 A 
ATOM     92  C   UNL A   1      45.798  35.258  28.738  1.00  0.00     0.055 A 
ATOM     93  C   UNL A   1      46.803  34.276  30.691  1.00  0.00     0.041 A 
ATOM     94  F   UNL A   1      46.561  31.982  31.097  1.00  0.00    -0.206 F 
ATOM     95  C   UNL A   1      46.576  35.392  29.892  1.00  0.00     0.022 A 
BRANCH  92  96
ATOM     96  S   UNL A   1      45.606  36.661  27.605  1.00  0.00     0.124 S 
ATOM     97  O   UNL A   1      46.871  36.640  26.880  1.00  0.00    -0.237 OA
ATOM     98  O   UNL A   1      44.425  36.280  26.836  1.00  0.00    -0.237 OA
ATOM     99  O   UNL A   1      45.420  37.802  28.500  1.00  0.00    -0.744 OA
ENDBRANCH  92  96
ENDBRANCH  66  89
ENDBRANCH  40  41
ENDBRANCH  32  35
ENDBRANCH  30  31
ENDBRANCH  29  30
ENDBRANCH   1  29
TORSDOF 18
ENDMDL
