MODEL 1
REMARK VINA RESULT:     -12.2      0.000      0.000
REMARK SMILES CC[C@H](CNC(=O)[C@H]1CSc2ccccc21)C(=O)NCCCCNC(=O)c1ccc(-c2c3nc(c(-c4cc(S(=O)(=O)[O-])ccc4F)c4ccc([nH]4)c(-c4cc(S(=O)(=O)[O-])ccc4F)c4nc(c(-c5cc(S(=O)(=O)[O-])ccc5F)c5ccc2[nH]5)C=C4)C=C3)cc1
REMARK SMILES IDX 21 1 20 2 19 3 17 4 18 5 3 7 2 8 1 9 4 10 5 11 6 12 7 14
REMARK SMILES IDX 8 15 9 16 16 17 10 18 11 19 15 20 12 21 14 22 13 23 22 24
REMARK SMILES IDX 23 25 24 26 25 27 26 29 27 30 28 31 89 32 29 33 88 34 30 35
REMARK SMILES IDX 31 36 32 37 82 38 33 39 87 40 81 41 83 42 34 43 86 44 80 45
REMARK SMILES IDX 79 46 35 48 67 49 47 50 66 51 48 52 51 53 65 54 84 55 49 56
REMARK SMILES IDX 50 57 64 59 85 60 52 61 36 62 37 63 45 64 38 65 44 66 46 67
REMARK SMILES IDX 43 68 39 69 40 70 41 71 42 72 68 73 69 74 77 75 70 76 76 77
REMARK SMILES IDX 78 78 75 79 71 80 72 81 73 82 74 83 53 84 54 85 62 86 55 87
REMARK SMILES IDX 61 88 63 89 60 90 56 91 57 92 58 93 59 94
REMARK H PARENT 19 6 5 13 24 28 83 47 51 58
REMARK Flexibility Score: inf
ROOT
ATOM      1  C   UNL A   1      32.647  29.276  24.194  1.00  0.00     0.023 C 
ENDROOT
BRANCH   1   2
ATOM      2  C   UNL A   1      32.068  28.821  22.861  1.00  0.00     0.116 C 
BRANCH   2   3
ATOM      3  N   UNL A   1      32.860  27.779  22.235  1.00  0.00    -0.356 N 
ATOM      4  C   UNL A   1      32.905  26.432  22.375  1.00  0.00     0.224 C 
ATOM      5  O   UNL A   1      33.679  25.829  21.621  1.00  0.00    -0.275 OA
ATOM      6  H   UNL A   1      33.499  28.122  21.570  1.00  0.00     0.163 HD
BRANCH   4   7
ATOM      7  C   UNL A   1      32.108  25.632  23.408  1.00  0.00     0.097 C 
BRANCH   7   8
ATOM      8  C   UNL A   1      32.543  25.837  24.875  1.00  0.00     0.012 C 
ATOM      9  C   UNL A   1      34.047  25.880  25.141  1.00  0.00     0.005 C 
ENDBRANCH   7   8
BRANCH   7  10
ATOM     10  C   UNL A   1      31.904  24.172  22.989  1.00  0.00     0.129 C 
BRANCH  10  11
ATOM     11  N   UNL A   1      31.284  23.335  24.009  1.00  0.00    -0.355 N 
ATOM     12  C   UNL A   1      31.820  22.356  24.802  1.00  0.00     0.228 C 
ATOM     13  H   UNL A   1      30.325  23.501  24.151  1.00  0.00     0.163 HD
ATOM     14  O   UNL A   1      31.137  21.934  25.736  1.00  0.00    -0.274 OA
BRANCH  12  15
ATOM     15  C   UNL A   1      33.212  21.823  24.513  1.00  0.00     0.120 C 
ATOM     16  C   UNL A   1      34.179  22.183  25.644  1.00  0.00     0.093 C 
ATOM     17  C   UNL A   1      33.299  20.324  24.339  1.00  0.00    -0.021 A 
ATOM     18  S   UNL A   1      35.576  21.022  25.481  1.00  0.00    -0.125 SA
ATOM     19  C   UNL A   1      34.538  19.798  24.728  1.00  0.00     0.011 A 
ATOM     20  C   UNL A   1      32.352  19.499  23.736  1.00  0.00     0.006 A 
ATOM     21  C   UNL A   1      34.859  18.468  24.508  1.00  0.00     0.015 A 
ATOM     22  C   UNL A   1      32.661  18.152  23.529  1.00  0.00     0.000 A 
ATOM     23  C   UNL A   1      33.911  17.641  23.903  1.00  0.00     0.001 A 
ENDBRANCH  12  15
ENDBRANCH  10  11
ENDBRANCH   7  10
ENDBRANCH   4   7
ENDBRANCH   2   3
ENDBRANCH   1   2
BRANCH   1  24
ATOM     24  C   UNL A   1      31.601  29.763  25.194  1.00  0.00     0.023 C 
BRANCH  24  25
ATOM     25  C   UNL A   1      32.179  30.233  26.518  1.00  0.00     0.116 C 
BRANCH  25  26
ATOM     26  N   UNL A   1      31.946  31.647  26.785  1.00  0.00    -0.352 N 
ATOM     27  C   UNL A   1      32.801  32.552  27.384  1.00  0.00     0.251 C 
ATOM     28  H   UNL A   1      31.072  32.000  26.504  1.00  0.00     0.163 HD
ATOM     29  O   UNL A   1      32.423  33.688  27.630  1.00  0.00    -0.269 OA
BRANCH  27  30
ATOM     30  C   UNL A   1      34.156  32.098  27.772  1.00  0.00     0.039 A 
ATOM     31  C   UNL A   1      34.375  30.764  28.107  1.00  0.00     0.014 A 
ATOM     32  C   UNL A   1      35.188  33.032  27.899  1.00  0.00     0.014 A 
ATOM     33  C   UNL A   1      35.536  30.412  28.778  1.00  0.00     0.010 A 
ATOM     34  C   UNL A   1      36.410  32.642  28.460  1.00  0.00     0.010 A 
ATOM     35  C   UNL A   1      36.575  31.342  28.964  1.00  0.00    -0.014 A 
BRANCH  35  36
ATOM     36  C   UNL A   1      37.806  30.906  29.682  1.00  0.00     0.031 A 
ATOM     37  C   UNL A   1      38.040  31.261  31.128  1.00  0.00     0.074 A 
ATOM     38  C   UNL A   1      38.672  30.095  29.040  1.00  0.00     0.049 A 
ATOM     39  N   UNL A   1      39.018  30.888  31.915  1.00  0.00    -0.248 NA
ATOM     40  C   UNL A   1      37.068  32.157  31.777  1.00  0.00     0.031 C 
ATOM     41  C   UNL A   1      38.547  29.690  27.639  1.00  0.00     0.029 A 
ATOM     42  N   UNL A   1      39.785  29.421  29.479  1.00  0.00    -0.354 N 
ATOM     43  C   UNL A   1      38.803  31.529  33.130  1.00  0.00     0.074 A 
ATOM     44  C   UNL A   1      37.611  32.333  32.974  1.00  0.00     0.031 C 
ATOM     45  C   UNL A   1      39.465  28.754  27.368  1.00  0.00     0.029 A 
ATOM     46  C   UNL A   1      40.313  28.562  28.541  1.00  0.00     0.049 A 
ATOM     47  H   UNL A   1      40.169  29.540  30.378  1.00  0.00     0.167 HD
ATOM     48  C   UNL A   1      39.532  31.449  34.270  1.00  0.00     0.034 A 
ATOM     49  C   UNL A   1      41.358  27.713  28.608  1.00  0.00     0.034 A 
ATOM     50  C   UNL A   1      40.691  30.606  34.423  1.00  0.00     0.049 A 
ATOM     51  C   UNL A   1      42.133  27.623  29.895  1.00  0.00     0.074 A 
ATOM     52  C   UNL A   1      41.480  30.436  35.547  1.00  0.00     0.029 A 
ATOM     53  N   UNL A   1      41.217  29.779  33.440  1.00  0.00    -0.354 N 
ATOM     54  N   UNL A   1      41.900  28.226  31.038  1.00  0.00    -0.248 NA
ATOM     55  C   UNL A   1      43.313  26.750  29.905  1.00  0.00     0.031 C 
ATOM     56  C   UNL A   1      42.510  29.550  35.230  1.00  0.00     0.029 A 
ATOM     57  C   UNL A   1      42.328  29.111  33.929  1.00  0.00     0.049 A 
ATOM     58  H   UNL A   1      40.853  29.681  32.530  1.00  0.00     0.167 HD
ATOM     59  C   UNL A   1      42.898  27.795  31.905  1.00  0.00     0.074 A 
ATOM     60  C   UNL A   1      43.715  26.855  31.166  1.00  0.00     0.031 C 
ATOM     61  C   UNL A   1      43.124  28.159  33.193  1.00  0.00     0.034 A 
BRANCH  48  62
ATOM     62  C   UNL A   1      39.119  32.278  35.462  1.00  0.00     0.023 A 
ATOM     63  C   UNL A   1      39.619  33.588  35.609  1.00  0.00     0.031 A 
ATOM     64  C   UNL A   1      38.359  31.735  36.513  1.00  0.00     0.131 A 
ATOM     65  C   UNL A   1      39.389  34.293  36.797  1.00  0.00     0.055 A 
ATOM     66  C   UNL A   1      38.098  32.459  37.677  1.00  0.00     0.041 A 
ATOM     67  F   UNL A   1      37.859  30.494  36.420  1.00  0.00    -0.206 F 
ATOM     68  C   UNL A   1      38.624  33.739  37.828  1.00  0.00     0.022 A 
BRANCH  65  69
ATOM     69  S   UNL A   1      40.123  35.929  37.075  1.00  0.00     0.124 S 
ATOM     70  O   UNL A   1      39.715  36.649  35.870  1.00  0.00    -0.237 OA
ATOM     71  O   UNL A   1      39.466  36.353  38.307  1.00  0.00    -0.237 OA
ATOM     72  O   UNL A   1      41.553  35.659  37.181  1.00  0.00    -0.744 OA
ENDBRANCH  65  69
ENDBRANCH  48  62
BRANCH  49  73
ATOM     73  C   UNL A   1      41.676  26.851  27.431  1.00  0.00     0.023 A 
ATOM     74  C   UNL A   1      41.304  25.494  27.402  1.00  0.00     0.031 A 
ATOM     75  C   UNL A   1      42.463  27.340  26.374  1.00  0.00     0.131 A 
ATOM     76  C   UNL A   1      41.793  24.657  26.391  1.00  0.00     0.055 A 
ATOM     77  C   UNL A   1      42.879  26.520  25.324  1.00  0.00     0.041 A 
ATOM     78  F   UNL A   1      42.855  28.624  26.360  1.00  0.00    -0.206 F 
ATOM     79  C   UNL A   1      42.563  25.165  25.341  1.00  0.00     0.022 A 
BRANCH  76  80
ATOM     80  S   UNL A   1      41.590  22.856  26.503  1.00  0.00     0.124 S 
ATOM     81  O   UNL A   1      42.241  22.557  27.774  1.00  0.00    -0.237 OA
ATOM     82  O   UNL A   1      40.135  22.716  26.488  1.00  0.00    -0.237 OA
ATOM     83  O   UNL A   1      42.269  22.361  25.310  1.00  0.00    -0.744 OA
ENDBRANCH  76  80
ENDBRANCH  49  73
BRANCH  61  84
ATOM     84  C   UNL A   1      44.294  27.542  33.919  1.00  0.00     0.023 A 
ATOM     85  C   UNL A   1      44.128  26.331  34.616  1.00  0.00     0.031 A 
ATOM     86  C   UNL A   1      45.515  28.225  34.048  1.00  0.00     0.131 A 
ATOM     87  C   UNL A   1      45.156  25.855  35.439  1.00  0.00     0.055 A 
ATOM     88  C   UNL A   1      46.553  27.725  34.835  1.00  0.00     0.041 A 
ATOM     89  F   UNL A   1      45.716  29.391  33.413  1.00  0.00    -0.206 F 
ATOM     90  C   UNL A   1      46.369  26.542  35.547  1.00  0.00     0.022 A 
BRANCH  87  91
ATOM     91  S   UNL A   1      44.923  24.380  36.469  1.00  0.00     0.124 S 
ATOM     92  O   UNL A   1      46.262  23.794  36.462  1.00  0.00    -0.237 OA
ATOM     93  O   UNL A   1      44.500  24.956  37.742  1.00  0.00    -0.237 OA
ATOM     94  O   UNL A   1      43.904  23.612  35.760  1.00  0.00    -0.744 OA
ENDBRANCH  87  91
ENDBRANCH  61  84
ENDBRANCH  35  36
ENDBRANCH  27  30
ENDBRANCH  25  26
ENDBRANCH  24  25
ENDBRANCH   1  24
TORSDOF 18
ENDMDL
MODEL 2
REMARK VINA RESULT:     -11.9      1.896      2.588
REMARK SMILES CC[C@H](CNC(=O)[C@H]1CSc2ccccc21)C(=O)NCCCCNC(=O)c1ccc(-c2c3nc(c(-c4cc(S(=O)(=O)[O-])ccc4F)c4ccc([nH]4)c(-c4cc(S(=O)(=O)[O-])ccc4F)c4nc(c(-c5cc(S(=O)(=O)[O-])ccc5F)c5ccc2[nH]5)C=C4)C=C3)cc1
REMARK SMILES IDX 21 1 20 2 19 3 17 4 18 5 3 7 2 8 1 9 4 10 5 11 6 12 7 14
REMARK SMILES IDX 8 15 9 16 16 17 10 18 11 19 15 20 12 21 14 22 13 23 22 24
REMARK SMILES IDX 23 25 24 26 25 27 26 29 27 30 28 31 89 32 29 33 88 34 30 35
REMARK SMILES IDX 31 36 32 37 82 38 33 39 87 40 81 41 83 42 34 43 86 44 80 45
REMARK SMILES IDX 79 46 35 48 67 49 47 50 66 51 48 52 51 53 65 54 84 55 49 56
REMARK SMILES IDX 50 57 64 59 85 60 52 61 36 62 37 63 45 64 38 65 44 66 46 67
REMARK SMILES IDX 43 68 39 69 40 70 41 71 42 72 68 73 69 74 77 75 70 76 76 77
REMARK SMILES IDX 78 78 75 79 71 80 72 81 73 82 74 83 53 84 54 85 62 86 55 87
REMARK SMILES IDX 61 88 63 89 60 90 56 91 57 92 58 93 59 94
REMARK H PARENT 19 6 5 13 24 28 83 47 51 58
REMARK Flexibility Score: inf
ROOT
ATOM      1  C   UNL A   1      32.875  27.346  26.166  1.00  0.00     0.023 C 
ENDROOT
BRANCH   1   2
ATOM      2  C   UNL A   1      31.562  27.028  26.870  1.00  0.00     0.116 C 
BRANCH   2   3
ATOM      3  N   UNL A   1      31.200  25.627  26.771  1.00  0.00    -0.356 N 
ATOM      4  C   UNL A   1      30.819  24.834  25.741  1.00  0.00     0.224 C 
ATOM      5  O   UNL A   1      30.638  23.639  26.008  1.00  0.00    -0.275 OA
ATOM      6  H   UNL A   1      31.239  25.153  27.634  1.00  0.00     0.163 HD
BRANCH   4   7
ATOM      7  C   UNL A   1      30.565  25.317  24.312  1.00  0.00     0.097 C 
BRANCH   7   8
ATOM      8  C   UNL A   1      29.396  26.313  24.152  1.00  0.00     0.012 C 
ATOM      9  C   UNL A   1      29.617  27.476  23.187  1.00  0.00     0.005 C 
ENDBRANCH   7   8
BRANCH   7  10
ATOM     10  C   UNL A   1      30.587  24.173  23.292  1.00  0.00     0.129 C 
BRANCH  10  11
ATOM     11  N   UNL A   1      31.761  24.157  22.430  1.00  0.00    -0.355 N 
ATOM     12  C   UNL A   1      32.895  23.392  22.485  1.00  0.00     0.228 C 
ATOM     13  H   UNL A   1      31.735  24.802  21.687  1.00  0.00     0.163 HD
ATOM     14  O   UNL A   1      33.657  23.423  21.518  1.00  0.00    -0.274 OA
BRANCH  12  15
ATOM     15  C   UNL A   1      33.180  22.548  23.713  1.00  0.00     0.120 C 
ATOM     16  C   UNL A   1      32.519  21.172  23.595  1.00  0.00     0.093 C 
ATOM     17  C   UNL A   1      34.645  22.293  23.988  1.00  0.00    -0.021 A 
ATOM     18  S   UNL A   1      33.402  20.101  24.777  1.00  0.00    -0.125 SA
ATOM     19  C   UNL A   1      34.878  21.072  24.635  1.00  0.00     0.011 A 
ATOM     20  C   UNL A   1      35.697  23.182  23.782  1.00  0.00     0.006 A 
ATOM     21  C   UNL A   1      36.138  20.730  25.099  1.00  0.00     0.015 A 
ATOM     22  C   UNL A   1      36.976  22.835  24.230  1.00  0.00     0.000 A 
ATOM     23  C   UNL A   1      37.193  21.621  24.893  1.00  0.00     0.001 A 
ENDBRANCH  12  15
ENDBRANCH  10  11
ENDBRANCH   7  10
ENDBRANCH   4   7
ENDBRANCH   2   3
ENDBRANCH   1   2
BRANCH   1  24
ATOM     24  C   UNL A   1      32.721  28.228  24.929  1.00  0.00     0.023 C 
BRANCH  24  25
ATOM     25  C   UNL A   1      33.444  29.560  25.022  1.00  0.00     0.116 C 
BRANCH  25  26
ATOM     26  N   UNL A   1      32.747  30.544  25.841  1.00  0.00    -0.352 N 
ATOM     27  C   UNL A   1      33.194  31.165  26.991  1.00  0.00     0.251 C 
ATOM     28  H   UNL A   1      31.846  30.797  25.537  1.00  0.00     0.163 HD
ATOM     29  O   UNL A   1      32.450  31.899  27.626  1.00  0.00    -0.269 OA
BRANCH  27  30
ATOM     30  C   UNL A   1      34.567  30.876  27.465  1.00  0.00     0.039 A 
ATOM     31  C   UNL A   1      34.934  29.571  27.784  1.00  0.00     0.014 A 
ATOM     32  C   UNL A   1      35.457  31.929  27.690  1.00  0.00     0.014 A 
ATOM     33  C   UNL A   1      36.082  29.348  28.528  1.00  0.00     0.010 A 
ATOM     34  C   UNL A   1      36.678  31.680  28.329  1.00  0.00     0.010 A 
ATOM     35  C   UNL A   1      36.975  30.396  28.812  1.00  0.00    -0.014 A 
BRANCH  35  36
ATOM     36  C   UNL A   1      38.199  30.097  29.607  1.00  0.00     0.031 A 
ATOM     37  C   UNL A   1      38.347  30.568  31.031  1.00  0.00     0.074 A 
ATOM     38  C   UNL A   1      39.145  29.306  29.060  1.00  0.00     0.049 A 
ATOM     39  N   UNL A   1      39.312  30.319  31.881  1.00  0.00    -0.248 NA
ATOM     40  C   UNL A   1      37.290  31.437  31.575  1.00  0.00     0.031 C 
ATOM     41  C   UNL A   1      39.108  28.796  27.688  1.00  0.00     0.029 A 
ATOM     42  N   UNL A   1      40.280  28.742  29.590  1.00  0.00    -0.354 N 
ATOM     43  C   UNL A   1      39.002  31.027  33.037  1.00  0.00     0.074 A 
ATOM     44  C   UNL A   1      37.767  31.733  32.777  1.00  0.00     0.031 C 
ATOM     45  C   UNL A   1      40.097  27.910  27.521  1.00  0.00     0.029 A 
ATOM     46  C   UNL A   1      40.903  27.858  28.737  1.00  0.00     0.049 A 
ATOM     47  H   UNL A   1      40.616  28.950  30.492  1.00  0.00     0.167 HD
ATOM     48  C   UNL A   1      39.684  31.077  34.207  1.00  0.00     0.034 A 
ATOM     49  C   UNL A   1      41.999  27.091  28.906  1.00  0.00     0.034 A 
ATOM     50  C   UNL A   1      40.889  30.328  34.466  1.00  0.00     0.049 A 
ATOM     51  C   UNL A   1      42.721  27.144  30.225  1.00  0.00     0.074 A 
ATOM     52  C   UNL A   1      41.637  30.292  35.629  1.00  0.00     0.029 A 
ATOM     53  N   UNL A   1      41.511  29.473  33.567  1.00  0.00    -0.354 N 
ATOM     54  N   UNL A   1      42.400  27.808  31.311  1.00  0.00    -0.248 NA
ATOM     55  C   UNL A   1      43.955  26.358  30.344  1.00  0.00     0.031 C 
ATOM     56  C   UNL A   1      42.737  29.460  35.417  1.00  0.00     0.029 A 
ATOM     57  C   UNL A   1      42.641  28.920  34.145  1.00  0.00     0.049 A 
ATOM     58  H   UNL A   1      41.194  29.288  32.652  1.00  0.00     0.167 HD
ATOM     59  C   UNL A   1      43.385  27.509  32.246  1.00  0.00     0.074 A 
ATOM     60  C   UNL A   1      44.294  26.578  31.609  1.00  0.00     0.031 C 
ATOM     61  C   UNL A   1      43.530  27.975  33.511  1.00  0.00     0.034 A 
BRANCH  48  62
ATOM     62  C   UNL A   1      39.166  31.956  35.319  1.00  0.00     0.023 A 
ATOM     63  C   UNL A   1      38.564  31.369  36.451  1.00  0.00     0.031 A 
ATOM     64  C   UNL A   1      39.132  33.356  35.200  1.00  0.00     0.131 A 
ATOM     65  C   UNL A   1      37.920  32.177  37.396  1.00  0.00     0.055 A 
ATOM     66  C   UNL A   1      38.524  34.159  36.167  1.00  0.00     0.041 A 
ATOM     67  F   UNL A   1      39.693  33.963  34.143  1.00  0.00    -0.206 F 
ATOM     68  C   UNL A   1      37.904  33.569  37.264  1.00  0.00     0.022 A 
BRANCH  65  69
ATOM     69  S   UNL A   1      37.025  31.451  38.797  1.00  0.00     0.124 S 
ATOM     70  O   UNL A   1      36.838  30.072  38.351  1.00  0.00    -0.237 OA
ATOM     71  O   UNL A   1      37.975  31.629  39.891  1.00  0.00    -0.237 OA
ATOM     72  O   UNL A   1      35.804  32.245  38.885  1.00  0.00    -0.744 OA
ENDBRANCH  65  69
ENDBRANCH  48  62
BRANCH  49  73
ATOM     73  C   UNL A   1      42.424  26.172  27.807  1.00  0.00     0.023 A 
ATOM     74  C   UNL A   1      41.822  24.913  27.639  1.00  0.00     0.031 A 
ATOM     75  C   UNL A   1      43.522  26.491  26.989  1.00  0.00     0.131 A 
ATOM     76  C   UNL A   1      42.374  23.987  26.744  1.00  0.00     0.055 A 
ATOM     77  C   UNL A   1      44.018  25.597  26.039  1.00  0.00     0.041 A 
ATOM     78  F   UNL A   1      44.140  27.676  27.118  1.00  0.00    -0.206 F 
ATOM     79  C   UNL A   1      43.457  24.328  25.929  1.00  0.00     0.022 A 
BRANCH  76  80
ATOM     80  S   UNL A   1      41.814  22.261  26.736  1.00  0.00     0.124 S 
ATOM     81  O   UNL A   1      42.654  21.665  27.770  1.00  0.00    -0.237 OA
ATOM     82  O   UNL A   1      40.399  22.401  27.073  1.00  0.00    -0.237 OA
ATOM     83  O   UNL A   1      42.081  21.821  25.371  1.00  0.00    -0.744 OA
ENDBRANCH  76  80
ENDBRANCH  49  73
BRANCH  61  84
ATOM     84  C   UNL A   1      44.705  27.494  34.325  1.00  0.00     0.023 A 
ATOM     85  C   UNL A   1      44.596  26.314  35.085  1.00  0.00     0.031 A 
ATOM     86  C   UNL A   1      45.864  28.275  34.468  1.00  0.00     0.131 A 
ATOM     87  C   UNL A   1      45.615  25.967  35.980  1.00  0.00     0.055 A 
ATOM     88  C   UNL A   1      46.896  27.902  35.330  1.00  0.00     0.041 A 
ATOM     89  F   UNL A   1      46.008  29.415  33.774  1.00  0.00    -0.206 F 
ATOM     90  C   UNL A   1      46.767  26.750  36.102  1.00  0.00     0.022 A 
BRANCH  87  91
ATOM     91  S   UNL A   1      45.442  24.539  37.086  1.00  0.00     0.124 S 
ATOM     92  O   UNL A   1      44.969  25.167  38.318  1.00  0.00    -0.237 OA
ATOM     93  O   UNL A   1      44.455  23.723  36.384  1.00  0.00    -0.237 OA
ATOM     94  O   UNL A   1      46.787  23.978  37.151  1.00  0.00    -0.744 OA
ENDBRANCH  87  91
ENDBRANCH  61  84
ENDBRANCH  35  36
ENDBRANCH  27  30
ENDBRANCH  25  26
ENDBRANCH  24  25
ENDBRANCH   1  24
TORSDOF 18
ENDMDL
MODEL 3
REMARK VINA RESULT:     -11.6      2.011      3.682
REMARK SMILES CC[C@H](CNC(=O)[C@H]1CSc2ccccc21)C(=O)NCCCCNC(=O)c1ccc(-c2c3nc(c(-c4cc(S(=O)(=O)[O-])ccc4F)c4ccc([nH]4)c(-c4cc(S(=O)(=O)[O-])ccc4F)c4nc(c(-c5cc(S(=O)(=O)[O-])ccc5F)c5ccc2[nH]5)C=C4)C=C3)cc1
REMARK SMILES IDX 21 1 20 2 19 3 17 4 18 5 3 7 2 8 1 9 4 10 5 11 6 12 7 14
REMARK SMILES IDX 8 15 9 16 16 17 10 18 11 19 15 20 12 21 14 22 13 23 22 24
REMARK SMILES IDX 23 25 24 26 25 27 26 29 27 30 28 31 89 32 29 33 88 34 30 35
REMARK SMILES IDX 31 36 32 37 82 38 33 39 87 40 81 41 83 42 34 43 86 44 80 45
REMARK SMILES IDX 79 46 35 48 67 49 47 50 66 51 48 52 51 53 65 54 84 55 49 56
REMARK SMILES IDX 50 57 64 59 85 60 52 61 36 62 37 63 45 64 38 65 44 66 46 67
REMARK SMILES IDX 43 68 39 69 40 70 41 71 42 72 68 73 69 74 77 75 70 76 76 77
REMARK SMILES IDX 78 78 75 79 71 80 72 81 73 82 74 83 53 84 54 85 62 86 55 87
REMARK SMILES IDX 61 88 63 89 60 90 56 91 57 92 58 93 59 94
REMARK H PARENT 19 6 5 13 24 28 83 47 51 58
REMARK Flexibility Score: inf
ROOT
ATOM      1  C   UNL A   1      31.294  27.400  26.413  1.00  0.00     0.023 C 
ENDROOT
BRANCH   1   2
ATOM      2  C   UNL A   1      32.185  26.165  26.433  1.00  0.00     0.116 C 
BRANCH   2   3
ATOM      3  N   UNL A   1      31.505  24.994  26.952  1.00  0.00    -0.356 N 
ATOM      4  C   UNL A   1      31.259  23.760  26.450  1.00  0.00     0.224 C 
ATOM      5  O   UNL A   1      30.687  22.965  27.206  1.00  0.00    -0.275 OA
ATOM      6  H   UNL A   1      31.144  25.124  27.860  1.00  0.00     0.163 HD
BRANCH   4   7
ATOM      7  C   UNL A   1      31.601  23.309  25.029  1.00  0.00     0.097 C 
BRANCH   7   8
ATOM      8  C   UNL A   1      33.110  23.199  24.719  1.00  0.00     0.012 C 
ATOM      9  C   UNL A   1      33.934  22.316  25.653  1.00  0.00     0.005 C 
ENDBRANCH   7   8
BRANCH   7  10
ATOM     10  C   UNL A   1      30.772  24.040  23.966  1.00  0.00     0.129 C 
BRANCH  10  11
ATOM     11  N   UNL A   1      31.430  24.165  22.672  1.00  0.00    -0.355 N 
ATOM     12  C   UNL A   1      32.275  25.130  22.195  1.00  0.00     0.228 C 
ATOM     13  H   UNL A   1      31.235  23.439  22.038  1.00  0.00     0.163 HD
ATOM     14  O   UNL A   1      32.865  24.906  21.136  1.00  0.00    -0.274 OA
BRANCH  12  15
ATOM     15  C   UNL A   1      32.456  26.427  22.962  1.00  0.00     0.120 C 
ATOM     16  C   UNL A   1      33.642  27.225  22.413  1.00  0.00     0.093 C 
ATOM     17  C   UNL A   1      31.266  27.360  22.931  1.00  0.00    -0.021 A 
ATOM     18  S   UNL A   1      33.383  28.939  22.976  1.00  0.00    -0.125 SA
ATOM     19  C   UNL A   1      31.626  28.710  23.029  1.00  0.00     0.011 A 
ATOM     20  C   UNL A   1      29.922  26.995  22.948  1.00  0.00     0.006 A 
ATOM     21  C   UNL A   1      30.669  29.704  23.165  1.00  0.00     0.015 A 
ATOM     22  C   UNL A   1      28.951  27.993  23.064  1.00  0.00     0.000 A 
ATOM     23  C   UNL A   1      29.322  29.339  23.182  1.00  0.00     0.001 A 
ENDBRANCH  12  15
ENDBRANCH  10  11
ENDBRANCH   7  10
ENDBRANCH   4   7
ENDBRANCH   2   3
ENDBRANCH   1   2
BRANCH   1  24
ATOM     24  C   UNL A   1      31.805  28.553  27.275  1.00  0.00     0.023 C 
BRANCH  24  25
ATOM     25  C   UNL A   1      32.729  29.512  26.545  1.00  0.00     0.116 C 
BRANCH  25  26
ATOM     26  N   UNL A   1      32.455  30.914  26.831  1.00  0.00    -0.352 N 
ATOM     27  C   UNL A   1      33.286  31.838  27.436  1.00  0.00     0.251 C 
ATOM     28  H   UNL A   1      31.569  31.244  26.561  1.00  0.00     0.163 HD
ATOM     29  O   UNL A   1      32.875  32.959  27.699  1.00  0.00    -0.269 OA
BRANCH  27  30
ATOM     30  C   UNL A   1      34.657  31.421  27.809  1.00  0.00     0.039 A 
ATOM     31  C   UNL A   1      34.915  30.095  28.147  1.00  0.00     0.014 A 
ATOM     32  C   UNL A   1      35.665  32.382  27.921  1.00  0.00     0.014 A 
ATOM     33  C   UNL A   1      36.093  29.776  28.804  1.00  0.00     0.010 A 
ATOM     34  C   UNL A   1      36.904  32.027  28.469  1.00  0.00     0.010 A 
ATOM     35  C   UNL A   1      37.109  30.734  28.975  1.00  0.00    -0.014 A 
BRANCH  35  36
ATOM     36  C   UNL A   1      38.359  30.333  29.680  1.00  0.00     0.031 A 
ATOM     37  C   UNL A   1      38.632  30.756  31.100  1.00  0.00     0.074 A 
ATOM     38  C   UNL A   1      39.209  29.492  29.054  1.00  0.00     0.049 A 
ATOM     39  N   UNL A   1      39.631  30.421  31.878  1.00  0.00    -0.248 NA
ATOM     40  C   UNL A   1      37.676  31.681  31.732  1.00  0.00     0.031 C 
ATOM     41  C   UNL A   1      39.048  29.021  27.678  1.00  0.00     0.029 A 
ATOM     42  N   UNL A   1      40.335  28.840  29.495  1.00  0.00    -0.354 N 
ATOM     43  C   UNL A   1      39.448  31.119  33.066  1.00  0.00     0.074 A 
ATOM     44  C   UNL A   1      38.250  31.914  32.904  1.00  0.00     0.031 C 
ATOM     45  C   UNL A   1      39.959  28.074  27.427  1.00  0.00     0.029 A 
ATOM     46  C   UNL A   1      40.838  27.938  28.585  1.00  0.00     0.049 A 
ATOM     47  H   UNL A   1      40.743  29.002  30.377  1.00  0.00     0.167 HD
ATOM     48  C   UNL A   1      40.207  31.094  34.189  1.00  0.00     0.034 A 
ATOM     49  C   UNL A   1      41.886  27.093  28.664  1.00  0.00     0.034 A 
ATOM     50  C   UNL A   1      41.371  30.259  34.351  1.00  0.00     0.049 A 
ATOM     51  C   UNL A   1      42.696  27.065  29.932  1.00  0.00     0.074 A 
ATOM     52  C   UNL A   1      42.189  30.143  35.460  1.00  0.00     0.029 A 
ATOM     53  N   UNL A   1      41.871  29.386  33.395  1.00  0.00    -0.354 N 
ATOM     54  N   UNL A   1      42.493  27.721  31.051  1.00  0.00    -0.248 NA
ATOM     55  C   UNL A   1      43.877  26.194  29.952  1.00  0.00     0.031 C 
ATOM     56  C   UNL A   1      43.213  29.243  35.158  1.00  0.00     0.029 A 
ATOM     57  C   UNL A   1      42.996  28.743  33.885  1.00  0.00     0.049 A 
ATOM     58  H   UNL A   1      41.484  29.246  32.500  1.00  0.00     0.167 HD
ATOM     59  C   UNL A   1      43.514  27.333  31.911  1.00  0.00     0.074 A 
ATOM     60  C   UNL A   1      44.313  26.359  31.196  1.00  0.00     0.031 C 
ATOM     61  C   UNL A   1      43.773  27.757  33.173  1.00  0.00     0.034 A 
BRANCH  48  62
ATOM     62  C   UNL A   1      39.824  31.978  35.351  1.00  0.00     0.023 A 
ATOM     63  C   UNL A   1      38.972  31.480  36.357  1.00  0.00     0.031 A 
ATOM     64  C   UNL A   1      40.176  33.338  35.392  1.00  0.00     0.131 A 
ATOM     65  C   UNL A   1      38.468  32.345  37.336  1.00  0.00     0.055 A 
ATOM     66  C   UNL A   1      39.703  34.187  36.394  1.00  0.00     0.041 A 
ATOM     67  F   UNL A   1      40.986  33.860  34.458  1.00  0.00    -0.206 F 
ATOM     68  C   UNL A   1      38.835  33.694  37.364  1.00  0.00     0.022 A 
BRANCH  65  69
ATOM     69  S   UNL A   1      37.269  31.770  38.570  1.00  0.00     0.124 S 
ATOM     70  O   UNL A   1      36.145  32.676  38.342  1.00  0.00    -0.237 OA
ATOM     71  O   UNL A   1      37.048  30.387  38.159  1.00  0.00    -0.237 OA
ATOM     72  O   UNL A   1      37.961  31.949  39.842  1.00  0.00    -0.744 OA
ENDBRANCH  65  69
ENDBRANCH  48  62
BRANCH  49  73
ATOM     73  C   UNL A   1      42.174  26.176  27.521  1.00  0.00     0.023 A 
ATOM     74  C   UNL A   1      41.661  24.867  27.493  1.00  0.00     0.031 A 
ATOM     75  C   UNL A   1      43.066  26.555  26.502  1.00  0.00     0.131 A 
ATOM     76  C   UNL A   1      42.112  23.959  26.526  1.00  0.00     0.055 A 
ATOM     77  C   UNL A   1      43.449  25.672  25.491  1.00  0.00     0.041 A 
ATOM     78  F   UNL A   1      43.594  27.790  26.490  1.00  0.00    -0.206 F 
ATOM     79  C   UNL A   1      42.989  24.360  25.513  1.00  0.00     0.022 A 
BRANCH  76  80
ATOM     80  S   UNL A   1      41.711  22.194  26.655  1.00  0.00     0.124 S 
ATOM     81  O   UNL A   1      42.511  21.785  27.805  1.00  0.00    -0.237 OA
ATOM     82  O   UNL A   1      40.266  22.228  26.870  1.00  0.00    -0.237 OA
ATOM     83  O   UNL A   1      42.130  21.653  25.366  1.00  0.00    -0.744 OA
ENDBRANCH  76  80
ENDBRANCH  49  73
BRANCH  61  84
ATOM     84  C   UNL A   1      44.964  27.176  33.897  1.00  0.00     0.023 A 
ATOM     85  C   UNL A   1      44.797  26.060  34.738  1.00  0.00     0.031 A 
ATOM     86  C   UNL A   1      46.215  27.814  33.874  1.00  0.00     0.131 A 
ATOM     87  C   UNL A   1      45.857  25.637  35.549  1.00  0.00     0.055 A 
ATOM     88  C   UNL A   1      47.281  27.362  34.651  1.00  0.00     0.041 A 
ATOM     89  F   UNL A   1      46.418  28.890  33.097  1.00  0.00    -0.206 F 
ATOM     90  C   UNL A   1      47.100  26.277  35.506  1.00  0.00     0.022 A 
BRANCH  87  91
ATOM     91  S   UNL A   1      45.635  24.300  36.756  1.00  0.00     0.124 S 
ATOM     92  O   UNL A   1      47.004  23.817  36.925  1.00  0.00    -0.237 OA
ATOM     93  O   UNL A   1      45.077  25.010  37.903  1.00  0.00    -0.237 OA
ATOM     94  O   UNL A   1      44.727  23.372  36.091  1.00  0.00    -0.744 OA
ENDBRANCH  87  91
ENDBRANCH  61  84
ENDBRANCH  35  36
ENDBRANCH  27  30
ENDBRANCH  25  26
ENDBRANCH  24  25
ENDBRANCH   1  24
TORSDOF 18
ENDMDL
