MODEL 1
REMARK VINA RESULT:     -10.7      0.000      0.000
REMARK SMILES CC[N@@H+]1CCC[C@@H]1C[N@@H+](C)C[C@H]([NH3+])C(=O)NCCCCNC(=O)c1ccc(-c2c3nc(c(-c4cc(S(=O)(=O)[O-])ccc4F)c4ccc([nH]4)c(-c4cc(S(=O)(=O)[O-])ccc4F)c4nc(c(-c5cc(S(=O)(=O)[O-])ccc5F)c5ccc2[nH]5)C=C4)C=C3)cc1
REMARK SMILES IDX 17 1 16 2 14 3 15 4 12 6 11 7 9 8 10 9 8 11 7 12 3 13 4 14
REMARK SMILES IDX 5 16 6 17 2 18 1 19 13 20 18 24 19 25 20 26 21 27 22 28
REMARK SMILES IDX 23 30 24 31 25 32 86 33 26 34 85 35 27 36 28 37 29 38 79 39
REMARK SMILES IDX 30 40 84 41 78 42 80 43 31 44 83 45 77 46 76 47 32 49 64 50
REMARK SMILES IDX 44 51 63 52 45 53 48 54 62 55 81 56 46 57 47 58 61 60 82 61
REMARK SMILES IDX 49 62 33 63 34 64 42 65 35 66 41 67 43 68 40 69 36 70 37 71
REMARK SMILES IDX 38 72 39 73 65 74 66 75 74 76 67 77 73 78 75 79 72 80 68 81
REMARK SMILES IDX 69 82 70 83 71 84 50 85 51 86 59 87 52 88 58 89 60 90 57 91
REMARK SMILES IDX 53 92 54 93 55 94 56 95
REMARK H PARENT 16 5 9 10 3 15 13 21 13 22 13 23 21 29 80 48 48 59
REMARK Flexibility Score: inf
ROOT
ATOM      1  C   UNL A   1      33.153  21.733  24.492  1.00  0.00     0.116 C 
ENDROOT
BRANCH   1   2
ATOM      2  N   UNL A   1      33.375  22.152  23.135  1.00  0.00    -0.351 N 
ATOM      3  C   UNL A   1      32.947  23.300  22.518  1.00  0.00     0.284 C 
ATOM      4  O   UNL A   1      33.466  23.559  21.423  1.00  0.00    -0.268 OA
ATOM      5  H   UNL A   1      33.904  21.536  22.577  1.00  0.00     0.163 HD
BRANCH   3   6
ATOM      6  C   UNL A   1      31.872  24.274  23.097  1.00  0.00     0.326 C 
BRANCH   6   7
ATOM      7  C   UNL A   1      32.282  25.279  24.232  1.00  0.00     0.338 C 
BRANCH   7   8
ATOM      8  N   UNL A   1      33.622  25.879  24.455  1.00  0.00    -0.327 N 
ATOM      9  C   UNL A   1      34.340  25.096  25.470  1.00  0.00     0.333 C 
ATOM     10  H   UNL A   1      34.099  25.830  23.554  1.00  0.00     0.348 HD
BRANCH   8  11
ATOM     11  C   UNL A   1      33.646  27.314  24.764  1.00  0.00     0.327 C 
BRANCH  11  12
ATOM     12  C   UNL A   1      33.139  27.872  26.123  1.00  0.00     0.239 C 
ATOM     13  N   UNL A   1      31.895  28.730  26.054  1.00  0.00    -0.328 N 
ATOM     14  C   UNL A   1      32.046  29.719  27.128  1.00  0.00     0.262 C 
ATOM     15  H   UNL A   1      31.068  28.146  26.176  1.00  0.00     0.348 HD
ATOM     16  C   UNL A   1      33.518  30.062  27.100  1.00  0.00     0.068 C 
ATOM     17  C   UNL A   1      34.170  28.708  26.893  1.00  0.00     0.077 C 
BRANCH  13  18
ATOM     18  C   UNL A   1      31.639  29.353  24.745  1.00  0.00     0.259 C 
ATOM     19  C   UNL A   1      30.548  28.718  23.888  1.00  0.00     0.071 C 
ENDBRANCH  13  18
ENDBRANCH  11  12
ENDBRANCH   8  11
ENDBRANCH   7   8
ENDBRANCH   6   7
BRANCH   6  20
ATOM     20  N   UNL A   1      30.508  23.691  23.184  1.00  0.00    -0.343 N 
ATOM     21  H   UNL A   1      30.563  22.679  23.065  1.00  0.00     0.345 HD
ATOM     22  H   UNL A   1      29.921  24.088  22.451  1.00  0.00     0.345 HD
ATOM     23  H   UNL A   1      30.105  23.904  24.096  1.00  0.00     0.345 HD
ENDBRANCH   6  20
ENDBRANCH   3   6
ENDBRANCH   1   2
BRANCH   1  24
ATOM     24  C   UNL A   1      34.310  21.147  25.285  1.00  0.00     0.023 C 
BRANCH  24  25
ATOM     25  C   UNL A   1      35.702  21.249  24.668  1.00  0.00     0.023 C 
BRANCH  25  26
ATOM     26  C   UNL A   1      36.844  21.743  25.556  1.00  0.00     0.116 C 
BRANCH  26  27
ATOM     27  N   UNL A   1      38.029  20.887  25.602  1.00  0.00    -0.352 N 
ATOM     28  C   UNL A   1      39.298  21.121  26.091  1.00  0.00     0.251 C 
ATOM     29  H   UNL A   1      37.898  19.990  25.218  1.00  0.00     0.163 HD
ATOM     30  O   UNL A   1      40.165  20.258  25.975  1.00  0.00    -0.269 OA
BRANCH  28  31
ATOM     31  C   UNL A   1      39.633  22.427  26.698  1.00  0.00     0.039 A 
ATOM     32  C   UNL A   1      40.696  22.512  27.600  1.00  0.00     0.014 A 
ATOM     33  C   UNL A   1      38.946  23.577  26.322  1.00  0.00     0.014 A 
ATOM     34  C   UNL A   1      41.166  23.769  27.993  1.00  0.00     0.010 A 
ATOM     35  C   UNL A   1      39.498  24.820  26.598  1.00  0.00     0.010 A 
ATOM     36  C   UNL A   1      40.628  24.934  27.423  1.00  0.00    -0.014 A 
BRANCH  36  37
ATOM     37  C   UNL A   1      41.230  26.278  27.642  1.00  0.00     0.031 A 
ATOM     38  C   UNL A   1      42.592  26.591  27.080  1.00  0.00     0.074 A 
ATOM     39  C   UNL A   1      40.610  27.168  28.445  1.00  0.00     0.049 A 
ATOM     40  N   UNL A   1      43.366  27.621  27.304  1.00  0.00    -0.248 NA
ATOM     41  C   UNL A   1      43.184  25.577  26.195  1.00  0.00     0.031 C 
ATOM     42  C   UNL A   1      39.318  26.962  29.107  1.00  0.00     0.029 A 
ATOM     43  N   UNL A   1      40.987  28.424  28.855  1.00  0.00    -0.354 N 
ATOM     44  C   UNL A   1      44.550  27.360  26.621  1.00  0.00     0.074 A 
ATOM     45  C   UNL A   1      44.415  26.041  26.041  1.00  0.00     0.031 C 
ATOM     46  C   UNL A   1      38.996  28.062  29.805  1.00  0.00     0.029 A 
ATOM     47  C   UNL A   1      40.078  29.032  29.690  1.00  0.00     0.049 A 
ATOM     48  H   UNL A   1      41.831  28.848  28.576  1.00  0.00     0.167 HD
ATOM     49  C   UNL A   1      45.636  28.157  26.464  1.00  0.00     0.034 A 
ATOM     50  C   UNL A   1      40.118  30.232  30.305  1.00  0.00     0.034 A 
ATOM     51  C   UNL A   1      45.733  29.488  27.011  1.00  0.00     0.049 A 
ATOM     52  C   UNL A   1      41.322  31.113  30.095  1.00  0.00     0.074 A 
ATOM     53  C   UNL A   1      46.750  30.412  26.857  1.00  0.00     0.029 A 
ATOM     54  N   UNL A   1      44.770  30.087  27.814  1.00  0.00    -0.354 N 
ATOM     55  N   UNL A   1      42.414  30.870  29.407  1.00  0.00    -0.248 NA
ATOM     56  C   UNL A   1      41.295  32.434  30.736  1.00  0.00     0.031 C 
ATOM     57  C   UNL A   1      46.429  31.548  27.609  1.00  0.00     0.029 A 
ATOM     58  C   UNL A   1      45.179  31.361  28.177  1.00  0.00     0.049 A 
ATOM     59  H   UNL A   1      43.922  29.669  28.086  1.00  0.00     0.167 HD
ATOM     60  C   UNL A   1      43.188  32.023  29.506  1.00  0.00     0.074 A 
ATOM     61  C   UNL A   1      42.432  32.963  30.309  1.00  0.00     0.031 C 
ATOM     62  C   UNL A   1      44.412  32.283  28.980  1.00  0.00     0.034 A 
BRANCH  49  63
ATOM     63  C   UNL A   1      46.800  27.596  25.680  1.00  0.00     0.023 A 
ATOM     64  C   UNL A   1      47.093  28.042  24.378  1.00  0.00     0.031 A 
ATOM     65  C   UNL A   1      47.598  26.571  26.215  1.00  0.00     0.131 A 
ATOM     66  C   UNL A   1      48.085  27.399  23.623  1.00  0.00     0.055 A 
ATOM     67  C   UNL A   1      48.647  25.999  25.492  1.00  0.00     0.041 A 
ATOM     68  F   UNL A   1      47.358  26.090  27.446  1.00  0.00    -0.206 F 
ATOM     69  C   UNL A   1      48.883  26.399  24.179  1.00  0.00     0.022 A 
BRANCH  66  70
ATOM     70  S   UNL A   1      48.199  27.776  21.852  1.00  0.00     0.124 S 
ATOM     71  O   UNL A   1      49.348  28.679  21.819  1.00  0.00    -0.237 OA
ATOM     72  O   UNL A   1      48.405  26.459  21.260  1.00  0.00    -0.237 OA
ATOM     73  O   UNL A   1      46.914  28.403  21.551  1.00  0.00    -0.744 OA
ENDBRANCH  66  70
ENDBRANCH  49  63
BRANCH  50  74
ATOM     74  C   UNL A   1      38.988  30.680  31.170  1.00  0.00     0.023 A 
ATOM     75  C   UNL A   1      37.872  31.327  30.616  1.00  0.00     0.031 A 
ATOM     76  C   UNL A   1      39.023  30.507  32.565  1.00  0.00     0.131 A 
ATOM     77  C   UNL A   1      36.859  31.820  31.453  1.00  0.00     0.055 A 
ATOM     78  C   UNL A   1      37.988  30.954  33.389  1.00  0.00     0.041 A 
ATOM     79  F   UNL A   1      40.061  29.887  33.146  1.00  0.00    -0.206 F 
ATOM     80  C   UNL A   1      36.904  31.628  32.835  1.00  0.00     0.022 A 
BRANCH  77  81
ATOM     81  S   UNL A   1      35.519  32.793  30.713  1.00  0.00     0.124 S 
ATOM     82  O   UNL A   1      35.592  32.385  29.315  1.00  0.00    -0.237 OA
ATOM     83  O   UNL A   1      34.357  32.323  31.459  1.00  0.00    -0.237 OA
ATOM     84  O   UNL A   1      35.914  34.174  30.982  1.00  0.00    -0.744 OA
ENDBRANCH  77  81
ENDBRANCH  50  74
BRANCH  62  85
ATOM     85  C   UNL A   1      44.976  33.662  29.215  1.00  0.00     0.023 A 
ATOM     86  C   UNL A   1      44.660  34.744  28.378  1.00  0.00     0.031 A 
ATOM     87  C   UNL A   1      45.852  33.888  30.292  1.00  0.00     0.131 A 
ATOM     88  C   UNL A   1      45.259  35.994  28.597  1.00  0.00     0.055 A 
ATOM     89  C   UNL A   1      46.398  35.148  30.540  1.00  0.00     0.041 A 
ATOM     90  F   UNL A   1      46.188  32.888  31.122  1.00  0.00    -0.206 F 
ATOM     91  C   UNL A   1      46.112  36.206  29.683  1.00  0.00     0.022 A 
BRANCH  88  92
ATOM     92  S   UNL A   1      44.975  37.320  27.392  1.00  0.00     0.124 S 
ATOM     93  O   UNL A   1      45.064  38.513  28.228  1.00  0.00    -0.237 OA
ATOM     94  O   UNL A   1      46.069  37.121  26.447  1.00  0.00    -0.237 OA
ATOM     95  O   UNL A   1      43.643  37.028  26.868  1.00  0.00    -0.744 OA
ENDBRANCH  88  92
ENDBRANCH  62  85
ENDBRANCH  36  37
ENDBRANCH  28  31
ENDBRANCH  26  27
ENDBRANCH  25  26
ENDBRANCH  24  25
ENDBRANCH   1  24
TORSDOF 20
ENDMDL
MODEL 2
REMARK VINA RESULT:     -10.6      1.098      7.696
REMARK SMILES CC[N@@H+]1CCC[C@@H]1C[N@@H+](C)C[C@H]([NH3+])C(=O)NCCCCNC(=O)c1ccc(-c2c3nc(c(-c4cc(S(=O)(=O)[O-])ccc4F)c4ccc([nH]4)c(-c4cc(S(=O)(=O)[O-])ccc4F)c4nc(c(-c5cc(S(=O)(=O)[O-])ccc5F)c5ccc2[nH]5)C=C4)C=C3)cc1
REMARK SMILES IDX 17 1 16 2 14 3 15 4 12 6 11 7 9 8 10 9 8 11 7 12 3 13 4 14
REMARK SMILES IDX 5 16 6 17 2 18 1 19 13 20 18 24 19 25 20 26 21 27 22 28
REMARK SMILES IDX 23 30 24 31 25 32 86 33 26 34 85 35 27 36 28 37 29 38 79 39
REMARK SMILES IDX 30 40 84 41 78 42 80 43 31 44 83 45 77 46 76 47 32 49 64 50
REMARK SMILES IDX 44 51 63 52 45 53 48 54 62 55 81 56 46 57 47 58 61 60 82 61
REMARK SMILES IDX 49 62 33 63 34 64 42 65 35 66 41 67 43 68 40 69 36 70 37 71
REMARK SMILES IDX 38 72 39 73 65 74 66 75 74 76 67 77 73 78 75 79 72 80 68 81
REMARK SMILES IDX 69 82 70 83 71 84 50 85 51 86 59 87 52 88 58 89 60 90 57 91
REMARK SMILES IDX 53 92 54 93 55 94 56 95
REMARK H PARENT 16 5 9 10 3 15 13 21 13 22 13 23 21 29 80 48 48 59
REMARK Flexibility Score: inf
ROOT
ATOM      1  C   UNL A   1      34.171  21.748  24.569  1.00  0.00     0.116 C 
ENDROOT
BRANCH   1   2
ATOM      2  N   UNL A   1      33.203  22.464  25.355  1.00  0.00    -0.351 N 
ATOM      3  C   UNL A   1      32.107  23.168  24.922  1.00  0.00     0.284 C 
ATOM      4  O   UNL A   1      31.286  23.492  25.792  1.00  0.00    -0.268 OA
ATOM      5  H   UNL A   1      33.344  22.446  26.329  1.00  0.00     0.163 HD
BRANCH   3   6
ATOM      6  C   UNL A   1      31.842  23.576  23.438  1.00  0.00     0.326 C 
BRANCH   6   7
ATOM      7  C   UNL A   1      31.070  24.911  23.139  1.00  0.00     0.338 C 
BRANCH   7   8
ATOM      8  N   UNL A   1      31.614  26.137  22.501  1.00  0.00    -0.327 N 
ATOM      9  C   UNL A   1      32.628  25.756  21.508  1.00  0.00     0.333 C 
ATOM     10  H   UNL A   1      30.818  26.589  22.052  1.00  0.00     0.348 HD
BRANCH   8  11
ATOM     11  C   UNL A   1      32.114  27.173  23.412  1.00  0.00     0.327 C 
BRANCH  11  12
ATOM     12  C   UNL A   1      32.162  26.964  24.952  1.00  0.00     0.239 C 
ATOM     13  N   UNL A   1      31.715  28.143  25.786  1.00  0.00    -0.328 N 
ATOM     14  C   UNL A   1      32.523  28.081  27.010  1.00  0.00     0.262 C 
ATOM     15  H   UNL A   1      30.715  28.070  25.976  1.00  0.00     0.348 HD
ATOM     16  C   UNL A   1      33.884  27.641  26.522  1.00  0.00     0.068 C 
ATOM     17  C   UNL A   1      33.541  26.575  25.499  1.00  0.00     0.077 C 
BRANCH  13  18
ATOM     18  C   UNL A   1      31.804  29.451  25.117  1.00  0.00     0.259 C 
ATOM     19  C   UNL A   1      31.559  30.681  25.985  1.00  0.00     0.071 C 
ENDBRANCH  13  18
ENDBRANCH  11  12
ENDBRANCH   8  11
ENDBRANCH   7   8
ENDBRANCH   6   7
BRANCH   6  20
ATOM     20  N   UNL A   1      31.570  22.431  22.532  1.00  0.00    -0.343 N 
ATOM     21  H   UNL A   1      32.195  21.659  22.764  1.00  0.00     0.345 HD
ATOM     22  H   UNL A   1      31.727  22.716  21.566  1.00  0.00     0.345 HD
ATOM     23  H   UNL A   1      30.602  22.130  22.646  1.00  0.00     0.345 HD
ENDBRANCH   6  20
ENDBRANCH   3   6
ENDBRANCH   1   2
BRANCH   1  24
ATOM     24  C   UNL A   1      35.292  22.520  23.894  1.00  0.00     0.023 C 
BRANCH  24  25
ATOM     25  C   UNL A   1      36.720  22.051  24.157  1.00  0.00     0.023 C 
BRANCH  25  26
ATOM     26  C   UNL A   1      37.027  21.417  25.515  1.00  0.00     0.116 C 
BRANCH  26  27
ATOM     27  N   UNL A   1      38.186  20.526  25.553  1.00  0.00    -0.352 N 
ATOM     28  C   UNL A   1      39.454  20.709  26.066  1.00  0.00     0.251 C 
ATOM     29  H   UNL A   1      38.035  19.645  25.140  1.00  0.00     0.163 HD
ATOM     30  O   UNL A   1      40.297  19.825  25.937  1.00  0.00    -0.269 OA
BRANCH  28  31
ATOM     31  C   UNL A   1      39.817  21.986  26.716  1.00  0.00     0.039 A 
ATOM     32  C   UNL A   1      40.766  21.989  27.741  1.00  0.00     0.014 A 
ATOM     33  C   UNL A   1      39.275  23.186  26.266  1.00  0.00     0.014 A 
ATOM     34  C   UNL A   1      41.285  23.206  28.194  1.00  0.00     0.010 A 
ATOM     35  C   UNL A   1      39.887  24.382  26.614  1.00  0.00     0.010 A 
ATOM     36  C   UNL A   1      40.915  24.408  27.570  1.00  0.00    -0.014 A 
BRANCH  36  37
ATOM     37  C   UNL A   1      41.592  25.701  27.867  1.00  0.00     0.031 A 
ATOM     38  C   UNL A   1      40.850  26.785  28.603  1.00  0.00     0.074 A 
ATOM     39  C   UNL A   1      42.823  25.943  27.369  1.00  0.00     0.049 A 
ATOM     40  N   UNL A   1      41.185  28.034  28.801  1.00  0.00    -0.248 NA
ATOM     41  C   UNL A   1      39.526  26.429  29.135  1.00  0.00     0.031 C 
ATOM     42  C   UNL A   1      43.623  25.001  26.580  1.00  0.00     0.029 A 
ATOM     43  N   UNL A   1      43.616  27.063  27.439  1.00  0.00    -0.354 N 
ATOM     44  C   UNL A   1      40.098  28.619  29.443  1.00  0.00     0.074 A 
ATOM     45  C   UNL A   1      39.069  27.606  29.530  1.00  0.00     0.031 C 
ATOM     46  C   UNL A   1      44.801  25.567  26.274  1.00  0.00     0.029 A 
ATOM     47  C   UNL A   1      44.824  26.929  26.793  1.00  0.00     0.049 A 
ATOM     48  H   UNL A   1      43.344  27.884  27.908  1.00  0.00     0.167 HD
ATOM     49  C   UNL A   1      39.980  29.875  29.943  1.00  0.00     0.034 A 
ATOM     50  C   UNL A   1      45.831  27.810  26.626  1.00  0.00     0.034 A 
ATOM     51  C   UNL A   1      41.036  30.857  29.889  1.00  0.00     0.049 A 
ATOM     52  C   UNL A   1      45.691  29.190  27.213  1.00  0.00     0.074 A 
ATOM     53  C   UNL A   1      41.056  32.132  30.424  1.00  0.00     0.029 A 
ATOM     54  N   UNL A   1      42.263  30.667  29.266  1.00  0.00    -0.354 N 
ATOM     55  N   UNL A   1      44.674  29.713  27.859  1.00  0.00    -0.248 NA
ATOM     56  C   UNL A   1      46.837  30.095  27.058  1.00  0.00     0.031 C 
ATOM     57  C   UNL A   1      42.272  32.733  30.080  1.00  0.00     0.029 A 
ATOM     58  C   UNL A   1      43.040  31.809  29.389  1.00  0.00     0.049 A 
ATOM     59  H   UNL A   1      42.541  29.843  28.805  1.00  0.00     0.167 HD
ATOM     60  C   UNL A   1      45.074  30.998  28.216  1.00  0.00     0.074 A 
ATOM     61  C   UNL A   1      46.427  31.164  27.725  1.00  0.00     0.031 C 
ATOM     62  C   UNL A   1      44.387  31.956  28.891  1.00  0.00     0.034 A 
BRANCH  49  63
ATOM     63  C   UNL A   1      38.660  30.247  30.577  1.00  0.00     0.023 A 
ATOM     64  C   UNL A   1      37.668  30.941  29.860  1.00  0.00     0.031 A 
ATOM     65  C   UNL A   1      38.404  29.950  31.927  1.00  0.00     0.131 A 
ATOM     66  C   UNL A   1      36.518  31.401  30.519  1.00  0.00     0.055 A 
ATOM     67  C   UNL A   1      37.213  30.328  32.552  1.00  0.00     0.041 A 
ATOM     68  F   UNL A   1      39.317  29.305  32.671  1.00  0.00    -0.206 F 
ATOM     69  C   UNL A   1      36.270  31.076  31.853  1.00  0.00     0.022 A 
BRANCH  66  70
ATOM     70  S   UNL A   1      35.437  32.569  29.649  1.00  0.00     0.124 S 
ATOM     71  O   UNL A   1      34.517  31.663  28.964  1.00  0.00    -0.237 OA
ATOM     72  O   UNL A   1      34.870  33.350  30.742  1.00  0.00    -0.237 OA
ATOM     73  O   UNL A   1      36.353  33.296  28.771  1.00  0.00    -0.744 OA
ENDBRANCH  66  70
ENDBRANCH  49  63
BRANCH  50  74
ATOM     74  C   UNL A   1      47.064  27.421  25.882  1.00  0.00     0.023 A 
ATOM     75  C   UNL A   1      47.223  27.758  24.528  1.00  0.00     0.031 A 
ATOM     76  C   UNL A   1      48.084  26.674  26.498  1.00  0.00     0.131 A 
ATOM     77  C   UNL A   1      48.349  27.309  23.820  1.00  0.00     0.055 A 
ATOM     78  C   UNL A   1      49.227  26.274  25.803  1.00  0.00     0.041 A 
ATOM     79  F   UNL A   1      47.989  26.333  27.793  1.00  0.00    -0.206 F 
ATOM     80  C   UNL A   1      49.358  26.578  24.452  1.00  0.00     0.022 A 
BRANCH  77  81
ATOM     81  S   UNL A   1      48.434  27.624  22.036  1.00  0.00     0.124 S 
ATOM     82  O   UNL A   1      48.643  26.281  21.507  1.00  0.00    -0.237 OA
ATOM     83  O   UNL A   1      47.130  28.222  21.772  1.00  0.00    -0.237 OA
ATOM     84  O   UNL A   1      49.573  28.531  21.905  1.00  0.00    -0.744 OA
ENDBRANCH  77  81
ENDBRANCH  50  74
BRANCH  62  85
ATOM     85  C   UNL A   1      45.117  33.242  29.180  1.00  0.00     0.023 A 
ATOM     86  C   UNL A   1      45.130  34.308  28.266  1.00  0.00     0.031 A 
ATOM     87  C   UNL A   1      45.817  33.396  30.391  1.00  0.00     0.131 A 
ATOM     88  C   UNL A   1      45.876  35.462  28.550  1.00  0.00     0.055 A 
ATOM     89  C   UNL A   1      46.509  34.569  30.693  1.00  0.00     0.041 A 
ATOM     90  F   UNL A   1      45.837  32.408  31.299  1.00  0.00    -0.206 F 
ATOM     91  C   UNL A   1      46.551  35.605  29.766  1.00  0.00     0.022 A 
BRANCH  88  92
ATOM     92  S   UNL A   1      46.025  36.741  27.273  1.00  0.00     0.124 S 
ATOM     93  O   UNL A   1      47.101  37.573  27.801  1.00  0.00    -0.237 OA
ATOM     94  O   UNL A   1      46.350  35.958  26.085  1.00  0.00    -0.237 OA
ATOM     95  O   UNL A   1      44.705  37.368  27.259  1.00  0.00    -0.744 OA
ENDBRANCH  88  92
ENDBRANCH  62  85
ENDBRANCH  36  37
ENDBRANCH  28  31
ENDBRANCH  26  27
ENDBRANCH  25  26
ENDBRANCH  24  25
ENDBRANCH   1  24
TORSDOF 20
ENDMDL
MODEL 3
REMARK VINA RESULT:     -10.5      4.858     10.521
REMARK SMILES CC[N@@H+]1CCC[C@@H]1C[N@@H+](C)C[C@H]([NH3+])C(=O)NCCCCNC(=O)c1ccc(-c2c3nc(c(-c4cc(S(=O)(=O)[O-])ccc4F)c4ccc([nH]4)c(-c4cc(S(=O)(=O)[O-])ccc4F)c4nc(c(-c5cc(S(=O)(=O)[O-])ccc5F)c5ccc2[nH]5)C=C4)C=C3)cc1
REMARK SMILES IDX 17 1 16 2 14 3 15 4 12 6 11 7 9 8 10 9 8 11 7 12 3 13 4 14
REMARK SMILES IDX 5 16 6 17 2 18 1 19 13 20 18 24 19 25 20 26 21 27 22 28
REMARK SMILES IDX 23 30 24 31 25 32 86 33 26 34 85 35 27 36 28 37 29 38 79 39
REMARK SMILES IDX 30 40 84 41 78 42 80 43 31 44 83 45 77 46 76 47 32 49 64 50
REMARK SMILES IDX 44 51 63 52 45 53 48 54 62 55 81 56 46 57 47 58 61 60 82 61
REMARK SMILES IDX 49 62 33 63 34 64 42 65 35 66 41 67 43 68 40 69 36 70 37 71
REMARK SMILES IDX 38 72 39 73 65 74 66 75 74 76 67 77 73 78 75 79 72 80 68 81
REMARK SMILES IDX 69 82 70 83 71 84 50 85 51 86 59 87 52 88 58 89 60 90 57 91
REMARK SMILES IDX 53 92 54 93 55 94 56 95
REMARK H PARENT 16 5 9 10 3 15 13 21 13 22 13 23 21 29 80 48 48 59
REMARK Flexibility Score: inf
ROOT
ATOM      1  C   UNL A   1      30.933  28.525  23.507  1.00  0.00     0.116 C 
ENDROOT
BRANCH   1   2
ATOM      2  N   UNL A   1      29.672  27.863  23.312  1.00  0.00    -0.351 N 
ATOM      3  C   UNL A   1      29.200  26.730  23.927  1.00  0.00     0.284 C 
ATOM      4  O   UNL A   1      27.994  26.489  23.779  1.00  0.00    -0.268 OA
ATOM      5  H   UNL A   1      29.069  28.276  22.652  1.00  0.00     0.163 HD
BRANCH   3   6
ATOM      6  C   UNL A   1      30.071  25.752  24.778  1.00  0.00     0.326 C 
BRANCH   6   7
ATOM      7  C   UNL A   1      30.805  24.562  24.063  1.00  0.00     0.338 C 
BRANCH   7   8
ATOM      8  N   UNL A   1      32.203  24.542  23.564  1.00  0.00    -0.327 N 
ATOM      9  C   UNL A   1      32.260  25.213  22.258  1.00  0.00     0.333 C 
ATOM     10  H   UNL A   1      32.750  25.051  24.258  1.00  0.00     0.348 HD
BRANCH   8  11
ATOM     11  C   UNL A   1      32.858  23.229  23.525  1.00  0.00     0.327 C 
BRANCH  11  12
ATOM     12  C   UNL A   1      32.162  21.945  24.057  1.00  0.00     0.239 C 
ATOM     13  N   UNL A   1      32.674  21.426  25.382  1.00  0.00    -0.328 N 
ATOM     14  C   UNL A   1      32.528  19.967  25.310  1.00  0.00     0.262 C 
ATOM     15  H   UNL A   1      32.130  21.833  26.144  1.00  0.00     0.348 HD
ATOM     16  C   UNL A   1      32.896  19.638  23.881  1.00  0.00     0.068 C 
ATOM     17  C   UNL A   1      32.218  20.747  23.100  1.00  0.00     0.077 C 
BRANCH  13  18
ATOM     18  C   UNL A   1      34.043  21.840  25.729  1.00  0.00     0.259 C 
ATOM     19  C   UNL A   1      34.401  21.843  27.212  1.00  0.00     0.071 C 
ENDBRANCH  13  18
ENDBRANCH  11  12
ENDBRANCH   8  11
ENDBRANCH   7   8
ENDBRANCH   6   7
BRANCH   6  20
ATOM     20  N   UNL A   1      29.532  25.484  26.136  1.00  0.00    -0.343 N 
ATOM     21  H   UNL A   1      30.227  24.977  26.684  1.00  0.00     0.345 HD
ATOM     22  H   UNL A   1      28.684  24.922  26.060  1.00  0.00     0.345 HD
ATOM     23  H   UNL A   1      29.315  26.367  26.596  1.00  0.00     0.345 HD
ENDBRANCH   6  20
ENDBRANCH   3   6
ENDBRANCH   1   2
BRANCH   1  24
ATOM     24  C   UNL A   1      31.046  29.601  24.575  1.00  0.00     0.023 C 
BRANCH  24  25
ATOM     25  C   UNL A   1      32.346  29.660  25.373  1.00  0.00     0.023 C 
BRANCH  25  26
ATOM     26  C   UNL A   1      32.270  30.107  26.833  1.00  0.00     0.116 C 
BRANCH  26  27
ATOM     27  N   UNL A   1      32.370  31.547  27.063  1.00  0.00    -0.352 N 
ATOM     28  C   UNL A   1      33.411  32.319  27.538  1.00  0.00     0.251 C 
ATOM     29  H   UNL A   1      31.555  32.052  26.841  1.00  0.00     0.163 HD
ATOM     30  O   UNL A   1      33.249  33.526  27.700  1.00  0.00    -0.269 OA
BRANCH  28  31
ATOM     31  C   UNL A   1      34.696  31.690  27.908  1.00  0.00     0.039 A 
ATOM     32  C   UNL A   1      35.826  32.491  28.091  1.00  0.00     0.014 A 
ATOM     33  C   UNL A   1      34.769  30.321  28.145  1.00  0.00     0.014 A 
ATOM     34  C   UNL A   1      36.974  31.940  28.666  1.00  0.00     0.010 A 
ATOM     35  C   UNL A   1      35.854  29.808  28.842  1.00  0.00     0.010 A 
ATOM     36  C   UNL A   1      36.967  30.615  29.129  1.00  0.00    -0.014 A 
BRANCH  36  37
ATOM     37  C   UNL A   1      38.082  30.046  29.936  1.00  0.00     0.031 A 
ATOM     38  C   UNL A   1      38.291  30.505  31.355  1.00  0.00     0.074 A 
ATOM     39  C   UNL A   1      38.975  29.217  29.356  1.00  0.00     0.049 A 
ATOM     40  N   UNL A   1      39.294  30.278  32.163  1.00  0.00    -0.248 NA
ATOM     41  C   UNL A   1      37.257  31.387  31.918  1.00  0.00     0.031 C 
ATOM     42  C   UNL A   1      38.926  28.749  27.967  1.00  0.00     0.029 A 
ATOM     43  N   UNL A   1      40.110  28.627  29.856  1.00  0.00    -0.354 N 
ATOM     44  C   UNL A   1      39.032  31.020  33.310  1.00  0.00     0.074 A 
ATOM     45  C   UNL A   1      37.815  31.761  33.059  1.00  0.00     0.031 C 
ATOM     46  C   UNL A   1      39.956  27.920  27.741  1.00  0.00     0.029 A 
ATOM     47  C   UNL A   1      40.773  27.837  28.945  1.00  0.00     0.049 A 
ATOM     48  H   UNL A   1      40.420  28.758  30.781  1.00  0.00     0.167 HD
ATOM     49  C   UNL A   1      39.723  31.056  34.476  1.00  0.00     0.034 A 
ATOM     50  C   UNL A   1      41.919  27.135  29.063  1.00  0.00     0.034 A 
ATOM     51  C   UNL A   1      40.909  30.274  34.725  1.00  0.00     0.049 A 
ATOM     52  C   UNL A   1      42.656  27.167  30.376  1.00  0.00     0.074 A 
ATOM     53  C   UNL A   1      41.649  30.175  35.889  1.00  0.00     0.029 A 
ATOM     54  N   UNL A   1      41.525  29.449  33.791  1.00  0.00    -0.354 N 
ATOM     55  N   UNL A   1      42.369  27.839  31.468  1.00  0.00    -0.248 NA
ATOM     56  C   UNL A   1      43.865  26.341  30.477  1.00  0.00     0.031 C 
ATOM     57  C   UNL A   1      42.741  29.334  35.644  1.00  0.00     0.029 A 
ATOM     58  C   UNL A   1      42.645  28.853  34.349  1.00  0.00     0.049 A 
ATOM     59  H   UNL A   1      41.211  29.309  32.869  1.00  0.00     0.167 HD
ATOM     60  C   UNL A   1      43.346  27.487  32.395  1.00  0.00     0.074 A 
ATOM     61  C   UNL A   1      44.220  26.537  31.738  1.00  0.00     0.031 C 
ATOM     62  C   UNL A   1      43.506  27.909  33.677  1.00  0.00     0.034 A 
BRANCH  49  63
ATOM     63  C   UNL A   1      39.211  31.981  35.557  1.00  0.00     0.023 A 
ATOM     64  C   UNL A   1      39.645  33.316  35.650  1.00  0.00     0.031 A 
ATOM     65  C   UNL A   1      38.317  31.515  36.536  1.00  0.00     0.131 A 
ATOM     66  C   UNL A   1      39.267  34.103  36.748  1.00  0.00     0.055 A 
ATOM     67  C   UNL A   1      37.868  32.333  37.574  1.00  0.00     0.041 A 
ATOM     68  F   UNL A   1      37.879  30.246  36.512  1.00  0.00    -0.206 F 
ATOM     69  C   UNL A   1      38.359  33.631  37.697  1.00  0.00     0.022 A 
BRANCH  66  70
ATOM     70  S   UNL A   1      40.109  35.688  37.003  1.00  0.00     0.124 S 
ATOM     71  O   UNL A   1      39.652  36.453  35.844  1.00  0.00    -0.237 OA
ATOM     72  O   UNL A   1      39.591  36.118  38.296  1.00  0.00    -0.237 OA
ATOM     73  O   UNL A   1      41.527  35.331  36.985  1.00  0.00    -0.744 OA
ENDBRANCH  66  70
ENDBRANCH  49  63
BRANCH  50  74
ATOM     74  C   UNL A   1      42.441  26.335  27.917  1.00  0.00     0.023 A 
ATOM     75  C   UNL A   1      42.162  24.963  27.812  1.00  0.00     0.031 A 
ATOM     76  C   UNL A   1      43.257  26.918  26.931  1.00  0.00     0.131 A 
ATOM     77  C   UNL A   1      42.734  24.208  26.775  1.00  0.00     0.055 A 
ATOM     78  C   UNL A   1      43.781  26.174  25.873  1.00  0.00     0.041 A 
ATOM     79  F   UNL A   1      43.546  28.228  26.977  1.00  0.00    -0.206 F 
ATOM     80  C   UNL A   1      43.532  24.807  25.799  1.00  0.00     0.022 A 
BRANCH  77  81
ATOM     81  S   UNL A   1      42.484  22.412  26.772  1.00  0.00     0.124 S 
ATOM     82  O   UNL A   1      41.264  22.282  25.984  1.00  0.00    -0.237 OA
ATOM     83  O   UNL A   1      43.711  21.938  26.139  1.00  0.00    -0.237 OA
ATOM     84  O   UNL A   1      42.350  22.085  28.191  1.00  0.00    -0.744 OA
ENDBRANCH  77  81
ENDBRANCH  50  74
BRANCH  62  85
ATOM     85  C   UNL A   1      44.639  27.296  34.459  1.00  0.00     0.023 A 
ATOM     86  C   UNL A   1      44.496  26.076  35.139  1.00  0.00     0.031 A 
ATOM     87  C   UNL A   1      45.880  27.954  34.530  1.00  0.00     0.131 A 
ATOM     88  C   UNL A   1      45.557  25.576  35.908  1.00  0.00     0.055 A 
ATOM     89  C   UNL A   1      46.952  27.423  35.248  1.00  0.00     0.041 A 
ATOM     90  F   UNL A   1      46.071  29.124  33.900  1.00  0.00    -0.206 F 
ATOM     91  C   UNL A   1      46.790  26.234  35.952  1.00  0.00     0.022 A 
BRANCH  88  92
ATOM     92  S   UNL A   1      45.280  24.097  36.921  1.00  0.00     0.124 S 
ATOM     93  O   UNL A   1      44.478  23.266  36.029  1.00  0.00    -0.237 OA
ATOM     94  O   UNL A   1      46.640  23.633  37.173  1.00  0.00    -0.237 OA
ATOM     95  O   UNL A   1      44.573  24.611  38.092  1.00  0.00    -0.744 OA
ENDBRANCH  88  92
ENDBRANCH  62  85
ENDBRANCH  36  37
ENDBRANCH  28  31
ENDBRANCH  26  27
ENDBRANCH  25  26
ENDBRANCH  24  25
ENDBRANCH   1  24
TORSDOF 20
ENDMDL
