MODEL 1
REMARK VINA RESULT:     -12.4      0.000      0.000
REMARK SMILES COc1ccc2c(c1)c(CC(=O)NCCCCNC(=O)c1ccc(-c3c4nc(c(-c5cc(S(=O)(=O)[O-])ccc5F)c5ccc([nH]5)c(-c5cc(S(=O)(=O)[O-])ccc5F)c5nc(c(-c6cc(S(=O)(=O)[O-])ccc6F)c6ccc3[nH]6)C=C5)C=C4)cc1)c(C)n2C(=O)c1ccc(Cl)cc1
REMARK SMILES IDX 15 1 14 2 13 3 11 4 12 5 10 7 9 8 3 9 4 10 8 11 5 12 7 13
REMARK SMILES IDX 6 14 86 15 84 16 85 17 2 18 1 19 87 20 88 21 89 22 90 23
REMARK SMILES IDX 95 24 91 25 94 26 92 27 93 28 16 29 17 30 18 31 19 32 20 34
REMARK SMILES IDX 21 35 22 36 83 37 23 38 82 39 24 40 25 41 26 42 76 43 27 44
REMARK SMILES IDX 81 45 75 46 77 47 28 48 80 49 74 50 73 51 29 53 61 54 41 55
REMARK SMILES IDX 60 56 42 57 45 58 59 59 78 60 43 61 44 62 58 64 79 65 46 66
REMARK SMILES IDX 30 67 31 68 39 69 32 70 38 71 40 72 37 73 33 74 34 75 35 76
REMARK SMILES IDX 36 77 62 78 63 79 71 80 64 81 70 82 72 83 69 84 65 85 66 86
REMARK SMILES IDX 67 87 68 88 47 89 48 90 56 91 49 92 55 93 57 94 54 95 50 96
REMARK SMILES IDX 51 97 52 98 53 99
REMARK H PARENT 13 6 18 33 77 52 45 63
REMARK Flexibility Score: inf
ROOT
ATOM      1  C   UNL A   1      37.116  21.974  24.402  1.00  0.00     0.023 C 
ENDROOT
BRANCH   1   2
ATOM      2  C   UNL A   1      35.716  22.487  24.069  1.00  0.00     0.116 C 
BRANCH   2   3
ATOM      3  N   UNL A   1      34.936  22.788  25.253  1.00  0.00    -0.356 N 
ATOM      4  C   UNL A   1      34.228  23.921  25.543  1.00  0.00     0.224 C 
ATOM      5  O   UNL A   1      33.581  23.956  26.593  1.00  0.00    -0.275 OA
ATOM      6  H   UNL A   1      34.914  22.083  25.941  1.00  0.00     0.163 HD
BRANCH   4   7
ATOM      7  C   UNL A   1      34.183  25.076  24.553  1.00  0.00     0.138 C 
BRANCH   7   8
ATOM      8  C   UNL A   1      32.969  25.952  24.700  1.00  0.00    -0.009 A 
ATOM      9  C   UNL A   1      33.434  28.931  27.041  1.00  0.00     0.119 A 
ATOM     10  C   UNL A   1      32.141  29.414  26.927  1.00  0.00     0.048 A 
ATOM     11  C   UNL A   1      33.818  27.806  26.311  1.00  0.00     0.057 A 
ATOM     12  C   UNL A   1      31.203  28.761  26.123  1.00  0.00     0.031 A 
ATOM     13  C   UNL A   1      32.888  27.135  25.482  1.00  0.00     0.008 A 
ATOM     14  C   UNL A   1      31.587  27.633  25.367  1.00  0.00     0.057 A 
ATOM     15  N   UNL A   1      30.901  26.843  24.425  1.00  0.00    -0.280 N 
ATOM     16  C   UNL A   1      31.706  25.723  24.164  1.00  0.00     0.028 A 
ATOM     17  C   UNL A   1      31.272  24.508  23.401  1.00  0.00     0.065 C 
BRANCH   9  18
ATOM     18  O   UNL A   1      34.401  29.504  27.820  1.00  0.00    -0.497 OA
ATOM     19  C   UNL A   1      35.730  29.287  27.353  1.00  0.00     0.278 C 
ENDBRANCH   9  18
BRANCH  15  20
ATOM     20  C   UNL A   1      29.622  27.120  23.850  1.00  0.00     0.262 C 
ATOM     21  O   UNL A   1      28.723  26.296  23.959  1.00  0.00    -0.268 OA
BRANCH  20  22
ATOM     22  C   UNL A   1      29.262  28.361  23.140  1.00  0.00     0.040 A 
ATOM     23  C   UNL A   1      27.943  28.828  23.118  1.00  0.00     0.015 A 
ATOM     24  C   UNL A   1      30.274  29.035  22.446  1.00  0.00     0.015 A 
ATOM     25  C   UNL A   1      27.621  29.923  22.312  1.00  0.00     0.021 A 
ATOM     26  C   UNL A   1      29.947  30.134  21.651  1.00  0.00     0.021 A 
ATOM     27  C   UNL A   1      28.620  30.558  21.569  1.00  0.00     0.041 A 
ATOM     28  Cl  UNL A   1      28.212  31.856  20.516  1.00  0.00    -0.084 Cl
ENDBRANCH  20  22
ENDBRANCH  15  20
ENDBRANCH   7   8
ENDBRANCH   4   7
ENDBRANCH   2   3
ENDBRANCH   1   2
BRANCH   1  29
ATOM     29  C   UNL A   1      37.903  22.850  25.388  1.00  0.00     0.023 C 
BRANCH  29  30
ATOM     30  C   UNL A   1      38.856  22.087  26.312  1.00  0.00     0.116 C 
BRANCH  30  31
ATOM     31  N   UNL A   1      40.228  22.060  25.847  1.00  0.00    -0.352 N 
ATOM     32  C   UNL A   1      41.349  22.799  26.106  1.00  0.00     0.251 C 
ATOM     33  H   UNL A   1      40.390  21.343  25.192  1.00  0.00     0.163 HD
ATOM     34  O   UNL A   1      42.402  22.330  25.663  1.00  0.00    -0.269 OA
BRANCH  32  35
ATOM     35  C   UNL A   1      41.381  24.120  26.795  1.00  0.00     0.039 A 
ATOM     36  C   UNL A   1      42.036  24.401  27.993  1.00  0.00     0.014 A 
ATOM     37  C   UNL A   1      40.617  25.144  26.196  1.00  0.00     0.014 A 
ATOM     38  C   UNL A   1      41.860  25.636  28.616  1.00  0.00     0.010 A 
ATOM     39  C   UNL A   1      40.440  26.380  26.813  1.00  0.00     0.010 A 
ATOM     40  C   UNL A   1      41.032  26.610  28.047  1.00  0.00    -0.014 A 
BRANCH  40  41
ATOM     41  C   UNL A   1      40.943  27.910  28.716  1.00  0.00     0.031 A 
ATOM     42  C   UNL A   1      41.989  28.875  28.276  1.00  0.00     0.074 A 
ATOM     43  C   UNL A   1      39.978  28.265  29.590  1.00  0.00     0.049 A 
ATOM     44  N   UNL A   1      42.998  29.309  28.958  1.00  0.00    -0.248 NA
ATOM     45  C   UNL A   1      42.012  29.271  26.860  1.00  0.00     0.031 C 
ATOM     46  C   UNL A   1      38.732  27.555  29.888  1.00  0.00     0.029 A 
ATOM     47  N   UNL A   1      39.865  29.402  30.341  1.00  0.00    -0.354 N 
ATOM     48  C   UNL A   1      43.672  30.202  28.124  1.00  0.00     0.074 A 
ATOM     49  C   UNL A   1      43.124  30.007  26.807  1.00  0.00     0.031 C 
ATOM     50  C   UNL A   1      37.896  28.379  30.562  1.00  0.00     0.029 A 
ATOM     51  C   UNL A   1      38.599  29.612  30.880  1.00  0.00     0.049 A 
ATOM     52  H   UNL A   1      40.615  30.021  30.488  1.00  0.00     0.167 HD
ATOM     53  C   UNL A   1      44.479  31.176  28.634  1.00  0.00     0.034 A 
ATOM     54  C   UNL A   1      38.141  30.733  31.495  1.00  0.00     0.034 A 
ATOM     55  C   UNL A   1      44.754  30.930  30.024  1.00  0.00     0.049 A 
ATOM     56  C   UNL A   1      39.305  31.540  31.917  1.00  0.00     0.074 A 
ATOM     57  C   UNL A   1      45.439  29.974  30.740  1.00  0.00     0.029 A 
ATOM     58  N   UNL A   1      43.957  31.597  30.920  1.00  0.00    -0.354 N 
ATOM     59  N   UNL A   1      40.110  31.214  32.885  1.00  0.00    -0.248 NA
ATOM     60  C   UNL A   1      39.810  32.536  30.987  1.00  0.00     0.031 C 
ATOM     61  C   UNL A   1      44.721  29.839  31.960  1.00  0.00     0.029 A 
ATOM     62  C   UNL A   1      43.674  30.765  31.967  1.00  0.00     0.049 A 
ATOM     63  H   UNL A   1      43.640  32.524  30.825  1.00  0.00     0.167 HD
ATOM     64  C   UNL A   1      41.361  31.570  32.413  1.00  0.00     0.074 A 
ATOM     65  C   UNL A   1      41.102  32.503  31.318  1.00  0.00     0.031 C 
ATOM     66  C   UNL A   1      42.465  30.849  32.761  1.00  0.00     0.034 A 
BRANCH  53  67
ATOM     67  C   UNL A   1      44.693  32.541  28.012  1.00  0.00     0.023 A 
ATOM     68  C   UNL A   1      43.754  33.584  28.091  1.00  0.00     0.031 A 
ATOM     69  C   UNL A   1      45.971  32.906  27.532  1.00  0.00     0.131 A 
ATOM     70  C   UNL A   1      44.083  34.899  27.732  1.00  0.00     0.055 A 
ATOM     71  C   UNL A   1      46.321  34.230  27.237  1.00  0.00     0.041 A 
ATOM     72  F   UNL A   1      46.949  31.996  27.398  1.00  0.00    -0.206 F 
ATOM     73  C   UNL A   1      45.374  35.238  27.343  1.00  0.00     0.022 A 
BRANCH  70  74
ATOM     74  S   UNL A   1      42.828  36.208  27.802  1.00  0.00     0.124 S 
ATOM     75  O   UNL A   1      43.534  37.269  28.514  1.00  0.00    -0.237 OA
ATOM     76  O   UNL A   1      42.583  36.453  26.383  1.00  0.00    -0.237 OA
ATOM     77  O   UNL A   1      41.723  35.585  28.523  1.00  0.00    -0.744 OA
ENDBRANCH  70  74
ENDBRANCH  53  67
BRANCH  54  78
ATOM     78  C   UNL A   1      36.806  31.369  31.364  1.00  0.00     0.023 A 
ATOM     79  C   UNL A   1      36.355  31.763  30.093  1.00  0.00     0.031 A 
ATOM     80  C   UNL A   1      36.153  31.923  32.483  1.00  0.00     0.131 A 
ATOM     81  C   UNL A   1      35.351  32.732  29.966  1.00  0.00     0.055 A 
ATOM     82  C   UNL A   1      35.132  32.874  32.352  1.00  0.00     0.041 A 
ATOM     83  F   UNL A   1      36.554  31.620  33.727  1.00  0.00    -0.206 F 
ATOM     84  C   UNL A   1      34.741  33.297  31.087  1.00  0.00     0.022 A 
BRANCH  81  85
ATOM     85  S   UNL A   1      34.901  33.369  28.328  1.00  0.00     0.124 S 
ATOM     86  O   UNL A   1      34.734  34.796  28.586  1.00  0.00    -0.237 OA
ATOM     87  O   UNL A   1      36.073  33.005  27.539  1.00  0.00    -0.237 OA
ATOM     88  O   UNL A   1      33.671  32.650  28.010  1.00  0.00    -0.744 OA
ENDBRANCH  81  85
ENDBRANCH  54  78
BRANCH  66  89
ATOM     89  C   UNL A   1      42.379  29.903  33.935  1.00  0.00     0.023 A 
ATOM     90  C   UNL A   1      43.014  30.326  35.115  1.00  0.00     0.031 A 
ATOM     91  C   UNL A   1      41.917  28.575  33.883  1.00  0.00     0.131 A 
ATOM     92  C   UNL A   1      43.236  29.431  36.164  1.00  0.00     0.055 A 
ATOM     93  C   UNL A   1      42.062  27.705  34.971  1.00  0.00     0.041 A 
ATOM     94  F   UNL A   1      41.395  28.050  32.765  1.00  0.00    -0.206 F 
ATOM     95  C   UNL A   1      42.746  28.125  36.110  1.00  0.00     0.022 A 
BRANCH  92  96
ATOM     96  S   UNL A   1      44.330  29.896  37.529  1.00  0.00     0.124 S 
ATOM     97  O   UNL A   1      44.536  28.619  38.206  1.00  0.00    -0.237 OA
ATOM     98  O   UNL A   1      45.495  30.430  36.825  1.00  0.00    -0.237 OA
ATOM     99  O   UNL A   1      43.560  30.885  38.278  1.00  0.00    -0.744 OA
ENDBRANCH  92  96
ENDBRANCH  66  89
ENDBRANCH  40  41
ENDBRANCH  32  35
ENDBRANCH  30  31
ENDBRANCH  29  30
ENDBRANCH   1  29
TORSDOF 18
ENDMDL
MODEL 2
REMARK VINA RESULT:     -12.3      3.968      9.187
REMARK SMILES COc1ccc2c(c1)c(CC(=O)NCCCCNC(=O)c1ccc(-c3c4nc(c(-c5cc(S(=O)(=O)[O-])ccc5F)c5ccc([nH]5)c(-c5cc(S(=O)(=O)[O-])ccc5F)c5nc(c(-c6cc(S(=O)(=O)[O-])ccc6F)c6ccc3[nH]6)C=C5)C=C4)cc1)c(C)n2C(=O)c1ccc(Cl)cc1
REMARK SMILES IDX 15 1 14 2 13 3 11 4 12 5 10 7 9 8 3 9 4 10 8 11 5 12 7 13
REMARK SMILES IDX 6 14 86 15 84 16 85 17 2 18 1 19 87 20 88 21 89 22 90 23
REMARK SMILES IDX 95 24 91 25 94 26 92 27 93 28 16 29 17 30 18 31 19 32 20 34
REMARK SMILES IDX 21 35 22 36 83 37 23 38 82 39 24 40 25 41 26 42 76 43 27 44
REMARK SMILES IDX 81 45 75 46 77 47 28 48 80 49 74 50 73 51 29 53 61 54 41 55
REMARK SMILES IDX 60 56 42 57 45 58 59 59 78 60 43 61 44 62 58 64 79 65 46 66
REMARK SMILES IDX 30 67 31 68 39 69 32 70 38 71 40 72 37 73 33 74 34 75 35 76
REMARK SMILES IDX 36 77 62 78 63 79 71 80 64 81 70 82 72 83 69 84 65 85 66 86
REMARK SMILES IDX 67 87 68 88 47 89 48 90 56 91 49 92 55 93 57 94 54 95 50 96
REMARK SMILES IDX 51 97 52 98 53 99
REMARK H PARENT 13 6 18 33 77 52 45 63
REMARK Flexibility Score: inf
ROOT
ATOM      1  C   UNL A   1      32.723  28.549  27.440  1.00  0.00     0.023 C 
ENDROOT
BRANCH   1   2
ATOM      2  C   UNL A   1      33.738  27.966  26.457  1.00  0.00     0.116 C 
BRANCH   2   3
ATOM      3  N   UNL A   1      33.228  27.901  25.102  1.00  0.00    -0.356 N 
ATOM      4  C   UNL A   1      32.518  26.896  24.505  1.00  0.00     0.224 C 
ATOM      5  O   UNL A   1      32.127  27.063  23.347  1.00  0.00    -0.275 OA
ATOM      6  H   UNL A   1      33.418  28.684  24.536  1.00  0.00     0.163 HD
BRANCH   4   7
ATOM      7  C   UNL A   1      32.159  25.638  25.283  1.00  0.00     0.138 C 
BRANCH   7   8
ATOM      8  C   UNL A   1      32.693  24.374  24.669  1.00  0.00    -0.009 A 
ATOM      9  C   UNL A   1      36.421  23.781  25.240  1.00  0.00     0.119 A 
ATOM     10  C   UNL A   1      36.497  22.604  24.514  1.00  0.00     0.048 A 
ATOM     11  C   UNL A   1      35.192  24.427  25.381  1.00  0.00     0.057 A 
ATOM     12  C   UNL A   1      35.366  22.078  23.884  1.00  0.00     0.031 A 
ATOM     13  C   UNL A   1      34.031  23.906  24.761  1.00  0.00     0.008 A 
ATOM     14  C   UNL A   1      34.116  22.713  24.037  1.00  0.00     0.057 A 
ATOM     15  N   UNL A   1      32.820  22.375  23.604  1.00  0.00    -0.280 N 
ATOM     16  C   UNL A   1      32.000  23.487  23.850  1.00  0.00     0.028 A 
ATOM     17  C   UNL A   1      30.601  23.658  23.340  1.00  0.00     0.065 C 
BRANCH   9  18
ATOM     18  O   UNL A   1      37.485  24.366  25.868  1.00  0.00    -0.497 OA
ATOM     19  C   UNL A   1      38.382  23.441  26.478  1.00  0.00     0.278 C 
ENDBRANCH   9  18
BRANCH  15  20
ATOM     20  C   UNL A   1      32.415  21.137  23.014  1.00  0.00     0.262 C 
ATOM     21  O   UNL A   1      32.015  21.126  21.856  1.00  0.00    -0.268 OA
BRANCH  20  22
ATOM     22  C   UNL A   1      32.461  19.824  23.682  1.00  0.00     0.040 A 
ATOM     23  C   UNL A   1      32.578  19.721  25.074  1.00  0.00     0.015 A 
ATOM     24  C   UNL A   1      32.433  18.679  22.878  1.00  0.00     0.015 A 
ATOM     25  C   UNL A   1      32.768  18.462  25.650  1.00  0.00     0.021 A 
ATOM     26  C   UNL A   1      32.613  17.424  23.462  1.00  0.00     0.021 A 
ATOM     27  C   UNL A   1      32.803  17.323  24.840  1.00  0.00     0.041 A 
ATOM     28  Cl  UNL A   1      33.115  15.783  25.539  1.00  0.00    -0.084 Cl
ENDBRANCH  20  22
ENDBRANCH  15  20
ENDBRANCH   7   8
ENDBRANCH   4   7
ENDBRANCH   2   3
ENDBRANCH   1   2
BRANCH   1  29
ATOM     29  C   UNL A   1      32.325  30.006  27.162  1.00  0.00     0.023 C 
BRANCH  29  30
ATOM     30  C   UNL A   1      33.497  30.959  26.912  1.00  0.00     0.116 C 
BRANCH  30  31
ATOM     31  N   UNL A   1      33.824  31.798  28.047  1.00  0.00    -0.352 N 
ATOM     32  C   UNL A   1      34.940  31.994  28.812  1.00  0.00     0.251 C 
ATOM     33  H   UNL A   1      33.065  32.357  28.334  1.00  0.00     0.163 HD
ATOM     34  O   UNL A   1      34.893  32.965  29.573  1.00  0.00    -0.269 OA
BRANCH  32  35
ATOM     35  C   UNL A   1      36.139  31.109  28.845  1.00  0.00     0.039 A 
ATOM     36  C   UNL A   1      36.134  29.721  28.714  1.00  0.00     0.014 A 
ATOM     37  C   UNL A   1      37.368  31.751  29.102  1.00  0.00     0.014 A 
ATOM     38  C   UNL A   1      37.305  28.993  28.919  1.00  0.00     0.010 A 
ATOM     39  C   UNL A   1      38.541  31.028  29.305  1.00  0.00     0.010 A 
ATOM     40  C   UNL A   1      38.499  29.642  29.254  1.00  0.00    -0.014 A 
BRANCH  40  41
ATOM     41  C   UNL A   1      39.707  28.826  29.389  1.00  0.00     0.031 A 
ATOM     42  C   UNL A   1      40.070  28.536  30.804  1.00  0.00     0.074 A 
ATOM     43  C   UNL A   1      40.406  28.303  28.360  1.00  0.00     0.049 A 
ATOM     44  N   UNL A   1      41.077  28.997  31.470  1.00  0.00    -0.248 NA
ATOM     45  C   UNL A   1      39.110  27.781  31.623  1.00  0.00     0.031 C 
ATOM     46  C   UNL A   1      40.015  28.241  26.950  1.00  0.00     0.029 A 
ATOM     47  N   UNL A   1      41.593  27.624  28.374  1.00  0.00    -0.354 N 
ATOM     48  C   UNL A   1      40.998  28.422  32.739  1.00  0.00     0.074 A 
ATOM     49  C   UNL A   1      39.688  27.828  32.825  1.00  0.00     0.031 C 
ATOM     50  C   UNL A   1      40.819  27.369  26.298  1.00  0.00     0.029 A 
ATOM     51  C   UNL A   1      41.874  26.932  27.199  1.00  0.00     0.049 A 
ATOM     52  H   UNL A   1      42.198  27.624  29.150  1.00  0.00     0.167 HD
ATOM     53  C   UNL A   1      42.099  28.304  33.535  1.00  0.00     0.034 A 
ATOM     54  C   UNL A   1      42.865  26.026  26.994  1.00  0.00     0.034 A 
ATOM     55  C   UNL A   1      43.180  29.103  33.025  1.00  0.00     0.049 A 
ATOM     56  C   UNL A   1      43.884  26.207  28.049  1.00  0.00     0.074 A 
ATOM     57  C   UNL A   1      43.424  30.450  32.871  1.00  0.00     0.029 A 
ATOM     58  N   UNL A   1      44.095  28.445  32.242  1.00  0.00    -0.354 N 
ATOM     59  N   UNL A   1      44.690  27.225  28.123  1.00  0.00    -0.248 NA
ATOM     60  C   UNL A   1      43.742  25.426  29.267  1.00  0.00     0.031 C 
ATOM     61  C   UNL A   1      44.208  30.552  31.688  1.00  0.00     0.029 A 
ATOM     62  C   UNL A   1      44.468  29.263  31.213  1.00  0.00     0.049 A 
ATOM     63  H   UNL A   1      44.429  27.533  32.396  1.00  0.00     0.167 HD
ATOM     64  C   UNL A   1      44.755  27.501  29.478  1.00  0.00     0.074 A 
ATOM     65  C   UNL A   1      44.277  26.286  30.136  1.00  0.00     0.031 C 
ATOM     66  C   UNL A   1      44.908  28.783  29.918  1.00  0.00     0.034 A 
BRANCH  53  67
ATOM     67  C   UNL A   1      42.340  27.183  34.525  1.00  0.00     0.023 A 
ATOM     68  C   UNL A   1      43.070  26.022  34.218  1.00  0.00     0.031 A 
ATOM     69  C   UNL A   1      42.044  27.374  35.894  1.00  0.00     0.131 A 
ATOM     70  C   UNL A   1      43.489  25.131  35.217  1.00  0.00     0.055 A 
ATOM     71  C   UNL A   1      42.519  26.521  36.898  1.00  0.00     0.041 A 
ATOM     72  F   UNL A   1      41.340  28.439  36.311  1.00  0.00    -0.206 F 
ATOM     73  C   UNL A   1      43.253  25.394  36.562  1.00  0.00     0.022 A 
BRANCH  70  74
ATOM     74  S   UNL A   1      44.388  23.618  34.775  1.00  0.00     0.124 S 
ATOM     75  O   UNL A   1      44.503  22.945  36.066  1.00  0.00    -0.237 OA
ATOM     76  O   UNL A   1      43.471  23.002  33.820  1.00  0.00    -0.237 OA
ATOM     77  O   UNL A   1      45.636  24.115  34.205  1.00  0.00    -0.744 OA
ENDBRANCH  70  74
ENDBRANCH  53  67
BRANCH  54  78
ATOM     78  C   UNL A   1      42.798  24.751  26.237  1.00  0.00     0.023 A 
ATOM     79  C   UNL A   1      42.001  23.704  26.727  1.00  0.00     0.031 A 
ATOM     80  C   UNL A   1      43.776  24.426  25.276  1.00  0.00     0.131 A 
ATOM     81  C   UNL A   1      42.239  22.382  26.324  1.00  0.00     0.055 A 
ATOM     82  C   UNL A   1      43.995  23.107  24.856  1.00  0.00     0.041 A 
ATOM     83  F   UNL A   1      44.598  25.369  24.791  1.00  0.00    -0.206 F 
ATOM     84  C   UNL A   1      43.236  22.075  25.397  1.00  0.00     0.022 A 
BRANCH  81  85
ATOM     85  S   UNL A   1      41.328  21.017  27.095  1.00  0.00     0.124 S 
ATOM     86  O   UNL A   1      40.855  21.622  28.336  1.00  0.00    -0.237 OA
ATOM     87  O   UNL A   1      40.301  20.746  26.095  1.00  0.00    -0.237 OA
ATOM     88  O   UNL A   1      42.344  19.981  27.260  1.00  0.00    -0.744 OA
ENDBRANCH  81  85
ENDBRANCH  54  78
BRANCH  66  89
ATOM     89  C   UNL A   1      45.368  29.840  28.943  1.00  0.00     0.023 A 
ATOM     90  C   UNL A   1      46.691  30.288  29.100  1.00  0.00     0.031 A 
ATOM     91  C   UNL A   1      44.540  30.551  28.054  1.00  0.00     0.131 A 
ATOM     92  C   UNL A   1      47.134  31.439  28.447  1.00  0.00     0.055 A 
ATOM     93  C   UNL A   1      45.015  31.653  27.334  1.00  0.00     0.041 A 
ATOM     94  F   UNL A   1      43.237  30.264  27.919  1.00  0.00    -0.206 F 
ATOM     95  C   UNL A   1      46.310  32.117  27.546  1.00  0.00     0.022 A 
BRANCH  92  96
ATOM     96  S   UNL A   1      48.721  32.181  28.906  1.00  0.00     0.124 S 
ATOM     97  O   UNL A   1      49.265  31.193  29.833  1.00  0.00    -0.237 OA
ATOM     98  O   UNL A   1      49.404  32.277  27.617  1.00  0.00    -0.237 OA
ATOM     99  O   UNL A   1      48.353  33.462  29.502  1.00  0.00    -0.744 OA
ENDBRANCH  92  96
ENDBRANCH  66  89
ENDBRANCH  40  41
ENDBRANCH  32  35
ENDBRANCH  30  31
ENDBRANCH  29  30
ENDBRANCH   1  29
TORSDOF 18
ENDMDL
MODEL 3
REMARK VINA RESULT:     -12.0      1.654      2.567
REMARK SMILES COc1ccc2c(c1)c(CC(=O)NCCCCNC(=O)c1ccc(-c3c4nc(c(-c5cc(S(=O)(=O)[O-])ccc5F)c5ccc([nH]5)c(-c5cc(S(=O)(=O)[O-])ccc5F)c5nc(c(-c6cc(S(=O)(=O)[O-])ccc6F)c6ccc3[nH]6)C=C5)C=C4)cc1)c(C)n2C(=O)c1ccc(Cl)cc1
REMARK SMILES IDX 15 1 14 2 13 3 11 4 12 5 10 7 9 8 3 9 4 10 8 11 5 12 7 13
REMARK SMILES IDX 6 14 86 15 84 16 85 17 2 18 1 19 87 20 88 21 89 22 90 23
REMARK SMILES IDX 95 24 91 25 94 26 92 27 93 28 16 29 17 30 18 31 19 32 20 34
REMARK SMILES IDX 21 35 22 36 83 37 23 38 82 39 24 40 25 41 26 42 76 43 27 44
REMARK SMILES IDX 81 45 75 46 77 47 28 48 80 49 74 50 73 51 29 53 61 54 41 55
REMARK SMILES IDX 60 56 42 57 45 58 59 59 78 60 43 61 44 62 58 64 79 65 46 66
REMARK SMILES IDX 30 67 31 68 39 69 32 70 38 71 40 72 37 73 33 74 34 75 35 76
REMARK SMILES IDX 36 77 62 78 63 79 71 80 64 81 70 82 72 83 69 84 65 85 66 86
REMARK SMILES IDX 67 87 68 88 47 89 48 90 56 91 49 92 55 93 57 94 54 95 50 96
REMARK SMILES IDX 51 97 52 98 53 99
REMARK H PARENT 13 6 18 33 77 52 45 63
REMARK Flexibility Score: inf
ROOT
ATOM      1  C   UNL A   1      36.684  20.761  24.992  1.00  0.00     0.023 C 
ENDROOT
BRANCH   1   2
ATOM      2  C   UNL A   1      35.265  21.273  24.750  1.00  0.00     0.116 C 
BRANCH   2   3
ATOM      3  N   UNL A   1      34.253  20.398  25.311  1.00  0.00    -0.356 N 
ATOM      4  C   UNL A   1      32.995  20.142  24.844  1.00  0.00     0.224 C 
ATOM      5  O   UNL A   1      32.304  19.315  25.445  1.00  0.00    -0.275 OA
ATOM      6  H   UNL A   1      34.507  19.927  26.137  1.00  0.00     0.163 HD
BRANCH   4   7
ATOM      7  C   UNL A   1      32.493  20.807  23.570  1.00  0.00     0.138 C 
BRANCH   7   8
ATOM      8  C   UNL A   1      32.265  22.287  23.710  1.00  0.00    -0.009 A 
ATOM      9  C   UNL A   1      30.212  23.297  26.766  1.00  0.00     0.119 A 
ATOM     10  C   UNL A   1      30.206  24.655  26.499  1.00  0.00     0.048 A 
ATOM     11  C   UNL A   1      30.902  22.429  25.918  1.00  0.00     0.057 A 
ATOM     12  C   UNL A   1      30.844  25.164  25.365  1.00  0.00     0.031 A 
ATOM     13  C   UNL A   1      31.565  22.923  24.770  1.00  0.00     0.008 A 
ATOM     14  C   UNL A   1      31.559  24.297  24.511  1.00  0.00     0.057 A 
ATOM     15  N   UNL A   1      32.354  24.529  23.373  1.00  0.00    -0.280 N 
ATOM     16  C   UNL A   1      32.629  23.276  22.802  1.00  0.00     0.028 A 
ATOM     17  C   UNL A   1      33.247  23.060  21.453  1.00  0.00     0.065 C 
BRANCH   9  18
ATOM     18  O   UNL A   1      29.597  22.724  27.844  1.00  0.00    -0.497 OA
ATOM     19  C   UNL A   1      28.331  22.138  27.548  1.00  0.00     0.278 C 
ENDBRANCH   9  18
BRANCH  15  20
ATOM     20  C   UNL A   1      32.790  25.798  22.882  1.00  0.00     0.262 C 
ATOM     21  O   UNL A   1      33.854  25.876  22.279  1.00  0.00    -0.268 OA
BRANCH  20  22
ATOM     22  C   UNL A   1      32.041  27.061  23.011  1.00  0.00     0.040 A 
ATOM     23  C   UNL A   1      32.478  28.081  23.864  1.00  0.00     0.015 A 
ATOM     24  C   UNL A   1      30.849  27.191  22.289  1.00  0.00     0.015 A 
ATOM     25  C   UNL A   1      31.661  29.195  24.068  1.00  0.00     0.021 A 
ATOM     26  C   UNL A   1      30.043  28.313  22.490  1.00  0.00     0.021 A 
ATOM     27  C   UNL A   1      30.440  29.297  23.395  1.00  0.00     0.041 A 
ATOM     28  Cl  UNL A   1      29.398  30.630  23.704  1.00  0.00    -0.084 Cl
ENDBRANCH  20  22
ENDBRANCH  15  20
ENDBRANCH   7   8
ENDBRANCH   4   7
ENDBRANCH   2   3
ENDBRANCH   1   2
BRANCH   1  29
ATOM     29  C   UNL A   1      37.775  21.840  24.927  1.00  0.00     0.023 C 
BRANCH  29  30
ATOM     30  C   UNL A   1      38.628  21.973  26.191  1.00  0.00     0.116 C 
BRANCH  30  31
ATOM     31  N   UNL A   1      40.050  21.820  25.958  1.00  0.00    -0.352 N 
ATOM     32  C   UNL A   1      41.169  22.509  26.335  1.00  0.00     0.251 C 
ATOM     33  H   UNL A   1      40.258  21.038  25.397  1.00  0.00     0.163 HD
ATOM     34  O   UNL A   1      42.240  21.938  26.108  1.00  0.00    -0.269 OA
BRANCH  32  35
ATOM     35  C   UNL A   1      41.192  23.883  26.913  1.00  0.00     0.039 A 
ATOM     36  C   UNL A   1      42.143  24.378  27.804  1.00  0.00     0.014 A 
ATOM     37  C   UNL A   1      40.107  24.714  26.563  1.00  0.00     0.014 A 
ATOM     38  C   UNL A   1      41.966  25.630  28.393  1.00  0.00     0.010 A 
ATOM     39  C   UNL A   1      39.928  25.965  27.148  1.00  0.00     0.010 A 
ATOM     40  C   UNL A   1      40.840  26.406  28.096  1.00  0.00    -0.014 A 
BRANCH  40  41
ATOM     41  C   UNL A   1      40.748  27.738  28.696  1.00  0.00     0.031 A 
ATOM     42  C   UNL A   1      41.744  28.703  28.152  1.00  0.00     0.074 A 
ATOM     43  C   UNL A   1      39.817  28.118  29.597  1.00  0.00     0.049 A 
ATOM     44  N   UNL A   1      42.772  29.200  28.757  1.00  0.00    -0.248 NA
ATOM     45  C   UNL A   1      41.685  29.019  26.717  1.00  0.00     0.031 C 
ATOM     46  C   UNL A   1      38.608  27.394  29.996  1.00  0.00     0.029 A 
ATOM     47  N   UNL A   1      39.709  29.292  30.290  1.00  0.00    -0.354 N 
ATOM     48  C   UNL A   1      43.379  30.062  27.843  1.00  0.00     0.074 A 
ATOM     49  C   UNL A   1      42.772  29.779  26.567  1.00  0.00     0.031 C 
ATOM     50  C   UNL A   1      37.783  28.233  30.666  1.00  0.00     0.029 A 
ATOM     51  C   UNL A   1      38.466  29.499  30.880  1.00  0.00     0.049 A 
ATOM     52  H   UNL A   1      40.449  29.937  30.365  1.00  0.00     0.167 HD
ATOM     53  C   UNL A   1      44.182  31.083  28.257  1.00  0.00     0.034 A 
ATOM     54  C   UNL A   1      38.007  30.641  31.454  1.00  0.00     0.034 A 
ATOM     55  C   UNL A   1      44.532  30.922  29.642  1.00  0.00     0.049 A 
ATOM     56  C   UNL A   1      39.168  31.500  31.772  1.00  0.00     0.074 A 
ATOM     57  C   UNL A   1      45.278  30.026  30.374  1.00  0.00     0.029 A 
ATOM     58  N   UNL A   1      43.762  31.618  30.539  1.00  0.00    -0.354 N 
ATOM     59  N   UNL A   1      40.028  31.249  32.715  1.00  0.00    -0.248 NA
ATOM     60  C   UNL A   1      39.598  32.455  30.764  1.00  0.00     0.031 C 
ATOM     61  C   UNL A   1      44.625  29.941  31.634  1.00  0.00     0.029 A 
ATOM     62  C   UNL A   1      43.555  30.840  31.643  1.00  0.00     0.049 A 
ATOM     63  H   UNL A   1      43.415  32.530  30.410  1.00  0.00     0.167 HD
ATOM     64  C   UNL A   1      41.244  31.610  32.161  1.00  0.00     0.074 A 
ATOM     65  C   UNL A   1      40.905  32.472  31.031  1.00  0.00     0.031 C 
ATOM     66  C   UNL A   1      42.384  30.938  32.492  1.00  0.00     0.034 A 
BRANCH  53  67
ATOM     67  C   UNL A   1      44.327  32.416  27.551  1.00  0.00     0.023 A 
ATOM     68  C   UNL A   1      43.610  33.568  27.917  1.00  0.00     0.031 A 
ATOM     69  C   UNL A   1      45.388  32.621  26.640  1.00  0.00     0.131 A 
ATOM     70  C   UNL A   1      43.949  34.834  27.418  1.00  0.00     0.055 A 
ATOM     71  C   UNL A   1      45.769  33.893  26.194  1.00  0.00     0.041 A 
ATOM     72  F   UNL A   1      46.138  31.596  26.204  1.00  0.00    -0.206 F 
ATOM     73  C   UNL A   1      45.051  35.011  26.589  1.00  0.00     0.022 A 
BRANCH  70  74
ATOM     74  S   UNL A   1      42.967  36.290  27.877  1.00  0.00     0.124 S 
ATOM     75  O   UNL A   1      42.719  36.910  26.578  1.00  0.00    -0.237 OA
ATOM     76  O   UNL A   1      41.809  35.672  28.515  1.00  0.00    -0.237 OA
ATOM     77  O   UNL A   1      43.850  37.029  28.774  1.00  0.00    -0.744 OA
ENDBRANCH  70  74
ENDBRANCH  53  67
BRANCH  54  78
ATOM     78  C   UNL A   1      36.650  31.235  31.357  1.00  0.00     0.023 A 
ATOM     79  C   UNL A   1      36.098  31.478  30.089  1.00  0.00     0.031 A 
ATOM     80  C   UNL A   1      36.067  31.898  32.454  1.00  0.00     0.131 A 
ATOM     81  C   UNL A   1      35.062  32.409  29.932  1.00  0.00     0.055 A 
ATOM     82  C   UNL A   1      35.015  32.810  32.299  1.00  0.00     0.041 A 
ATOM     83  F   UNL A   1      36.566  31.742  33.690  1.00  0.00    -0.206 F 
ATOM     84  C   UNL A   1      34.521  33.084  31.028  1.00  0.00     0.022 A 
BRANCH  81  85
ATOM     85  S   UNL A   1      34.477  32.852  28.274  1.00  0.00     0.124 S 
ATOM     86  O   UNL A   1      33.891  31.599  27.808  1.00  0.00    -0.237 OA
ATOM     87  O   UNL A   1      33.528  33.919  28.571  1.00  0.00    -0.237 OA
ATOM     88  O   UNL A   1      35.696  33.259  27.581  1.00  0.00    -0.744 OA
ENDBRANCH  81  85
ENDBRANCH  54  78
BRANCH  66  89
ATOM     89  C   UNL A   1      42.382  30.057  33.718  1.00  0.00     0.023 A 
ATOM     90  C   UNL A   1      42.733  30.683  34.927  1.00  0.00     0.031 A 
ATOM     91  C   UNL A   1      42.273  28.654  33.719  1.00  0.00     0.131 A 
ATOM     92  C   UNL A   1      43.030  29.925  36.061  1.00  0.00     0.055 A 
ATOM     93  C   UNL A   1      42.486  27.903  34.881  1.00  0.00     0.041 A 
ATOM     94  F   UNL A   1      42.048  27.961  32.593  1.00  0.00    -0.206 F 
ATOM     95  C   UNL A   1      42.890  28.536  36.054  1.00  0.00     0.022 A 
BRANCH  92  96
ATOM     96  S   UNL A   1      43.788  30.717  37.502  1.00  0.00     0.124 S 
ATOM     97  O   UNL A   1      44.492  29.603  38.130  1.00  0.00    -0.237 OA
ATOM     98  O   UNL A   1      44.640  31.732  36.886  1.00  0.00    -0.237 OA
ATOM     99  O   UNL A   1      42.652  31.244  38.254  1.00  0.00    -0.744 OA
ENDBRANCH  92  96
ENDBRANCH  66  89
ENDBRANCH  40  41
ENDBRANCH  32  35
ENDBRANCH  30  31
ENDBRANCH  29  30
ENDBRANCH   1  29
TORSDOF 18
ENDMDL
