MODEL 1
REMARK VINA RESULT:     -12.3      0.000      0.000
REMARK SMILES Nc1ccc(N2CC3(CCC3)C2)c(C(=O)NCCCCNC(=O)c2ccc(-c3c4nc(c(-c5cc(S(=O)(=O)[O-])ccc5F)c5ccc([nH]5)c(-c5cc(S(=O)(=O)[O-])ccc5F)c5nc(c(-c6cc(S(=O)(=O)[O-])ccc6F)c6ccc3[nH]6)C=C5)C=C4)cc2)c1
REMARK SMILES IDX 19 1 18 2 17 3 16 4 14 5 15 6 13 8 2 9 3 10 87 11 4 12 5 13
REMARK SMILES IDX 1 14 6 17 7 18 12 19 8 20 9 21 11 22 10 23 20 24 21 25 22 26
REMARK SMILES IDX 23 28 24 29 25 30 86 31 26 32 85 33 27 34 28 35 29 36 79 37
REMARK SMILES IDX 30 38 84 39 78 40 80 41 31 42 83 43 77 44 76 45 32 47 64 48
REMARK SMILES IDX 44 49 63 50 45 51 48 52 62 53 81 54 46 55 47 56 61 58 82 59
REMARK SMILES IDX 49 60 33 61 34 62 42 63 35 64 41 65 43 66 40 67 36 68 37 69
REMARK SMILES IDX 38 70 39 71 65 72 66 73 74 74 67 75 73 76 75 77 72 78 68 79
REMARK SMILES IDX 69 80 70 81 71 82 50 83 51 84 59 85 52 86 58 87 60 88 57 89
REMARK SMILES IDX 53 90 54 91 55 92 56 93
REMARK H PARENT 16 7 1 15 1 16 21 27 80 46 48 57
REMARK Flexibility Score: inf
ROOT
ATOM      1  C   UNL A   1      31.770  31.538  26.938  1.00  0.00     0.023 C 
ENDROOT
BRANCH   1   2
ATOM      2  C   UNL A   1      32.048  30.033  26.818  1.00  0.00     0.023 C 
BRANCH   2   3
ATOM      3  C   UNL A   1      33.534  29.678  26.736  1.00  0.00     0.116 C 
BRANCH   3   4
ATOM      4  N   UNL A   1      33.874  29.292  25.385  1.00  0.00    -0.352 N 
ATOM      5  C   UNL A   1      33.599  28.223  24.571  1.00  0.00     0.253 C 
ATOM      6  O   UNL A   1      34.192  28.288  23.497  1.00  0.00    -0.269 OA
ATOM      7  H   UNL A   1      34.445  29.959  24.941  1.00  0.00     0.163 HD
BRANCH   5   8
ATOM      8  C   UNL A   1      32.625  27.116  24.888  1.00  0.00     0.065 A 
ATOM      9  C   UNL A   1      32.147  25.087  26.197  1.00  0.00     0.032 A 
ATOM     10  C   UNL A   1      30.793  25.243  25.944  1.00  0.00     0.027 A 
ATOM     11  C   UNL A   1      33.043  25.981  25.607  1.00  0.00     0.041 A 
ATOM     12  C   UNL A   1      30.352  26.293  25.139  1.00  0.00     0.029 A 
ATOM     13  C   UNL A   1      31.247  27.227  24.575  1.00  0.00     0.050 A 
BRANCH   9  14
ATOM     14  N   UNL A   1      32.612  24.000  26.922  1.00  0.00    -0.399 N 
ATOM     15  H   UNL A   1      32.943  23.200  26.453  1.00  0.00     0.156 HD
ATOM     16  H   UNL A   1      32.612  24.028  27.906  1.00  0.00     0.156 HD
ENDBRANCH   9  14
BRANCH  13  17
ATOM     17  N   UNL A   1      30.675  28.186  23.725  1.00  0.00    -0.370 N 
ATOM     18  C   UNL A   1      30.179  28.071  22.387  1.00  0.00     0.125 C 
ATOM     19  C   UNL A   1      30.242  29.539  23.907  1.00  0.00     0.125 C 
ATOM     20  C   UNL A   1      29.398  29.319  22.681  1.00  0.00     0.005 C 
ATOM     21  C   UNL A   1      29.251  30.424  21.672  1.00  0.00     0.011 C 
ATOM     22  C   UNL A   1      27.893  29.207  22.825  1.00  0.00     0.011 C 
ATOM     23  C   UNL A   1      27.827  30.642  22.252  1.00  0.00     0.001 C 
ENDBRANCH  13  17
ENDBRANCH   5   8
ENDBRANCH   3   4
ENDBRANCH   2   3
ENDBRANCH   1   2
BRANCH   1  24
ATOM     24  C   UNL A   1      32.980  32.393  27.302  1.00  0.00     0.116 C 
BRANCH  24  25
ATOM     25  N   UNL A   1      32.628  33.772  27.600  1.00  0.00    -0.352 N 
ATOM     26  C   UNL A   1      33.167  34.611  28.547  1.00  0.00     0.251 C 
ATOM     27  H   UNL A   1      31.907  34.156  27.051  1.00  0.00     0.163 HD
ATOM     28  O   UNL A   1      32.663  35.708  28.746  1.00  0.00    -0.269 OA
BRANCH  26  29
ATOM     29  C   UNL A   1      34.327  34.155  29.340  1.00  0.00     0.039 A 
ATOM     30  C   UNL A   1      34.095  33.432  30.512  1.00  0.00     0.014 A 
ATOM     31  C   UNL A   1      35.632  34.416  28.916  1.00  0.00     0.014 A 
ATOM     32  C   UNL A   1      35.177  32.915  31.228  1.00  0.00     0.010 A 
ATOM     33  C   UNL A   1      36.705  33.848  29.596  1.00  0.00     0.010 A 
ATOM     34  C   UNL A   1      36.488  33.089  30.756  1.00  0.00    -0.014 A 
BRANCH  34  35
ATOM     35  C   UNL A   1      37.644  32.483  31.463  1.00  0.00     0.031 A 
ATOM     36  C   UNL A   1      38.389  31.336  30.839  1.00  0.00     0.074 A 
ATOM     37  C   UNL A   1      37.973  32.918  32.695  1.00  0.00     0.049 A 
ATOM     38  N   UNL A   1      39.368  30.621  31.328  1.00  0.00    -0.248 NA
ATOM     39  C   UNL A   1      37.949  30.922  29.499  1.00  0.00     0.031 C 
ATOM     40  C   UNL A   1      37.293  33.994  33.420  1.00  0.00     0.029 A 
ATOM     41  N   UNL A   1      38.954  32.505  33.560  1.00  0.00    -0.354 N 
ATOM     42  C   UNL A   1      39.654  29.660  30.363  1.00  0.00     0.074 A 
ATOM     43  C   UNL A   1      38.700  29.851  29.290  1.00  0.00     0.031 C 
ATOM     44  C   UNL A   1      37.888  34.166  34.610  1.00  0.00     0.029 A 
ATOM     45  C   UNL A   1      38.964  33.190  34.753  1.00  0.00     0.049 A 
ATOM     46  H   UNL A   1      39.590  31.785  33.347  1.00  0.00     0.167 HD
ATOM     47  C   UNL A   1      40.634  28.723  30.363  1.00  0.00     0.034 A 
ATOM     48  C   UNL A   1      39.743  33.040  35.841  1.00  0.00     0.034 A 
ATOM     49  C   UNL A   1      41.581  28.555  31.440  1.00  0.00     0.049 A 
ATOM     50  C   UNL A   1      40.818  31.985  35.826  1.00  0.00     0.074 A 
ATOM     51  C   UNL A   1      42.649  27.679  31.523  1.00  0.00     0.029 A 
ATOM     52  N   UNL A   1      41.570  29.276  32.628  1.00  0.00    -0.354 N 
ATOM     53  N   UNL A   1      41.112  31.118  34.884  1.00  0.00    -0.248 NA
ATOM     54  C   UNL A   1      41.674  31.895  37.016  1.00  0.00     0.031 C 
ATOM     55  C   UNL A   1      43.241  27.825  32.782  1.00  0.00     0.029 A 
ATOM     56  C   UNL A   1      42.592  28.844  33.459  1.00  0.00     0.049 A 
ATOM     57  H   UNL A   1      40.927  29.990  32.848  1.00  0.00     0.167 HD
ATOM     58  C   UNL A   1      42.207  30.401  35.356  1.00  0.00     0.074 A 
ATOM     59  C   UNL A   1      42.527  30.945  36.661  1.00  0.00     0.031 C 
ATOM     60  C   UNL A   1      42.890  29.389  34.764  1.00  0.00     0.034 A 
BRANCH  47  61
ATOM     61  C   UNL A   1      40.704  27.795  29.172  1.00  0.00     0.023 A 
ATOM     62  C   UNL A   1      41.646  27.983  28.145  1.00  0.00     0.031 A 
ATOM     63  C   UNL A   1      39.791  26.736  29.038  1.00  0.00     0.131 A 
ATOM     64  C   UNL A   1      41.598  27.185  26.993  1.00  0.00     0.055 A 
ATOM     65  C   UNL A   1      39.804  25.887  27.927  1.00  0.00     0.041 A 
ATOM     66  F   UNL A   1      38.855  26.515  29.975  1.00  0.00    -0.206 F 
ATOM     67  C   UNL A   1      40.699  26.122  26.887  1.00  0.00     0.022 A 
BRANCH  64  68
ATOM     68  S   UNL A   1      42.619  27.658  25.570  1.00  0.00     0.124 S 
ATOM     69  O   UNL A   1      43.907  27.924  26.207  1.00  0.00    -0.237 OA
ATOM     70  O   UNL A   1      42.555  26.471  24.727  1.00  0.00    -0.237 OA
ATOM     71  O   UNL A   1      41.940  28.839  25.039  1.00  0.00    -0.744 OA
ENDBRANCH  64  68
ENDBRANCH  47  61
BRANCH  48  72
ATOM     72  C   UNL A   1      39.537  33.903  37.038  1.00  0.00     0.023 A 
ATOM     73  C   UNL A   1      38.905  33.404  38.189  1.00  0.00     0.031 A 
ATOM     74  C   UNL A   1      39.945  35.248  37.040  1.00  0.00     0.131 A 
ATOM     75  C   UNL A   1      38.661  34.255  39.277  1.00  0.00     0.055 A 
ATOM     76  C   UNL A   1      39.744  36.079  38.144  1.00  0.00     0.041 A 
ATOM     77  F   UNL A   1      40.562  35.771  35.969  1.00  0.00    -0.206 F 
ATOM     78  C   UNL A   1      39.087  35.586  39.267  1.00  0.00     0.022 A 
BRANCH  75  79
ATOM     79  S   UNL A   1      37.714  33.615  40.685  1.00  0.00     0.124 S 
ATOM     80  O   UNL A   1      38.658  32.672  41.274  1.00  0.00    -0.237 OA
ATOM     81  O   UNL A   1      37.455  34.828  41.453  1.00  0.00    -0.237 OA
ATOM     82  O   UNL A   1      36.538  33.013  40.059  1.00  0.00    -0.744 OA
ENDBRANCH  75  79
ENDBRANCH  48  72
BRANCH  60  83
ATOM     83  C   UNL A   1      44.082  28.840  35.509  1.00  0.00     0.023 A 
ATOM     84  C   UNL A   1      43.962  27.773  36.416  1.00  0.00     0.031 A 
ATOM     85  C   UNL A   1      45.355  29.405  35.315  1.00  0.00     0.131 A 
ATOM     86  C   UNL A   1      45.085  27.337  37.134  1.00  0.00     0.055 A 
ATOM     87  C   UNL A   1      46.480  28.929  35.989  1.00  0.00     0.041 A 
ATOM     88  F   UNL A   1      45.526  30.428  34.463  1.00  0.00    -0.206 F 
ATOM     89  C   UNL A   1      46.346  27.898  36.915  1.00  0.00     0.022 A 
BRANCH  86  90
ATOM     90  S   UNL A   1      44.863  26.082  38.425  1.00  0.00     0.124 S 
ATOM     91  O   UNL A   1      44.026  25.096  37.749  1.00  0.00    -0.237 OA
ATOM     92  O   UNL A   1      46.236  25.672  38.701  1.00  0.00    -0.237 OA
ATOM     93  O   UNL A   1      44.208  26.814  39.507  1.00  0.00    -0.744 OA
ENDBRANCH  86  90
ENDBRANCH  60  83
ENDBRANCH  34  35
ENDBRANCH  26  29
ENDBRANCH  24  25
ENDBRANCH   1  24
TORSDOF 16
ENDMDL
MODEL 2
REMARK VINA RESULT:     -11.9      1.586      1.976
REMARK SMILES Nc1ccc(N2CC3(CCC3)C2)c(C(=O)NCCCCNC(=O)c2ccc(-c3c4nc(c(-c5cc(S(=O)(=O)[O-])ccc5F)c5ccc([nH]5)c(-c5cc(S(=O)(=O)[O-])ccc5F)c5nc(c(-c6cc(S(=O)(=O)[O-])ccc6F)c6ccc3[nH]6)C=C5)C=C4)cc2)c1
REMARK SMILES IDX 19 1 18 2 17 3 16 4 14 5 15 6 13 8 2 9 3 10 87 11 4 12 5 13
REMARK SMILES IDX 1 14 6 17 7 18 12 19 8 20 9 21 11 22 10 23 20 24 21 25 22 26
REMARK SMILES IDX 23 28 24 29 25 30 86 31 26 32 85 33 27 34 28 35 29 36 79 37
REMARK SMILES IDX 30 38 84 39 78 40 80 41 31 42 83 43 77 44 76 45 32 47 64 48
REMARK SMILES IDX 44 49 63 50 45 51 48 52 62 53 81 54 46 55 47 56 61 58 82 59
REMARK SMILES IDX 49 60 33 61 34 62 42 63 35 64 41 65 43 66 40 67 36 68 37 69
REMARK SMILES IDX 38 70 39 71 65 72 66 73 74 74 67 75 73 76 75 77 72 78 68 79
REMARK SMILES IDX 69 80 70 81 71 82 50 83 51 84 59 85 52 86 58 87 60 88 57 89
REMARK SMILES IDX 53 90 54 91 55 92 56 93
REMARK H PARENT 16 7 1 15 1 16 21 27 80 46 48 57
REMARK Flexibility Score: inf
ROOT
ATOM      1  C   UNL A   1      31.278  32.042  26.397  1.00  0.00     0.023 C 
ENDROOT
BRANCH   1   2
ATOM      2  C   UNL A   1      31.311  30.593  25.890  1.00  0.00     0.023 C 
BRANCH   2   3
ATOM      3  C   UNL A   1      32.717  29.995  25.803  1.00  0.00     0.116 C 
BRANCH   3   4
ATOM      4  N   UNL A   1      33.034  29.681  24.428  1.00  0.00    -0.352 N 
ATOM      5  C   UNL A   1      32.822  28.616  23.590  1.00  0.00     0.253 C 
ATOM      6  O   UNL A   1      33.363  28.765  22.497  1.00  0.00    -0.269 OA
ATOM      7  H   UNL A   1      33.525  30.410  23.984  1.00  0.00     0.163 HD
BRANCH   5   8
ATOM      8  C   UNL A   1      31.964  27.416  23.908  1.00  0.00     0.065 A 
ATOM      9  C   UNL A   1      31.763  25.265  25.088  1.00  0.00     0.032 A 
ATOM     10  C   UNL A   1      30.383  25.335  24.978  1.00  0.00     0.027 A 
ATOM     11  C   UNL A   1      32.531  26.267  24.490  1.00  0.00     0.041 A 
ATOM     12  C   UNL A   1      29.791  26.404  24.306  1.00  0.00     0.029 A 
ATOM     13  C   UNL A   1      30.558  27.443  23.737  1.00  0.00     0.050 A 
BRANCH   9  14
ATOM     14  N   UNL A   1      32.373  24.168  25.676  1.00  0.00    -0.399 N 
ATOM     15  H   UNL A   1      32.305  23.281  25.253  1.00  0.00     0.156 HD
ATOM     16  H   UNL A   1      32.875  24.274  26.516  1.00  0.00     0.156 HD
ENDBRANCH   9  14
BRANCH  13  17
ATOM     17  N   UNL A   1      29.838  28.415  23.025  1.00  0.00    -0.370 N 
ATOM     18  C   UNL A   1      28.428  28.623  22.893  1.00  0.00     0.125 C 
ATOM     19  C   UNL A   1      30.210  29.607  22.325  1.00  0.00     0.125 C 
ATOM     20  C   UNL A   1      28.777  30.030  22.505  1.00  0.00     0.005 C 
ATOM     21  C   UNL A   1      28.068  30.749  21.390  1.00  0.00     0.011 C 
ATOM     22  C   UNL A   1      28.447  31.145  23.476  1.00  0.00     0.011 C 
ATOM     23  C   UNL A   1      28.245  32.042  22.232  1.00  0.00     0.001 C 
ENDBRANCH  13  17
ENDBRANCH   5   8
ENDBRANCH   3   4
ENDBRANCH   2   3
ENDBRANCH   1   2
BRANCH   1  24
ATOM     24  C   UNL A   1      32.593  32.556  26.973  1.00  0.00     0.116 C 
BRANCH  24  25
ATOM     25  N   UNL A   1      32.470  33.877  27.569  1.00  0.00    -0.352 N 
ATOM     26  C   UNL A   1      33.233  34.447  28.560  1.00  0.00     0.251 C 
ATOM     27  H   UNL A   1      31.743  34.438  27.215  1.00  0.00     0.163 HD
ATOM     28  O   UNL A   1      32.910  35.529  29.031  1.00  0.00    -0.269 OA
BRANCH  26  29
ATOM     29  C   UNL A   1      34.414  33.721  29.071  1.00  0.00     0.039 A 
ATOM     30  C   UNL A   1      35.684  34.239  28.809  1.00  0.00     0.014 A 
ATOM     31  C   UNL A   1      34.267  32.555  29.826  1.00  0.00     0.014 A 
ATOM     32  C   UNL A   1      36.808  33.619  29.360  1.00  0.00     0.010 A 
ATOM     33  C   UNL A   1      35.381  31.975  30.425  1.00  0.00     0.010 A 
ATOM     34  C   UNL A   1      36.662  32.503  30.200  1.00  0.00    -0.014 A 
BRANCH  34  35
ATOM     35  C   UNL A   1      37.838  31.877  30.854  1.00  0.00     0.031 A 
ATOM     36  C   UNL A   1      38.637  30.833  30.124  1.00  0.00     0.074 A 
ATOM     37  C   UNL A   1      38.138  32.195  32.128  1.00  0.00     0.049 A 
ATOM     38  N   UNL A   1      39.643  30.114  30.549  1.00  0.00    -0.248 NA
ATOM     39  C   UNL A   1      38.227  30.542  28.743  1.00  0.00     0.031 C 
ATOM     40  C   UNL A   1      37.406  33.161  32.952  1.00  0.00     0.029 A 
ATOM     41  N   UNL A   1      39.130  31.737  32.958  1.00  0.00    -0.354 N 
ATOM     42  C   UNL A   1      39.978  29.272  29.493  1.00  0.00     0.074 A 
ATOM     43  C   UNL A   1      39.025  29.531  28.434  1.00  0.00     0.031 C 
ATOM     44  C   UNL A   1      37.984  33.234  34.161  1.00  0.00     0.029 A 
ATOM     45  C   UNL A   1      39.101  32.295  34.215  1.00  0.00     0.049 A 
ATOM     46  H   UNL A   1      39.799  31.071  32.679  1.00  0.00     0.167 HD
ATOM     47  C   UNL A   1      40.998  28.382  29.409  1.00  0.00     0.034 A 
ATOM     48  C   UNL A   1      39.878  32.067  35.291  1.00  0.00     0.034 A 
ATOM     49  C   UNL A   1      41.943  28.144  30.473  1.00  0.00     0.049 A 
ATOM     50  C   UNL A   1      40.998  31.066  35.181  1.00  0.00     0.074 A 
ATOM     51  C   UNL A   1      43.048  27.310  30.478  1.00  0.00     0.029 A 
ATOM     52  N   UNL A   1      41.892  28.737  31.730  1.00  0.00    -0.354 N 
ATOM     53  N   UNL A   1      41.337  30.315  34.157  1.00  0.00    -0.248 NA
ATOM     54  C   UNL A   1      41.848  30.890  36.365  1.00  0.00     0.031 C 
ATOM     55  C   UNL A   1      43.624  27.351  31.753  1.00  0.00     0.029 A 
ATOM     56  C   UNL A   1      42.925  28.266  32.524  1.00  0.00     0.049 A 
ATOM     57  H   UNL A   1      41.217  29.396  32.014  1.00  0.00     0.167 HD
ATOM     58  C   UNL A   1      42.459  29.600  34.567  1.00  0.00     0.074 A 
ATOM     59  C   UNL A   1      42.744  30.019  35.924  1.00  0.00     0.031 C 
ATOM     60  C   UNL A   1      43.190  28.685  33.881  1.00  0.00     0.034 A 
BRANCH  47  61
ATOM     61  C   UNL A   1      41.118  27.586  28.129  1.00  0.00     0.023 A 
ATOM     62  C   UNL A   1      40.753  26.229  28.068  1.00  0.00     0.031 A 
ATOM     63  C   UNL A   1      41.644  28.176  26.967  1.00  0.00     0.131 A 
ATOM     64  C   UNL A   1      40.999  25.488  26.904  1.00  0.00     0.055 A 
ATOM     65  C   UNL A   1      41.806  27.454  25.782  1.00  0.00     0.041 A 
ATOM     66  F   UNL A   1      42.028  29.463  26.967  1.00  0.00    -0.206 F 
ATOM     67  C   UNL A   1      41.500  26.096  25.751  1.00  0.00     0.022 A 
BRANCH  64  68
ATOM     68  S   UNL A   1      40.806  23.685  26.970  1.00  0.00     0.124 S 
ATOM     69  O   UNL A   1      41.159  23.402  28.359  1.00  0.00    -0.237 OA
ATOM     70  O   UNL A   1      39.404  23.505  26.617  1.00  0.00    -0.237 OA
ATOM     71  O   UNL A   1      41.767  23.201  25.980  1.00  0.00    -0.744 OA
ENDBRANCH  64  68
ENDBRANCH  47  61
BRANCH  48  72
ATOM     72  C   UNL A   1      39.625  32.792  36.568  1.00  0.00     0.023 A 
ATOM     73  C   UNL A   1      38.683  32.317  37.495  1.00  0.00     0.031 A 
ATOM     74  C   UNL A   1      40.303  33.986  36.869  1.00  0.00     0.131 A 
ATOM     75  C   UNL A   1      38.414  33.053  38.658  1.00  0.00     0.055 A 
ATOM     76  C   UNL A   1      40.067  34.691  38.051  1.00  0.00     0.041 A 
ATOM     77  F   UNL A   1      41.220  34.478  36.021  1.00  0.00    -0.206 F 
ATOM     78  C   UNL A   1      39.107  34.230  38.948  1.00  0.00     0.022 A 
BRANCH  75  79
ATOM     79  S   UNL A   1      37.089  32.485  39.758  1.00  0.00     0.124 S 
ATOM     80  O   UNL A   1      37.159  33.461  40.839  1.00  0.00    -0.237 OA
ATOM     81  O   UNL A   1      35.918  32.570  38.892  1.00  0.00    -0.237 OA
ATOM     82  O   UNL A   1      37.500  31.128  40.114  1.00  0.00    -0.744 OA
ENDBRANCH  75  79
ENDBRANCH  48  72
BRANCH  60  83
ATOM     83  C   UNL A   1      44.399  28.113  34.580  1.00  0.00     0.023 A 
ATOM     84  C   UNL A   1      44.340  26.902  35.292  1.00  0.00     0.031 A 
ATOM     85  C   UNL A   1      45.625  28.801  34.542  1.00  0.00     0.131 A 
ATOM     86  C   UNL A   1      45.472  26.441  35.980  1.00  0.00     0.055 A 
ATOM     87  C   UNL A   1      46.764  28.308  35.180  1.00  0.00     0.041 A 
ATOM     88  F   UNL A   1      45.736  29.963  33.880  1.00  0.00    -0.206 F 
ATOM     89  C   UNL A   1      46.688  27.128  35.915  1.00  0.00     0.022 A 
BRANCH  86  90
ATOM     90  S   UNL A   1      45.315  24.973  37.033  1.00  0.00     0.124 S 
ATOM     91  O   UNL A   1      45.104  25.564  38.349  1.00  0.00    -0.237 OA
ATOM     92  O   UNL A   1      44.166  24.290  36.447  1.00  0.00    -0.237 OA
ATOM     93  O   UNL A   1      46.595  24.287  36.859  1.00  0.00    -0.744 OA
ENDBRANCH  86  90
ENDBRANCH  60  83
ENDBRANCH  34  35
ENDBRANCH  26  29
ENDBRANCH  24  25
ENDBRANCH   1  24
TORSDOF 16
ENDMDL
MODEL 3
REMARK VINA RESULT:     -11.9      0.914      2.510
REMARK SMILES Nc1ccc(N2CC3(CCC3)C2)c(C(=O)NCCCCNC(=O)c2ccc(-c3c4nc(c(-c5cc(S(=O)(=O)[O-])ccc5F)c5ccc([nH]5)c(-c5cc(S(=O)(=O)[O-])ccc5F)c5nc(c(-c6cc(S(=O)(=O)[O-])ccc6F)c6ccc3[nH]6)C=C5)C=C4)cc2)c1
REMARK SMILES IDX 19 1 18 2 17 3 16 4 14 5 15 6 13 8 2 9 3 10 87 11 4 12 5 13
REMARK SMILES IDX 1 14 6 17 7 18 12 19 8 20 9 21 11 22 10 23 20 24 21 25 22 26
REMARK SMILES IDX 23 28 24 29 25 30 86 31 26 32 85 33 27 34 28 35 29 36 79 37
REMARK SMILES IDX 30 38 84 39 78 40 80 41 31 42 83 43 77 44 76 45 32 47 64 48
REMARK SMILES IDX 44 49 63 50 45 51 48 52 62 53 81 54 46 55 47 56 61 58 82 59
REMARK SMILES IDX 49 60 33 61 34 62 42 63 35 64 41 65 43 66 40 67 36 68 37 69
REMARK SMILES IDX 38 70 39 71 65 72 66 73 74 74 67 75 73 76 75 77 72 78 68 79
REMARK SMILES IDX 69 80 70 81 71 82 50 83 51 84 59 85 52 86 58 87 60 88 57 89
REMARK SMILES IDX 53 90 54 91 55 92 56 93
REMARK H PARENT 16 7 1 15 1 16 21 27 80 46 48 57
REMARK Flexibility Score: inf
ROOT
ATOM      1  C   UNL A   1      31.404  32.106  26.441  1.00  0.00     0.023 C 
ENDROOT
BRANCH   1   2
ATOM      2  C   UNL A   1      31.360  30.617  26.073  1.00  0.00     0.023 C 
BRANCH   2   3
ATOM      3  C   UNL A   1      32.739  29.973  25.911  1.00  0.00     0.116 C 
BRANCH   3   4
ATOM      4  N   UNL A   1      32.976  29.660  24.519  1.00  0.00    -0.352 N 
ATOM      5  C   UNL A   1      32.263  29.062  23.512  1.00  0.00     0.253 C 
ATOM      6  O   UNL A   1      32.922  28.935  22.483  1.00  0.00    -0.269 OA
ATOM      7  H   UNL A   1      33.869  29.947  24.221  1.00  0.00     0.163 HD
BRANCH   5   8
ATOM      8  C   UNL A   1      30.810  28.661  23.594  1.00  0.00     0.065 A 
ATOM      9  C   UNL A   1      28.482  29.167  22.976  1.00  0.00     0.032 A 
ATOM     10  C   UNL A   1      28.126  27.855  23.248  1.00  0.00     0.027 A 
ATOM     11  C   UNL A   1      29.799  29.565  23.222  1.00  0.00     0.041 A 
ATOM     12  C   UNL A   1      29.081  26.960  23.729  1.00  0.00     0.029 A 
ATOM     13  C   UNL A   1      30.423  27.342  23.938  1.00  0.00     0.050 A 
BRANCH   9  14
ATOM     14  N   UNL A   1      27.529  30.093  22.581  1.00  0.00    -0.399 N 
ATOM     15  H   UNL A   1      26.664  30.140  23.050  1.00  0.00     0.156 HD
ATOM     16  H   UNL A   1      27.716  30.704  21.833  1.00  0.00     0.156 HD
ENDBRANCH   9  14
BRANCH  13  17
ATOM     17  N   UNL A   1      31.258  26.362  24.496  1.00  0.00    -0.370 N 
ATOM     18  C   UNL A   1      31.847  25.194  23.913  1.00  0.00     0.125 C 
ATOM     19  C   UNL A   1      31.941  26.238  25.749  1.00  0.00     0.125 C 
ATOM     20  C   UNL A   1      32.836  25.258  25.040  1.00  0.00     0.005 C 
ATOM     21  C   UNL A   1      33.304  24.024  25.761  1.00  0.00     0.011 C 
ATOM     22  C   UNL A   1      34.264  25.651  24.721  1.00  0.00     0.011 C 
ATOM     23  C   UNL A   1      34.680  24.731  25.893  1.00  0.00     0.001 C 
ENDBRANCH  13  17
ENDBRANCH   5   8
ENDBRANCH   3   4
ENDBRANCH   2   3
ENDBRANCH   1   2
BRANCH   1  24
ATOM     24  C   UNL A   1      32.657  32.552  27.189  1.00  0.00     0.116 C 
BRANCH  24  25
ATOM     25  N   UNL A   1      32.584  33.933  27.639  1.00  0.00    -0.352 N 
ATOM     26  C   UNL A   1      33.361  34.573  28.574  1.00  0.00     0.251 C 
ATOM     27  H   UNL A   1      31.886  34.482  27.216  1.00  0.00     0.163 HD
ATOM     28  O   UNL A   1      33.080  35.712  28.922  1.00  0.00    -0.269 OA
BRANCH  26  29
ATOM     29  C   UNL A   1      34.503  33.857  29.179  1.00  0.00     0.039 A 
ATOM     30  C   UNL A   1      35.798  34.234  28.815  1.00  0.00     0.014 A 
ATOM     31  C   UNL A   1      34.298  32.842  30.116  1.00  0.00     0.014 A 
ATOM     32  C   UNL A   1      36.892  33.633  29.442  1.00  0.00     0.010 A 
ATOM     33  C   UNL A   1      35.387  32.289  30.783  1.00  0.00     0.010 A 
ATOM     34  C   UNL A   1      36.694  32.681  30.455  1.00  0.00    -0.014 A 
BRANCH  34  35
ATOM     35  C   UNL A   1      37.842  32.087  31.184  1.00  0.00     0.031 A 
ATOM     36  C   UNL A   1      38.617  30.954  30.570  1.00  0.00     0.074 A 
ATOM     37  C   UNL A   1      38.137  32.519  32.425  1.00  0.00     0.049 A 
ATOM     38  N   UNL A   1      39.595  30.249  31.077  1.00  0.00    -0.248 NA
ATOM     39  C   UNL A   1      38.213  30.541  29.218  1.00  0.00     0.031 C 
ATOM     40  C   UNL A   1      37.426  33.581  33.141  1.00  0.00     0.029 A 
ATOM     41  N   UNL A   1      39.105  32.114  33.310  1.00  0.00    -0.354 N 
ATOM     42  C   UNL A   1      39.916  29.299  30.113  1.00  0.00     0.074 A 
ATOM     43  C   UNL A   1      38.984  29.482  29.020  1.00  0.00     0.031 C 
ATOM     44  C   UNL A   1      37.992  33.755  34.345  1.00  0.00     0.029 A 
ATOM     45  C   UNL A   1      39.078  32.793  34.506  1.00  0.00     0.049 A 
ATOM     46  H   UNL A   1      39.756  31.405  33.107  1.00  0.00     0.167 HD
ATOM     47  C   UNL A   1      40.909  28.375  30.130  1.00  0.00     0.034 A 
ATOM     48  C   UNL A   1      39.836  32.648  35.611  1.00  0.00     0.034 A 
ATOM     49  C   UNL A   1      41.834  28.214  31.227  1.00  0.00     0.049 A 
ATOM     50  C   UNL A   1      40.925  31.608  35.614  1.00  0.00     0.074 A 
ATOM     51  C   UNL A   1      42.911  27.352  31.329  1.00  0.00     0.029 A 
ATOM     52  N   UNL A   1      41.786  28.928  32.419  1.00  0.00    -0.354 N 
ATOM     53  N   UNL A   1      41.252  30.750  34.673  1.00  0.00    -0.248 NA
ATOM     54  C   UNL A   1      41.756  31.523  36.822  1.00  0.00     0.031 C 
ATOM     55  C   UNL A   1      43.474  27.499  32.602  1.00  0.00     0.029 A 
ATOM     56  C   UNL A   1      42.795  28.506  33.270  1.00  0.00     0.049 A 
ATOM     57  H   UNL A   1      41.129  29.632  32.628  1.00  0.00     0.167 HD
ATOM     58  C   UNL A   1      42.347  30.046  35.167  1.00  0.00     0.074 A 
ATOM     59  C   UNL A   1      42.629  30.586  36.481  1.00  0.00     0.031 C 
ATOM     60  C   UNL A   1      43.057  29.047  34.584  1.00  0.00     0.034 A 
BRANCH  47  61
ATOM     61  C   UNL A   1      41.018  27.455  28.936  1.00  0.00     0.023 A 
ATOM     62  C   UNL A   1      42.017  27.629  27.961  1.00  0.00     0.031 A 
ATOM     63  C   UNL A   1      40.088  26.420  28.745  1.00  0.00     0.131 A 
ATOM     64  C   UNL A   1      42.009  26.841  26.801  1.00  0.00     0.055 A 
ATOM     65  C   UNL A   1      40.138  25.580  27.628  1.00  0.00     0.041 A 
ATOM     66  F   UNL A   1      39.099  26.215  29.630  1.00  0.00    -0.206 F 
ATOM     67  C   UNL A   1      41.092  25.801  26.639  1.00  0.00     0.022 A 
BRANCH  64  68
ATOM     68  S   UNL A   1      43.114  27.300  25.437  1.00  0.00     0.124 S 
ATOM     69  O   UNL A   1      44.252  27.867  26.158  1.00  0.00    -0.237 OA
ATOM     70  O   UNL A   1      43.347  26.023  24.776  1.00  0.00    -0.237 OA
ATOM     71  O   UNL A   1      42.328  28.266  24.670  1.00  0.00    -0.744 OA
ENDBRANCH  64  68
ENDBRANCH  47  61
BRANCH  48  72
ATOM     72  C   UNL A   1      39.591  33.501  36.808  1.00  0.00     0.023 A 
ATOM     73  C   UNL A   1      38.929  32.990  37.936  1.00  0.00     0.031 A 
ATOM     74  C   UNL A   1      39.992  34.848  36.831  1.00  0.00     0.131 A 
ATOM     75  C   UNL A   1      38.649  33.832  39.023  1.00  0.00     0.055 A 
ATOM     76  C   UNL A   1      39.755  35.669  37.935  1.00  0.00     0.041 A 
ATOM     77  F   UNL A   1      40.636  35.382  35.782  1.00  0.00    -0.206 F 
ATOM     78  C   UNL A   1      39.068  35.164  39.035  1.00  0.00     0.022 A 
BRANCH  75  79
ATOM     79  S   UNL A   1      37.667  33.176  40.399  1.00  0.00     0.124 S 
ATOM     80  O   UNL A   1      38.454  32.017  40.801  1.00  0.00    -0.237 OA
ATOM     81  O   UNL A   1      37.659  34.301  41.329  1.00  0.00    -0.237 OA
ATOM     82  O   UNL A   1      36.377  32.873  39.782  1.00  0.00    -0.744 OA
ENDBRANCH  75  79
ENDBRANCH  48  72
BRANCH  60  83
ATOM     83  C   UNL A   1      44.239  28.510  35.352  1.00  0.00     0.023 A 
ATOM     84  C   UNL A   1      44.103  27.480  36.299  1.00  0.00     0.031 A 
ATOM     85  C   UNL A   1      45.521  29.050  35.140  1.00  0.00     0.131 A 
ATOM     86  C   UNL A   1      45.219  27.057  37.036  1.00  0.00     0.055 A 
ATOM     87  C   UNL A   1      46.638  28.585  35.835  1.00  0.00     0.041 A 
ATOM     88  F   UNL A   1      45.707  30.038  34.251  1.00  0.00    -0.206 F 
ATOM     89  C   UNL A   1      46.488  27.592  36.798  1.00  0.00     0.022 A 
BRANCH  86  90
ATOM     90  S   UNL A   1      44.976  25.854  38.372  1.00  0.00     0.124 S 
ATOM     91  O   UNL A   1      46.330  25.348  38.574  1.00  0.00    -0.237 OA
ATOM     92  O   UNL A   1      44.438  26.684  39.445  1.00  0.00    -0.237 OA
ATOM     93  O   UNL A   1      44.034  24.893  37.802  1.00  0.00    -0.744 OA
ENDBRANCH  86  90
ENDBRANCH  60  83
ENDBRANCH  34  35
ENDBRANCH  26  29
ENDBRANCH  24  25
ENDBRANCH   1  24
TORSDOF 16
ENDMDL
