MODEL 1
REMARK VINA RESULT:     -11.8      0.000      0.000
REMARK SMILES O=C(NCCCCNC(=O)[C@@H](Cc1ccccc1)Nc1ccc(Cl)c(Br)c1)c1ccc(-c2c3nc(c(-c4cc(S(=O)(=O)[O-])ccc4F)c4ccc([nH]4)c(-c4cc(S(=O)(=O)[O-])ccc4F)c4nc(c(-c5cc(S(=O)(=O)[O-])ccc5F)c5ccc2[nH]5)C=C4)C=C3)cc1
REMARK SMILES IDX 5 1 4 2 3 3 1 4 2 5 28 7 29 8 90 9 30 10 89 11 31 12 32 13
REMARK SMILES IDX 33 14 83 15 34 16 88 17 82 18 84 19 35 20 87 21 81 22 80 23
REMARK SMILES IDX 36 25 68 26 48 27 67 28 49 29 52 30 66 31 85 32 50 33 51 34
REMARK SMILES IDX 65 36 86 37 53 38 37 39 38 40 46 41 39 42 45 43 47 44 44 45
REMARK SMILES IDX 40 46 41 47 42 48 43 49 69 50 70 51 78 52 71 53 77 54 79 55
REMARK SMILES IDX 76 56 72 57 73 58 74 59 75 60 54 61 55 62 63 63 56 64 62 65
REMARK SMILES IDX 64 66 61 67 57 68 58 69 59 70 60 71 6 72 7 73 8 74 9 75
REMARK SMILES IDX 10 77 11 78 12 79 13 80 14 81 18 82 15 83 17 84 16 85 19 86
REMARK SMILES IDX 20 88 21 89 27 90 22 91 25 92 23 93 26 94 24 95
REMARK H PARENT 3 6 84 24 52 35 8 76 19 87
REMARK Flexibility Score: inf
ROOT
ATOM      1  C   UNL A   1      35.844  21.429  24.545  1.00  0.00     0.023 C 
ENDROOT
BRANCH   1   2
ATOM      2  C   UNL A   1      36.892  21.557  25.643  1.00  0.00     0.116 C 
BRANCH   2   3
ATOM      3  N   UNL A   1      38.000  20.609  25.549  1.00  0.00    -0.352 N 
ATOM      4  O   UNL A   1      40.138  19.903  25.839  1.00  0.00    -0.269 OA
ATOM      5  C   UNL A   1      39.292  20.767  26.013  1.00  0.00     0.251 C 
ATOM      6  H   UNL A   1      37.802  19.754  25.102  1.00  0.00     0.163 HD
BRANCH   5   7
ATOM      7  C   UNL A   1      39.637  22.044  26.678  1.00  0.00     0.039 A 
ATOM      8  C   UNL A   1      39.001  23.219  26.282  1.00  0.00     0.014 A 
ATOM      9  C   UNL A   1      40.710  22.084  27.570  1.00  0.00     0.014 A 
ATOM     10  C   UNL A   1      39.588  24.438  26.584  1.00  0.00     0.010 A 
ATOM     11  C   UNL A   1      41.225  23.321  27.971  1.00  0.00     0.010 A 
ATOM     12  C   UNL A   1      40.716  24.509  27.422  1.00  0.00    -0.014 A 
BRANCH  12  13
ATOM     13  C   UNL A   1      41.342  25.837  27.674  1.00  0.00     0.031 A 
ATOM     14  C   UNL A   1      40.640  26.891  28.495  1.00  0.00     0.074 A 
ATOM     15  C   UNL A   1      42.593  26.058  27.225  1.00  0.00     0.049 A 
ATOM     16  N   UNL A   1      41.059  28.084  28.839  1.00  0.00    -0.248 NA
ATOM     17  C   UNL A   1      39.290  26.575  28.982  1.00  0.00     0.031 C 
ATOM     18  C   UNL A   1      43.375  25.112  26.424  1.00  0.00     0.029 A 
ATOM     19  N   UNL A   1      43.443  27.117  27.409  1.00  0.00    -0.354 N 
ATOM     20  C   UNL A   1      40.012  28.676  29.541  1.00  0.00     0.074 A 
ATOM     21  C   UNL A   1      38.930  27.713  29.558  1.00  0.00     0.031 C 
ATOM     22  C   UNL A   1      44.616  25.593  26.262  1.00  0.00     0.029 A 
ATOM     23  C   UNL A   1      44.692  26.917  26.865  1.00  0.00     0.049 A 
ATOM     24  H   UNL A   1      43.186  27.940  27.883  1.00  0.00     0.167 HD
ATOM     25  C   UNL A   1      39.961  29.903  30.120  1.00  0.00     0.034 A 
ATOM     26  C   UNL A   1      45.776  27.715  26.840  1.00  0.00     0.034 A 
ATOM     27  C   UNL A   1      41.064  30.837  30.126  1.00  0.00     0.049 A 
ATOM     28  C   UNL A   1      45.693  29.067  27.487  1.00  0.00     0.074 A 
ATOM     29  C   UNL A   1      41.133  32.088  30.716  1.00  0.00     0.029 A 
ATOM     30  N   UNL A   1      42.293  30.623  29.515  1.00  0.00    -0.354 N 
ATOM     31  N   UNL A   1      44.688  29.613  28.133  1.00  0.00    -0.248 NA
ATOM     32  C   UNL A   1      46.887  29.914  27.393  1.00  0.00     0.031 C 
ATOM     33  C   UNL A   1      42.378  32.653  30.412  1.00  0.00     0.029 A 
ATOM     34  C   UNL A   1      43.114  31.728  29.689  1.00  0.00     0.049 A 
ATOM     35  H   UNL A   1      42.546  29.805  29.029  1.00  0.00     0.167 HD
ATOM     36  C   UNL A   1      45.135  30.868  28.528  1.00  0.00     0.074 A 
ATOM     37  C   UNL A   1      46.506  30.984  28.073  1.00  0.00     0.031 C 
ATOM     38  C   UNL A   1      44.469  31.840  29.203  1.00  0.00     0.034 A 
BRANCH  25  39
ATOM     39  C   UNL A   1      38.649  30.329  30.743  1.00  0.00     0.023 A 
ATOM     40  C   UNL A   1      37.642  30.973  30.004  1.00  0.00     0.031 A 
ATOM     41  C   UNL A   1      38.414  30.102  32.112  1.00  0.00     0.131 A 
ATOM     42  C   UNL A   1      36.482  31.432  30.649  1.00  0.00     0.055 A 
ATOM     43  C   UNL A   1      37.226  30.492  32.732  1.00  0.00     0.041 A 
ATOM     44  F   UNL A   1      39.344  29.507  32.875  1.00  0.00    -0.206 F 
ATOM     45  C   UNL A   1      36.257  31.175  32.004  1.00  0.00     0.022 A 
BRANCH  42  46
ATOM     46  S   UNL A   1      35.337  32.495  29.727  1.00  0.00     0.124 S 
ATOM     47  O   UNL A   1      34.864  31.587  28.684  1.00  0.00    -0.237 OA
ATOM     48  O   UNL A   1      34.360  32.862  30.744  1.00  0.00    -0.237 OA
ATOM     49  O   UNL A   1      36.187  33.585  29.252  1.00  0.00    -0.744 OA
ENDBRANCH  42  46
ENDBRANCH  25  39
BRANCH  26  50
ATOM     50  C   UNL A   1      47.017  27.262  26.153  1.00  0.00     0.023 A 
ATOM     51  C   UNL A   1      48.011  26.556  26.846  1.00  0.00     0.031 A 
ATOM     52  C   UNL A   1      47.226  27.535  24.789  1.00  0.00     0.131 A 
ATOM     53  C   UNL A   1      49.183  26.168  26.178  1.00  0.00     0.055 A 
ATOM     54  C   UNL A   1      48.370  27.104  24.118  1.00  0.00     0.041 A 
ATOM     55  F   UNL A   1      46.301  28.203  24.081  1.00  0.00    -0.206 F 
ATOM     56  C   UNL A   1      49.362  26.423  24.817  1.00  0.00     0.022 A 
BRANCH  53  57
ATOM     57  S   UNL A   1      50.502  25.369  27.133  1.00  0.00     0.124 S 
ATOM     58  O   UNL A   1      51.455  25.017  26.088  1.00  0.00    -0.237 OA
ATOM     59  O   UNL A   1      50.908  26.438  28.040  1.00  0.00    -0.237 OA
ATOM     60  O   UNL A   1      49.825  24.240  27.768  1.00  0.00    -0.744 OA
ENDBRANCH  53  57
ENDBRANCH  26  50
BRANCH  38  61
ATOM     61  C   UNL A   1      45.244  33.099  29.501  1.00  0.00     0.023 A 
ATOM     62  C   UNL A   1      45.250  34.185  28.607  1.00  0.00     0.031 A 
ATOM     63  C   UNL A   1      46.025  33.192  30.665  1.00  0.00     0.131 A 
ATOM     64  C   UNL A   1      46.074  35.290  28.859  1.00  0.00     0.055 A 
ATOM     65  C   UNL A   1      46.799  34.321  30.939  1.00  0.00     0.041 A 
ATOM     66  F   UNL A   1      46.056  32.183  31.549  1.00  0.00    -0.206 F 
ATOM     67  C   UNL A   1      46.839  35.371  30.026  1.00  0.00     0.022 A 
BRANCH  64  68
ATOM     68  S   UNL A   1      46.217  36.576  27.587  1.00  0.00     0.124 S 
ATOM     69  O   UNL A   1      44.817  36.871  27.294  1.00  0.00    -0.237 OA
ATOM     70  O   UNL A   1      46.956  37.623  28.284  1.00  0.00    -0.237 OA
ATOM     71  O   UNL A   1      46.949  35.913  26.510  1.00  0.00    -0.744 OA
ENDBRANCH  64  68
ENDBRANCH  38  61
ENDBRANCH  12  13
ENDBRANCH   5   7
ENDBRANCH   2   3
ENDBRANCH   1   2
BRANCH   1  72
ATOM     72  C   UNL A   1      35.754  22.636  23.625  1.00  0.00     0.023 C 
BRANCH  72  73
ATOM     73  C   UNL A   1      35.213  23.909  24.270  1.00  0.00     0.116 C 
BRANCH  73  74
ATOM     74  N   UNL A   1      34.803  24.857  23.258  1.00  0.00    -0.354 N 
ATOM     75  C   UNL A   1      33.577  25.154  22.753  1.00  0.00     0.242 C 
ATOM     76  H   UNL A   1      35.541  25.379  22.867  1.00  0.00     0.163 HD
ATOM     77  O   UNL A   1      33.560  25.876  21.748  1.00  0.00    -0.273 OA
BRANCH  75  78
ATOM     78  C   UNL A   1      32.242  24.684  23.383  1.00  0.00     0.173 C 
BRANCH  78  79
ATOM     79  C   UNL A   1      31.149  25.759  23.558  1.00  0.00     0.070 C 
BRANCH  79  80
ATOM     80  C   UNL A   1      31.298  26.956  24.474  1.00  0.00    -0.045 A 
ATOM     81  C   UNL A   1      31.475  26.833  25.858  1.00  0.00     0.004 A 
ATOM     82  C   UNL A   1      31.359  28.246  23.913  1.00  0.00     0.004 A 
ATOM     83  C   UNL A   1      31.616  27.968  26.667  1.00  0.00     0.000 A 
ATOM     84  C   UNL A   1      31.515  29.378  24.718  1.00  0.00     0.000 A 
ATOM     85  C   UNL A   1      31.627  29.239  26.099  1.00  0.00     0.000 A 
ENDBRANCH  79  80
ENDBRANCH  78  79
BRANCH  78  86
ATOM     86  N   UNL A   1      31.786  23.397  22.827  1.00  0.00    -0.373 N 
ATOM     87  H   UNL A   1      31.290  23.408  21.977  1.00  0.00     0.161 HD
BRANCH  86  88
ATOM     88  C   UNL A   1      32.016  22.172  23.434  1.00  0.00     0.036 A 
ATOM     89  C   UNL A   1      32.137  22.122  24.830  1.00  0.00     0.027 A 
ATOM     90  C   UNL A   1      32.165  20.970  22.732  1.00  0.00     0.043 A 
ATOM     91  C   UNL A   1      32.333  20.911  25.504  1.00  0.00     0.024 A 
ATOM     92  C   UNL A   1      32.355  19.749  23.397  1.00  0.00     0.038 A 
ATOM     93  C   UNL A   1      32.430  19.718  24.790  1.00  0.00     0.055 A 
ATOM     94  Br  UNL A   1      32.490  18.183  22.327  1.00  0.00    -0.049 Br
ATOM     95  Cl  UNL A   1      32.644  18.257  25.685  1.00  0.00    -0.083 Cl
ENDBRANCH  86  88
ENDBRANCH  78  86
ENDBRANCH  75  78
ENDBRANCH  73  74
ENDBRANCH  72  73
ENDBRANCH   1  72
TORSDOF 18
ENDMDL
MODEL 2
REMARK VINA RESULT:     -11.8      1.261      7.833
REMARK SMILES O=C(NCCCCNC(=O)[C@@H](Cc1ccccc1)Nc1ccc(Cl)c(Br)c1)c1ccc(-c2c3nc(c(-c4cc(S(=O)(=O)[O-])ccc4F)c4ccc([nH]4)c(-c4cc(S(=O)(=O)[O-])ccc4F)c4nc(c(-c5cc(S(=O)(=O)[O-])ccc5F)c5ccc2[nH]5)C=C4)C=C3)cc1
REMARK SMILES IDX 5 1 4 2 3 3 1 4 2 5 28 7 29 8 90 9 30 10 89 11 31 12 32 13
REMARK SMILES IDX 33 14 83 15 34 16 88 17 82 18 84 19 35 20 87 21 81 22 80 23
REMARK SMILES IDX 36 25 68 26 48 27 67 28 49 29 52 30 66 31 85 32 50 33 51 34
REMARK SMILES IDX 65 36 86 37 53 38 37 39 38 40 46 41 39 42 45 43 47 44 44 45
REMARK SMILES IDX 40 46 41 47 42 48 43 49 69 50 70 51 78 52 71 53 77 54 79 55
REMARK SMILES IDX 76 56 72 57 73 58 74 59 75 60 54 61 55 62 63 63 56 64 62 65
REMARK SMILES IDX 64 66 61 67 57 68 58 69 59 70 60 71 6 72 7 73 8 74 9 75
REMARK SMILES IDX 10 77 11 78 12 79 13 80 14 81 18 82 15 83 17 84 16 85 19 86
REMARK SMILES IDX 20 88 21 89 27 90 22 91 25 92 23 93 26 94 24 95
REMARK H PARENT 3 6 84 24 52 35 8 76 19 87
REMARK Flexibility Score: inf
ROOT
ATOM      1  C   UNL A   1      36.676  21.812  24.163  1.00  0.00     0.023 C 
ENDROOT
BRANCH   1   2
ATOM      2  C   UNL A   1      37.173  21.369  25.532  1.00  0.00     0.116 C 
BRANCH   2   3
ATOM      3  N   UNL A   1      38.282  20.417  25.505  1.00  0.00    -0.352 N 
ATOM      4  O   UNL A   1      40.395  19.702  25.927  1.00  0.00    -0.269 OA
ATOM      5  C   UNL A   1      39.543  20.569  26.050  1.00  0.00     0.251 C 
ATOM      6  H   UNL A   1      38.110  19.564  25.044  1.00  0.00     0.163 HD
BRANCH   5   7
ATOM      7  C   UNL A   1      39.849  21.843  26.739  1.00  0.00     0.039 A 
ATOM      8  C   UNL A   1      39.301  23.032  26.262  1.00  0.00     0.014 A 
ATOM      9  C   UNL A   1      40.814  21.861  27.749  1.00  0.00     0.014 A 
ATOM     10  C   UNL A   1      39.888  24.236  26.619  1.00  0.00     0.010 A 
ATOM     11  C   UNL A   1      41.318  23.087  28.195  1.00  0.00     0.010 A 
ATOM     12  C   UNL A   1      40.914  24.283  27.581  1.00  0.00    -0.014 A 
BRANCH  12  13
ATOM     13  C   UNL A   1      41.549  25.594  27.892  1.00  0.00     0.031 A 
ATOM     14  C   UNL A   1      42.914  25.950  27.356  1.00  0.00     0.074 A 
ATOM     15  C   UNL A   1      40.845  26.502  28.597  1.00  0.00     0.049 A 
ATOM     16  N   UNL A   1      43.594  27.061  27.502  1.00  0.00    -0.248 NA
ATOM     17  C   UNL A   1      43.614  24.926  26.568  1.00  0.00     0.031 C 
ATOM     18  C   UNL A   1      39.512  26.275  29.163  1.00  0.00     0.029 A 
ATOM     19  N   UNL A   1      41.124  27.805  28.920  1.00  0.00    -0.354 N 
ATOM     20  C   UNL A   1      44.815  26.855  26.865  1.00  0.00     0.074 A 
ATOM     21  C   UNL A   1      44.787  25.502  26.347  1.00  0.00     0.031 C 
ATOM     22  C   UNL A   1      39.054  27.421  29.684  1.00  0.00     0.029 A 
ATOM     23  C   UNL A   1      40.091  28.439  29.573  1.00  0.00     0.049 A 
ATOM     24  H   UNL A   1      41.978  28.243  28.707  1.00  0.00     0.167 HD
ATOM     25  C   UNL A   1      45.857  27.713  26.723  1.00  0.00     0.034 A 
ATOM     26  C   UNL A   1      39.992  29.696  30.044  1.00  0.00     0.034 A 
ATOM     27  C   UNL A   1      45.852  29.072  27.214  1.00  0.00     0.049 A 
ATOM     28  C   UNL A   1      41.158  30.626  29.875  1.00  0.00     0.074 A 
ATOM     29  C   UNL A   1      46.837  30.039  27.090  1.00  0.00     0.029 A 
ATOM     30  N   UNL A   1      44.812  29.662  27.921  1.00  0.00    -0.354 N 
ATOM     31  N   UNL A   1      42.310  30.406  29.283  1.00  0.00    -0.248 NA
ATOM     32  C   UNL A   1      41.016  31.969  30.446  1.00  0.00     0.031 C 
ATOM     33  C   UNL A   1      46.418  31.188  27.772  1.00  0.00     0.029 A 
ATOM     34  C   UNL A   1      45.143  30.965  28.265  1.00  0.00     0.049 A 
ATOM     35  H   UNL A   1      43.963  29.219  28.147  1.00  0.00     0.167 HD
ATOM     36  C   UNL A   1      43.027  31.590  29.405  1.00  0.00     0.074 A 
ATOM     37  C   UNL A   1      42.166  32.526  30.102  1.00  0.00     0.031 C 
ATOM     38  C   UNL A   1      44.285  31.876  28.985  1.00  0.00     0.034 A 
BRANCH  25  39
ATOM     39  C   UNL A   1      47.111  27.187  26.060  1.00  0.00     0.023 A 
ATOM     40  C   UNL A   1      48.083  26.457  26.766  1.00  0.00     0.031 A 
ATOM     41  C   UNL A   1      47.346  27.444  24.696  1.00  0.00     0.131 A 
ATOM     42  C   UNL A   1      49.273  26.073  26.127  1.00  0.00     0.055 A 
ATOM     43  C   UNL A   1      48.497  26.993  24.047  1.00  0.00     0.041 A 
ATOM     44  F   UNL A   1      46.465  28.151  23.972  1.00  0.00    -0.206 F 
ATOM     45  C   UNL A   1      49.477  26.315  24.767  1.00  0.00     0.022 A 
BRANCH  42  46
ATOM     46  S   UNL A   1      50.614  25.378  27.133  1.00  0.00     0.124 S 
ATOM     47  O   UNL A   1      51.063  26.551  27.880  1.00  0.00    -0.237 OA
ATOM     48  O   UNL A   1      49.927  24.353  27.908  1.00  0.00    -0.237 OA
ATOM     49  O   UNL A   1      51.565  24.880  26.141  1.00  0.00    -0.744 OA
ENDBRANCH  42  46
ENDBRANCH  25  39
BRANCH  26  50
ATOM     50  C   UNL A   1      38.753  30.131  30.746  1.00  0.00     0.023 A 
ATOM     51  C   UNL A   1      37.753  30.847  30.072  1.00  0.00     0.031 A 
ATOM     52  C   UNL A   1      38.556  29.840  32.108  1.00  0.00     0.131 A 
ATOM     53  C   UNL A   1      36.609  31.268  30.767  1.00  0.00     0.055 A 
ATOM     54  C   UNL A   1      37.395  30.219  32.783  1.00  0.00     0.041 A 
ATOM     55  F   UNL A   1      39.481  29.153  32.796  1.00  0.00    -0.206 F 
ATOM     56  C   UNL A   1      36.417  30.947  32.112  1.00  0.00     0.022 A 
BRANCH  53  57
ATOM     57  S   UNL A   1      35.396  32.298  29.898  1.00  0.00     0.124 S 
ATOM     58  O   UNL A   1      34.969  31.413  28.821  1.00  0.00    -0.237 OA
ATOM     59  O   UNL A   1      34.414  32.557  30.946  1.00  0.00    -0.237 OA
ATOM     60  O   UNL A   1      36.175  33.461  29.478  1.00  0.00    -0.744 OA
ENDBRANCH  53  57
ENDBRANCH  26  50
BRANCH  38  61
ATOM     61  C   UNL A   1      44.779  33.275  29.256  1.00  0.00     0.023 A 
ATOM     62  C   UNL A   1      45.486  33.588  30.430  1.00  0.00     0.031 A 
ATOM     63  C   UNL A   1      44.495  34.315  28.354  1.00  0.00     0.131 A 
ATOM     64  C   UNL A   1      45.827  34.920  30.705  1.00  0.00     0.055 A 
ATOM     65  C   UNL A   1      44.888  35.630  28.606  1.00  0.00     0.041 A 
ATOM     66  F   UNL A   1      43.822  34.070  27.220  1.00  0.00    -0.206 F 
ATOM     67  C   UNL A   1      45.544  35.941  29.794  1.00  0.00     0.022 A 
BRANCH  64  68
ATOM     68  S   UNL A   1      46.550  35.317  32.321  1.00  0.00     0.124 S 
ATOM     69  O   UNL A   1      45.396  35.829  33.053  1.00  0.00    -0.237 OA
ATOM     70  O   UNL A   1      47.062  34.023  32.759  1.00  0.00    -0.237 OA
ATOM     71  O   UNL A   1      47.573  36.312  32.004  1.00  0.00    -0.744 OA
ENDBRANCH  64  68
ENDBRANCH  38  61
ENDBRANCH  12  13
ENDBRANCH   5   7
ENDBRANCH   2   3
ENDBRANCH   1   2
BRANCH   1  72
ATOM     72  C   UNL A   1      36.487  23.315  24.025  1.00  0.00     0.023 C 
BRANCH  72  73
ATOM     73  C   UNL A   1      35.052  23.808  24.185  1.00  0.00     0.116 C 
BRANCH  73  74
ATOM     74  N   UNL A   1      34.670  24.636  23.063  1.00  0.00    -0.354 N 
ATOM     75  C   UNL A   1      33.448  24.989  22.584  1.00  0.00     0.242 C 
ATOM     76  H   UNL A   1      35.428  25.010  22.557  1.00  0.00     0.163 HD
ATOM     77  O   UNL A   1      33.434  25.552  21.482  1.00  0.00    -0.273 OA
BRANCH  75  78
ATOM     78  C   UNL A   1      32.120  24.768  23.350  1.00  0.00     0.173 C 
BRANCH  78  79
ATOM     79  C   UNL A   1      31.182  25.989  23.465  1.00  0.00     0.070 C 
BRANCH  79  80
ATOM     80  C   UNL A   1      31.337  27.059  24.525  1.00  0.00    -0.045 A 
ATOM     81  C   UNL A   1      31.281  26.781  25.897  1.00  0.00     0.004 A 
ATOM     82  C   UNL A   1      31.646  28.375  24.130  1.00  0.00     0.004 A 
ATOM     83  C   UNL A   1      31.437  27.803  26.843  1.00  0.00     0.000 A 
ATOM     84  C   UNL A   1      31.816  29.392  25.074  1.00  0.00     0.000 A 
ATOM     85  C   UNL A   1      31.695  29.108  26.432  1.00  0.00     0.000 A 
ENDBRANCH  79  80
ENDBRANCH  78  79
BRANCH  78  86
ATOM     86  N   UNL A   1      31.469  23.498  22.983  1.00  0.00    -0.373 N 
ATOM     87  H   UNL A   1      30.760  23.520  22.300  1.00  0.00     0.161 HD
BRANCH  86  88
ATOM     88  C   UNL A   1      31.798  22.274  23.543  1.00  0.00     0.036 A 
ATOM     89  C   UNL A   1      31.974  22.192  24.931  1.00  0.00     0.027 A 
ATOM     90  C   UNL A   1      31.997  21.104  22.799  1.00  0.00     0.043 A 
ATOM     91  C   UNL A   1      32.271  20.977  25.561  1.00  0.00     0.024 A 
ATOM     92  C   UNL A   1      32.288  19.879  23.420  1.00  0.00     0.038 A 
ATOM     93  C   UNL A   1      32.418  19.814  24.808  1.00  0.00     0.055 A 
ATOM     94  Br  UNL A   1      32.482  18.356  22.299  1.00  0.00    -0.049 Br
ATOM     95  Cl  UNL A   1      32.757  18.346  25.650  1.00  0.00    -0.083 Cl
ENDBRANCH  86  88
ENDBRANCH  78  86
ENDBRANCH  75  78
ENDBRANCH  73  74
ENDBRANCH  72  73
ENDBRANCH   1  72
TORSDOF 18
ENDMDL
MODEL 3
REMARK VINA RESULT:     -11.8      1.433      7.617
REMARK SMILES O=C(NCCCCNC(=O)[C@@H](Cc1ccccc1)Nc1ccc(Cl)c(Br)c1)c1ccc(-c2c3nc(c(-c4cc(S(=O)(=O)[O-])ccc4F)c4ccc([nH]4)c(-c4cc(S(=O)(=O)[O-])ccc4F)c4nc(c(-c5cc(S(=O)(=O)[O-])ccc5F)c5ccc2[nH]5)C=C4)C=C3)cc1
REMARK SMILES IDX 5 1 4 2 3 3 1 4 2 5 28 7 29 8 90 9 30 10 89 11 31 12 32 13
REMARK SMILES IDX 33 14 83 15 34 16 88 17 82 18 84 19 35 20 87 21 81 22 80 23
REMARK SMILES IDX 36 25 68 26 48 27 67 28 49 29 52 30 66 31 85 32 50 33 51 34
REMARK SMILES IDX 65 36 86 37 53 38 37 39 38 40 46 41 39 42 45 43 47 44 44 45
REMARK SMILES IDX 40 46 41 47 42 48 43 49 69 50 70 51 78 52 71 53 77 54 79 55
REMARK SMILES IDX 76 56 72 57 73 58 74 59 75 60 54 61 55 62 63 63 56 64 62 65
REMARK SMILES IDX 64 66 61 67 57 68 58 69 59 70 60 71 6 72 7 73 8 74 9 75
REMARK SMILES IDX 10 77 11 78 12 79 13 80 14 81 18 82 15 83 17 84 16 85 19 86
REMARK SMILES IDX 20 88 21 89 27 90 22 91 25 92 23 93 26 94 24 95
REMARK H PARENT 3 6 84 24 52 35 8 76 19 87
REMARK Flexibility Score: inf
ROOT
ATOM      1  C   UNL A   1      36.840  21.891  24.266  1.00  0.00     0.023 C 
ENDROOT
BRANCH   1   2
ATOM      2  C   UNL A   1      37.482  21.694  25.633  1.00  0.00     0.116 C 
BRANCH   2   3
ATOM      3  N   UNL A   1      38.632  20.791  25.647  1.00  0.00    -0.352 N 
ATOM      4  O   UNL A   1      40.761  20.174  26.137  1.00  0.00    -0.269 OA
ATOM      5  C   UNL A   1      39.868  21.004  26.227  1.00  0.00     0.251 C 
ATOM      6  H   UNL A   1      38.510  19.928  25.189  1.00  0.00     0.163 HD
BRANCH   5   7
ATOM      7  C   UNL A   1      40.098  22.296  26.912  1.00  0.00     0.039 A 
ATOM      8  C   UNL A   1      39.536  23.460  26.392  1.00  0.00     0.014 A 
ATOM      9  C   UNL A   1      41.010  22.358  27.968  1.00  0.00     0.014 A 
ATOM     10  C   UNL A   1      40.065  24.687  26.761  1.00  0.00     0.010 A 
ATOM     11  C   UNL A   1      41.451  23.606  28.421  1.00  0.00     0.010 A 
ATOM     12  C   UNL A   1      41.039  24.780  27.771  1.00  0.00    -0.014 A 
BRANCH  12  13
ATOM     13  C   UNL A   1      41.614  26.115  28.095  1.00  0.00     0.031 A 
ATOM     14  C   UNL A   1      42.979  26.523  27.594  1.00  0.00     0.074 A 
ATOM     15  C   UNL A   1      40.858  26.997  28.777  1.00  0.00     0.049 A 
ATOM     16  N   UNL A   1      43.611  27.659  27.754  1.00  0.00    -0.248 NA
ATOM     17  C   UNL A   1      43.739  25.524  26.828  1.00  0.00     0.031 C 
ATOM     18  C   UNL A   1      39.520  26.720  29.309  1.00  0.00     0.029 A 
ATOM     19  N   UNL A   1      41.077  28.310  29.104  1.00  0.00    -0.354 N 
ATOM     20  C   UNL A   1      44.856  27.499  27.150  1.00  0.00     0.074 A 
ATOM     21  C   UNL A   1      44.894  26.145  26.637  1.00  0.00     0.031 C 
ATOM     22  C   UNL A   1      39.005  27.849  29.814  1.00  0.00     0.029 A 
ATOM     23  C   UNL A   1      40.004  28.905  29.727  1.00  0.00     0.049 A 
ATOM     24  H   UNL A   1      41.920  28.781  28.912  1.00  0.00     0.167 HD
ATOM     25  C   UNL A   1      45.867  28.397  27.033  1.00  0.00     0.034 A 
ATOM     26  C   UNL A   1      39.844  30.159  30.192  1.00  0.00     0.034 A 
ATOM     27  C   UNL A   1      45.797  29.756  27.519  1.00  0.00     0.049 A 
ATOM     28  C   UNL A   1      40.978  31.133  30.050  1.00  0.00     0.074 A 
ATOM     29  C   UNL A   1      46.747  30.760  27.418  1.00  0.00     0.029 A 
ATOM     30  N   UNL A   1      44.717  30.306  28.197  1.00  0.00    -0.354 N 
ATOM     31  N   UNL A   1      42.152  30.956  29.489  1.00  0.00    -0.248 NA
ATOM     32  C   UNL A   1      40.768  32.471  30.613  1.00  0.00     0.031 C 
ATOM     33  C   UNL A   1      46.266  31.893  28.085  1.00  0.00     0.029 A 
ATOM     34  C   UNL A   1      44.987  31.622  28.545  1.00  0.00     0.049 A 
ATOM     35  H   UNL A   1      43.879  29.831  28.402  1.00  0.00     0.167 HD
ATOM     36  C   UNL A   1      42.820  32.167  29.627  1.00  0.00     0.074 A 
ATOM     37  C   UNL A   1      41.905  33.071  30.297  1.00  0.00     0.031 C 
ATOM     38  C   UNL A   1      44.077  32.501  29.239  1.00  0.00     0.034 A 
BRANCH  25  39
ATOM     39  C   UNL A   1      47.158  27.918  26.406  1.00  0.00     0.023 A 
ATOM     40  C   UNL A   1      47.379  27.961  25.018  1.00  0.00     0.031 A 
ATOM     41  C   UNL A   1      48.180  27.388  27.216  1.00  0.00     0.131 A 
ATOM     42  C   UNL A   1      48.557  27.419  24.478  1.00  0.00     0.055 A 
ATOM     43  C   UNL A   1      49.381  26.920  26.680  1.00  0.00     0.041 A 
ATOM     44  F   UNL A   1      48.022  27.303  28.547  1.00  0.00    -0.206 F 
ATOM     45  C   UNL A   1      49.569  26.919  25.301  1.00  0.00     0.022 A 
BRANCH  42  46
ATOM     46  S   UNL A   1      48.685  27.243  22.677  1.00  0.00     0.124 S 
ATOM     47  O   UNL A   1      48.358  25.831  22.492  1.00  0.00    -0.237 OA
ATOM     48  O   UNL A   1      47.694  28.197  22.196  1.00  0.00    -0.237 OA
ATOM     49  O   UNL A   1      50.077  27.592  22.396  1.00  0.00    -0.744 OA
ENDBRANCH  42  46
ENDBRANCH  25  39
BRANCH  26  50
ATOM     50  C   UNL A   1      38.571  30.548  30.859  1.00  0.00     0.023 A 
ATOM     51  C   UNL A   1      37.573  31.245  30.163  1.00  0.00     0.031 A 
ATOM     52  C   UNL A   1      38.338  30.229  32.209  1.00  0.00     0.131 A 
ATOM     53  C   UNL A   1      36.396  31.623  30.826  1.00  0.00     0.055 A 
ATOM     54  C   UNL A   1      37.146  30.563  32.851  1.00  0.00     0.041 A 
ATOM     55  F   UNL A   1      39.260  29.557  32.917  1.00  0.00    -0.206 F 
ATOM     56  C   UNL A   1      36.169  31.274  32.160  1.00  0.00     0.022 A 
BRANCH  53  57
ATOM     57  S   UNL A   1      35.182  32.633  29.934  1.00  0.00     0.124 S 
ATOM     58  O   UNL A   1      36.016  33.707  29.408  1.00  0.00    -0.237 OA
ATOM     59  O   UNL A   1      34.662  31.684  28.954  1.00  0.00    -0.237 OA
ATOM     60  O   UNL A   1      34.237  33.028  30.976  1.00  0.00    -0.744 OA
ENDBRANCH  53  57
ENDBRANCH  26  50
BRANCH  38  61
ATOM     61  C   UNL A   1      44.509  33.918  29.518  1.00  0.00     0.023 A 
ATOM     62  C   UNL A   1      44.320  34.942  28.573  1.00  0.00     0.031 A 
ATOM     63  C   UNL A   1      45.163  34.237  30.720  1.00  0.00     0.131 A 
ATOM     64  C   UNL A   1      44.839  36.222  28.817  1.00  0.00     0.055 A 
ATOM     65  C   UNL A   1      45.627  35.527  30.983  1.00  0.00     0.041 A 
ATOM     66  F   UNL A   1      45.371  33.296  31.654  1.00  0.00    -0.206 F 
ATOM     67  C   UNL A   1      45.480  36.524  30.021  1.00  0.00     0.022 A 
BRANCH  64  68
ATOM     68  S   UNL A   1      44.761  37.459  27.493  1.00  0.00     0.124 S 
ATOM     69  O   UNL A   1      44.917  38.708  28.234  1.00  0.00    -0.237 OA
ATOM     70  O   UNL A   1      45.884  37.078  26.644  1.00  0.00    -0.237 OA
ATOM     71  O   UNL A   1      43.439  37.249  26.904  1.00  0.00    -0.744 OA
ENDBRANCH  64  68
ENDBRANCH  38  61
ENDBRANCH  12  13
ENDBRANCH   5   7
ENDBRANCH   2   3
ENDBRANCH   1   2
BRANCH   1  72
ATOM     72  C   UNL A   1      36.513  23.339  23.934  1.00  0.00     0.023 C 
BRANCH  72  73
ATOM     73  C   UNL A   1      35.037  23.714  24.039  1.00  0.00     0.116 C 
BRANCH  73  74
ATOM     74  N   UNL A   1      34.662  24.606  22.965  1.00  0.00    -0.354 N 
ATOM     75  C   UNL A   1      33.444  25.028  22.534  1.00  0.00     0.242 C 
ATOM     76  H   UNL A   1      35.422  24.973  22.457  1.00  0.00     0.163 HD
ATOM     77  O   UNL A   1      33.426  25.640  21.459  1.00  0.00    -0.273 OA
BRANCH  75  78
ATOM     78  C   UNL A   1      32.127  24.824  23.323  1.00  0.00     0.173 C 
BRANCH  78  79
ATOM     79  C   UNL A   1      31.211  26.058  23.463  1.00  0.00     0.070 C 
BRANCH  79  80
ATOM     80  C   UNL A   1      31.345  27.072  24.579  1.00  0.00    -0.045 A 
ATOM     81  C   UNL A   1      31.382  26.708  25.932  1.00  0.00     0.004 A 
ATOM     82  C   UNL A   1      31.539  28.428  24.255  1.00  0.00     0.004 A 
ATOM     83  C   UNL A   1      31.515  27.680  26.933  1.00  0.00     0.000 A 
ATOM     84  C   UNL A   1      31.687  29.396  25.252  1.00  0.00     0.000 A 
ATOM     85  C   UNL A   1      31.658  29.023  26.594  1.00  0.00     0.000 A 
ENDBRANCH  79  80
ENDBRANCH  78  79
BRANCH  78  86
ATOM     86  N   UNL A   1      31.449  23.565  22.961  1.00  0.00    -0.373 N 
ATOM     87  H   UNL A   1      30.723  23.604  22.297  1.00  0.00     0.161 HD
BRANCH  86  88
ATOM     88  C   UNL A   1      31.775  22.332  23.502  1.00  0.00     0.036 A 
ATOM     89  C   UNL A   1      31.935  22.224  24.891  1.00  0.00     0.027 A 
ATOM     90  C   UNL A   1      31.986  21.177  22.739  1.00  0.00     0.043 A 
ATOM     91  C   UNL A   1      32.228  20.999  25.500  1.00  0.00     0.024 A 
ATOM     92  C   UNL A   1      32.274  19.942  23.339  1.00  0.00     0.038 A 
ATOM     93  C   UNL A   1      32.387  19.850  24.727  1.00  0.00     0.055 A 
ATOM     94  Br  UNL A   1      32.486  18.441  22.192  1.00  0.00    -0.049 Br
ATOM     95  Cl  UNL A   1      32.720  18.367  25.545  1.00  0.00    -0.083 Cl
ENDBRANCH  86  88
ENDBRANCH  78  86
ENDBRANCH  75  78
ENDBRANCH  73  74
ENDBRANCH  72  73
ENDBRANCH   1  72
TORSDOF 18
ENDMDL
