MODEL 1
REMARK VINA RESULT:     -10.8      0.000      0.000
REMARK SMILES C[C@@H]1CC[C@H]([N@@H+](CC(=O)NCCCCNC(=O)c2ccc(-c3c4nc(c(-c5cc(S(=O)(=O)[O-])ccc5F)c5ccc([nH]5)c(-c5cc(S(=O)(=O)[O-])ccc5F)c5nc(c(-c6cc(S(=O)(=O)[O-])ccc6F)c6ccc3[nH]6)C=C5)C=C4)cc2)CC(F)(F)F)C[C@@H]1C
REMARK SMILES IDX 12 1 11 2 10 3 8 4 9 5 7 7 6 8 5 10 1 11 2 12 3 13 87 14
REMARK SMILES IDX 4 15 86 16 88 17 81 18 82 19 83 20 84 21 85 22 13 23 14 24
REMARK SMILES IDX 15 25 16 26 17 28 18 29 19 30 80 31 20 32 79 33 21 34 22 35
REMARK SMILES IDX 23 36 73 37 24 38 78 39 72 40 74 41 25 42 77 43 71 44 70 45
REMARK SMILES IDX 26 47 58 48 38 49 57 50 39 51 42 52 56 53 75 54 40 55 41 56
REMARK SMILES IDX 55 58 76 59 43 60 27 61 28 62 36 63 29 64 35 65 37 66 34 67
REMARK SMILES IDX 30 68 31 69 32 70 33 71 59 72 60 73 68 74 61 75 67 76 69 77
REMARK SMILES IDX 66 78 62 79 63 80 64 81 65 82 44 83 45 84 53 85 46 86 52 87
REMARK SMILES IDX 54 88 51 89 47 90 48 91 49 92 50 93
REMARK H PARENT 10 6 6 9 15 27 74 46 42 57
REMARK Flexibility Score: inf
ROOT
ATOM      1  C   UNL A   1      31.839  29.141  24.578  1.00  0.00     0.023 C 
ENDROOT
BRANCH   1   2
ATOM      2  C   UNL A   1      31.608  28.744  23.109  1.00  0.00     0.116 C 
BRANCH   2   3
ATOM      3  N   UNL A   1      32.673  27.967  22.487  1.00  0.00    -0.351 N 
ATOM      4  C   UNL A   1      32.721  26.690  21.999  1.00  0.00     0.275 C 
ATOM      5  O   UNL A   1      33.686  26.405  21.285  1.00  0.00    -0.269 OA
ATOM      6  H   UNL A   1      33.523  28.457  22.401  1.00  0.00     0.163 HD
BRANCH   4   7
ATOM      7  C   UNL A   1      31.662  25.632  22.362  1.00  0.00     0.364 C 
BRANCH   7   8
ATOM      8  N   UNL A   1      31.761  25.084  23.746  1.00  0.00    -0.317 N 
ATOM      9  H   UNL A   1      32.181  25.831  24.300  1.00  0.00     0.349 HD
BRANCH   8  10
ATOM     10  C   UNL A   1      32.747  24.016  23.880  1.00  0.00     0.184 C 
ATOM     11  C   UNL A   1      34.579  21.176  25.944  1.00  0.00     0.008 C 
ATOM     12  C   UNL A   1      34.584  21.783  24.543  1.00  0.00    -0.011 C 
ATOM     13  C   UNL A   1      35.039  23.268  24.578  1.00  0.00     0.010 C 
ATOM     14  C   UNL A   1      33.240  21.599  23.805  1.00  0.00    -0.006 C 
ATOM     15  C   UNL A   1      33.925  24.307  24.821  1.00  0.00     0.065 C 
ATOM     16  C   UNL A   1      32.203  22.629  24.237  1.00  0.00     0.068 C 
ATOM     17  C   UNL A   1      32.659  20.188  23.779  1.00  0.00     0.008 C 
ENDBRANCH   8  10
BRANCH   8  18
ATOM     18  C   UNL A   1      30.490  24.966  24.493  1.00  0.00     0.379 C 
BRANCH  18  19
ATOM     19  C   UNL A   1      30.327  25.038  26.032  1.00  0.00     0.438 C 
ATOM     20  F   UNL A   1      29.147  25.561  26.417  1.00  0.00    -0.165 F 
ATOM     21  F   UNL A   1      30.360  23.772  26.535  1.00  0.00    -0.165 F 
ATOM     22  F   UNL A   1      31.323  25.712  26.632  1.00  0.00    -0.165 F 
ENDBRANCH  18  19
ENDBRANCH   8  18
ENDBRANCH   7   8
ENDBRANCH   4   7
ENDBRANCH   2   3
ENDBRANCH   1   2
BRANCH   1  23
ATOM     23  C   UNL A   1      32.786  28.235  25.367  1.00  0.00     0.023 C 
BRANCH  23  24
ATOM     24  C   UNL A   1      34.016  28.912  25.940  1.00  0.00     0.116 C 
BRANCH  24  25
ATOM     25  N   UNL A   1      33.715  30.242  26.443  1.00  0.00    -0.352 N 
ATOM     26  C   UNL A   1      34.259  30.939  27.499  1.00  0.00     0.251 C 
ATOM     27  H   UNL A   1      33.010  30.719  25.950  1.00  0.00     0.163 HD
ATOM     28  O   UNL A   1      33.662  31.933  27.910  1.00  0.00    -0.269 OA
BRANCH  26  29
ATOM     29  C   UNL A   1      35.533  30.525  28.148  1.00  0.00     0.039 A 
ATOM     30  C   UNL A   1      36.751  30.967  27.609  1.00  0.00     0.014 A 
ATOM     31  C   UNL A   1      35.557  29.629  29.218  1.00  0.00     0.014 A 
ATOM     32  C   UNL A   1      37.968  30.519  28.142  1.00  0.00     0.010 A 
ATOM     33  C   UNL A   1      36.762  29.279  29.823  1.00  0.00     0.010 A 
ATOM     34  C   UNL A   1      37.983  29.669  29.257  1.00  0.00    -0.014 A 
BRANCH  34  35
ATOM     35  C   UNL A   1      39.231  29.035  29.766  1.00  0.00     0.031 A 
ATOM     36  C   UNL A   1      39.910  29.646  30.971  1.00  0.00     0.074 A 
ATOM     37  C   UNL A   1      39.791  27.986  29.132  1.00  0.00     0.049 A 
ATOM     38  N   UNL A   1      41.093  29.407  31.475  1.00  0.00    -0.248 NA
ATOM     39  C   UNL A   1      39.171  30.710  31.670  1.00  0.00     0.031 C 
ATOM     40  C   UNL A   1      39.242  27.315  27.954  1.00  0.00     0.029 A 
ATOM     41  N   UNL A   1      40.961  27.310  29.383  1.00  0.00    -0.354 N 
ATOM     42  C   UNL A   1      41.258  30.327  32.508  1.00  0.00     0.074 A 
ATOM     43  C   UNL A   1      40.079  31.163  32.518  1.00  0.00     0.031 C 
ATOM     44  C   UNL A   1      40.064  26.313  27.596  1.00  0.00     0.029 A 
ATOM     45  C   UNL A   1      41.223  26.301  28.485  1.00  0.00     0.049 A 
ATOM     46  H   UNL A   1      41.556  27.529  30.137  1.00  0.00     0.167 HD
ATOM     47  C   UNL A   1      42.286  30.448  33.383  1.00  0.00     0.034 A 
ATOM     48  C   UNL A   1      42.286  25.476  28.383  1.00  0.00     0.034 A 
ATOM     49  C   UNL A   1      43.419  29.559  33.401  1.00  0.00     0.049 A 
ATOM     50  C   UNL A   1      43.410  25.614  29.383  1.00  0.00     0.074 A 
ATOM     51  C   UNL A   1      44.487  29.537  34.280  1.00  0.00     0.029 A 
ATOM     52  N   UNL A   1      43.624  28.521  32.500  1.00  0.00    -0.354 N 
ATOM     53  N   UNL A   1      43.542  26.476  30.366  1.00  0.00    -0.248 NA
ATOM     54  C   UNL A   1      44.522  24.661  29.269  1.00  0.00     0.031 C 
ATOM     55  C   UNL A   1      45.362  28.523  33.880  1.00  0.00     0.029 A 
ATOM     56  C   UNL A   1      44.805  27.863  32.796  1.00  0.00     0.049 A 
ATOM     57  H   UNL A   1      43.017  28.288  31.761  1.00  0.00     0.167 HD
ATOM     58  C   UNL A   1      44.727  26.135  31.014  1.00  0.00     0.074 A 
ATOM     59  C   UNL A   1      45.270  24.990  30.312  1.00  0.00     0.031 C 
ATOM     60  C   UNL A   1      45.313  26.710  32.095  1.00  0.00     0.034 A 
BRANCH  47  61
ATOM     61  C   UNL A   1      42.236  31.587  34.375  1.00  0.00     0.023 A 
ATOM     62  C   UNL A   1      41.394  31.558  35.502  1.00  0.00     0.031 A 
ATOM     63  C   UNL A   1      43.030  32.732  34.180  1.00  0.00     0.131 A 
ATOM     64  C   UNL A   1      41.305  32.681  36.340  1.00  0.00     0.055 A 
ATOM     65  C   UNL A   1      42.999  33.810  35.067  1.00  0.00     0.041 A 
ATOM     66  F   UNL A   1      43.839  32.830  33.114  1.00  0.00    -0.206 F 
ATOM     67  C   UNL A   1      42.122  33.795  36.147  1.00  0.00     0.022 A 
BRANCH  64  68
ATOM     68  S   UNL A   1      40.002  32.715  37.601  1.00  0.00     0.124 S 
ATOM     69  O   UNL A   1      40.759  32.416  38.814  1.00  0.00    -0.237 OA
ATOM     70  O   UNL A   1      39.486  34.073  37.487  1.00  0.00    -0.237 OA
ATOM     71  O   UNL A   1      39.083  31.661  37.173  1.00  0.00    -0.744 OA
ENDBRANCH  64  68
ENDBRANCH  47  61
BRANCH  48  72
ATOM     72  C   UNL A   1      42.352  24.446  27.304  1.00  0.00     0.023 A 
ATOM     73  C   UNL A   1      41.585  23.272  27.383  1.00  0.00     0.031 A 
ATOM     74  C   UNL A   1      43.220  24.591  26.207  1.00  0.00     0.131 A 
ATOM     75  C   UNL A   1      41.742  22.265  26.418  1.00  0.00     0.055 A 
ATOM     76  C   UNL A   1      43.330  23.610  25.219  1.00  0.00     0.041 A 
ATOM     77  F   UNL A   1      43.974  25.694  26.079  1.00  0.00    -0.206 F 
ATOM     78  C   UNL A   1      42.600  22.431  25.329  1.00  0.00     0.022 A 
BRANCH  75  79
ATOM     79  S   UNL A   1      40.882  20.686  26.665  1.00  0.00     0.124 S 
ATOM     80  O   UNL A   1      39.601  20.940  26.013  1.00  0.00    -0.237 OA
ATOM     81  O   UNL A   1      41.772  19.748  25.990  1.00  0.00    -0.237 OA
ATOM     82  O   UNL A   1      40.826  20.554  28.120  1.00  0.00    -0.744 OA
ENDBRANCH  75  79
ENDBRANCH  48  72
BRANCH  60  83
ATOM     83  C   UNL A   1      46.560  26.056  32.635  1.00  0.00     0.023 A 
ATOM     84  C   UNL A   1      46.509  25.056  33.619  1.00  0.00     0.031 A 
ATOM     85  C   UNL A   1      47.818  26.435  32.133  1.00  0.00     0.131 A 
ATOM     86  C   UNL A   1      47.701  24.497  34.104  1.00  0.00     0.055 A 
ATOM     87  C   UNL A   1      48.996  25.836  32.579  1.00  0.00     0.041 A 
ATOM     88  F   UNL A   1      47.919  27.385  31.191  1.00  0.00    -0.206 F 
ATOM     89  C   UNL A   1      48.943  24.869  33.578  1.00  0.00     0.022 A 
BRANCH  86  90
ATOM     90  S   UNL A   1      47.616  23.321  35.482  1.00  0.00     0.124 S 
ATOM     91  O   UNL A   1      47.238  22.086  34.802  1.00  0.00    -0.237 OA
ATOM     92  O   UNL A   1      48.974  23.366  36.015  1.00  0.00    -0.237 OA
ATOM     93  O   UNL A   1      46.590  23.888  36.355  1.00  0.00    -0.744 OA
ENDBRANCH  86  90
ENDBRANCH  60  83
ENDBRANCH  34  35
ENDBRANCH  26  29
ENDBRANCH  24  25
ENDBRANCH  23  24
ENDBRANCH   1  23
TORSDOF 18
ENDMDL
MODEL 2
REMARK VINA RESULT:     -10.8      4.767      9.814
REMARK SMILES C[C@@H]1CC[C@H]([N@@H+](CC(=O)NCCCCNC(=O)c2ccc(-c3c4nc(c(-c5cc(S(=O)(=O)[O-])ccc5F)c5ccc([nH]5)c(-c5cc(S(=O)(=O)[O-])ccc5F)c5nc(c(-c6cc(S(=O)(=O)[O-])ccc6F)c6ccc3[nH]6)C=C5)C=C4)cc2)CC(F)(F)F)C[C@@H]1C
REMARK SMILES IDX 12 1 11 2 10 3 8 4 9 5 7 7 6 8 5 10 1 11 2 12 3 13 87 14
REMARK SMILES IDX 4 15 86 16 88 17 81 18 82 19 83 20 84 21 85 22 13 23 14 24
REMARK SMILES IDX 15 25 16 26 17 28 18 29 19 30 80 31 20 32 79 33 21 34 22 35
REMARK SMILES IDX 23 36 73 37 24 38 78 39 72 40 74 41 25 42 77 43 71 44 70 45
REMARK SMILES IDX 26 47 58 48 38 49 57 50 39 51 42 52 56 53 75 54 40 55 41 56
REMARK SMILES IDX 55 58 76 59 43 60 27 61 28 62 36 63 29 64 35 65 37 66 34 67
REMARK SMILES IDX 30 68 31 69 32 70 33 71 59 72 60 73 68 74 61 75 67 76 69 77
REMARK SMILES IDX 66 78 62 79 63 80 64 81 65 82 44 83 45 84 53 85 46 86 52 87
REMARK SMILES IDX 54 88 51 89 47 90 48 91 49 92 50 93
REMARK H PARENT 10 6 6 9 15 27 74 46 42 57
REMARK Flexibility Score: inf
ROOT
ATOM      1  C   UNL A   1      34.833  21.542  25.099  1.00  0.00     0.023 C 
ENDROOT
BRANCH   1   2
ATOM      2  C   UNL A   1      33.840  21.883  23.975  1.00  0.00     0.116 C 
BRANCH   2   3
ATOM      3  N   UNL A   1      34.139  23.086  23.207  1.00  0.00    -0.351 N 
ATOM      4  C   UNL A   1      33.486  24.280  23.066  1.00  0.00     0.275 C 
ATOM      5  O   UNL A   1      34.125  25.206  22.560  1.00  0.00    -0.269 OA
ATOM      6  H   UNL A   1      34.973  23.027  22.687  1.00  0.00     0.163 HD
BRANCH   4   7
ATOM      7  C   UNL A   1      32.008  24.458  23.463  1.00  0.00     0.364 C 
BRANCH   7   8
ATOM      8  N   UNL A   1      31.781  25.080  24.800  1.00  0.00    -0.317 N 
ATOM      9  H   UNL A   1      30.769  25.076  24.929  1.00  0.00     0.349 HD
BRANCH   8  10
ATOM     10  C   UNL A   1      32.085  26.508  24.837  1.00  0.00     0.184 C 
ATOM     11  C   UNL A   1      31.778  30.117  26.439  1.00  0.00     0.008 C 
ATOM     12  C   UNL A   1      32.482  29.415  25.279  1.00  0.00    -0.011 C 
ATOM     13  C   UNL A   1      31.455  28.866  24.251  1.00  0.00     0.010 C 
ATOM     14  C   UNL A   1      33.476  28.330  25.751  1.00  0.00    -0.006 C 
ATOM     15  C   UNL A   1      30.911  27.450  24.532  1.00  0.00     0.065 C 
ATOM     16  C   UNL A   1      32.775  27.023  26.104  1.00  0.00     0.068 C 
ATOM     17  C   UNL A   1      34.481  28.741  26.822  1.00  0.00     0.008 C 
ENDBRANCH   8  10
BRANCH   8  18
ATOM     18  C   UNL A   1      32.141  24.254  25.973  1.00  0.00     0.379 C 
BRANCH  18  19
ATOM     19  C   UNL A   1      31.288  23.111  26.579  1.00  0.00     0.438 C 
ATOM     20  F   UNL A   1      31.078  22.095  25.721  1.00  0.00    -0.165 F 
ATOM     21  F   UNL A   1      31.960  22.579  27.637  1.00  0.00    -0.165 F 
ATOM     22  F   UNL A   1      30.104  23.537  27.054  1.00  0.00    -0.165 F 
ENDBRANCH  18  19
ENDBRANCH   8  18
ENDBRANCH   7   8
ENDBRANCH   4   7
ENDBRANCH   2   3
ENDBRANCH   1   2
BRANCH   1  23
ATOM     23  C   UNL A   1      36.285  21.339  24.661  1.00  0.00     0.023 C 
BRANCH  23  24
ATOM     24  C   UNL A   1      37.309  22.213  25.359  1.00  0.00     0.116 C 
BRANCH  24  25
ATOM     25  N   UNL A   1      38.357  21.423  25.984  1.00  0.00    -0.352 N 
ATOM     26  C   UNL A   1      39.513  21.819  26.620  1.00  0.00     0.251 C 
ATOM     27  H   UNL A   1      38.217  20.449  25.946  1.00  0.00     0.163 HD
ATOM     28  O   UNL A   1      40.382  20.974  26.827  1.00  0.00    -0.269 OA
BRANCH  26  29
ATOM     29  C   UNL A   1      39.733  23.226  27.055  1.00  0.00     0.039 A 
ATOM     30  C   UNL A   1      38.963  24.248  26.481  1.00  0.00     0.014 A 
ATOM     31  C   UNL A   1      40.751  23.570  27.946  1.00  0.00     0.014 A 
ATOM     32  C   UNL A   1      39.210  25.591  26.803  1.00  0.00     0.010 A 
ATOM     33  C   UNL A   1      40.918  24.890  28.356  1.00  0.00     0.010 A 
ATOM     34  C   UNL A   1      40.193  25.923  27.746  1.00  0.00    -0.014 A 
BRANCH  34  35
ATOM     35  C   UNL A   1      40.610  27.329  28.009  1.00  0.00     0.031 A 
ATOM     36  C   UNL A   1      42.045  27.717  27.730  1.00  0.00     0.074 A 
ATOM     37  C   UNL A   1      39.759  28.222  28.550  1.00  0.00     0.049 A 
ATOM     38  N   UNL A   1      42.696  28.804  28.059  1.00  0.00    -0.248 NA
ATOM     39  C   UNL A   1      42.871  26.718  27.032  1.00  0.00     0.031 C 
ATOM     40  C   UNL A   1      38.356  27.967  28.876  1.00  0.00     0.029 A 
ATOM     41  N   UNL A   1      39.957  29.525  28.938  1.00  0.00    -0.354 N 
ATOM     42  C   UNL A   1      44.013  28.592  27.657  1.00  0.00     0.074 A 
ATOM     43  C   UNL A   1      44.078  27.253  27.116  1.00  0.00     0.031 C 
ATOM     44  C   UNL A   1      37.816  29.082  29.397  1.00  0.00     0.029 A 
ATOM     45  C   UNL A   1      38.844  30.115  29.491  1.00  0.00     0.049 A 
ATOM     46  H   UNL A   1      40.818  29.992  28.830  1.00  0.00     0.167 HD
ATOM     47  C   UNL A   1      45.066  29.444  27.712  1.00  0.00     0.034 A 
ATOM     48  C   UNL A   1      38.681  31.343  30.027  1.00  0.00     0.034 A 
ATOM     49  C   UNL A   1      44.963  30.799  28.190  1.00  0.00     0.049 A 
ATOM     50  C   UNL A   1      39.863  32.284  30.058  1.00  0.00     0.074 A 
ATOM     51  C   UNL A   1      45.941  31.777  28.230  1.00  0.00     0.029 A 
ATOM     52  N   UNL A   1      43.805  31.372  28.700  1.00  0.00    -0.354 N 
ATOM     53  N   UNL A   1      41.097  32.076  29.656  1.00  0.00    -0.248 NA
ATOM     54  C   UNL A   1      39.629  33.629  30.600  1.00  0.00     0.031 C 
ATOM     55  C   UNL A   1      45.390  32.922  28.812  1.00  0.00     0.029 A 
ATOM     56  C   UNL A   1      44.048  32.684  29.067  1.00  0.00     0.049 A 
ATOM     57  H   UNL A   1      42.939  30.912  28.786  1.00  0.00     0.167 HD
ATOM     58  C   UNL A   1      41.769  33.280  29.855  1.00  0.00     0.074 A 
ATOM     59  C   UNL A   1      40.805  34.208  30.409  1.00  0.00     0.031 C 
ATOM     60  C   UNL A   1      43.064  33.595  29.597  1.00  0.00     0.034 A 
BRANCH  47  61
ATOM     61  C   UNL A   1      46.413  28.929  27.261  1.00  0.00     0.023 A 
ATOM     62  C   UNL A   1      46.692  28.652  25.910  1.00  0.00     0.031 A 
ATOM     63  C   UNL A   1      47.431  28.689  28.202  1.00  0.00     0.131 A 
ATOM     64  C   UNL A   1      47.921  28.078  25.550  1.00  0.00     0.055 A 
ATOM     65  C   UNL A   1      48.684  28.199  27.824  1.00  0.00     0.041 A 
ATOM     66  F   UNL A   1      47.222  28.913  29.508  1.00  0.00    -0.206 F 
ATOM     67  C   UNL A   1      48.929  27.876  26.494  1.00  0.00     0.022 A 
BRANCH  64  68
ATOM     68  S   UNL A   1      48.126  27.470  23.854  1.00  0.00     0.124 S 
ATOM     69  O   UNL A   1      47.883  26.039  24.024  1.00  0.00    -0.237 OA
ATOM     70  O   UNL A   1      47.105  28.210  23.125  1.00  0.00    -0.237 OA
ATOM     71  O   UNL A   1      49.507  27.825  23.528  1.00  0.00    -0.744 OA
ENDBRANCH  64  68
ENDBRANCH  47  61
BRANCH  48  72
ATOM     72  C   UNL A   1      37.361  31.765  30.579  1.00  0.00     0.023 A 
ATOM     73  C   UNL A   1      36.439  32.466  29.784  1.00  0.00     0.031 A 
ATOM     74  C   UNL A   1      37.020  31.527  31.923  1.00  0.00     0.131 A 
ATOM     75  C   UNL A   1      35.249  32.951  30.350  1.00  0.00     0.055 A 
ATOM     76  C   UNL A   1      35.810  31.963  32.466  1.00  0.00     0.041 A 
ATOM     77  F   UNL A   1      37.861  30.860  32.729  1.00  0.00    -0.206 F 
ATOM     78  C   UNL A   1      34.923  32.694  31.682  1.00  0.00     0.022 A 
BRANCH  75  79
ATOM     79  S   UNL A   1      34.183  34.017  29.341  1.00  0.00     0.124 S 
ATOM     80  O   UNL A   1      33.283  34.574  30.346  1.00  0.00    -0.237 OA
ATOM     81  O   UNL A   1      35.147  34.944  28.757  1.00  0.00    -0.237 OA
ATOM     82  O   UNL A   1      33.565  33.086  28.399  1.00  0.00    -0.744 OA
ENDBRANCH  75  79
ENDBRANCH  48  72
BRANCH  60  83
ATOM     83  C   UNL A   1      43.488  35.023  29.831  1.00  0.00     0.023 A 
ATOM     84  C   UNL A   1      43.341  36.014  28.846  1.00  0.00     0.031 A 
ATOM     85  C   UNL A   1      44.029  35.395  31.075  1.00  0.00     0.131 A 
ATOM     86  C   UNL A   1      43.773  37.323  29.108  1.00  0.00     0.055 A 
ATOM     87  C   UNL A   1      44.406  36.709  31.348  1.00  0.00     0.041 A 
ATOM     88  F   UNL A   1      44.188  34.484  32.049  1.00  0.00    -0.206 F 
ATOM     89  C   UNL A   1      44.288  37.680  30.358  1.00  0.00     0.022 A 
BRANCH  86  90
ATOM     90  S   UNL A   1      43.715  38.544  27.769  1.00  0.00     0.124 S 
ATOM     91  O   UNL A   1      43.346  39.762  28.485  1.00  0.00    -0.237 OA
ATOM     92  O   UNL A   1      45.078  38.501  27.247  1.00  0.00    -0.237 OA
ATOM     93  O   UNL A   1      42.691  38.019  26.869  1.00  0.00    -0.744 OA
ENDBRANCH  86  90
ENDBRANCH  60  83
ENDBRANCH  34  35
ENDBRANCH  26  29
ENDBRANCH  24  25
ENDBRANCH  23  24
ENDBRANCH   1  23
TORSDOF 18
ENDMDL
MODEL 3
REMARK VINA RESULT:     -10.7      3.146      8.494
REMARK SMILES C[C@@H]1CC[C@H]([N@@H+](CC(=O)NCCCCNC(=O)c2ccc(-c3c4nc(c(-c5cc(S(=O)(=O)[O-])ccc5F)c5ccc([nH]5)c(-c5cc(S(=O)(=O)[O-])ccc5F)c5nc(c(-c6cc(S(=O)(=O)[O-])ccc6F)c6ccc3[nH]6)C=C5)C=C4)cc2)CC(F)(F)F)C[C@@H]1C
REMARK SMILES IDX 12 1 11 2 10 3 8 4 9 5 7 7 6 8 5 10 1 11 2 12 3 13 87 14
REMARK SMILES IDX 4 15 86 16 88 17 81 18 82 19 83 20 84 21 85 22 13 23 14 24
REMARK SMILES IDX 15 25 16 26 17 28 18 29 19 30 80 31 20 32 79 33 21 34 22 35
REMARK SMILES IDX 23 36 73 37 24 38 78 39 72 40 74 41 25 42 77 43 71 44 70 45
REMARK SMILES IDX 26 47 58 48 38 49 57 50 39 51 42 52 56 53 75 54 40 55 41 56
REMARK SMILES IDX 55 58 76 59 43 60 27 61 28 62 36 63 29 64 35 65 37 66 34 67
REMARK SMILES IDX 30 68 31 69 32 70 33 71 59 72 60 73 68 74 61 75 67 76 69 77
REMARK SMILES IDX 66 78 62 79 63 80 64 81 65 82 44 83 45 84 53 85 46 86 52 87
REMARK SMILES IDX 54 88 51 89 47 90 48 91 49 92 50 93
REMARK H PARENT 10 6 6 9 15 27 74 46 42 57
REMARK Flexibility Score: inf
ROOT
ATOM      1  C   UNL A   1      31.698  29.801  27.194  1.00  0.00     0.023 C 
ENDROOT
BRANCH   1   2
ATOM      2  C   UNL A   1      32.060  28.644  26.246  1.00  0.00     0.116 C 
BRANCH   2   3
ATOM      3  N   UNL A   1      32.595  29.033  24.946  1.00  0.00    -0.351 N 
ATOM      4  C   UNL A   1      33.234  28.329  23.962  1.00  0.00     0.275 C 
ATOM      5  O   UNL A   1      33.327  28.876  22.860  1.00  0.00    -0.269 OA
ATOM      6  H   UNL A   1      32.474  29.987  24.737  1.00  0.00     0.163 HD
BRANCH   4   7
ATOM      7  C   UNL A   1      33.863  26.946  24.218  1.00  0.00     0.364 C 
BRANCH   7   8
ATOM      8  N   UNL A   1      32.916  25.796  24.146  1.00  0.00    -0.317 N 
ATOM      9  H   UNL A   1      32.502  25.731  25.076  1.00  0.00     0.349 HD
BRANCH   8  10
ATOM     10  C   UNL A   1      33.580  24.502  24.020  1.00  0.00     0.184 C 
ATOM     11  C   UNL A   1      35.231  21.245  25.554  1.00  0.00     0.008 C 
ATOM     12  C   UNL A   1      34.901  21.850  24.191  1.00  0.00    -0.011 C 
ATOM     13  C   UNL A   1      35.701  23.160  23.952  1.00  0.00     0.010 C 
ATOM     14  C   UNL A   1      33.383  22.042  23.973  1.00  0.00    -0.006 C 
ATOM     15  C   UNL A   1      35.046  24.454  24.477  1.00  0.00     0.065 C 
ATOM     16  C   UNL A   1      32.862  23.304  24.650  1.00  0.00     0.068 C 
ATOM     17  C   UNL A   1      32.492  20.837  24.258  1.00  0.00     0.008 C 
ENDBRANCH   8  10
BRANCH   8  18
ATOM     18  C   UNL A   1      31.670  26.023  23.382  1.00  0.00     0.379 C 
BRANCH  18  19
ATOM     19  C   UNL A   1      30.247  25.584  23.808  1.00  0.00     0.438 C 
ATOM     20  F   UNL A   1      29.299  26.491  23.504  1.00  0.00    -0.165 F 
ATOM     21  F   UNL A   1      29.917  24.451  23.129  1.00  0.00    -0.165 F 
ATOM     22  F   UNL A   1      30.163  25.283  25.116  1.00  0.00    -0.165 F 
ENDBRANCH  18  19
ENDBRANCH   8  18
ENDBRANCH   7   8
ENDBRANCH   4   7
ENDBRANCH   2   3
ENDBRANCH   1   2
BRANCH   1  23
ATOM     23  C   UNL A   1      31.826  31.206  26.603  1.00  0.00     0.023 C 
BRANCH  23  24
ATOM     24  C   UNL A   1      33.048  31.992  27.039  1.00  0.00     0.116 C 
BRANCH  24  25
ATOM     25  N   UNL A   1      32.722  33.377  27.336  1.00  0.00    -0.352 N 
ATOM     26  C   UNL A   1      33.146  34.192  28.362  1.00  0.00     0.251 C 
ATOM     27  H   UNL A   1      32.098  33.798  26.702  1.00  0.00     0.163 HD
ATOM     28  O   UNL A   1      32.529  35.235  28.571  1.00  0.00    -0.269 OA
BRANCH  26  29
ATOM     29  C   UNL A   1      34.316  33.845  29.214  1.00  0.00     0.039 A 
ATOM     30  C   UNL A   1      35.598  34.254  28.816  1.00  0.00     0.014 A 
ATOM     31  C   UNL A   1      34.189  33.041  30.349  1.00  0.00     0.014 A 
ATOM     32  C   UNL A   1      36.728  33.864  29.550  1.00  0.00     0.010 A 
ATOM     33  C   UNL A   1      35.296  32.754  31.143  1.00  0.00     0.010 A 
ATOM     34  C   UNL A   1      36.585  33.109  30.722  1.00  0.00    -0.014 A 
BRANCH  34  35
ATOM     35  C   UNL A   1      37.749  32.532  31.451  1.00  0.00     0.031 A 
ATOM     36  C   UNL A   1      38.520  31.406  30.799  1.00  0.00     0.074 A 
ATOM     37  C   UNL A   1      38.072  32.944  32.693  1.00  0.00     0.049 A 
ATOM     38  N   UNL A   1      39.430  30.613  31.304  1.00  0.00    -0.248 NA
ATOM     39  C   UNL A   1      38.177  31.101  29.400  1.00  0.00     0.031 C 
ATOM     40  C   UNL A   1      37.399  34.010  33.434  1.00  0.00     0.029 A 
ATOM     41  N   UNL A   1      39.041  32.499  33.559  1.00  0.00    -0.354 N 
ATOM     42  C   UNL A   1      39.722  29.687  30.305  1.00  0.00     0.074 A 
ATOM     43  C   UNL A   1      38.851  29.982  29.190  1.00  0.00     0.031 C 
ATOM     44  C   UNL A   1      37.987  34.150  34.634  1.00  0.00     0.029 A 
ATOM     45  C   UNL A   1      39.044  33.150  34.771  1.00  0.00     0.049 A 
ATOM     46  H   UNL A   1      39.675  31.780  33.332  1.00  0.00     0.167 HD
ATOM     47  C   UNL A   1      40.648  28.697  30.308  1.00  0.00     0.034 A 
ATOM     48  C   UNL A   1      39.801  32.950  35.869  1.00  0.00     0.034 A 
ATOM     49  C   UNL A   1      41.555  28.465  31.403  1.00  0.00     0.049 A 
ATOM     50  C   UNL A   1      40.843  31.855  35.842  1.00  0.00     0.074 A 
ATOM     51  C   UNL A   1      42.580  27.540  31.495  1.00  0.00     0.029 A 
ATOM     52  N   UNL A   1      41.554  29.178  32.596  1.00  0.00    -0.354 N 
ATOM     53  N   UNL A   1      41.120  31.001  34.883  1.00  0.00    -0.248 NA
ATOM     54  C   UNL A   1      41.682  31.705  37.039  1.00  0.00     0.031 C 
ATOM     55  C   UNL A   1      43.162  27.657  32.760  1.00  0.00     0.029 A 
ATOM     56  C   UNL A   1      42.550  28.704  33.431  1.00  0.00     0.049 A 
ATOM     57  H   UNL A   1      40.935  29.912  32.813  1.00  0.00     0.167 HD
ATOM     58  C   UNL A   1      42.197  30.247  35.346  1.00  0.00     0.074 A 
ATOM     59  C   UNL A   1      42.519  30.748  36.666  1.00  0.00     0.031 C 
ATOM     60  C   UNL A   1      42.865  29.236  34.734  1.00  0.00     0.034 A 
BRANCH  47  61
ATOM     61  C   UNL A   1      40.712  27.788  29.103  1.00  0.00     0.023 A 
ATOM     62  C   UNL A   1      41.632  27.996  28.059  1.00  0.00     0.031 A 
ATOM     63  C   UNL A   1      39.821  26.705  28.984  1.00  0.00     0.131 A 
ATOM     64  C   UNL A   1      41.586  27.190  26.912  1.00  0.00     0.055 A 
ATOM     65  C   UNL A   1      39.840  25.853  27.877  1.00  0.00     0.041 A 
ATOM     66  F   UNL A   1      38.906  26.465  29.935  1.00  0.00    -0.206 F 
ATOM     67  C   UNL A   1      40.716  26.102  26.826  1.00  0.00     0.022 A 
BRANCH  64  68
ATOM     68  S   UNL A   1      42.585  27.672  25.477  1.00  0.00     0.124 S 
ATOM     69  O   UNL A   1      42.466  26.490  24.626  1.00  0.00    -0.237 OA
ATOM     70  O   UNL A   1      41.904  28.870  25.004  1.00  0.00    -0.237 OA
ATOM     71  O   UNL A   1      43.915  27.892  26.043  1.00  0.00    -0.744 OA
ENDBRANCH  64  68
ENDBRANCH  47  61
BRANCH  48  72
ATOM     72  C   UNL A   1      39.616  33.791  37.088  1.00  0.00     0.023 A 
ATOM     73  C   UNL A   1      38.949  33.286  38.217  1.00  0.00     0.031 A 
ATOM     74  C   UNL A   1      40.052  35.128  37.127  1.00  0.00     0.131 A 
ATOM     75  C   UNL A   1      38.687  34.124  39.311  1.00  0.00     0.055 A 
ATOM     76  C   UNL A   1      39.838  35.941  38.242  1.00  0.00     0.041 A 
ATOM     77  F   UNL A   1      40.697  35.662  36.079  1.00  0.00    -0.206 F 
ATOM     78  C   UNL A   1      39.138  35.445  39.337  1.00  0.00     0.022 A 
BRANCH  75  79
ATOM     79  S   UNL A   1      37.653  33.490  40.660  1.00  0.00     0.124 S 
ATOM     80  O   UNL A   1      38.494  32.431  41.207  1.00  0.00    -0.237 OA
ATOM     81  O   UNL A   1      37.486  34.674  41.496  1.00  0.00    -0.237 OA
ATOM     82  O   UNL A   1      36.443  33.035  39.977  1.00  0.00    -0.744 OA
ENDBRANCH  75  79
ENDBRANCH  48  72
BRANCH  60  83
ATOM     83  C   UNL A   1      44.063  28.666  35.451  1.00  0.00     0.023 A 
ATOM     84  C   UNL A   1      43.943  27.637  36.399  1.00  0.00     0.031 A 
ATOM     85  C   UNL A   1      45.349  29.155  35.157  1.00  0.00     0.131 A 
ATOM     86  C   UNL A   1      45.088  27.159  37.054  1.00  0.00     0.055 A 
ATOM     87  C   UNL A   1      46.489  28.637  35.770  1.00  0.00     0.041 A 
ATOM     88  F   UNL A   1      45.516  30.137  34.257  1.00  0.00    -0.206 F 
ATOM     89  C   UNL A   1      46.361  27.640  36.733  1.00  0.00     0.022 A 
BRANCH  86  90
ATOM     90  S   UNL A   1      44.888  25.941  38.383  1.00  0.00     0.124 S 
ATOM     91  O   UNL A   1      46.274  25.633  38.723  1.00  0.00    -0.237 OA
ATOM     92  O   UNL A   1      44.138  26.691  39.384  1.00  0.00    -0.237 OA
ATOM     93  O   UNL A   1      44.151  24.853  37.744  1.00  0.00    -0.744 OA
ENDBRANCH  86  90
ENDBRANCH  60  83
ENDBRANCH  34  35
ENDBRANCH  26  29
ENDBRANCH  24  25
ENDBRANCH  23  24
ENDBRANCH   1  23
TORSDOF 18
ENDMDL
