MODEL 1
REMARK VINA RESULT:     -14.1      0.000      0.000
REMARK SMILES O=C(NCCCCNC(=O)[C@H]1CCCN(c2cc(-c3ccccn3)nc(-c3ccccc3F)n2)C1)c1ccc(-c2c3nc(c(-c4cc(S(=O)(=O)[O-])ccc4F)c4ccc([nH]4)c(-c4cc(S(=O)(=O)[O-])ccc4F)c4nc(c(-c5cc(S(=O)(=O)[O-])ccc5F)c5ccc2[nH]5)C=C4)C=C3)cc1
REMARK SMILES IDX 5 1 4 2 3 3 1 4 2 5 36 7 37 8 98 9 38 10 97 11 39 12 40 13
REMARK SMILES IDX 41 14 91 15 42 16 96 17 90 18 92 19 43 20 95 21 89 22 88 23
REMARK SMILES IDX 44 25 76 26 56 27 75 28 57 29 60 30 74 31 93 32 58 33 59 34
REMARK SMILES IDX 73 36 94 37 61 38 45 39 46 40 54 41 47 42 53 43 55 44 52 45
REMARK SMILES IDX 48 46 49 47 50 48 51 49 77 50 78 51 86 52 79 53 85 54 87 55
REMARK SMILES IDX 84 56 80 57 81 58 82 59 83 60 62 61 63 62 71 63 64 64 70 65
REMARK SMILES IDX 72 66 69 67 65 68 66 69 67 70 68 71 6 72 7 73 8 74 9 75
REMARK SMILES IDX 10 77 11 78 12 79 35 80 13 81 15 82 14 83 16 84 17 85 34 86
REMARK SMILES IDX 18 87 26 88 25 89 19 90 20 91 24 92 21 93 23 94 22 95 27 96
REMARK SMILES IDX 28 97 32 98 29 99 31 100 33 101 30 102
REMARK H PARENT 3 6 92 24 60 35 8 76
REMARK Flexibility Score: inf
ROOT
ATOM      1  C   UNL A   1      34.813  22.046  25.341  1.00  0.00     0.023 C 
ENDROOT
BRANCH   1   2
ATOM      2  C   UNL A   1      36.245  22.377  25.733  1.00  0.00     0.116 C 
BRANCH   2   3
ATOM      3  N   UNL A   1      37.130  21.225  25.670  1.00  0.00    -0.352 N 
ATOM      4  O   UNL A   1      39.118  20.156  25.642  1.00  0.00    -0.269 OA
ATOM      5  C   UNL A   1      38.493  21.190  25.852  1.00  0.00     0.251 C 
ATOM      6  H   UNL A   1      36.701  20.361  25.473  1.00  0.00     0.163 HD
BRANCH   5   7
ATOM      7  C   UNL A   1      39.197  22.420  26.274  1.00  0.00     0.039 A 
ATOM      8  C   UNL A   1      38.757  23.671  25.838  1.00  0.00     0.014 A 
ATOM      9  C   UNL A   1      40.316  22.314  27.106  1.00  0.00     0.014 A 
ATOM     10  C   UNL A   1      39.507  24.804  26.130  1.00  0.00     0.010 A 
ATOM     11  C   UNL A   1      41.024  23.465  27.463  1.00  0.00     0.010 A 
ATOM     12  C   UNL A   1      40.636  24.715  26.960  1.00  0.00    -0.014 A 
BRANCH  12  13
ATOM     13  C   UNL A   1      41.339  25.964  27.347  1.00  0.00     0.031 A 
ATOM     14  C   UNL A   1      42.703  26.290  26.813  1.00  0.00     0.074 A 
ATOM     15  C   UNL A   1      40.695  26.829  28.155  1.00  0.00     0.049 A 
ATOM     16  N   UNL A   1      43.429  27.360  27.019  1.00  0.00    -0.248 NA
ATOM     17  C   UNL A   1      43.339  25.290  25.943  1.00  0.00     0.031 C 
ATOM     18  C   UNL A   1      39.365  26.607  28.729  1.00  0.00     0.029 A 
ATOM     19  N   UNL A   1      41.047  28.075  28.603  1.00  0.00    -0.354 N 
ATOM     20  C   UNL A   1      44.614  27.158  26.320  1.00  0.00     0.074 A 
ATOM     21  C   UNL A   1      44.516  25.852  25.700  1.00  0.00     0.031 C 
ATOM     22  C   UNL A   1      38.985  27.706  29.394  1.00  0.00     0.029 A 
ATOM     23  C   UNL A   1      40.068  28.682  29.351  1.00  0.00     0.049 A 
ATOM     24  H   UNL A   1      41.917  28.493  28.409  1.00  0.00     0.167 HD
ATOM     25  C   UNL A   1      45.677  27.991  26.206  1.00  0.00     0.034 A 
ATOM     26  C   UNL A   1      40.042  29.888  29.948  1.00  0.00     0.034 A 
ATOM     27  C   UNL A   1      45.750  29.293  26.823  1.00  0.00     0.049 A 
ATOM     28  C   UNL A   1      41.241  30.780  29.832  1.00  0.00     0.074 A 
ATOM     29  C   UNL A   1      46.769  30.228  26.746  1.00  0.00     0.029 A 
ATOM     30  N   UNL A   1      44.767  29.845  27.636  1.00  0.00    -0.354 N 
ATOM     31  N   UNL A   1      42.363  30.564  29.185  1.00  0.00    -0.248 NA
ATOM     32  C   UNL A   1      41.182  32.067  30.534  1.00  0.00     0.031 C 
ATOM     33  C   UNL A   1      46.429  31.317  27.556  1.00  0.00     0.029 A 
ATOM     34  C   UNL A   1      45.169  31.092  28.089  1.00  0.00     0.049 A 
ATOM     35  H   UNL A   1      43.911  29.413  27.859  1.00  0.00     0.167 HD
ATOM     36  C   UNL A   1      43.145  31.693  29.398  1.00  0.00     0.074 A 
ATOM     37  C   UNL A   1      42.363  32.590  30.227  1.00  0.00     0.031 C 
ATOM     38  C   UNL A   1      44.392  31.961  28.941  1.00  0.00     0.034 A 
BRANCH  25  39
ATOM     39  C   UNL A   1      46.868  27.502  25.421  1.00  0.00     0.023 A 
ATOM     40  C   UNL A   1      47.085  27.881  24.087  1.00  0.00     0.031 A 
ATOM     41  C   UNL A   1      47.809  26.649  26.028  1.00  0.00     0.131 A 
ATOM     42  C   UNL A   1      48.192  27.373  23.387  1.00  0.00     0.055 A 
ATOM     43  C   UNL A   1      48.939  26.197  25.346  1.00  0.00     0.041 A 
ATOM     44  F   UNL A   1      47.641  26.241  27.296  1.00  0.00    -0.206 F 
ATOM     45  C   UNL A   1      49.131  26.552  24.015  1.00  0.00     0.022 A 
BRANCH  42  46
ATOM     46  S   UNL A   1      48.338  27.727  21.614  1.00  0.00     0.124 S 
ATOM     47  O   UNL A   1      47.006  28.240  21.304  1.00  0.00    -0.237 OA
ATOM     48  O   UNL A   1      49.423  28.702  21.574  1.00  0.00    -0.237 OA
ATOM     49  O   UNL A   1      48.650  26.424  21.029  1.00  0.00    -0.744 OA
ENDBRANCH  42  46
ENDBRANCH  25  39
BRANCH  26  50
ATOM     50  C   UNL A   1      38.839  30.287  30.723  1.00  0.00     0.023 A 
ATOM     51  C   UNL A   1      37.991  31.308  30.268  1.00  0.00     0.031 A 
ATOM     52  C   UNL A   1      38.482  29.595  31.894  1.00  0.00     0.131 A 
ATOM     53  C   UNL A   1      36.822  31.608  30.983  1.00  0.00     0.055 A 
ATOM     54  C   UNL A   1      37.303  29.876  32.583  1.00  0.00     0.041 A 
ATOM     55  F   UNL A   1      39.255  28.598  32.352  1.00  0.00    -0.206 F 
ATOM     56  C   UNL A   1      36.465  30.889  32.128  1.00  0.00     0.022 A 
BRANCH  53  57
ATOM     57  S   UNL A   1      35.750  32.945  30.388  1.00  0.00     0.124 S 
ATOM     58  O   UNL A   1      36.156  34.053  31.246  1.00  0.00    -0.237 OA
ATOM     59  O   UNL A   1      36.135  33.046  28.983  1.00  0.00    -0.237 OA
ATOM     60  O   UNL A   1      34.403  32.431  30.624  1.00  0.00    -0.744 OA
ENDBRANCH  53  57
ENDBRANCH  26  50
BRANCH  38  61
ATOM     61  C   UNL A   1      44.986  33.290  29.317  1.00  0.00     0.023 A 
ATOM     62  C   UNL A   1      44.783  34.432  28.526  1.00  0.00     0.031 A 
ATOM     63  C   UNL A   1      45.734  33.418  30.500  1.00  0.00     0.131 A 
ATOM     64  C   UNL A   1      45.346  35.656  28.918  1.00  0.00     0.055 A 
ATOM     65  C   UNL A   1      46.257  34.645  30.904  1.00  0.00     0.041 A 
ATOM     66  F   UNL A   1      45.952  32.353  31.287  1.00  0.00    -0.206 F 
ATOM     67  C   UNL A   1      46.066  35.773  30.109  1.00  0.00     0.022 A 
BRANCH  64  68
ATOM     68  S   UNL A   1      45.140  37.099  27.839  1.00  0.00     0.124 S 
ATOM     69  O   UNL A   1      46.347  37.037  27.021  1.00  0.00    -0.237 OA
ATOM     70  O   UNL A   1      43.887  36.807  27.150  1.00  0.00    -0.237 OA
ATOM     71  O   UNL A   1      45.082  38.221  28.775  1.00  0.00    -0.744 OA
ENDBRANCH  64  68
ENDBRANCH  38  61
ENDBRANCH  12  13
ENDBRANCH   5   7
ENDBRANCH   2   3
ENDBRANCH   1   2
BRANCH   1  72
ATOM     72  C   UNL A   1      33.928  21.549  26.486  1.00  0.00     0.023 C 
BRANCH  72  73
ATOM     73  C   UNL A   1      33.463  22.636  27.461  1.00  0.00     0.116 C 
BRANCH  73  74
ATOM     74  N   UNL A   1      32.037  22.539  27.710  1.00  0.00    -0.356 N 
ATOM     75  C   UNL A   1      30.990  23.172  27.117  1.00  0.00     0.224 C 
ATOM     76  H   UNL A   1      31.787  21.911  28.426  1.00  0.00     0.163 HD
ATOM     77  O   UNL A   1      29.870  22.954  27.584  1.00  0.00    -0.275 OA
BRANCH  75  78
ATOM     78  C   UNL A   1      31.194  24.072  25.898  1.00  0.00     0.098 C 
ATOM     79  C   UNL A   1      31.400  23.193  24.644  1.00  0.00     0.017 C 
ATOM     80  C   UNL A   1      29.999  24.997  25.673  1.00  0.00     0.131 C 
ATOM     81  C   UNL A   1      31.497  24.023  23.366  1.00  0.00     0.022 C 
ATOM     82  N   UNL A   1      30.092  25.715  24.405  1.00  0.00    -0.356 N 
ATOM     83  C   UNL A   1      30.276  24.924  23.199  1.00  0.00     0.118 C 
BRANCH  82  84
ATOM     84  C   UNL A   1      30.475  27.047  24.408  1.00  0.00     0.133 A 
ATOM     85  C   UNL A   1      29.812  27.916  23.566  1.00  0.00     0.077 A 
ATOM     86  N   UNL A   1      31.419  27.482  25.261  1.00  0.00    -0.211 NA
ATOM     87  C   UNL A   1      30.122  29.257  23.651  1.00  0.00     0.095 A 
ATOM     88  C   UNL A   1      31.689  28.806  25.251  1.00  0.00     0.165 A 
ATOM     89  N   UNL A   1      31.073  29.718  24.484  1.00  0.00    -0.226 NA
BRANCH  87  90
ATOM     90  C   UNL A   1      29.371  30.252  22.878  1.00  0.00     0.089 A 
ATOM     91  C   UNL A   1      28.939  31.442  23.468  1.00  0.00     0.030 A 
ATOM     92  N   UNL A   1      29.078  29.935  21.591  1.00  0.00    -0.255 NA
ATOM     93  C   UNL A   1      28.186  32.337  22.715  1.00  0.00     0.004 A 
ATOM     94  C   UNL A   1      28.358  30.830  20.881  1.00  0.00     0.112 A 
ATOM     95  C   UNL A   1      27.889  32.028  21.395  1.00  0.00     0.020 A 
ENDBRANCH  87  90
BRANCH  88  96
ATOM     96  C   UNL A   1      32.797  29.293  26.071  1.00  0.00     0.055 A 
ATOM     97  C   UNL A   1      32.705  30.510  26.771  1.00  0.00     0.015 A 
ATOM     98  C   UNL A   1      33.962  28.534  26.241  1.00  0.00     0.134 A 
ATOM     99  C   UNL A   1      33.732  30.932  27.625  1.00  0.00     0.001 A 
ATOM    100  C   UNL A   1      34.993  28.953  27.082  1.00  0.00     0.040 A 
ATOM    101  F   UNL A   1      34.120  27.375  25.583  1.00  0.00    -0.206 F 
ATOM    102  C   UNL A   1      34.876  30.151  27.782  1.00  0.00     0.003 A 
ENDBRANCH  88  96
ENDBRANCH  82  84
ENDBRANCH  75  78
ENDBRANCH  73  74
ENDBRANCH  72  73
ENDBRANCH   1  72
TORSDOF 17
ENDMDL
MODEL 2
REMARK VINA RESULT:     -14.0      0.573      7.211
REMARK SMILES O=C(NCCCCNC(=O)[C@H]1CCCN(c2cc(-c3ccccn3)nc(-c3ccccc3F)n2)C1)c1ccc(-c2c3nc(c(-c4cc(S(=O)(=O)[O-])ccc4F)c4ccc([nH]4)c(-c4cc(S(=O)(=O)[O-])ccc4F)c4nc(c(-c5cc(S(=O)(=O)[O-])ccc5F)c5ccc2[nH]5)C=C4)C=C3)cc1
REMARK SMILES IDX 5 1 4 2 3 3 1 4 2 5 36 7 37 8 98 9 38 10 97 11 39 12 40 13
REMARK SMILES IDX 41 14 91 15 42 16 96 17 90 18 92 19 43 20 95 21 89 22 88 23
REMARK SMILES IDX 44 25 76 26 56 27 75 28 57 29 60 30 74 31 93 32 58 33 59 34
REMARK SMILES IDX 73 36 94 37 61 38 45 39 46 40 54 41 47 42 53 43 55 44 52 45
REMARK SMILES IDX 48 46 49 47 50 48 51 49 77 50 78 51 86 52 79 53 85 54 87 55
REMARK SMILES IDX 84 56 80 57 81 58 82 59 83 60 62 61 63 62 71 63 64 64 70 65
REMARK SMILES IDX 72 66 69 67 65 68 66 69 67 70 68 71 6 72 7 73 8 74 9 75
REMARK SMILES IDX 10 77 11 78 12 79 35 80 13 81 15 82 14 83 16 84 17 85 34 86
REMARK SMILES IDX 18 87 26 88 25 89 19 90 20 91 24 92 21 93 23 94 22 95 27 96
REMARK SMILES IDX 28 97 32 98 29 99 31 100 33 101 30 102
REMARK H PARENT 3 6 92 24 60 35 8 76
REMARK Flexibility Score: inf
ROOT
ATOM      1  C   UNL A   1      34.963  21.750  25.134  1.00  0.00     0.023 C 
ENDROOT
BRANCH   1   2
ATOM      2  C   UNL A   1      36.331  22.134  25.675  1.00  0.00     0.116 C 
BRANCH   2   3
ATOM      3  N   UNL A   1      37.251  21.010  25.739  1.00  0.00    -0.352 N 
ATOM      4  O   UNL A   1      39.271  20.005  25.821  1.00  0.00    -0.269 OA
ATOM      5  C   UNL A   1      38.615  21.038  25.915  1.00  0.00     0.251 C 
ATOM      6  H   UNL A   1      36.848  20.116  25.644  1.00  0.00     0.163 HD
BRANCH   5   7
ATOM      7  C   UNL A   1      39.282  22.328  26.189  1.00  0.00     0.039 A 
ATOM      8  C   UNL A   1      40.490  22.366  26.887  1.00  0.00     0.014 A 
ATOM      9  C   UNL A   1      38.681  23.513  25.753  1.00  0.00     0.014 A 
ATOM     10  C   UNL A   1      41.034  23.589  27.257  1.00  0.00     0.010 A 
ATOM     11  C   UNL A   1      39.272  24.742  26.058  1.00  0.00     0.010 A 
ATOM     12  C   UNL A   1      40.441  24.789  26.830  1.00  0.00    -0.014 A 
BRANCH  12  13
ATOM     13  C   UNL A   1      41.119  26.072  27.142  1.00  0.00     0.031 A 
ATOM     14  C   UNL A   1      40.493  27.084  28.057  1.00  0.00     0.074 A 
ATOM     15  C   UNL A   1      42.343  26.285  26.622  1.00  0.00     0.049 A 
ATOM     16  N   UNL A   1      40.977  28.229  28.464  1.00  0.00    -0.248 NA
ATOM     17  C   UNL A   1      39.153  26.778  28.578  1.00  0.00     0.031 C 
ATOM     18  C   UNL A   1      43.041  25.364  25.720  1.00  0.00     0.029 A 
ATOM     19  N   UNL A   1      43.231  27.313  26.798  1.00  0.00    -0.354 N 
ATOM     20  C   UNL A   1      39.998  28.792  29.275  1.00  0.00     0.074 A 
ATOM     21  C   UNL A   1      38.882  27.868  29.284  1.00  0.00     0.031 C 
ATOM     22  C   UNL A   1      44.272  25.834  25.480  1.00  0.00     0.029 A 
ATOM     23  C   UNL A   1      44.428  27.119  26.152  1.00  0.00     0.049 A 
ATOM     24  H   UNL A   1      43.030  28.113  27.335  1.00  0.00     0.167 HD
ATOM     25  C   UNL A   1      40.034  29.968  29.949  1.00  0.00     0.034 A 
ATOM     26  C   UNL A   1      45.529  27.891  26.095  1.00  0.00     0.034 A 
ATOM     27  C   UNL A   1      41.161  30.869  29.934  1.00  0.00     0.049 A 
ATOM     28  C   UNL A   1      45.535  29.199  26.826  1.00  0.00     0.074 A 
ATOM     29  C   UNL A   1      41.311  32.071  30.607  1.00  0.00     0.029 A 
ATOM     30  N   UNL A   1      42.329  30.673  29.208  1.00  0.00    -0.354 N 
ATOM     31  N   UNL A   1      44.591  29.726  27.570  1.00  0.00    -0.248 NA
ATOM     32  C   UNL A   1      46.742  30.024  26.700  1.00  0.00     0.031 C 
ATOM     33  C   UNL A   1      42.542  32.628  30.242  1.00  0.00     0.029 A 
ATOM     34  C   UNL A   1      43.189  31.744  29.392  1.00  0.00     0.049 A 
ATOM     35  H   UNL A   1      42.517  29.889  28.644  1.00  0.00     0.167 HD
ATOM     36  C   UNL A   1      45.091  30.946  28.007  1.00  0.00     0.074 A 
ATOM     37  C   UNL A   1      46.424  31.073  27.448  1.00  0.00     0.031 C 
ATOM     38  C   UNL A   1      44.501  31.871  28.803  1.00  0.00     0.034 A 
BRANCH  25  39
ATOM     39  C   UNL A   1      38.804  30.369  30.723  1.00  0.00     0.023 A 
ATOM     40  C   UNL A   1      37.908  31.338  30.244  1.00  0.00     0.031 A 
ATOM     41  C   UNL A   1      38.519  29.759  31.958  1.00  0.00     0.131 A 
ATOM     42  C   UNL A   1      36.793  31.702  31.016  1.00  0.00     0.055 A 
ATOM     43  C   UNL A   1      37.377  30.080  32.692  1.00  0.00     0.041 A 
ATOM     44  F   UNL A   1      39.351  28.839  32.472  1.00  0.00    -0.206 F 
ATOM     45  C   UNL A   1      36.510  31.063  32.226  1.00  0.00     0.022 A 
BRANCH  42  46
ATOM     46  S   UNL A   1      35.763  33.088  30.461  1.00  0.00     0.124 S 
ATOM     47  O   UNL A   1      36.192  33.237  29.072  1.00  0.00    -0.237 OA
ATOM     48  O   UNL A   1      34.411  32.578  30.659  1.00  0.00    -0.237 OA
ATOM     49  O   UNL A   1      36.153  34.182  31.349  1.00  0.00    -0.744 OA
ENDBRANCH  42  46
ENDBRANCH  25  39
BRANCH  26  50
ATOM     50  C   UNL A   1      46.692  27.434  25.291  1.00  0.00     0.023 A 
ATOM     51  C   UNL A   1      46.845  27.826  23.953  1.00  0.00     0.031 A 
ATOM     52  C   UNL A   1      47.707  26.661  25.881  1.00  0.00     0.131 A 
ATOM     53  C   UNL A   1      47.994  27.440  23.245  1.00  0.00     0.055 A 
ATOM     54  C   UNL A   1      48.861  26.307  25.183  1.00  0.00     0.041 A 
ATOM     55  F   UNL A   1      47.609  26.282  27.165  1.00  0.00    -0.206 F 
ATOM     56  C   UNL A   1      49.009  26.697  23.856  1.00  0.00     0.022 A 
BRANCH  53  57
ATOM     57  S   UNL A   1      48.161  27.940  21.510  1.00  0.00     0.124 S 
ATOM     58  O   UNL A   1      46.855  28.535  21.246  1.00  0.00    -0.237 OA
ATOM     59  O   UNL A   1      49.289  28.865  21.562  1.00  0.00    -0.237 OA
ATOM     60  O   UNL A   1      48.427  26.681  20.818  1.00  0.00    -0.744 OA
ENDBRANCH  53  57
ENDBRANCH  26  50
BRANCH  38  61
ATOM     61  C   UNL A   1      45.302  33.100  29.133  1.00  0.00     0.023 A 
ATOM     62  C   UNL A   1      45.199  34.269  28.363  1.00  0.00     0.031 A 
ATOM     63  C   UNL A   1      46.149  33.108  30.255  1.00  0.00     0.131 A 
ATOM     64  C   UNL A   1      45.955  35.398  28.711  1.00  0.00     0.055 A 
ATOM     65  C   UNL A   1      46.867  34.246  30.619  1.00  0.00     0.041 A 
ATOM     66  F   UNL A   1      46.277  32.013  31.020  1.00  0.00    -0.206 F 
ATOM     67  C   UNL A   1      46.775  35.399  29.843  1.00  0.00     0.022 A 
BRANCH  64  68
ATOM     68  S   UNL A   1      45.870  36.870  27.654  1.00  0.00     0.124 S 
ATOM     69  O   UNL A   1      44.599  36.671  26.964  1.00  0.00    -0.237 OA
ATOM     70  O   UNL A   1      45.907  37.960  28.622  1.00  0.00    -0.237 OA
ATOM     71  O   UNL A   1      47.059  36.753  26.810  1.00  0.00    -0.744 OA
ENDBRANCH  64  68
ENDBRANCH  38  61
ENDBRANCH  12  13
ENDBRANCH   5   7
ENDBRANCH   2   3
ENDBRANCH   1   2
BRANCH   1  72
ATOM     72  C   UNL A   1      33.935  21.356  26.197  1.00  0.00     0.023 C 
BRANCH  72  73
ATOM     73  C   UNL A   1      33.594  22.459  27.206  1.00  0.00     0.116 C 
BRANCH  73  74
ATOM     74  N   UNL A   1      32.190  22.423  27.564  1.00  0.00    -0.356 N 
ATOM     75  C   UNL A   1      31.133  23.125  27.072  1.00  0.00     0.224 C 
ATOM     76  H   UNL A   1      31.964  21.787  28.280  1.00  0.00     0.163 HD
ATOM     77  O   UNL A   1      30.043  22.947  27.620  1.00  0.00    -0.275 OA
BRANCH  75  78
ATOM     78  C   UNL A   1      31.287  24.050  25.865  1.00  0.00     0.098 C 
ATOM     79  C   UNL A   1      31.435  23.198  24.585  1.00  0.00     0.017 C 
ATOM     80  C   UNL A   1      30.088  24.983  25.712  1.00  0.00     0.131 C 
ATOM     81  C   UNL A   1      31.479  24.054  23.321  1.00  0.00     0.022 C 
ATOM     82  N   UNL A   1      30.129  25.728  24.457  1.00  0.00    -0.356 N 
ATOM     83  C   UNL A   1      30.256  24.963  23.227  1.00  0.00     0.118 C 
BRANCH  82  84
ATOM     84  C   UNL A   1      30.516  27.058  24.472  1.00  0.00     0.133 A 
ATOM     85  C   UNL A   1      29.875  27.933  23.618  1.00  0.00     0.077 A 
ATOM     86  N   UNL A   1      31.444  27.487  25.345  1.00  0.00    -0.211 NA
ATOM     87  C   UNL A   1      30.189  29.272  23.714  1.00  0.00     0.095 A 
ATOM     88  C   UNL A   1      31.721  28.810  25.345  1.00  0.00     0.165 A 
ATOM     89  N   UNL A   1      31.124  29.727  24.568  1.00  0.00    -0.226 NA
BRANCH  87  90
ATOM     90  C   UNL A   1      29.459  30.272  22.928  1.00  0.00     0.089 A 
ATOM     91  C   UNL A   1      28.968  31.435  23.525  1.00  0.00     0.030 A 
ATOM     92  N   UNL A   1      29.244  29.986  21.618  1.00  0.00    -0.255 NA
ATOM     93  C   UNL A   1      28.237  32.335  22.757  1.00  0.00     0.004 A 
ATOM     94  C   UNL A   1      28.543  30.885  20.894  1.00  0.00     0.112 A 
ATOM     95  C   UNL A   1      28.019  32.058  21.414  1.00  0.00     0.020 A 
ENDBRANCH  87  90
BRANCH  88  96
ATOM     96  C   UNL A   1      32.813  29.290  26.189  1.00  0.00     0.055 A 
ATOM     97  C   UNL A   1      34.023  28.579  26.290  1.00  0.00     0.015 A 
ATOM     98  C   UNL A   1      32.718  30.506  26.876  1.00  0.00     0.134 A 
ATOM     99  C   UNL A   1      35.099  29.084  27.030  1.00  0.00     0.001 A 
ATOM    100  C   UNL A   1      33.782  31.011  27.624  1.00  0.00     0.040 A 
ATOM    101  F   UNL A   1      31.582  31.221  26.840  1.00  0.00    -0.206 F 
ATOM    102  C   UNL A   1      34.979  30.303  27.695  1.00  0.00     0.003 A 
ENDBRANCH  88  96
ENDBRANCH  82  84
ENDBRANCH  75  78
ENDBRANCH  73  74
ENDBRANCH  72  73
ENDBRANCH   1  72
TORSDOF 17
ENDMDL
MODEL 3
REMARK VINA RESULT:     -13.9      2.642      3.266
REMARK SMILES O=C(NCCCCNC(=O)[C@H]1CCCN(c2cc(-c3ccccn3)nc(-c3ccccc3F)n2)C1)c1ccc(-c2c3nc(c(-c4cc(S(=O)(=O)[O-])ccc4F)c4ccc([nH]4)c(-c4cc(S(=O)(=O)[O-])ccc4F)c4nc(c(-c5cc(S(=O)(=O)[O-])ccc5F)c5ccc2[nH]5)C=C4)C=C3)cc1
REMARK SMILES IDX 5 1 4 2 3 3 1 4 2 5 36 7 37 8 98 9 38 10 97 11 39 12 40 13
REMARK SMILES IDX 41 14 91 15 42 16 96 17 90 18 92 19 43 20 95 21 89 22 88 23
REMARK SMILES IDX 44 25 76 26 56 27 75 28 57 29 60 30 74 31 93 32 58 33 59 34
REMARK SMILES IDX 73 36 94 37 61 38 45 39 46 40 54 41 47 42 53 43 55 44 52 45
REMARK SMILES IDX 48 46 49 47 50 48 51 49 77 50 78 51 86 52 79 53 85 54 87 55
REMARK SMILES IDX 84 56 80 57 81 58 82 59 83 60 62 61 63 62 71 63 64 64 70 65
REMARK SMILES IDX 72 66 69 67 65 68 66 69 67 70 68 71 6 72 7 73 8 74 9 75
REMARK SMILES IDX 10 77 11 78 12 79 35 80 13 81 15 82 14 83 16 84 17 85 34 86
REMARK SMILES IDX 18 87 26 88 25 89 19 90 20 91 24 92 21 93 23 94 22 95 27 96
REMARK SMILES IDX 28 97 32 98 29 99 31 100 33 101 30 102
REMARK H PARENT 3 6 92 24 60 35 8 76
REMARK Flexibility Score: inf
ROOT
ATOM      1  C   UNL A   1      35.260  23.623  25.534  1.00  0.00     0.023 C 
ENDROOT
BRANCH   1   2
ATOM      2  C   UNL A   1      36.714  24.043  25.680  1.00  0.00     0.116 C 
BRANCH   2   3
ATOM      3  N   UNL A   1      37.604  22.923  25.939  1.00  0.00    -0.352 N 
ATOM      4  O   UNL A   1      39.546  21.927  26.519  1.00  0.00    -0.269 OA
ATOM      5  C   UNL A   1      38.869  22.950  26.479  1.00  0.00     0.251 C 
ATOM      6  H   UNL A   1      37.259  22.032  25.698  1.00  0.00     0.163 HD
BRANCH   5   7
ATOM      7  C   UNL A   1      39.411  24.229  26.983  1.00  0.00     0.039 A 
ATOM      8  C   UNL A   1      39.289  24.568  28.332  1.00  0.00     0.014 A 
ATOM      9  C   UNL A   1      40.038  25.104  26.089  1.00  0.00     0.014 A 
ATOM     10  C   UNL A   1      39.679  25.828  28.763  1.00  0.00     0.010 A 
ATOM     11  C   UNL A   1      40.502  26.341  26.542  1.00  0.00     0.010 A 
ATOM     12  C   UNL A   1      40.307  26.721  27.878  1.00  0.00    -0.014 A 
BRANCH  12  13
ATOM     13  C   UNL A   1      40.819  28.010  28.406  1.00  0.00     0.031 A 
ATOM     14  C   UNL A   1      42.281  28.344  28.366  1.00  0.00     0.074 A 
ATOM     15  C   UNL A   1      39.926  28.901  28.878  1.00  0.00     0.049 A 
ATOM     16  N   UNL A   1      42.880  29.445  28.744  1.00  0.00    -0.248 NA
ATOM     17  C   UNL A   1      43.190  27.315  27.842  1.00  0.00     0.031 C 
ATOM     18  C   UNL A   1      38.480  28.674  28.960  1.00  0.00     0.029 A 
ATOM     19  N   UNL A   1      40.088  30.181  29.339  1.00  0.00    -0.354 N 
ATOM     20  C   UNL A   1      44.237  29.238  28.522  1.00  0.00     0.074 A 
ATOM     21  C   UNL A   1      44.374  27.895  27.994  1.00  0.00     0.031 C 
ATOM     22  C   UNL A   1      37.882  29.799  29.376  1.00  0.00     0.029 A 
ATOM     23  C   UNL A   1      38.904  30.802  29.653  1.00  0.00     0.049 A 
ATOM     24  H   UNL A   1      40.967  30.612  29.437  1.00  0.00     0.167 HD
ATOM     25  C   UNL A   1      45.267  30.093  28.736  1.00  0.00     0.034 A 
ATOM     26  C   UNL A   1      38.660  32.040  30.124  1.00  0.00     0.034 A 
ATOM     27  C   UNL A   1      45.108  31.431  29.254  1.00  0.00     0.049 A 
ATOM     28  C   UNL A   1      39.817  32.958  30.380  1.00  0.00     0.074 A 
ATOM     29  C   UNL A   1      46.082  32.389  29.479  1.00  0.00     0.029 A 
ATOM     30  N   UNL A   1      43.897  32.000  29.631  1.00  0.00    -0.354 N 
ATOM     31  N   UNL A   1      41.096  32.738  30.184  1.00  0.00    -0.248 NA
ATOM     32  C   UNL A   1      39.505  34.281  30.931  1.00  0.00     0.031 C 
ATOM     33  C   UNL A   1      45.471  33.513  30.046  1.00  0.00     0.029 A 
ATOM     34  C   UNL A   1      44.106  33.283  30.115  1.00  0.00     0.049 A 
ATOM     35  H   UNL A   1      43.021  31.557  29.565  1.00  0.00     0.167 HD
ATOM     36  C   UNL A   1      41.745  33.899  30.585  1.00  0.00     0.074 A 
ATOM     37  C   UNL A   1      40.715  34.820  31.027  1.00  0.00     0.031 C 
ATOM     38  C   UNL A   1      43.072  34.176  30.581  1.00  0.00     0.034 A 
BRANCH  25  39
ATOM     39  C   UNL A   1      46.661  29.594  28.454  1.00  0.00     0.023 A 
ATOM     40  C   UNL A   1      47.422  28.926  29.428  1.00  0.00     0.031 A 
ATOM     41  C   UNL A   1      47.233  29.782  27.183  1.00  0.00     0.131 A 
ATOM     42  C   UNL A   1      48.729  28.508  29.128  1.00  0.00     0.055 A 
ATOM     43  C   UNL A   1      48.509  29.310  26.872  1.00  0.00     0.041 A 
ATOM     44  F   UNL A   1      46.557  30.430  26.220  1.00  0.00    -0.206 F 
ATOM     45  C   UNL A   1      49.268  28.676  27.850  1.00  0.00     0.022 A 
BRANCH  42  46
ATOM     46  S   UNL A   1      49.751  27.821  30.459  1.00  0.00     0.124 S 
ATOM     47  O   UNL A   1      49.028  26.594  30.784  1.00  0.00    -0.237 OA
ATOM     48  O   UNL A   1      51.044  27.646  29.808  1.00  0.00    -0.237 OA
ATOM     49  O   UNL A   1      49.708  28.855  31.492  1.00  0.00    -0.744 OA
ENDBRANCH  42  46
ENDBRANCH  25  39
BRANCH  26  50
ATOM     50  C   UNL A   1      37.258  32.448  30.398  1.00  0.00     0.023 A 
ATOM     51  C   UNL A   1      36.536  33.219  29.476  1.00  0.00     0.031 A 
ATOM     52  C   UNL A   1      36.599  32.002  31.557  1.00  0.00     0.131 A 
ATOM     53  C   UNL A   1      35.190  33.523  29.730  1.00  0.00     0.055 A 
ATOM     54  C   UNL A   1      35.252  32.280  31.790  1.00  0.00     0.041 A 
ATOM     55  F   UNL A   1      37.248  31.244  32.456  1.00  0.00    -0.206 F 
ATOM     56  C   UNL A   1      34.540  33.046  30.872  1.00  0.00     0.022 A 
BRANCH  53  57
ATOM     57  S   UNL A   1      34.281  34.539  28.534  1.00  0.00     0.124 S 
ATOM     58  O   UNL A   1      34.799  34.037  27.266  1.00  0.00    -0.237 OA
ATOM     59  O   UNL A   1      32.893  34.207  28.838  1.00  0.00    -0.237 OA
ATOM     60  O   UNL A   1      34.679  35.903  28.875  1.00  0.00    -0.744 OA
ENDBRANCH  53  57
ENDBRANCH  26  50
BRANCH  38  61
ATOM     61  C   UNL A   1      43.486  35.541  31.054  1.00  0.00     0.023 A 
ATOM     62  C   UNL A   1      43.582  36.626  30.168  1.00  0.00     0.031 A 
ATOM     63  C   UNL A   1      43.751  35.764  32.417  1.00  0.00     0.131 A 
ATOM     64  C   UNL A   1      43.961  37.887  30.652  1.00  0.00     0.055 A 
ATOM     65  C   UNL A   1      44.089  37.028  32.898  1.00  0.00     0.041 A 
ATOM     66  F   UNL A   1      43.670  34.757  33.300  1.00  0.00    -0.206 F 
ATOM     67  C   UNL A   1      44.199  38.097  32.013  1.00  0.00     0.022 A 
BRANCH  64  68
ATOM     68  S   UNL A   1      44.160  39.253  29.476  1.00  0.00     0.124 S 
ATOM     69  O   UNL A   1      45.150  38.712  28.550  1.00  0.00    -0.237 OA
ATOM     70  O   UNL A   1      42.811  39.415  28.944  1.00  0.00    -0.237 OA
ATOM     71  O   UNL A   1      44.630  40.358  30.311  1.00  0.00    -0.744 OA
ENDBRANCH  64  68
ENDBRANCH  38  61
ENDBRANCH  12  13
ENDBRANCH   5   7
ENDBRANCH   2   3
ENDBRANCH   1   2
BRANCH   1  72
ATOM     72  C   UNL A   1      34.716  22.768  26.681  1.00  0.00     0.023 C 
BRANCH  72  73
ATOM     73  C   UNL A   1      33.641  21.754  26.279  1.00  0.00     0.116 C 
BRANCH  73  74
ATOM     74  N   UNL A   1      32.407  21.984  27.005  1.00  0.00    -0.356 N 
ATOM     75  C   UNL A   1      31.446  22.932  26.838  1.00  0.00     0.224 C 
ATOM     76  H   UNL A   1      32.238  21.350  27.738  1.00  0.00     0.163 HD
ATOM     77  O   UNL A   1      30.524  22.940  27.658  1.00  0.00    -0.275 OA
BRANCH  75  78
ATOM     78  C   UNL A   1      31.486  23.905  25.660  1.00  0.00     0.098 C 
ATOM     79  C   UNL A   1      31.568  23.105  24.341  1.00  0.00     0.017 C 
ATOM     80  C   UNL A   1      30.252  24.804  25.628  1.00  0.00     0.131 C 
ATOM     81  C   UNL A   1      31.497  24.008  23.111  1.00  0.00     0.022 C 
ATOM     82  N   UNL A   1      30.181  25.595  24.403  1.00  0.00    -0.356 N 
ATOM     83  C   UNL A   1      30.243  24.879  23.139  1.00  0.00     0.118 C 
BRANCH  82  84
ATOM     84  C   UNL A   1      30.529  26.936  24.442  1.00  0.00     0.133 A 
ATOM     85  C   UNL A   1      29.865  27.805  23.601  1.00  0.00     0.077 A 
ATOM     86  N   UNL A   1      31.441  27.377  25.326  1.00  0.00    -0.211 NA
ATOM     87  C   UNL A   1      30.140  29.151  23.720  1.00  0.00     0.095 A 
ATOM     88  C   UNL A   1      31.678  28.707  25.349  1.00  0.00     0.165 A 
ATOM     89  N   UNL A   1      31.057  29.619  24.585  1.00  0.00    -0.226 NA
BRANCH  87  90
ATOM     90  C   UNL A   1      29.382  30.143  22.949  1.00  0.00     0.089 A 
ATOM     91  C   UNL A   1      29.029  31.371  23.511  1.00  0.00     0.030 A 
ATOM     92  N   UNL A   1      29.005  29.786  21.694  1.00  0.00    -0.255 NA
ATOM     93  C   UNL A   1      28.267  32.264  22.763  1.00  0.00     0.004 A 
ATOM     94  C   UNL A   1      28.279  30.679  20.988  1.00  0.00     0.112 A 
ATOM     95  C   UNL A   1      27.884  31.914  21.476  1.00  0.00     0.020 A 
ENDBRANCH  87  90
BRANCH  88  96
ATOM     96  C   UNL A   1      32.753  29.204  26.206  1.00  0.00     0.055 A 
ATOM     97  C   UNL A   1      33.988  28.535  26.288  1.00  0.00     0.015 A 
ATOM     98  C   UNL A   1      32.614  30.398  26.925  1.00  0.00     0.134 A 
ATOM     99  C   UNL A   1      35.045  29.061  27.041  1.00  0.00     0.001 A 
ATOM    100  C   UNL A   1      33.660  30.922  27.686  1.00  0.00     0.040 A 
ATOM    101  F   UNL A   1      31.452  31.070  26.908  1.00  0.00    -0.206 F 
ATOM    102  C   UNL A   1      34.881  30.256  27.738  1.00  0.00     0.003 A 
ENDBRANCH  88  96
ENDBRANCH  82  84
ENDBRANCH  75  78
ENDBRANCH  73  74
ENDBRANCH  72  73
ENDBRANCH   1  72
TORSDOF 17
ENDMDL
