MODEL 1
REMARK VINA RESULT:     -12.2      0.000      0.000
REMARK SMILES CSc1ccc(NS(=O)(=O)c2ccc(C(=O)NCCCCNC(=O)c3ccc(-c4c5nc(c(-c6cc(S(=O)(=O)[O-])ccc6F)c6ccc([nH]6)c(-c6cc(S(=O)(=O)[O-])ccc6F)c6nc(c(-c7cc(S(=O)(=O)[O-])ccc7F)c7ccc4[nH]7)C=C6)C=C5)cc3)cc2)cc1
REMARK SMILES IDX 19 1 18 2 17 3 15 4 16 5 14 7 11 8 12 9 89 10 13 11 88 12
REMARK SMILES IDX 8 13 9 14 10 15 7 16 6 18 3 19 4 20 91 21 5 22 90 23 2 24
REMARK SMILES IDX 1 25 20 26 21 27 22 28 23 29 24 31 25 32 26 33 87 34 27 35
REMARK SMILES IDX 86 36 28 37 29 38 30 39 80 40 31 41 85 42 79 43 81 44 32 45
REMARK SMILES IDX 84 46 78 47 77 48 33 50 65 51 45 52 64 53 46 54 49 55 63 56
REMARK SMILES IDX 82 57 47 58 48 59 62 61 83 62 50 63 34 64 35 65 43 66 36 67
REMARK SMILES IDX 42 68 44 69 41 70 37 71 38 72 39 73 40 74 66 75 67 76 75 77
REMARK SMILES IDX 68 78 74 79 76 80 73 81 69 82 70 83 71 84 72 85 51 86 52 87
REMARK SMILES IDX 60 88 53 89 59 90 61 91 58 92 54 93 55 94 56 95 57 96
REMARK H PARENT 17 6 7 17 22 30 81 49 49 60
REMARK Flexibility Score: inf
ROOT
ATOM      1  C   UNL A   1      32.460  30.187  25.790  1.00  0.00     0.023 C 
ENDROOT
BRANCH   1   2
ATOM      2  C   UNL A   1      31.384  29.225  25.289  1.00  0.00     0.116 C 
BRANCH   2   3
ATOM      3  N   UNL A   1      30.849  29.671  24.018  1.00  0.00    -0.352 N 
ATOM      4  C   UNL A   1      30.802  29.031  22.809  1.00  0.00     0.251 C 
ATOM      5  O   UNL A   1      30.216  29.553  21.863  1.00  0.00    -0.269 OA
ATOM      6  H   UNL A   1      30.456  30.574  24.025  1.00  0.00     0.163 HD
BRANCH   4   7
ATOM      7  C   UNL A   1      31.411  27.696  22.614  1.00  0.00     0.039 A 
ATOM      8  C   UNL A   1      32.752  25.257  22.507  1.00  0.00     0.087 A 
ATOM      9  C   UNL A   1      33.454  26.442  22.264  1.00  0.00     0.023 A 
ATOM     10  C   UNL A   1      31.373  25.273  22.740  1.00  0.00     0.023 A 
ATOM     11  C   UNL A   1      32.784  27.660  22.337  1.00  0.00     0.015 A 
ATOM     12  C   UNL A   1      30.705  26.501  22.811  1.00  0.00     0.015 A 
BRANCH   8  13
ATOM     13  S   UNL A   1      33.665  23.738  22.617  1.00  0.00     0.261 S 
ATOM     14  O   UNL A   1      35.024  24.036  23.000  1.00  0.00    -0.201 OA
ATOM     15  O   UNL A   1      33.389  22.964  21.420  1.00  0.00    -0.201 OA
BRANCH  13  16
ATOM     16  N   UNL A   1      32.930  22.897  23.904  1.00  0.00    -0.280 N 
ATOM     17  H   UNL A   1      32.305  23.351  24.514  1.00  0.00     0.180 HD
BRANCH  16  18
ATOM     18  C   UNL A   1      33.248  21.512  24.076  1.00  0.00     0.049 A 
ATOM     19  C   UNL A   1      33.806  18.783  24.404  1.00  0.00     0.007 A 
ATOM     20  C   UNL A   1      32.612  19.187  23.811  1.00  0.00     0.017 A 
ATOM     21  C   UNL A   1      34.720  19.750  24.836  1.00  0.00     0.017 A 
ATOM     22  C   UNL A   1      32.342  20.546  23.634  1.00  0.00     0.028 A 
ATOM     23  C   UNL A   1      34.435  21.115  24.689  1.00  0.00     0.028 A 
BRANCH  19  24
ATOM     24  S   UNL A   1      34.182  17.047  24.535  1.00  0.00    -0.130 SA
ATOM     25  C   UNL A   1      32.863  16.548  25.673  1.00  0.00     0.091 C 
ENDBRANCH  19  24
ENDBRANCH  16  18
ENDBRANCH  13  16
ENDBRANCH   8  13
ENDBRANCH   4   7
ENDBRANCH   2   3
ENDBRANCH   1   2
BRANCH   1  26
ATOM     26  C   UNL A   1      31.927  31.340  26.648  1.00  0.00     0.023 C 
BRANCH  26  27
ATOM     27  C   UNL A   1      32.981  32.091  27.457  1.00  0.00     0.116 C 
BRANCH  27  28
ATOM     28  N   UNL A   1      32.670  33.501  27.629  1.00  0.00    -0.352 N 
ATOM     29  C   UNL A   1      33.244  34.405  28.493  1.00  0.00     0.251 C 
ATOM     30  H   UNL A   1      31.957  33.857  27.051  1.00  0.00     0.163 HD
ATOM     31  O   UNL A   1      32.782  35.536  28.595  1.00  0.00    -0.269 OA
BRANCH  29  32
ATOM     32  C   UNL A   1      34.388  33.978  29.325  1.00  0.00     0.039 A 
ATOM     33  C   UNL A   1      34.162  33.086  30.376  1.00  0.00     0.014 A 
ATOM     34  C   UNL A   1      35.681  34.421  29.037  1.00  0.00     0.014 A 
ATOM     35  C   UNL A   1      35.247  32.577  31.092  1.00  0.00     0.010 A 
ATOM     36  C   UNL A   1      36.765  33.865  29.711  1.00  0.00     0.010 A 
ATOM     37  C   UNL A   1      36.560  32.931  30.738  1.00  0.00    -0.014 A 
BRANCH  37  38
ATOM     38  C   UNL A   1      37.731  32.322  31.419  1.00  0.00     0.031 A 
ATOM     39  C   UNL A   1      38.465  31.179  30.775  1.00  0.00     0.074 A 
ATOM     40  C   UNL A   1      38.086  32.756  32.645  1.00  0.00     0.049 A 
ATOM     41  N   UNL A   1      39.446  30.456  31.248  1.00  0.00    -0.248 NA
ATOM     42  C   UNL A   1      38.015  30.779  29.433  1.00  0.00     0.031 C 
ATOM     43  C   UNL A   1      37.424  33.835  33.384  1.00  0.00     0.029 A 
ATOM     44  N   UNL A   1      39.081  32.339  33.493  1.00  0.00    -0.354 N 
ATOM     45  C   UNL A   1      39.729  29.511  30.267  1.00  0.00     0.074 A 
ATOM     46  C   UNL A   1      38.773  29.719  29.199  1.00  0.00     0.031 C 
ATOM     47  C   UNL A   1      38.044  34.005  34.564  1.00  0.00     0.029 A 
ATOM     48  C   UNL A   1      39.114  33.021  34.688  1.00  0.00     0.049 A 
ATOM     49  H   UNL A   1      39.712  31.618  33.268  1.00  0.00     0.167 HD
ATOM     50  C   UNL A   1      40.709  28.575  30.250  1.00  0.00     0.034 A 
ATOM     51  C   UNL A   1      39.907  32.860  35.767  1.00  0.00     0.034 A 
ATOM     52  C   UNL A   1      41.660  28.389  31.318  1.00  0.00     0.049 A 
ATOM     53  C   UNL A   1      40.968  31.789  35.734  1.00  0.00     0.074 A 
ATOM     54  C   UNL A   1      42.719  27.501  31.383  1.00  0.00     0.029 A 
ATOM     55  N   UNL A   1      41.664  29.099  32.511  1.00  0.00    -0.354 N 
ATOM     56  N   UNL A   1      41.249  30.934  34.778  1.00  0.00    -0.248 NA
ATOM     57  C   UNL A   1      41.824  31.667  36.922  1.00  0.00     0.031 C 
ATOM     58  C   UNL A   1      43.325  27.632  32.637  1.00  0.00     0.029 A 
ATOM     59  C   UNL A   1      42.691  28.651  33.329  1.00  0.00     0.049 A 
ATOM     60  H   UNL A   1      41.031  29.817  32.743  1.00  0.00     0.167 HD
ATOM     61  C   UNL A   1      42.336  30.196  35.239  1.00  0.00     0.074 A 
ATOM     62  C   UNL A   1      42.667  30.717  36.548  1.00  0.00     0.031 C 
ATOM     63  C   UNL A   1      43.003  29.179  34.635  1.00  0.00     0.034 A 
BRANCH  50  64
ATOM     64  C   UNL A   1      40.785  27.671  29.043  1.00  0.00     0.023 A 
ATOM     65  C   UNL A   1      41.745  27.870  28.036  1.00  0.00     0.031 A 
ATOM     66  C   UNL A   1      39.881  26.606  28.891  1.00  0.00     0.131 A 
ATOM     67  C   UNL A   1      41.737  27.059  26.891  1.00  0.00     0.055 A 
ATOM     68  C   UNL A   1      39.927  25.753  27.786  1.00  0.00     0.041 A 
ATOM     69  F   UNL A   1      38.929  26.380  29.811  1.00  0.00    -0.206 F 
ATOM     70  C   UNL A   1      40.851  25.986  26.771  1.00  0.00     0.022 A 
BRANCH  67  71
ATOM     71  S   UNL A   1      42.818  27.505  25.506  1.00  0.00     0.124 S 
ATOM     72  O   UNL A   1      42.025  28.531  24.833  1.00  0.00    -0.237 OA
ATOM     73  O   UNL A   1      44.024  27.970  26.183  1.00  0.00    -0.237 OA
ATOM     74  O   UNL A   1      42.962  26.253  24.765  1.00  0.00    -0.744 OA
ENDBRANCH  67  71
ENDBRANCH  50  64
BRANCH  51  75
ATOM     75  C   UNL A   1      39.728  33.714  36.978  1.00  0.00     0.023 A 
ATOM     76  C   UNL A   1      39.068  33.222  38.116  1.00  0.00     0.031 A 
ATOM     77  C   UNL A   1      40.156  35.053  36.993  1.00  0.00     0.131 A 
ATOM     78  C   UNL A   1      38.803  34.078  39.196  1.00  0.00     0.055 A 
ATOM     79  C   UNL A   1      39.941  35.884  38.093  1.00  0.00     0.041 A 
ATOM     80  F   UNL A   1      40.795  35.573  35.933  1.00  0.00    -0.206 F 
ATOM     81  C   UNL A   1      39.246  35.402  39.198  1.00  0.00     0.022 A 
BRANCH  78  82
ATOM     82  S   UNL A   1      37.774  33.461  40.557  1.00  0.00     0.124 S 
ATOM     83  O   UNL A   1      38.653  32.471  41.168  1.00  0.00    -0.237 OA
ATOM     84  O   UNL A   1      37.539  34.677  41.331  1.00  0.00    -0.237 OA
ATOM     85  O   UNL A   1      36.600  32.921  39.876  1.00  0.00    -0.744 OA
ENDBRANCH  78  82
ENDBRANCH  51  75
BRANCH  63  86
ATOM     86  C   UNL A   1      44.185  28.604  35.373  1.00  0.00     0.023 A 
ATOM     87  C   UNL A   1      44.039  27.567  36.311  1.00  0.00     0.031 A 
ATOM     88  C   UNL A   1      45.478  29.108  35.139  1.00  0.00     0.131 A 
ATOM     89  C   UNL A   1      45.158  27.106  37.021  1.00  0.00     0.055 A 
ATOM     90  C   UNL A   1      46.595  28.605  35.806  1.00  0.00     0.041 A 
ATOM     91  F   UNL A   1      45.673  30.099  34.253  1.00  0.00    -0.206 F 
ATOM     92  C   UNL A   1      46.436  27.607  36.763  1.00  0.00     0.022 A 
BRANCH  89  93
ATOM     93  S   UNL A   1      44.907  25.898  38.350  1.00  0.00     0.124 S 
ATOM     94  O   UNL A   1      44.090  24.885  37.690  1.00  0.00    -0.237 OA
ATOM     95  O   UNL A   1      46.275  25.501  38.674  1.00  0.00    -0.237 OA
ATOM     96  O   UNL A   1      44.224  26.666  39.389  1.00  0.00    -0.744 OA
ENDBRANCH  89  93
ENDBRANCH  63  86
ENDBRANCH  37  38
ENDBRANCH  29  32
ENDBRANCH  27  28
ENDBRANCH  26  27
ENDBRANCH   1  26
TORSDOF 18
ENDMDL
MODEL 2
REMARK VINA RESULT:     -12.0      1.358      1.647
REMARK SMILES CSc1ccc(NS(=O)(=O)c2ccc(C(=O)NCCCCNC(=O)c3ccc(-c4c5nc(c(-c6cc(S(=O)(=O)[O-])ccc6F)c6ccc([nH]6)c(-c6cc(S(=O)(=O)[O-])ccc6F)c6nc(c(-c7cc(S(=O)(=O)[O-])ccc7F)c7ccc4[nH]7)C=C6)C=C5)cc3)cc2)cc1
REMARK SMILES IDX 19 1 18 2 17 3 15 4 16 5 14 7 11 8 12 9 89 10 13 11 88 12
REMARK SMILES IDX 8 13 9 14 10 15 7 16 6 18 3 19 4 20 91 21 5 22 90 23 2 24
REMARK SMILES IDX 1 25 20 26 21 27 22 28 23 29 24 31 25 32 26 33 87 34 27 35
REMARK SMILES IDX 86 36 28 37 29 38 30 39 80 40 31 41 85 42 79 43 81 44 32 45
REMARK SMILES IDX 84 46 78 47 77 48 33 50 65 51 45 52 64 53 46 54 49 55 63 56
REMARK SMILES IDX 82 57 47 58 48 59 62 61 83 62 50 63 34 64 35 65 43 66 36 67
REMARK SMILES IDX 42 68 44 69 41 70 37 71 38 72 39 73 40 74 66 75 67 76 75 77
REMARK SMILES IDX 68 78 74 79 76 80 73 81 69 82 70 83 71 84 72 85 51 86 52 87
REMARK SMILES IDX 60 88 53 89 59 90 61 91 58 92 54 93 55 94 56 95 57 96
REMARK H PARENT 17 6 7 17 22 30 81 49 49 60
REMARK Flexibility Score: inf
ROOT
ATOM      1  C   UNL A   1      32.528  30.308  25.849  1.00  0.00     0.023 C 
ENDROOT
BRANCH   1   2
ATOM      2  C   UNL A   1      31.436  29.323  25.434  1.00  0.00     0.116 C 
BRANCH   2   3
ATOM      3  N   UNL A   1      30.925  29.649  24.117  1.00  0.00    -0.352 N 
ATOM      4  C   UNL A   1      30.969  28.929  22.953  1.00  0.00     0.251 C 
ATOM      5  O   UNL A   1      30.389  29.348  21.954  1.00  0.00    -0.269 OA
ATOM      6  H   UNL A   1      30.476  30.522  24.048  1.00  0.00     0.163 HD
BRANCH   4   7
ATOM      7  C   UNL A   1      31.669  27.628  22.872  1.00  0.00     0.039 A 
ATOM      8  C   UNL A   1      33.093  25.239  23.028  1.00  0.00     0.087 A 
ATOM      9  C   UNL A   1      33.779  26.456  23.079  1.00  0.00     0.023 A 
ATOM     10  C   UNL A   1      31.707  25.202  22.835  1.00  0.00     0.023 A 
ATOM     11  C   UNL A   1      33.063  27.648  23.020  1.00  0.00     0.015 A 
ATOM     12  C   UNL A   1      30.993  26.403  22.775  1.00  0.00     0.015 A 
BRANCH   8  13
ATOM     13  S   UNL A   1      34.000  23.740  23.317  1.00  0.00     0.261 S 
ATOM     14  O   UNL A   1      35.101  24.024  24.205  1.00  0.00    -0.201 OA
ATOM     15  O   UNL A   1      34.235  23.106  22.032  1.00  0.00    -0.201 OA
BRANCH  13  16
ATOM     16  N   UNL A   1      32.903  22.736  24.147  1.00  0.00    -0.280 N 
ATOM     17  H   UNL A   1      32.162  23.119  24.671  1.00  0.00     0.180 HD
BRANCH  16  18
ATOM     18  C   UNL A   1      33.086  21.318  24.065  1.00  0.00     0.049 A 
ATOM     19  C   UNL A   1      33.384  18.536  23.879  1.00  0.00     0.007 A 
ATOM     20  C   UNL A   1      32.359  19.179  23.186  1.00  0.00     0.017 A 
ATOM     21  C   UNL A   1      34.258  19.291  24.668  1.00  0.00     0.017 A 
ATOM     22  C   UNL A   1      32.222  20.566  23.267  1.00  0.00     0.028 A 
ATOM     23  C   UNL A   1      34.100  20.680  24.776  1.00  0.00     0.028 A 
BRANCH  19  24
ATOM     24  S   UNL A   1      33.608  16.779  23.690  1.00  0.00    -0.130 SA
ATOM     25  C   UNL A   1      34.817  16.496  25.009  1.00  0.00     0.091 C 
ENDBRANCH  19  24
ENDBRANCH  16  18
ENDBRANCH  13  16
ENDBRANCH   8  13
ENDBRANCH   4   7
ENDBRANCH   2   3
ENDBRANCH   1   2
BRANCH   1  26
ATOM     26  C   UNL A   1      32.032  31.470  26.718  1.00  0.00     0.023 C 
BRANCH  26  27
ATOM     27  C   UNL A   1      33.128  32.307  27.373  1.00  0.00     0.116 C 
BRANCH  27  28
ATOM     28  N   UNL A   1      32.701  33.661  27.688  1.00  0.00    -0.352 N 
ATOM     29  C   UNL A   1      33.190  34.509  28.654  1.00  0.00     0.251 C 
ATOM     30  H   UNL A   1      31.967  34.018  27.137  1.00  0.00     0.163 HD
ATOM     31  O   UNL A   1      32.636  35.582  28.866  1.00  0.00    -0.269 OA
BRANCH  29  32
ATOM     32  C   UNL A   1      34.357  34.089  29.457  1.00  0.00     0.039 A 
ATOM     33  C   UNL A   1      34.141  33.356  30.626  1.00  0.00     0.014 A 
ATOM     34  C   UNL A   1      35.655  34.378  29.030  1.00  0.00     0.014 A 
ATOM     35  C   UNL A   1      35.234  32.846  31.328  1.00  0.00     0.010 A 
ATOM     36  C   UNL A   1      36.740  33.817  29.697  1.00  0.00     0.010 A 
ATOM     37  C   UNL A   1      36.540  33.037  30.847  1.00  0.00    -0.014 A 
BRANCH  37  38
ATOM     38  C   UNL A   1      37.708  32.416  31.523  1.00  0.00     0.031 A 
ATOM     39  C   UNL A   1      38.434  31.272  30.871  1.00  0.00     0.074 A 
ATOM     40  C   UNL A   1      38.068  32.840  32.751  1.00  0.00     0.049 A 
ATOM     41  N   UNL A   1      39.411  30.539  31.338  1.00  0.00    -0.248 NA
ATOM     42  C   UNL A   1      37.979  30.884  29.527  1.00  0.00     0.031 C 
ATOM     43  C   UNL A   1      37.415  33.919  33.497  1.00  0.00     0.029 A 
ATOM     44  N   UNL A   1      39.061  32.411  33.595  1.00  0.00    -0.354 N 
ATOM     45  C   UNL A   1      39.685  29.599  30.351  1.00  0.00     0.074 A 
ATOM     46  C   UNL A   1      38.730  29.819  29.286  1.00  0.00     0.031 C 
ATOM     47  C   UNL A   1      38.037  34.078  34.677  1.00  0.00     0.029 A 
ATOM     48  C   UNL A   1      39.101  33.086  34.794  1.00  0.00     0.049 A 
ATOM     49  H   UNL A   1      39.688  31.688  33.364  1.00  0.00     0.167 HD
ATOM     50  C   UNL A   1      40.659  28.656  30.327  1.00  0.00     0.034 A 
ATOM     51  C   UNL A   1      39.894  32.913  35.871  1.00  0.00     0.034 A 
ATOM     52  C   UNL A   1      41.610  28.457  31.392  1.00  0.00     0.049 A 
ATOM     53  C   UNL A   1      40.948  31.835  35.830  1.00  0.00     0.074 A 
ATOM     54  C   UNL A   1      42.663  27.561  31.451  1.00  0.00     0.029 A 
ATOM     55  N   UNL A   1      41.621  29.160  32.589  1.00  0.00    -0.354 N 
ATOM     56  N   UNL A   1      41.222  30.984  34.869  1.00  0.00    -0.248 NA
ATOM     57  C   UNL A   1      41.805  31.700  37.016  1.00  0.00     0.031 C 
ATOM     58  C   UNL A   1      43.272  27.680  32.704  1.00  0.00     0.029 A 
ATOM     59  C   UNL A   1      42.646  28.699  33.403  1.00  0.00     0.049 A 
ATOM     60  H   UNL A   1      40.993  29.880  32.827  1.00  0.00     0.167 HD
ATOM     61  C   UNL A   1      42.304  30.236  35.323  1.00  0.00     0.074 A 
ATOM     62  C   UNL A   1      42.641  30.746  36.635  1.00  0.00     0.031 C 
ATOM     63  C   UNL A   1      42.964  29.218  34.712  1.00  0.00     0.034 A 
BRANCH  50  64
ATOM     64  C   UNL A   1      40.727  27.759  29.114  1.00  0.00     0.023 A 
ATOM     65  C   UNL A   1      41.661  27.981  28.087  1.00  0.00     0.031 A 
ATOM     66  C   UNL A   1      39.842  26.676  28.977  1.00  0.00     0.131 A 
ATOM     67  C   UNL A   1      41.644  27.175  26.939  1.00  0.00     0.055 A 
ATOM     68  C   UNL A   1      39.881  25.829  27.867  1.00  0.00     0.041 A 
ATOM     69  F   UNL A   1      38.915  26.428  29.916  1.00  0.00    -0.206 F 
ATOM     70  C   UNL A   1      40.778  26.085  26.833  1.00  0.00     0.022 A 
BRANCH  67  71
ATOM     71  S   UNL A   1      42.686  27.648  25.534  1.00  0.00     0.124 S 
ATOM     72  O   UNL A   1      42.612  26.453  24.697  1.00  0.00    -0.237 OA
ATOM     73  O   UNL A   1      42.006  28.831  25.019  1.00  0.00    -0.237 OA
ATOM     74  O   UNL A   1      43.992  27.894  26.142  1.00  0.00    -0.744 OA
ENDBRANCH  67  71
ENDBRANCH  50  64
BRANCH  51  75
ATOM     75  C   UNL A   1      39.723  33.760  37.087  1.00  0.00     0.023 A 
ATOM     76  C   UNL A   1      40.561  34.862  37.322  1.00  0.00     0.031 A 
ATOM     77  C   UNL A   1      38.762  33.444  38.063  1.00  0.00     0.131 A 
ATOM     78  C   UNL A   1      40.463  35.571  38.530  1.00  0.00     0.055 A 
ATOM     79  C   UNL A   1      38.630  34.188  39.238  1.00  0.00     0.041 A 
ATOM     80  F   UNL A   1      37.932  32.403  37.888  1.00  0.00    -0.206 F 
ATOM     81  C   UNL A   1      39.495  35.249  39.483  1.00  0.00     0.022 A 
BRANCH  78  82
ATOM     82  S   UNL A   1      41.695  36.856  38.882  1.00  0.00     0.124 S 
ATOM     83  O   UNL A   1      40.850  37.978  39.270  1.00  0.00    -0.237 OA
ATOM     84  O   UNL A   1      42.475  36.240  39.951  1.00  0.00    -0.237 OA
ATOM     85  O   UNL A   1      42.396  37.011  37.610  1.00  0.00    -0.744 OA
ENDBRANCH  78  82
ENDBRANCH  51  75
BRANCH  63  86
ATOM     86  C   UNL A   1      44.143  28.630  35.444  1.00  0.00     0.023 A 
ATOM     87  C   UNL A   1      43.995  27.566  36.351  1.00  0.00     0.031 A 
ATOM     88  C   UNL A   1      45.434  29.150  35.238  1.00  0.00     0.131 A 
ATOM     89  C   UNL A   1      45.110  27.093  37.059  1.00  0.00     0.055 A 
ATOM     90  C   UNL A   1      46.548  28.636  35.901  1.00  0.00     0.041 A 
ATOM     91  F   UNL A   1      45.631  30.167  34.383  1.00  0.00    -0.206 F 
ATOM     92  C   UNL A   1      46.388  27.610  36.827  1.00  0.00     0.022 A 
BRANCH  89  93
ATOM     93  S   UNL A   1      44.856  25.845  38.350  1.00  0.00     0.124 S 
ATOM     94  O   UNL A   1      46.227  25.508  38.721  1.00  0.00    -0.237 OA
ATOM     95  O   UNL A   1      44.089  26.582  39.350  1.00  0.00    -0.237 OA
ATOM     96  O   UNL A   1      44.120  24.785  37.664  1.00  0.00    -0.744 OA
ENDBRANCH  89  93
ENDBRANCH  63  86
ENDBRANCH  37  38
ENDBRANCH  29  32
ENDBRANCH  27  28
ENDBRANCH  26  27
ENDBRANCH   1  26
TORSDOF 18
ENDMDL
MODEL 3
REMARK VINA RESULT:     -12.0      1.336      7.842
REMARK SMILES CSc1ccc(NS(=O)(=O)c2ccc(C(=O)NCCCCNC(=O)c3ccc(-c4c5nc(c(-c6cc(S(=O)(=O)[O-])ccc6F)c6ccc([nH]6)c(-c6cc(S(=O)(=O)[O-])ccc6F)c6nc(c(-c7cc(S(=O)(=O)[O-])ccc7F)c7ccc4[nH]7)C=C6)C=C5)cc3)cc2)cc1
REMARK SMILES IDX 19 1 18 2 17 3 15 4 16 5 14 7 11 8 12 9 89 10 13 11 88 12
REMARK SMILES IDX 8 13 9 14 10 15 7 16 6 18 3 19 4 20 91 21 5 22 90 23 2 24
REMARK SMILES IDX 1 25 20 26 21 27 22 28 23 29 24 31 25 32 26 33 87 34 27 35
REMARK SMILES IDX 86 36 28 37 29 38 30 39 80 40 31 41 85 42 79 43 81 44 32 45
REMARK SMILES IDX 84 46 78 47 77 48 33 50 65 51 45 52 64 53 46 54 49 55 63 56
REMARK SMILES IDX 82 57 47 58 48 59 62 61 83 62 50 63 34 64 35 65 43 66 36 67
REMARK SMILES IDX 42 68 44 69 41 70 37 71 38 72 39 73 40 74 66 75 67 76 75 77
REMARK SMILES IDX 68 78 74 79 76 80 73 81 69 82 70 83 71 84 72 85 51 86 52 87
REMARK SMILES IDX 60 88 53 89 59 90 61 91 58 92 54 93 55 94 56 95 57 96
REMARK H PARENT 17 6 7 17 22 30 81 49 49 60
REMARK Flexibility Score: inf
ROOT
ATOM      1  C   UNL A   1      31.822  30.721  26.254  1.00  0.00     0.023 C 
ENDROOT
BRANCH   1   2
ATOM      2  C   UNL A   1      32.091  29.724  27.379  1.00  0.00     0.116 C 
BRANCH   2   3
ATOM      3  N   UNL A   1      33.515  29.570  27.600  1.00  0.00    -0.352 N 
ATOM      4  C   UNL A   1      34.422  28.765  26.966  1.00  0.00     0.251 C 
ATOM      5  O   UNL A   1      35.616  28.851  27.246  1.00  0.00    -0.269 OA
ATOM      6  H   UNL A   1      33.888  30.132  28.318  1.00  0.00     0.163 HD
BRANCH   4   7
ATOM      7  C   UNL A   1      34.009  27.810  25.913  1.00  0.00     0.039 A 
ATOM      8  C   UNL A   1      33.542  26.042  23.813  1.00  0.00     0.087 A 
ATOM      9  C   UNL A   1      33.837  27.380  23.535  1.00  0.00     0.023 A 
ATOM     10  C   UNL A   1      33.415  25.592  25.131  1.00  0.00     0.023 A 
ATOM     11  C   UNL A   1      34.089  28.257  24.587  1.00  0.00     0.015 A 
ATOM     12  C   UNL A   1      33.667  26.478  26.184  1.00  0.00     0.015 A 
BRANCH   8  13
ATOM     13  S   UNL A   1      33.434  24.898  22.459  1.00  0.00     0.261 S 
ATOM     14  O   UNL A   1      34.542  23.977  22.534  1.00  0.00    -0.201 OA
ATOM     15  O   UNL A   1      33.192  25.662  21.247  1.00  0.00    -0.201 OA
BRANCH  13  16
ATOM     16  N   UNL A   1      32.004  24.022  22.759  1.00  0.00    -0.280 N 
ATOM     17  H   UNL A   1      31.120  24.427  22.602  1.00  0.00     0.180 HD
BRANCH  16  18
ATOM     18  C   UNL A   1      32.121  22.682  23.248  1.00  0.00     0.049 A 
ATOM     19  C   UNL A   1      32.329  20.033  24.146  1.00  0.00     0.007 A 
ATOM     20  C   UNL A   1      32.249  20.306  22.781  1.00  0.00     0.017 A 
ATOM     21  C   UNL A   1      32.302  21.091  25.061  1.00  0.00     0.017 A 
ATOM     22  C   UNL A   1      32.161  21.626  22.335  1.00  0.00     0.028 A 
ATOM     23  C   UNL A   1      32.180  22.415  24.614  1.00  0.00     0.028 A 
BRANCH  19  24
ATOM     24  S   UNL A   1      32.540  18.352  24.698  1.00  0.00    -0.130 SA
ATOM     25  C   UNL A   1      34.308  18.153  24.358  1.00  0.00     0.091 C 
ENDBRANCH  19  24
ENDBRANCH  16  18
ENDBRANCH  13  16
ENDBRANCH   8  13
ENDBRANCH   4   7
ENDBRANCH   2   3
ENDBRANCH   1   2
BRANCH   1  26
ATOM     26  C   UNL A   1      31.551  32.153  26.730  1.00  0.00     0.023 C 
BRANCH  26  27
ATOM     27  C   UNL A   1      32.687  32.804  27.514  1.00  0.00     0.116 C 
BRANCH  27  28
ATOM     28  N   UNL A   1      32.455  34.214  27.790  1.00  0.00    -0.352 N 
ATOM     29  C   UNL A   1      33.095  35.024  28.698  1.00  0.00     0.251 C 
ATOM     30  H   UNL A   1      31.748  34.644  27.256  1.00  0.00     0.163 HD
ATOM     31  O   UNL A   1      32.695  36.168  28.889  1.00  0.00    -0.269 OA
BRANCH  29  32
ATOM     32  C   UNL A   1      34.233  34.483  29.468  1.00  0.00     0.039 A 
ATOM     33  C   UNL A   1      33.980  33.835  30.679  1.00  0.00     0.014 A 
ATOM     34  C   UNL A   1      35.536  34.576  28.972  1.00  0.00     0.014 A 
ATOM     35  C   UNL A   1      35.029  33.211  31.357  1.00  0.00     0.010 A 
ATOM     36  C   UNL A   1      36.568  33.900  29.617  1.00  0.00     0.010 A 
ATOM     37  C   UNL A   1      36.323  33.203  30.810  1.00  0.00    -0.014 A 
BRANCH  37  38
ATOM     38  C   UNL A   1      37.430  32.458  31.464  1.00  0.00     0.031 A 
ATOM     39  C   UNL A   1      37.916  32.874  32.824  1.00  0.00     0.074 A 
ATOM     40  C   UNL A   1      38.038  31.454  30.801  1.00  0.00     0.049 A 
ATOM     41  N   UNL A   1      38.925  32.415  33.518  1.00  0.00    -0.248 NA
ATOM     42  C   UNL A   1      37.186  33.973  33.477  1.00  0.00     0.031 C 
ATOM     43  C   UNL A   1      37.676  30.986  29.460  1.00  0.00     0.029 A 
ATOM     44  N   UNL A   1      39.094  30.653  31.155  1.00  0.00    -0.354 N 
ATOM     45  C   UNL A   1      38.957  33.170  34.686  1.00  0.00     0.074 A 
ATOM     46  C   UNL A   1      37.902  34.156  34.576  1.00  0.00     0.031 C 
ATOM     47  C   UNL A   1      38.483  29.969  29.116  1.00  0.00     0.029 A 
ATOM     48  C   UNL A   1      39.450  29.742  30.186  1.00  0.00     0.049 A 
ATOM     49  H   UNL A   1      39.556  30.723  32.021  1.00  0.00     0.167 HD
ATOM     50  C   UNL A   1      39.776  33.038  35.758  1.00  0.00     0.034 A 
ATOM     51  C   UNL A   1      40.450  28.839  30.157  1.00  0.00     0.034 A 
ATOM     52  C   UNL A   1      40.815  32.042  35.855  1.00  0.00     0.049 A 
ATOM     53  C   UNL A   1      41.367  28.734  31.350  1.00  0.00     0.074 A 
ATOM     54  C   UNL A   1      41.672  31.791  36.913  1.00  0.00     0.029 A 
ATOM     55  N   UNL A   1      41.144  31.136  34.856  1.00  0.00    -0.354 N 
ATOM     56  N   UNL A   1      41.355  29.428  32.465  1.00  0.00    -0.248 NA
ATOM     57  C   UNL A   1      42.428  27.719  31.284  1.00  0.00     0.031 C 
ATOM     58  C   UNL A   1      42.556  30.777  36.531  1.00  0.00     0.029 A 
ATOM     59  C   UNL A   1      42.208  30.344  35.262  1.00  0.00     0.049 A 
ATOM     60  H   UNL A   1      40.690  31.066  33.985  1.00  0.00     0.167 HD
ATOM     61  C   UNL A   1      42.384  28.908  33.245  1.00  0.00     0.074 A 
ATOM     62  C   UNL A   1      42.985  27.836  32.480  1.00  0.00     0.031 C 
ATOM     63  C   UNL A   1      42.797  29.281  34.484  1.00  0.00     0.034 A 
BRANCH  50  64
ATOM     64  C   UNL A   1      39.587  34.006  36.900  1.00  0.00     0.023 A 
ATOM     65  C   UNL A   1      39.086  33.586  38.144  1.00  0.00     0.031 A 
ATOM     66  C   UNL A   1      39.901  35.366  36.742  1.00  0.00     0.131 A 
ATOM     67  C   UNL A   1      38.850  34.527  39.158  1.00  0.00     0.055 A 
ATOM     68  C   UNL A   1      39.737  36.286  37.780  1.00  0.00     0.041 A 
ATOM     69  F   UNL A   1      40.364  35.829  35.570  1.00  0.00    -0.206 F 
ATOM     70  C   UNL A   1      39.196  35.869  38.993  1.00  0.00     0.022 A 
BRANCH  67  71
ATOM     71  S   UNL A   1      37.969  33.990  40.649  1.00  0.00     0.124 S 
ATOM     72  O   UNL A   1      37.653  35.270  41.279  1.00  0.00    -0.237 OA
ATOM     73  O   UNL A   1      36.837  33.252  40.100  1.00  0.00    -0.237 OA
ATOM     74  O   UNL A   1      38.957  33.181  41.359  1.00  0.00    -0.744 OA
ENDBRANCH  67  71
ENDBRANCH  50  64
BRANCH  51  75
ATOM     75  C   UNL A   1      40.659  27.971  28.962  1.00  0.00     0.023 A 
ATOM     76  C   UNL A   1      41.696  28.231  28.053  1.00  0.00     0.031 A 
ATOM     77  C   UNL A   1      39.786  26.906  28.676  1.00  0.00     0.131 A 
ATOM     78  C   UNL A   1      41.800  27.478  26.873  1.00  0.00     0.055 A 
ATOM     79  C   UNL A   1      39.928  26.122  27.529  1.00  0.00     0.041 A 
ATOM     80  F   UNL A   1      38.779  26.610  29.513  1.00  0.00    -0.206 F 
ATOM     81  C   UNL A   1      40.931  26.418  26.612  1.00  0.00     0.022 A 
BRANCH  78  82
ATOM     82  S   UNL A   1      43.026  27.976  25.632  1.00  0.00     0.124 S 
ATOM     83  O   UNL A   1      42.174  28.402  24.528  1.00  0.00    -0.237 OA
ATOM     84  O   UNL A   1      43.748  29.035  26.331  1.00  0.00    -0.237 OA
ATOM     85  O   UNL A   1      43.789  26.753  25.399  1.00  0.00    -0.744 OA
ENDBRANCH  78  82
ENDBRANCH  51  75
BRANCH  63  86
ATOM     86  C   UNL A   1      43.922  28.487  35.097  1.00  0.00     0.023 A 
ATOM     87  C   UNL A   1      43.683  27.325  35.850  1.00  0.00     0.031 A 
ATOM     88  C   UNL A   1      45.255  28.907  34.932  1.00  0.00     0.131 A 
ATOM     89  C   UNL A   1      44.755  26.653  36.456  1.00  0.00     0.055 A 
ATOM     90  C   UNL A   1      46.322  28.201  35.488  1.00  0.00     0.041 A 
ATOM     91  F   UNL A   1      45.539  30.012  34.222  1.00  0.00    -0.206 F 
ATOM     92  C   UNL A   1      46.074  27.075  36.267  1.00  0.00     0.022 A 
BRANCH  89  93
ATOM     93  S   UNL A   1      44.397  25.265  37.567  1.00  0.00     0.124 S 
ATOM     94  O   UNL A   1      44.638  25.857  38.880  1.00  0.00    -0.237 OA
ATOM     95  O   UNL A   1      43.003  24.964  37.251  1.00  0.00    -0.237 OA
ATOM     96  O   UNL A   1      45.358  24.242  37.161  1.00  0.00    -0.744 OA
ENDBRANCH  89  93
ENDBRANCH  63  86
ENDBRANCH  37  38
ENDBRANCH  29  32
ENDBRANCH  27  28
ENDBRANCH  26  27
ENDBRANCH   1  26
TORSDOF 18
ENDMDL
