MODEL 1
REMARK VINA RESULT:     -11.3      0.000      0.000
REMARK SMILES O=C(C[C@H]1CN(C(=O)NCc2ccc(Br)cc2)CCO1)NCCCCNC(=O)c1ccc(-c2c3nc(c(-c4cc(S(=O)(=O)[O-])ccc4F)c4ccc([nH]4)c(-c4cc(S(=O)(=O)[O-])ccc4F)c4nc(c(-c5cc(S(=O)(=O)[O-])ccc5F)c5ccc2[nH]5)C=C4)C=C3)cc1
REMARK SMILES IDX 23 1 22 2 21 3 1 4 2 5 3 7 4 8 5 9 20 10 6 11 19 12 18 13
REMARK SMILES IDX 7 14 8 15 9 16 10 18 11 19 12 20 17 21 13 22 16 23 14 24
REMARK SMILES IDX 15 25 24 26 25 27 26 28 27 29 28 31 29 32 30 33 91 34 31 35
REMARK SMILES IDX 90 36 32 37 33 38 34 39 84 40 35 41 89 42 83 43 85 44 36 45
REMARK SMILES IDX 88 46 82 47 81 48 37 50 69 51 49 52 68 53 50 54 53 55 67 56
REMARK SMILES IDX 86 57 51 58 52 59 66 61 87 62 54 63 38 64 39 65 47 66 40 67
REMARK SMILES IDX 46 68 48 69 45 70 41 71 42 72 43 73 44 74 70 75 71 76 79 77
REMARK SMILES IDX 72 78 78 79 80 80 77 81 73 82 74 83 75 84 76 85 55 86 56 87
REMARK SMILES IDX 64 88 57 89 63 90 65 91 62 92 58 93 59 94 60 95 61 96
REMARK H PARENT 21 6 9 17 26 30 85 49 53 60
REMARK Flexibility Score: inf
ROOT
ATOM      1  C   UNL A   1      31.729  28.224  26.875  1.00  0.00     0.023 C 
ENDROOT
BRANCH   1   2
ATOM      2  C   UNL A   1      31.109  26.889  26.475  1.00  0.00     0.116 C 
BRANCH   2   3
ATOM      3  N   UNL A   1      32.108  25.886  26.186  1.00  0.00    -0.356 N 
ATOM      4  O   UNL A   1      30.975  24.208  27.243  1.00  0.00    -0.275 OA
ATOM      5  C   UNL A   1      31.933  24.586  26.571  1.00  0.00     0.222 C 
ATOM      6  H   UNL A   1      32.927  26.141  25.705  1.00  0.00     0.163 HD
BRANCH   5   7
ATOM      7  C   UNL A   1      33.035  23.625  26.210  1.00  0.00     0.133 C 
BRANCH   7   8
ATOM      8  C   UNL A   1      32.922  22.153  26.621  1.00  0.00     0.147 C 
ATOM      9  C   UNL A   1      32.065  21.360  25.598  1.00  0.00     0.154 C 
ATOM     10  O   UNL A   1      34.185  21.508  26.842  1.00  0.00    -0.374 OA
ATOM     11  N   UNL A   1      32.813  21.135  24.355  1.00  0.00    -0.320 N 
ATOM     12  C   UNL A   1      34.924  21.301  25.629  1.00  0.00     0.182 C 
ATOM     13  C   UNL A   1      34.112  20.492  24.612  1.00  0.00     0.150 C 
BRANCH  11  14
ATOM     14  C   UNL A   1      32.590  21.629  23.105  1.00  0.00     0.317 C 
ATOM     15  O   UNL A   1      31.791  21.087  22.333  1.00  0.00    -0.249 OA
ATOM     16  N   UNL A   1      33.206  22.706  22.599  1.00  0.00    -0.334 N 
ATOM     17  H   UNL A   1      33.133  22.730  21.618  1.00  0.00     0.165 HD
BRANCH  16  18
ATOM     18  C   UNL A   1      33.950  23.847  23.097  1.00  0.00     0.153 C 
BRANCH  18  19
ATOM     19  C   UNL A   1      33.123  25.112  23.009  1.00  0.00    -0.029 A 
ATOM     20  C   UNL A   1      33.736  26.367  23.117  1.00  0.00     0.007 A 
ATOM     21  C   UNL A   1      31.738  25.075  22.805  1.00  0.00     0.007 A 
ATOM     22  C   UNL A   1      33.011  27.554  23.014  1.00  0.00     0.016 A 
ATOM     23  C   UNL A   1      31.000  26.263  22.703  1.00  0.00     0.016 A 
ATOM     24  C   UNL A   1      31.642  27.496  22.804  1.00  0.00     0.017 A 
ATOM     25  Br  UNL A   1      30.650  29.098  22.651  1.00  0.00    -0.051 Br
ENDBRANCH  18  19
ENDBRANCH  16  18
ENDBRANCH  11  14
ENDBRANCH   7   8
ENDBRANCH   5   7
ENDBRANCH   2   3
ENDBRANCH   1   2
BRANCH   1  26
ATOM     26  C   UNL A   1      33.245  28.185  27.084  1.00  0.00     0.023 C 
BRANCH  26  27
ATOM     27  C   UNL A   1      34.037  29.217  26.292  1.00  0.00     0.116 C 
BRANCH  27  28
ATOM     28  N   UNL A   1      33.738  30.582  26.693  1.00  0.00    -0.352 N 
ATOM     29  C   UNL A   1      34.356  31.369  27.637  1.00  0.00     0.251 C 
ATOM     30  H   UNL A   1      32.984  31.004  26.219  1.00  0.00     0.163 HD
ATOM     31  O   UNL A   1      33.859  32.442  27.953  1.00  0.00    -0.269 OA
BRANCH  29  32
ATOM     32  C   UNL A   1      35.598  30.896  28.288  1.00  0.00     0.039 A 
ATOM     33  C   UNL A   1      35.509  29.897  29.259  1.00  0.00     0.014 A 
ATOM     34  C   UNL A   1      36.844  31.423  27.936  1.00  0.00     0.014 A 
ATOM     35  C   UNL A   1      36.675  29.379  29.827  1.00  0.00     0.010 A 
ATOM     36  C   UNL A   1      38.007  30.852  28.446  1.00  0.00     0.010 A 
ATOM     37  C   UNL A   1      37.937  29.822  29.397  1.00  0.00    -0.014 A 
BRANCH  37  38
ATOM     38  C   UNL A   1      39.188  29.217  29.926  1.00  0.00     0.031 A 
ATOM     39  C   UNL A   1      39.852  29.797  31.147  1.00  0.00     0.074 A 
ATOM     40  C   UNL A   1      39.756  28.181  29.278  1.00  0.00     0.049 A 
ATOM     41  N   UNL A   1      40.976  29.452  31.721  1.00  0.00    -0.248 NA
ATOM     42  C   UNL A   1      39.175  30.933  31.789  1.00  0.00     0.031 C 
ATOM     43  C   UNL A   1      39.226  27.551  28.067  1.00  0.00     0.029 A 
ATOM     44  N   UNL A   1      40.904  27.474  29.540  1.00  0.00    -0.354 N 
ATOM     45  C   UNL A   1      41.148  30.334  32.782  1.00  0.00     0.074 A 
ATOM     46  C   UNL A   1      40.043  31.268  32.731  1.00  0.00     0.031 C 
ATOM     47  C   UNL A   1      40.027  26.534  27.711  1.00  0.00     0.029 A 
ATOM     48  C   UNL A   1      41.157  26.471  28.633  1.00  0.00     0.049 A 
ATOM     49  H   UNL A   1      41.491  27.668  30.306  1.00  0.00     0.167 HD
ATOM     50  C   UNL A   1      42.124  30.350  33.724  1.00  0.00     0.034 A 
ATOM     51  C   UNL A   1      42.188  25.607  28.544  1.00  0.00     0.034 A 
ATOM     52  C   UNL A   1      43.214  29.405  33.765  1.00  0.00     0.049 A 
ATOM     53  C   UNL A   1      43.284  25.672  29.579  1.00  0.00     0.074 A 
ATOM     54  C   UNL A   1      44.223  29.295  34.706  1.00  0.00     0.029 A 
ATOM     55  N   UNL A   1      43.448  28.415  32.819  1.00  0.00    -0.354 N 
ATOM     56  N   UNL A   1      43.405  26.480  30.607  1.00  0.00    -0.248 NA
ATOM     57  C   UNL A   1      44.380  24.702  29.445  1.00  0.00     0.031 C 
ATOM     58  C   UNL A   1      45.110  28.298  34.286  1.00  0.00     0.029 A 
ATOM     59  C   UNL A   1      44.607  27.719  33.132  1.00  0.00     0.049 A 
ATOM     60  H   UNL A   1      42.875  28.232  32.039  1.00  0.00     0.167 HD
ATOM     61  C   UNL A   1      44.570  26.089  31.262  1.00  0.00     0.074 A 
ATOM     62  C   UNL A   1      45.106  24.967  30.520  1.00  0.00     0.031 C 
ATOM     63  C   UNL A   1      45.141  26.608  32.379  1.00  0.00     0.034 A 
BRANCH  50  64
ATOM     64  C   UNL A   1      42.072  31.444  34.765  1.00  0.00     0.023 A 
ATOM     65  C   UNL A   1      41.118  31.441  35.799  1.00  0.00     0.031 A 
ATOM     66  C   UNL A   1      42.976  32.520  34.713  1.00  0.00     0.131 A 
ATOM     67  C   UNL A   1      41.041  32.526  36.685  1.00  0.00     0.055 A 
ATOM     68  C   UNL A   1      42.951  33.554  35.652  1.00  0.00     0.041 A 
ATOM     69  F   UNL A   1      43.896  32.594  33.737  1.00  0.00    -0.206 F 
ATOM     70  C   UNL A   1      41.967  33.568  36.637  1.00  0.00     0.022 A 
BRANCH  67  71
ATOM     71  S   UNL A   1      39.613  32.632  37.800  1.00  0.00     0.124 S 
ATOM     72  O   UNL A   1      40.227  32.336  39.093  1.00  0.00    -0.237 OA
ATOM     73  O   UNL A   1      39.163  34.005  37.606  1.00  0.00    -0.237 OA
ATOM     74  O   UNL A   1      38.709  31.600  37.298  1.00  0.00    -0.744 OA
ENDBRANCH  67  71
ENDBRANCH  50  64
BRANCH  51  75
ATOM     75  C   UNL A   1      42.248  24.610  27.434  1.00  0.00     0.023 A 
ATOM     76  C   UNL A   1      41.507  23.420  27.491  1.00  0.00     0.031 A 
ATOM     77  C   UNL A   1      43.087  24.811  26.323  1.00  0.00     0.131 A 
ATOM     78  C   UNL A   1      41.656  22.452  26.485  1.00  0.00     0.055 A 
ATOM     79  C   UNL A   1      43.186  23.872  25.294  1.00  0.00     0.041 A 
ATOM     80  F   UNL A   1      43.819  25.930  26.217  1.00  0.00    -0.206 F 
ATOM     81  C   UNL A   1      42.478  22.678  25.379  1.00  0.00     0.022 A 
BRANCH  78  82
ATOM     82  S   UNL A   1      40.833  20.850  26.693  1.00  0.00     0.124 S 
ATOM     83  O   UNL A   1      39.534  21.103  26.081  1.00  0.00    -0.237 OA
ATOM     84  O   UNL A   1      41.724  19.955  25.962  1.00  0.00    -0.237 OA
ATOM     85  O   UNL A   1      40.815  20.663  28.143  1.00  0.00    -0.744 OA
ENDBRANCH  78  82
ENDBRANCH  51  75
BRANCH  63  86
ATOM     86  C   UNL A   1      46.389  25.929  32.894  1.00  0.00     0.023 A 
ATOM     87  C   UNL A   1      46.332  24.865  33.811  1.00  0.00     0.031 A 
ATOM     88  C   UNL A   1      47.657  26.360  32.464  1.00  0.00     0.131 A 
ATOM     89  C   UNL A   1      47.519  24.310  34.314  1.00  0.00     0.055 A 
ATOM     90  C   UNL A   1      48.832  25.759  32.914  1.00  0.00     0.041 A 
ATOM     91  F   UNL A   1      47.773  27.375  31.592  1.00  0.00    -0.206 F 
ATOM     92  C   UNL A   1      48.768  24.737  33.855  1.00  0.00     0.022 A 
BRANCH  89  93
ATOM     93  S   UNL A   1      47.413  23.090  35.652  1.00  0.00     0.124 S 
ATOM     94  O   UNL A   1      46.175  22.389  35.326  1.00  0.00    -0.237 OA
ATOM     95  O   UNL A   1      48.643  22.325  35.475  1.00  0.00    -0.237 OA
ATOM     96  O   UNL A   1      47.361  23.909  36.861  1.00  0.00    -0.744 OA
ENDBRANCH  89  93
ENDBRANCH  63  86
ENDBRANCH  37  38
ENDBRANCH  29  32
ENDBRANCH  27  28
ENDBRANCH  26  27
ENDBRANCH   1  26
TORSDOF 18
ENDMDL
MODEL 2
REMARK VINA RESULT:     -11.2      2.519      3.760
REMARK SMILES O=C(C[C@H]1CN(C(=O)NCc2ccc(Br)cc2)CCO1)NCCCCNC(=O)c1ccc(-c2c3nc(c(-c4cc(S(=O)(=O)[O-])ccc4F)c4ccc([nH]4)c(-c4cc(S(=O)(=O)[O-])ccc4F)c4nc(c(-c5cc(S(=O)(=O)[O-])ccc5F)c5ccc2[nH]5)C=C4)C=C3)cc1
REMARK SMILES IDX 23 1 22 2 21 3 1 4 2 5 3 7 4 8 5 9 20 10 6 11 19 12 18 13
REMARK SMILES IDX 7 14 8 15 9 16 10 18 11 19 12 20 17 21 13 22 16 23 14 24
REMARK SMILES IDX 15 25 24 26 25 27 26 28 27 29 28 31 29 32 30 33 91 34 31 35
REMARK SMILES IDX 90 36 32 37 33 38 34 39 84 40 35 41 89 42 83 43 85 44 36 45
REMARK SMILES IDX 88 46 82 47 81 48 37 50 69 51 49 52 68 53 50 54 53 55 67 56
REMARK SMILES IDX 86 57 51 58 52 59 66 61 87 62 54 63 38 64 39 65 47 66 40 67
REMARK SMILES IDX 46 68 48 69 45 70 41 71 42 72 43 73 44 74 70 75 71 76 79 77
REMARK SMILES IDX 72 78 78 79 80 80 77 81 73 82 74 83 75 84 76 85 55 86 56 87
REMARK SMILES IDX 64 88 57 89 63 90 65 91 62 92 58 93 59 94 60 95 61 96
REMARK H PARENT 21 6 9 17 26 30 85 49 53 60
REMARK Flexibility Score: inf
ROOT
ATOM      1  C   UNL A   1      31.196  29.288  24.315  1.00  0.00     0.023 C 
ENDROOT
BRANCH   1   2
ATOM      2  C   UNL A   1      31.337  28.265  23.192  1.00  0.00     0.116 C 
BRANCH   2   3
ATOM      3  N   UNL A   1      32.463  27.382  23.394  1.00  0.00    -0.356 N 
ATOM      4  O   UNL A   1      31.207  25.477  23.286  1.00  0.00    -0.275 OA
ATOM      5  C   UNL A   1      32.304  26.024  23.384  1.00  0.00     0.222 C 
ATOM      6  H   UNL A   1      33.358  27.763  23.540  1.00  0.00     0.163 HD
BRANCH   5   7
ATOM      7  C   UNL A   1      33.547  25.201  23.596  1.00  0.00     0.133 C 
BRANCH   7   8
ATOM      8  C   UNL A   1      34.387  25.409  24.861  1.00  0.00     0.147 C 
ATOM      9  C   UNL A   1      33.487  25.401  26.126  1.00  0.00     0.154 C 
ATOM     10  O   UNL A   1      35.476  24.483  24.999  1.00  0.00    -0.374 OA
ATOM     11  N   UNL A   1      33.038  24.039  26.438  1.00  0.00    -0.320 N 
ATOM     12  C   UNL A   1      35.037  23.147  25.290  1.00  0.00     0.182 C 
ATOM     13  C   UNL A   1      34.172  23.107  26.554  1.00  0.00     0.150 C 
BRANCH  11  14
ATOM     14  C   UNL A   1      31.786  23.506  26.395  1.00  0.00     0.317 C 
ATOM     15  O   UNL A   1      30.937  23.786  27.251  1.00  0.00    -0.249 OA
ATOM     16  N   UNL A   1      31.365  22.641  25.462  1.00  0.00    -0.334 N 
ATOM     17  H   UNL A   1      30.558  22.162  25.758  1.00  0.00     0.165 HD
BRANCH  16  18
ATOM     18  C   UNL A   1      31.771  22.214  24.137  1.00  0.00     0.153 C 
BRANCH  18  19
ATOM     19  C   UNL A   1      32.174  20.756  24.138  1.00  0.00    -0.029 A 
ATOM     20  C   UNL A   1      32.552  20.127  25.332  1.00  0.00     0.007 A 
ATOM     21  C   UNL A   1      32.173  19.989  22.966  1.00  0.00     0.007 A 
ATOM     22  C   UNL A   1      32.905  18.778  25.377  1.00  0.00     0.016 A 
ATOM     23  C   UNL A   1      32.528  18.633  23.000  1.00  0.00     0.016 A 
ATOM     24  C   UNL A   1      32.889  18.034  24.206  1.00  0.00     0.017 A 
ATOM     25  Br  UNL A   1      33.353  16.203  24.256  1.00  0.00    -0.051 Br
ENDBRANCH  18  19
ENDBRANCH  16  18
ENDBRANCH  11  14
ENDBRANCH   7   8
ENDBRANCH   5   7
ENDBRANCH   2   3
ENDBRANCH   1   2
BRANCH   1  26
ATOM     26  C   UNL A   1      32.460  29.491  25.153  1.00  0.00     0.023 C 
BRANCH  26  27
ATOM     27  C   UNL A   1      32.224  29.970  26.580  1.00  0.00     0.116 C 
BRANCH  27  28
ATOM     28  N   UNL A   1      32.223  31.419  26.693  1.00  0.00    -0.352 N 
ATOM     29  C   UNL A   1      33.104  32.242  27.354  1.00  0.00     0.251 C 
ATOM     30  H   UNL A   1      31.484  31.877  26.229  1.00  0.00     0.163 HD
ATOM     31  O   UNL A   1      32.849  33.432  27.475  1.00  0.00    -0.269 OA
BRANCH  29  32
ATOM     32  C   UNL A   1      34.338  31.675  27.944  1.00  0.00     0.039 A 
ATOM     33  C   UNL A   1      35.442  32.510  28.124  1.00  0.00     0.014 A 
ATOM     34  C   UNL A   1      34.404  30.333  28.329  1.00  0.00     0.014 A 
ATOM     35  C   UNL A   1      36.588  32.017  28.753  1.00  0.00     0.010 A 
ATOM     36  C   UNL A   1      35.516  29.865  29.025  1.00  0.00     0.010 A 
ATOM     37  C   UNL A   1      36.621  30.702  29.247  1.00  0.00    -0.014 A 
BRANCH  37  38
ATOM     38  C   UNL A   1      37.798  30.191  29.997  1.00  0.00     0.031 A 
ATOM     39  C   UNL A   1      38.062  30.661  31.403  1.00  0.00     0.074 A 
ATOM     40  C   UNL A   1      38.660  29.348  29.395  1.00  0.00     0.049 A 
ATOM     41  N   UNL A   1      39.067  30.383  32.195  1.00  0.00    -0.248 NA
ATOM     42  C   UNL A   1      37.081  31.590  31.983  1.00  0.00     0.031 C 
ATOM     43  C   UNL A   1      38.530  28.845  28.026  1.00  0.00     0.029 A 
ATOM     44  N   UNL A   1      39.817  28.764  29.851  1.00  0.00    -0.354 N 
ATOM     45  C   UNL A   1      38.846  31.109  33.359  1.00  0.00     0.074 A 
ATOM     46  C   UNL A   1      37.646  31.889  33.143  1.00  0.00     0.031 C 
ATOM     47  C   UNL A   1      39.546  28.006  27.766  1.00  0.00     0.029 A 
ATOM     48  C   UNL A   1      40.430  27.951  28.926  1.00  0.00     0.049 A 
ATOM     49  H   UNL A   1      40.174  28.915  30.756  1.00  0.00     0.167 HD
ATOM     50  C   UNL A   1      39.565  31.109  34.510  1.00  0.00     0.034 A 
ATOM     51  C   UNL A   1      41.580  27.251  28.997  1.00  0.00     0.034 A 
ATOM     52  C   UNL A   1      40.755  30.319  34.711  1.00  0.00     0.049 A 
ATOM     53  C   UNL A   1      42.385  27.301  30.272  1.00  0.00     0.074 A 
ATOM     54  C   UNL A   1      41.527  30.199  35.854  1.00  0.00     0.029 A 
ATOM     55  N   UNL A   1      41.356  29.521  33.745  1.00  0.00    -0.354 N 
ATOM     56  N   UNL A   1      42.135  27.954  31.384  1.00  0.00    -0.248 NA
ATOM     57  C   UNL A   1      43.625  26.513  30.304  1.00  0.00     0.031 C 
ATOM     58  C   UNL A   1      42.635  29.401  35.556  1.00  0.00     0.029 A 
ATOM     59  C   UNL A   1      42.511  28.942  34.254  1.00  0.00     0.049 A 
ATOM     60  H   UNL A   1      41.015  29.386  32.832  1.00  0.00     0.167 HD
ATOM     61  C   UNL A   1      43.167  27.623  32.259  1.00  0.00     0.074 A 
ATOM     62  C   UNL A   1      44.033  26.704  31.549  1.00  0.00     0.031 C 
ATOM     63  C   UNL A   1      43.376  28.037  33.535  1.00  0.00     0.034 A 
BRANCH  50  64
ATOM     64  C   UNL A   1      39.100  32.018  35.625  1.00  0.00     0.023 A 
ATOM     65  C   UNL A   1      39.540  33.349  35.729  1.00  0.00     0.031 A 
ATOM     66  C   UNL A   1      38.219  31.541  36.612  1.00  0.00     0.131 A 
ATOM     67  C   UNL A   1      39.163  34.128  36.833  1.00  0.00     0.055 A 
ATOM     68  C   UNL A   1      37.777  32.349  37.661  1.00  0.00     0.041 A 
ATOM     69  F   UNL A   1      37.781  30.272  36.582  1.00  0.00    -0.206 F 
ATOM     70  C   UNL A   1      38.263  33.648  37.785  1.00  0.00     0.022 A 
BRANCH  67  71
ATOM     71  S   UNL A   1      39.991  35.722  37.090  1.00  0.00     0.124 S 
ATOM     72  O   UNL A   1      41.387  35.311  37.222  1.00  0.00    -0.237 OA
ATOM     73  O   UNL A   1      39.652  36.453  35.874  1.00  0.00    -0.237 OA
ATOM     74  O   UNL A   1      39.381  36.232  38.317  1.00  0.00    -0.744 OA
ENDBRANCH  67  71
ENDBRANCH  50  64
BRANCH  51  75
ATOM     75  C   UNL A   1      42.053  26.450  27.830  1.00  0.00     0.023 A 
ATOM     76  C   UNL A   1      41.646  25.118  27.654  1.00  0.00     0.031 A 
ATOM     77  C   UNL A   1      42.961  26.988  26.899  1.00  0.00     0.131 A 
ATOM     78  C   UNL A   1      42.181  24.353  26.607  1.00  0.00     0.055 A 
ATOM     79  C   UNL A   1      43.444  26.242  25.823  1.00  0.00     0.041 A 
ATOM     80  F   UNL A   1      43.385  28.256  27.019  1.00  0.00    -0.206 F 
ATOM     81  C   UNL A   1      43.065  24.911  25.681  1.00  0.00     0.022 A 
BRANCH  78  82
ATOM     82  S   UNL A   1      41.780  22.586  26.529  1.00  0.00     0.124 S 
ATOM     83  O   UNL A   1      42.308  22.108  27.802  1.00  0.00    -0.237 OA
ATOM     84  O   UNL A   1      40.327  22.610  26.405  1.00  0.00    -0.237 OA
ATOM     85  O   UNL A   1      42.499  22.127  25.342  1.00  0.00    -0.744 OA
ENDBRANCH  78  82
ENDBRANCH  51  75
BRANCH  63  86
ATOM     86  C   UNL A   1      44.566  27.455  34.262  1.00  0.00     0.023 A 
ATOM     87  C   UNL A   1      44.456  26.312  35.073  1.00  0.00     0.031 A 
ATOM     88  C   UNL A   1      45.830  28.061  34.146  1.00  0.00     0.131 A 
ATOM     89  C   UNL A   1      45.574  25.847  35.783  1.00  0.00     0.055 A 
ATOM     90  C   UNL A   1      46.954  27.555  34.799  1.00  0.00     0.041 A 
ATOM     91  F   UNL A   1      45.994  29.158  33.389  1.00  0.00    -0.206 F 
ATOM     92  C   UNL A   1      46.827  26.450  35.635  1.00  0.00     0.022 A 
BRANCH  89  93
ATOM     93  S   UNL A   1      45.350  24.506  36.984  1.00  0.00     0.124 S 
ATOM     94  O   UNL A   1      46.606  24.550  37.725  1.00  0.00    -0.237 OA
ATOM     95  O   UNL A   1      44.163  24.938  37.715  1.00  0.00    -0.237 OA
ATOM     96  O   UNL A   1      45.165  23.323  36.146  1.00  0.00    -0.744 OA
ENDBRANCH  89  93
ENDBRANCH  63  86
ENDBRANCH  37  38
ENDBRANCH  29  32
ENDBRANCH  27  28
ENDBRANCH  26  27
ENDBRANCH   1  26
TORSDOF 18
ENDMDL
MODEL 3
REMARK VINA RESULT:     -11.1      4.893      9.738
REMARK SMILES O=C(C[C@H]1CN(C(=O)NCc2ccc(Br)cc2)CCO1)NCCCCNC(=O)c1ccc(-c2c3nc(c(-c4cc(S(=O)(=O)[O-])ccc4F)c4ccc([nH]4)c(-c4cc(S(=O)(=O)[O-])ccc4F)c4nc(c(-c5cc(S(=O)(=O)[O-])ccc5F)c5ccc2[nH]5)C=C4)C=C3)cc1
REMARK SMILES IDX 23 1 22 2 21 3 1 4 2 5 3 7 4 8 5 9 20 10 6 11 19 12 18 13
REMARK SMILES IDX 7 14 8 15 9 16 10 18 11 19 12 20 17 21 13 22 16 23 14 24
REMARK SMILES IDX 15 25 24 26 25 27 26 28 27 29 28 31 29 32 30 33 91 34 31 35
REMARK SMILES IDX 90 36 32 37 33 38 34 39 84 40 35 41 89 42 83 43 85 44 36 45
REMARK SMILES IDX 88 46 82 47 81 48 37 50 69 51 49 52 68 53 50 54 53 55 67 56
REMARK SMILES IDX 86 57 51 58 52 59 66 61 87 62 54 63 38 64 39 65 47 66 40 67
REMARK SMILES IDX 46 68 48 69 45 70 41 71 42 72 43 73 44 74 70 75 71 76 79 77
REMARK SMILES IDX 72 78 78 79 80 80 77 81 73 82 74 83 75 84 76 85 55 86 56 87
REMARK SMILES IDX 64 88 57 89 63 90 65 91 62 92 58 93 59 94 60 95 61 96
REMARK H PARENT 21 6 9 17 26 30 85 49 53 60
REMARK Flexibility Score: inf
ROOT
ATOM      1  C   UNL A   1      35.759  23.303  23.826  1.00  0.00     0.023 C 
ENDROOT
BRANCH   1   2
ATOM      2  C   UNL A   1      34.464  23.266  23.020  1.00  0.00     0.116 C 
BRANCH   2   3
ATOM      3  N   UNL A   1      33.840  24.567  22.927  1.00  0.00    -0.356 N 
ATOM      4  O   UNL A   1      33.282  24.331  20.726  1.00  0.00    -0.275 OA
ATOM      5  C   UNL A   1      33.250  24.984  21.767  1.00  0.00     0.222 C 
ATOM      6  H   UNL A   1      33.839  25.161  23.711  1.00  0.00     0.163 HD
BRANCH   5   7
ATOM      7  C   UNL A   1      32.624  26.354  21.787  1.00  0.00     0.133 C 
BRANCH   7   8
ATOM      8  C   UNL A   1      31.132  26.500  22.101  1.00  0.00     0.147 C 
ATOM      9  C   UNL A   1      30.799  25.889  23.490  1.00  0.00     0.154 C 
ATOM     10  O   UNL A   1      30.642  27.846  22.003  1.00  0.00    -0.374 OA
ATOM     11  N   UNL A   1      31.289  26.753  24.571  1.00  0.00    -0.320 N 
ATOM     12  C   UNL A   1      31.132  28.696  23.051  1.00  0.00     0.182 C 
ATOM     13  C   UNL A   1      30.789  28.130  24.433  1.00  0.00     0.150 C 
BRANCH  11  14
ATOM     14  C   UNL A   1      32.275  26.527  25.483  1.00  0.00     0.317 C 
ATOM     15  O   UNL A   1      33.185  27.346  25.662  1.00  0.00    -0.249 OA
ATOM     16  N   UNL A   1      32.364  25.427  26.242  1.00  0.00    -0.334 N 
ATOM     17  H   UNL A   1      33.270  25.320  26.612  1.00  0.00     0.165 HD
BRANCH  16  18
ATOM     18  C   UNL A   1      31.494  24.348  26.670  1.00  0.00     0.153 C 
BRANCH  18  19
ATOM     19  C   UNL A   1      32.033  23.008  26.220  1.00  0.00    -0.029 A 
ATOM     20  C   UNL A   1      31.570  22.421  25.035  1.00  0.00     0.007 A 
ATOM     21  C   UNL A   1      33.009  22.321  26.953  1.00  0.00     0.007 A 
ATOM     22  C   UNL A   1      32.062  21.200  24.574  1.00  0.00     0.016 A 
ATOM     23  C   UNL A   1      33.508  21.092  26.500  1.00  0.00     0.016 A 
ATOM     24  C   UNL A   1      33.034  20.539  25.310  1.00  0.00     0.017 A 
ATOM     25  Br  UNL A   1      33.717  18.890  24.690  1.00  0.00    -0.051 Br
ENDBRANCH  18  19
ENDBRANCH  16  18
ENDBRANCH  11  14
ENDBRANCH   7   8
ENDBRANCH   5   7
ENDBRANCH   2   3
ENDBRANCH   1   2
BRANCH   1  26
ATOM     26  C   UNL A   1      36.313  21.927  24.202  1.00  0.00     0.023 C 
BRANCH  26  27
ATOM     27  C   UNL A   1      36.801  21.794  25.640  1.00  0.00     0.116 C 
BRANCH  27  28
ATOM     28  N   UNL A   1      37.839  20.788  25.790  1.00  0.00    -0.352 N 
ATOM     29  C   UNL A   1      39.163  20.946  26.126  1.00  0.00     0.251 C 
ATOM     30  H   UNL A   1      37.552  19.860  25.627  1.00  0.00     0.163 HD
ATOM     31  O   UNL A   1      39.928  19.994  26.044  1.00  0.00    -0.269 OA
BRANCH  29  32
ATOM     32  C   UNL A   1      39.660  22.274  26.551  1.00  0.00     0.039 A 
ATOM     33  C   UNL A   1      40.698  22.335  27.484  1.00  0.00     0.014 A 
ATOM     34  C   UNL A   1      39.118  23.450  26.026  1.00  0.00     0.014 A 
ATOM     35  C   UNL A   1      41.237  23.574  27.837  1.00  0.00     0.010 A 
ATOM     36  C   UNL A   1      39.708  24.677  26.321  1.00  0.00     0.010 A 
ATOM     37  C   UNL A   1      40.776  24.754  27.229  1.00  0.00    -0.014 A 
BRANCH  37  38
ATOM     38  C   UNL A   1      41.400  26.070  27.528  1.00  0.00     0.031 A 
ATOM     39  C   UNL A   1      42.812  26.355  27.090  1.00  0.00     0.074 A 
ATOM     40  C   UNL A   1      40.717  26.987  28.242  1.00  0.00     0.049 A 
ATOM     41  N   UNL A   1      43.551  27.413  27.311  1.00  0.00    -0.248 NA
ATOM     42  C   UNL A   1      43.492  25.298  26.326  1.00  0.00     0.031 C 
ATOM     43  C   UNL A   1      39.354  26.816  28.750  1.00  0.00     0.029 A 
ATOM     44  N   UNL A   1      41.071  28.243  28.667  1.00  0.00    -0.354 N 
ATOM     45  C   UNL A   1      44.783  27.145  26.727  1.00  0.00     0.074 A 
ATOM     46  C   UNL A   1      44.711  25.800  26.197  1.00  0.00     0.031 C 
ATOM     47  C   UNL A   1      38.979  27.936  29.389  1.00  0.00     0.029 A 
ATOM     48  C   UNL A   1      40.088  28.884  29.386  1.00  0.00     0.049 A 
ATOM     49  H   UNL A   1      41.949  28.648  28.477  1.00  0.00     0.167 HD
ATOM     50  C   UNL A   1      45.867  27.955  26.622  1.00  0.00     0.034 A 
ATOM     51  C   UNL A   1      40.083  30.091  29.985  1.00  0.00     0.034 A 
ATOM     52  C   UNL A   1      45.919  29.297  27.149  1.00  0.00     0.049 A 
ATOM     53  C   UNL A   1      41.316  30.956  29.891  1.00  0.00     0.074 A 
ATOM     54  C   UNL A   1      46.944  30.222  27.048  1.00  0.00     0.029 A 
ATOM     55  N   UNL A   1      44.910  29.905  27.885  1.00  0.00    -0.354 N 
ATOM     56  N   UNL A   1      42.457  30.708  29.290  1.00  0.00    -0.248 NA
ATOM     57  C   UNL A   1      41.257  32.267  30.552  1.00  0.00     0.031 C 
ATOM     58  C   UNL A   1      46.591  31.352  27.792  1.00  0.00     0.029 A 
ATOM     59  C   UNL A   1      45.307  31.175  28.281  1.00  0.00     0.049 A 
ATOM     60  H   UNL A   1      44.041  29.495  28.097  1.00  0.00     0.167 HD
ATOM     61  C   UNL A   1      43.236  31.849  29.468  1.00  0.00     0.074 A 
ATOM     62  C   UNL A   1      42.429  32.787  30.222  1.00  0.00     0.031 C 
ATOM     63  C   UNL A   1      44.500  32.100  29.043  1.00  0.00     0.034 A 
BRANCH  50  64
ATOM     64  C   UNL A   1      47.094  27.394  25.940  1.00  0.00     0.023 A 
ATOM     65  C   UNL A   1      48.090  26.704  26.655  1.00  0.00     0.031 A 
ATOM     66  C   UNL A   1      47.284  27.569  24.558  1.00  0.00     0.131 A 
ATOM     67  C   UNL A   1      49.260  26.287  26.003  1.00  0.00     0.055 A 
ATOM     68  C   UNL A   1      48.410  27.073  23.898  1.00  0.00     0.041 A 
ATOM     69  F   UNL A   1      46.382  28.239  23.823  1.00  0.00    -0.206 F 
ATOM     70  C   UNL A   1      49.415  26.441  24.625  1.00  0.00     0.022 A 
BRANCH  67  71
ATOM     71  S   UNL A   1      50.643  25.682  27.010  1.00  0.00     0.124 S 
ATOM     72  O   UNL A   1      50.083  24.455  27.573  1.00  0.00    -0.237 OA
ATOM     73  O   UNL A   1      51.700  25.507  26.021  1.00  0.00    -0.237 OA
ATOM     74  O   UNL A   1      50.861  26.758  27.975  1.00  0.00    -0.744 OA
ENDBRANCH  67  71
ENDBRANCH  50  64
BRANCH  51  75
ATOM     75  C   UNL A   1      38.882  30.559  30.737  1.00  0.00     0.023 A 
ATOM     76  C   UNL A   1      37.819  31.198  30.078  1.00  0.00     0.031 A 
ATOM     77  C   UNL A   1      38.800  30.420  32.135  1.00  0.00     0.131 A 
ATOM     78  C   UNL A   1      36.747  31.718  30.818  1.00  0.00     0.055 A 
ATOM     79  C   UNL A   1      37.702  30.885  32.860  1.00  0.00     0.041 A 
ATOM     80  F   UNL A   1      39.787  29.818  32.817  1.00  0.00    -0.206 F 
ATOM     81  C   UNL A   1      36.673  31.552  32.203  1.00  0.00     0.022 A 
BRANCH  78  82
ATOM     82  S   UNL A   1      35.494  32.705  29.955  1.00  0.00     0.124 S 
ATOM     83  O   UNL A   1      35.270  31.910  28.752  1.00  0.00    -0.237 OA
ATOM     84  O   UNL A   1      34.403  32.724  30.923  1.00  0.00    -0.237 OA
ATOM     85  O   UNL A   1      36.160  33.988  29.741  1.00  0.00    -0.744 OA
ENDBRANCH  78  82
ENDBRANCH  51  75
BRANCH  63  86
ATOM     86  C   UNL A   1      45.069  33.467  29.342  1.00  0.00     0.023 A 
ATOM     87  C   UNL A   1      44.942  34.539  28.441  1.00  0.00     0.031 A 
ATOM     88  C   UNL A   1      45.758  33.697  30.546  1.00  0.00     0.131 A 
ATOM     89  C   UNL A   1      45.546  35.772  28.730  1.00  0.00     0.055 A 
ATOM     90  C   UNL A   1      46.297  34.945  30.861  1.00  0.00     0.041 A 
ATOM     91  F   UNL A   1      45.915  32.710  31.443  1.00  0.00    -0.206 F 
ATOM     92  C   UNL A   1      46.205  35.988  29.944  1.00  0.00     0.022 A 
BRANCH  89  93
ATOM     93  S   UNL A   1      45.547  37.064  27.456  1.00  0.00     0.124 S 
ATOM     94  O   UNL A   1      46.267  36.412  26.367  1.00  0.00    -0.237 OA
ATOM     95  O   UNL A   1      44.121  37.285  27.236  1.00  0.00    -0.237 OA
ATOM     96  O   UNL A   1      46.255  38.173  28.092  1.00  0.00    -0.744 OA
ENDBRANCH  89  93
ENDBRANCH  63  86
ENDBRANCH  37  38
ENDBRANCH  29  32
ENDBRANCH  27  28
ENDBRANCH  26  27
ENDBRANCH   1  26
TORSDOF 18
ENDMDL
