MODEL 1
REMARK VINA RESULT:     -12.5      0.000      0.000
REMARK SMILES O=C(Cc1ccccc1)Nc1cc(Cl)ccc1C(=O)NCCCCNC(=O)c1ccc(-c2c3nc(c(-c4cc(S(=O)(=O)[O-])ccc4F)c4ccc([nH]4)c(-c4cc(S(=O)(=O)[O-])ccc4F)c4nc(c(-c5cc(S(=O)(=O)[O-])ccc5F)c5ccc2[nH]5)C=C4)C=C3)cc1
REMARK SMILES IDX 22 1 21 2 20 3 18 4 19 5 17 7 11 8 12 9 13 10 16 11 14 12
REMARK SMILES IDX 15 13 10 14 1 15 2 16 3 18 4 19 5 20 9 21 6 22 8 23 7 24
REMARK SMILES IDX 23 25 24 26 25 27 26 28 27 30 28 31 29 32 90 33 30 34 89 35
REMARK SMILES IDX 31 36 32 37 33 38 83 39 34 40 88 41 82 42 84 43 35 44 87 45
REMARK SMILES IDX 81 46 80 47 36 49 68 50 48 51 67 52 49 53 52 54 66 55 85 56
REMARK SMILES IDX 50 57 51 58 65 60 86 61 53 62 37 63 38 64 46 65 39 66 45 67
REMARK SMILES IDX 47 68 44 69 40 70 41 71 42 72 43 73 69 74 70 75 78 76 71 77
REMARK SMILES IDX 77 78 79 79 76 80 72 81 73 82 74 83 75 84 54 85 55 86 63 87
REMARK SMILES IDX 56 88 62 89 64 90 61 91 57 92 58 93 59 94 60 95
REMARK H PARENT 20 6 10 17 25 29 84 48 52 59
REMARK Flexibility Score: inf
ROOT
ATOM      1  C   UNL A   1      31.594  27.604  25.914  1.00  0.00     0.023 C 
ENDROOT
BRANCH   1   2
ATOM      2  C   UNL A   1      32.218  26.349  26.511  1.00  0.00     0.116 C 
BRANCH   2   3
ATOM      3  N   UNL A   1      31.291  25.302  26.877  1.00  0.00    -0.352 N 
ATOM      4  C   UNL A   1      31.472  23.932  26.893  1.00  0.00     0.253 C 
ATOM      5  O   UNL A   1      30.522  23.225  27.231  1.00  0.00    -0.269 OA
ATOM      6  H   UNL A   1      30.398  25.609  27.156  1.00  0.00     0.163 HD
BRANCH   4   7
ATOM      7  C   UNL A   1      32.704  23.277  26.352  1.00  0.00     0.063 A 
ATOM      8  C   UNL A   1      33.023  23.045  24.998  1.00  0.00     0.055 A 
ATOM      9  C   UNL A   1      34.086  22.179  24.686  1.00  0.00     0.047 A 
ATOM     10  C   UNL A   1      34.904  21.663  25.694  1.00  0.00     0.043 A 
ATOM     11  C   UNL A   1      33.562  22.767  27.351  1.00  0.00     0.017 A 
ATOM     12  Cl  UNL A   1      36.238  20.655  25.282  1.00  0.00    -0.084 Cl
ATOM     13  C   UNL A   1      34.666  21.977  27.025  1.00  0.00     0.021 A 
BRANCH   8  14
ATOM     14  N   UNL A   1      32.381  23.644  23.886  1.00  0.00    -0.325 N 
ATOM     15  O   UNL A   1      33.896  25.346  23.566  1.00  0.00    -0.274 OA
ATOM     16  C   UNL A   1      32.832  24.801  23.276  1.00  0.00     0.228 C 
ATOM     17  H   UNL A   1      31.570  23.213  23.529  1.00  0.00     0.169 HD
BRANCH  16  18
ATOM     18  C   UNL A   1      31.890  25.438  22.266  1.00  0.00     0.135 C 
BRANCH  18  19
ATOM     19  C   UNL A   1      30.751  26.307  22.746  1.00  0.00    -0.039 A 
ATOM     20  C   UNL A   1      29.651  25.824  23.464  1.00  0.00     0.004 A 
ATOM     21  C   UNL A   1      30.740  27.652  22.338  1.00  0.00     0.004 A 
ATOM     22  C   UNL A   1      28.598  26.681  23.808  1.00  0.00     0.000 A 
ATOM     23  C   UNL A   1      29.686  28.503  22.668  1.00  0.00     0.000 A 
ATOM     24  C   UNL A   1      28.616  28.017  23.410  1.00  0.00     0.000 A 
ENDBRANCH  18  19
ENDBRANCH  16  18
ENDBRANCH   8  14
ENDBRANCH   4   7
ENDBRANCH   2   3
ENDBRANCH   1   2
BRANCH   1  25
ATOM     25  C   UNL A   1      31.794  28.915  26.681  1.00  0.00     0.023 C 
BRANCH  25  26
ATOM     26  C   UNL A   1      32.468  30.081  25.954  1.00  0.00     0.116 C 
BRANCH  26  27
ATOM     27  N   UNL A   1      32.325  31.375  26.601  1.00  0.00    -0.352 N 
ATOM     28  C   UNL A   1      33.203  32.073  27.407  1.00  0.00     0.251 C 
ATOM     29  H   UNL A   1      31.465  31.825  26.439  1.00  0.00     0.163 HD
ATOM     30  O   UNL A   1      32.856  33.159  27.851  1.00  0.00    -0.269 OA
BRANCH  28  31
ATOM     31  C   UNL A   1      34.527  31.511  27.785  1.00  0.00     0.039 A 
ATOM     32  C   UNL A   1      35.586  32.408  27.970  1.00  0.00     0.014 A 
ATOM     33  C   UNL A   1      34.741  30.146  27.986  1.00  0.00     0.014 A 
ATOM     34  C   UNL A   1      36.806  31.954  28.480  1.00  0.00     0.010 A 
ATOM     35  C   UNL A   1      35.934  29.704  28.564  1.00  0.00     0.010 A 
ATOM     36  C   UNL A   1      36.964  30.610  28.853  1.00  0.00    -0.014 A 
BRANCH  36  37
ATOM     37  C   UNL A   1      38.146  30.192  29.656  1.00  0.00     0.031 A 
ATOM     38  C   UNL A   1      38.351  30.664  31.067  1.00  0.00     0.074 A 
ATOM     39  C   UNL A   1      39.081  29.420  29.065  1.00  0.00     0.049 A 
ATOM     40  N   UNL A   1      39.304  30.353  31.910  1.00  0.00    -0.248 NA
ATOM     41  C   UNL A   1      37.381  31.636  31.586  1.00  0.00     0.031 C 
ATOM     42  C   UNL A   1      39.045  28.978  27.668  1.00  0.00     0.029 A 
ATOM     43  N   UNL A   1      40.241  28.870  29.553  1.00  0.00    -0.354 N 
ATOM     44  C   UNL A   1      39.052  31.089  33.062  1.00  0.00     0.074 A 
ATOM     45  C   UNL A   1      37.891  31.910  32.779  1.00  0.00     0.031 C 
ATOM     46  C   UNL A   1      40.108  28.196  27.423  1.00  0.00     0.029 A 
ATOM     47  C   UNL A   1      40.919  28.106  28.633  1.00  0.00     0.049 A 
ATOM     48  H   UNL A   1      40.556  29.009  30.475  1.00  0.00     0.167 HD
ATOM     49  C   UNL A   1      39.714  31.067  34.248  1.00  0.00     0.034 A 
ATOM     50  C   UNL A   1      42.062  27.401  28.744  1.00  0.00     0.034 A 
ATOM     51  C   UNL A   1      40.878  30.249  34.504  1.00  0.00     0.049 A 
ATOM     52  C   UNL A   1      42.761  27.359  30.075  1.00  0.00     0.074 A 
ATOM     53  C   UNL A   1      41.585  30.096  35.685  1.00  0.00     0.029 A 
ATOM     54  N   UNL A   1      41.522  29.460  33.558  1.00  0.00    -0.354 N 
ATOM     55  N   UNL A   1      42.450  27.980  31.189  1.00  0.00    -0.248 NA
ATOM     56  C   UNL A   1      43.947  26.501  30.170  1.00  0.00     0.031 C 
ATOM     57  C   UNL A   1      42.690  29.272  35.436  1.00  0.00     0.029 A 
ATOM     58  C   UNL A   1      42.632  28.844  34.120  1.00  0.00     0.049 A 
ATOM     59  H   UNL A   1      41.232  29.352  32.623  1.00  0.00     0.167 HD
ATOM     60  C   UNL A   1      43.391  27.569  32.127  1.00  0.00     0.074 A 
ATOM     61  C   UNL A   1      44.267  26.631  31.450  1.00  0.00     0.031 C 
ATOM     62  C   UNL A   1      43.516  27.929  33.430  1.00  0.00     0.034 A 
BRANCH  49  63
ATOM     63  C   UNL A   1      39.202  31.980  35.342  1.00  0.00     0.023 A 
ATOM     64  C   UNL A   1      39.620  33.319  35.442  1.00  0.00     0.031 A 
ATOM     65  C   UNL A   1      38.320  31.496  36.324  1.00  0.00     0.131 A 
ATOM     66  C   UNL A   1      39.236  34.096  36.546  1.00  0.00     0.055 A 
ATOM     67  C   UNL A   1      37.870  32.303  37.373  1.00  0.00     0.041 A 
ATOM     68  F   UNL A   1      37.895  30.223  36.296  1.00  0.00    -0.206 F 
ATOM     69  C   UNL A   1      38.344  33.605  37.500  1.00  0.00     0.022 A 
BRANCH  66  70
ATOM     70  S   UNL A   1      40.056  35.694  36.803  1.00  0.00     0.124 S 
ATOM     71  O   UNL A   1      39.417  36.160  38.031  1.00  0.00    -0.237 OA
ATOM     72  O   UNL A   1      41.459  35.315  36.918  1.00  0.00    -0.237 OA
ATOM     73  O   UNL A   1      39.710  36.455  35.603  1.00  0.00    -0.744 OA
ENDBRANCH  66  70
ENDBRANCH  49  63
BRANCH  50  74
ATOM     74  C   UNL A   1      42.600  26.667  27.565  1.00  0.00     0.023 A 
ATOM     75  C   UNL A   1      42.302  25.312  27.352  1.00  0.00     0.031 A 
ATOM     76  C   UNL A   1      43.421  27.318  26.627  1.00  0.00     0.131 A 
ATOM     77  C   UNL A   1      42.843  24.642  26.244  1.00  0.00     0.055 A 
ATOM     78  C   UNL A   1      43.923  26.659  25.503  1.00  0.00     0.041 A 
ATOM     79  F   UNL A   1      43.723  28.617  26.776  1.00  0.00    -0.206 F 
ATOM     80  C   UNL A   1      43.642  25.310  25.312  1.00  0.00     0.022 A 
BRANCH  77  81
ATOM     81  S   UNL A   1      42.526  22.866  26.059  1.00  0.00     0.124 S 
ATOM     82  O   UNL A   1      43.315  22.307  27.152  1.00  0.00    -0.237 OA
ATOM     83  O   UNL A   1      41.077  22.798  26.212  1.00  0.00    -0.237 OA
ATOM     84  O   UNL A   1      43.022  22.570  24.716  1.00  0.00    -0.744 OA
ENDBRANCH  77  81
ENDBRANCH  50  74
BRANCH  62  85
ATOM     85  C   UNL A   1      44.629  27.273  34.215  1.00  0.00     0.023 A 
ATOM     86  C   UNL A   1      44.463  26.018  34.828  1.00  0.00     0.031 A 
ATOM     87  C   UNL A   1      45.860  27.931  34.378  1.00  0.00     0.131 A 
ATOM     88  C   UNL A   1      45.488  25.491  35.630  1.00  0.00     0.055 A 
ATOM     89  C   UNL A   1      46.899  27.372  35.125  1.00  0.00     0.041 A 
ATOM     90  F   UNL A   1      46.073  29.133  33.820  1.00  0.00    -0.206 F 
ATOM     91  C   UNL A   1      46.710  26.153  35.768  1.00  0.00     0.022 A 
BRANCH  88  92
ATOM     92  S   UNL A   1      45.161  23.981  36.581  1.00  0.00     0.124 S 
ATOM     93  O   UNL A   1      44.139  23.326  35.769  1.00  0.00    -0.237 OA
ATOM     94  O   UNL A   1      46.470  23.335  36.601  1.00  0.00    -0.237 OA
ATOM     95  O   UNL A   1      44.698  24.483  37.873  1.00  0.00    -0.744 OA
ENDBRANCH  88  92
ENDBRANCH  62  85
ENDBRANCH  36  37
ENDBRANCH  28  31
ENDBRANCH  26  27
ENDBRANCH  25  26
ENDBRANCH   1  25
TORSDOF 17
ENDMDL
MODEL 2
REMARK VINA RESULT:     -12.1      2.258      3.148
REMARK SMILES O=C(Cc1ccccc1)Nc1cc(Cl)ccc1C(=O)NCCCCNC(=O)c1ccc(-c2c3nc(c(-c4cc(S(=O)(=O)[O-])ccc4F)c4ccc([nH]4)c(-c4cc(S(=O)(=O)[O-])ccc4F)c4nc(c(-c5cc(S(=O)(=O)[O-])ccc5F)c5ccc2[nH]5)C=C4)C=C3)cc1
REMARK SMILES IDX 22 1 21 2 20 3 18 4 19 5 17 7 11 8 12 9 13 10 16 11 14 12
REMARK SMILES IDX 15 13 10 14 1 15 2 16 3 18 4 19 5 20 9 21 6 22 8 23 7 24
REMARK SMILES IDX 23 25 24 26 25 27 26 28 27 30 28 31 29 32 90 33 30 34 89 35
REMARK SMILES IDX 31 36 32 37 33 38 83 39 34 40 88 41 82 42 84 43 35 44 87 45
REMARK SMILES IDX 81 46 80 47 36 49 68 50 48 51 67 52 49 53 52 54 66 55 85 56
REMARK SMILES IDX 50 57 51 58 65 60 86 61 53 62 37 63 38 64 46 65 39 66 45 67
REMARK SMILES IDX 47 68 44 69 40 70 41 71 42 72 43 73 69 74 70 75 78 76 71 77
REMARK SMILES IDX 77 78 79 79 76 80 72 81 73 82 74 83 75 84 54 85 55 86 63 87
REMARK SMILES IDX 56 88 62 89 64 90 61 91 57 92 58 93 59 94 60 95
REMARK H PARENT 20 6 10 17 25 29 84 48 52 59
REMARK Flexibility Score: inf
ROOT
ATOM      1  C   UNL A   1      32.674  29.147  27.193  1.00  0.00     0.023 C 
ENDROOT
BRANCH   1   2
ATOM      2  C   UNL A   1      33.989  28.785  26.515  1.00  0.00     0.116 C 
BRANCH   2   3
ATOM      3  N   UNL A   1      33.922  28.589  25.084  1.00  0.00    -0.352 N 
ATOM      4  C   UNL A   1      33.554  27.467  24.366  1.00  0.00     0.253 C 
ATOM      5  O   UNL A   1      33.588  27.528  23.136  1.00  0.00    -0.269 OA
ATOM      6  H   UNL A   1      34.176  29.369  24.540  1.00  0.00     0.163 HD
BRANCH   4   7
ATOM      7  C   UNL A   1      33.292  26.146  25.017  1.00  0.00     0.063 A 
ATOM      8  C   UNL A   1      32.066  25.676  25.532  1.00  0.00     0.055 A 
ATOM      9  C   UNL A   1      32.062  24.531  26.349  1.00  0.00     0.047 A 
ATOM     10  C   UNL A   1      33.229  23.788  26.538  1.00  0.00     0.043 A 
ATOM     11  C   UNL A   1      34.452  25.362  25.200  1.00  0.00     0.017 A 
ATOM     12  Cl  UNL A   1      33.186  22.355  27.492  1.00  0.00    -0.084 Cl
ATOM     13  C   UNL A   1      34.420  24.181  25.943  1.00  0.00     0.021 A 
BRANCH   8  14
ATOM     14  N   UNL A   1      30.793  26.240  25.271  1.00  0.00    -0.325 N 
ATOM     15  O   UNL A   1      30.273  24.935  23.448  1.00  0.00    -0.274 OA
ATOM     16  C   UNL A   1      29.999  25.869  24.199  1.00  0.00     0.228 C 
ATOM     17  H   UNL A   1      30.455  26.932  25.885  1.00  0.00     0.169 HD
BRANCH  16  18
ATOM     18  C   UNL A   1      28.786  26.746  23.928  1.00  0.00     0.135 C 
BRANCH  18  19
ATOM     19  C   UNL A   1      28.943  28.018  23.127  1.00  0.00    -0.039 A 
ATOM     20  C   UNL A   1      30.173  28.506  22.671  1.00  0.00     0.004 A 
ATOM     21  C   UNL A   1      27.801  28.817  22.941  1.00  0.00     0.004 A 
ATOM     22  C   UNL A   1      30.244  29.732  21.999  1.00  0.00     0.000 A 
ATOM     23  C   UNL A   1      27.873  30.044  22.284  1.00  0.00     0.000 A 
ATOM     24  C   UNL A   1      29.095  30.499  21.807  1.00  0.00     0.000 A 
ENDBRANCH  18  19
ENDBRANCH  16  18
ENDBRANCH   8  14
ENDBRANCH   4   7
ENDBRANCH   2   3
ENDBRANCH   1   2
BRANCH   1  25
ATOM     25  C   UNL A   1      32.214  30.605  27.090  1.00  0.00     0.023 C 
BRANCH  25  26
ATOM     26  C   UNL A   1      33.265  31.706  27.242  1.00  0.00     0.116 C 
BRANCH  26  27
ATOM     27  N   UNL A   1      32.734  33.028  27.534  1.00  0.00    -0.352 N 
ATOM     28  C   UNL A   1      33.212  34.019  28.368  1.00  0.00     0.251 C 
ATOM     29  H   UNL A   1      31.900  33.251  27.061  1.00  0.00     0.163 HD
ATOM     30  O   UNL A   1      32.582  35.064  28.461  1.00  0.00    -0.269 OA
BRANCH  28  31
ATOM     31  C   UNL A   1      34.438  33.823  29.187  1.00  0.00     0.039 A 
ATOM     32  C   UNL A   1      34.301  33.168  30.417  1.00  0.00     0.014 A 
ATOM     33  C   UNL A   1      35.704  34.235  28.767  1.00  0.00     0.014 A 
ATOM     34  C   UNL A   1      35.436  32.813  31.151  1.00  0.00     0.010 A 
ATOM     35  C   UNL A   1      36.841  33.818  29.463  1.00  0.00     0.010 A 
ATOM     36  C   UNL A   1      36.720  33.068  30.642  1.00  0.00    -0.014 A 
BRANCH  36  37
ATOM     37  C   UNL A   1      37.912  32.440  31.274  1.00  0.00     0.031 A 
ATOM     38  C   UNL A   1      38.509  32.973  32.544  1.00  0.00     0.074 A 
ATOM     39  C   UNL A   1      38.499  31.401  30.642  1.00  0.00     0.049 A 
ATOM     40  N   UNL A   1      39.517  32.509  33.240  1.00  0.00    -0.248 NA
ATOM     41  C   UNL A   1      37.922  34.205  33.084  1.00  0.00     0.031 C 
ATOM     42  C   UNL A   1      38.072  30.854  29.351  1.00  0.00     0.029 A 
ATOM     43  N   UNL A   1      39.573  30.621  30.989  1.00  0.00    -0.354 N 
ATOM     44  C   UNL A   1      39.687  33.390  34.301  1.00  0.00     0.074 A 
ATOM     45  C   UNL A   1      38.717  34.451  34.115  1.00  0.00     0.031 C 
ATOM     46  C   UNL A   1      38.849  29.807  29.035  1.00  0.00     0.029 A 
ATOM     47  C   UNL A   1      39.849  29.626  30.082  1.00  0.00     0.049 A 
ATOM     48  H   UNL A   1      40.096  30.761  31.812  1.00  0.00     0.167 HD
ATOM     49  C   UNL A   1      40.557  33.311  35.342  1.00  0.00     0.034 A 
ATOM     50  C   UNL A   1      40.794  28.665  30.087  1.00  0.00     0.034 A 
ATOM     51  C   UNL A   1      41.526  32.249  35.502  1.00  0.00     0.049 A 
ATOM     52  C   UNL A   1      41.724  28.571  31.266  1.00  0.00     0.074 A 
ATOM     53  C   UNL A   1      42.407  32.033  36.548  1.00  0.00     0.029 A 
ATOM     54  N   UNL A   1      41.758  31.236  34.578  1.00  0.00    -0.354 N 
ATOM     55  N   UNL A   1      41.805  29.352  32.317  1.00  0.00    -0.248 NA
ATOM     56  C   UNL A   1      42.672  27.451  31.270  1.00  0.00     0.031 C 
ATOM     57  C   UNL A   1      43.213  30.933  36.227  1.00  0.00     0.029 A 
ATOM     58  C   UNL A   1      42.787  30.413  35.016  1.00  0.00     0.049 A 
ATOM     59  H   UNL A   1      41.264  31.119  33.734  1.00  0.00     0.167 HD
ATOM     60  C   UNL A   1      42.797  28.804  33.123  1.00  0.00     0.074 A 
ATOM     61  C   UNL A   1      43.271  27.614  32.441  1.00  0.00     0.031 C 
ATOM     62  C   UNL A   1      43.270  29.241  34.318  1.00  0.00     0.034 A 
BRANCH  49  63
ATOM     63  C   UNL A   1      40.510  34.423  36.369  1.00  0.00     0.023 A 
ATOM     64  C   UNL A   1      41.558  35.352  36.498  1.00  0.00     0.031 A 
ATOM     65  C   UNL A   1      39.427  34.530  37.259  1.00  0.00     0.131 A 
ATOM     66  C   UNL A   1      41.548  36.283  37.549  1.00  0.00     0.055 A 
ATOM     67  C   UNL A   1      39.381  35.517  38.248  1.00  0.00     0.041 A 
ATOM     68  F   UNL A   1      38.402  33.666  37.199  1.00  0.00    -0.206 F 
ATOM     69  C   UNL A   1      40.455  36.388  38.410  1.00  0.00     0.022 A 
BRANCH  66  70
ATOM     70  S   UNL A   1      43.057  37.234  37.874  1.00  0.00     0.124 S 
ATOM     71  O   UNL A   1      42.582  38.226  38.836  1.00  0.00    -0.237 OA
ATOM     72  O   UNL A   1      43.963  36.219  38.400  1.00  0.00    -0.237 OA
ATOM     73  O   UNL A   1      43.415  37.771  36.562  1.00  0.00    -0.744 OA
ENDBRANCH  66  70
ENDBRANCH  49  63
BRANCH  50  74
ATOM     74  C   UNL A   1      40.890  27.710  28.948  1.00  0.00     0.023 A 
ATOM     75  C   UNL A   1      41.844  27.881  27.933  1.00  0.00     0.031 A 
ATOM     76  C   UNL A   1      40.026  26.604  28.864  1.00  0.00     0.131 A 
ATOM     77  C   UNL A   1      41.894  26.976  26.861  1.00  0.00     0.055 A 
ATOM     78  C   UNL A   1      40.106  25.684  27.818  1.00  0.00     0.041 A 
ATOM     79  F   UNL A   1      39.106  26.388  29.818  1.00  0.00    -0.206 F 
ATOM     80  C   UNL A   1      41.039  25.872  26.803  1.00  0.00     0.022 A 
BRANCH  77  81
ATOM     81  S   UNL A   1      43.065  27.288  25.511  1.00  0.00     0.124 S 
ATOM     82  O   UNL A   1      42.276  28.129  24.619  1.00  0.00    -0.237 OA
ATOM     83  O   UNL A   1      44.165  27.946  26.210  1.00  0.00    -0.237 OA
ATOM     84  O   UNL A   1      43.365  25.949  25.006  1.00  0.00    -0.744 OA
ENDBRANCH  77  81
ENDBRANCH  50  74
BRANCH  62  85
ATOM     85  C   UNL A   1      44.337  28.398  34.978  1.00  0.00     0.023 A 
ATOM     86  C   UNL A   1      44.025  27.447  35.965  1.00  0.00     0.031 A 
ATOM     87  C   UNL A   1      45.689  28.577  34.636  1.00  0.00     0.131 A 
ATOM     88  C   UNL A   1      45.056  26.757  36.622  1.00  0.00     0.055 A 
ATOM     89  C   UNL A   1      46.705  27.842  35.249  1.00  0.00     0.041 A 
ATOM     90  F   UNL A   1      46.046  29.475  33.704  1.00  0.00    -0.206 F 
ATOM     91  C   UNL A   1      46.393  26.937  36.259  1.00  0.00     0.022 A 
BRANCH  88  92
ATOM     92  S   UNL A   1      44.635  25.702  38.037  1.00  0.00     0.124 S 
ATOM     93  O   UNL A   1      43.410  26.326  38.527  1.00  0.00    -0.237 OA
ATOM     94  O   UNL A   1      44.478  24.392  37.414  1.00  0.00    -0.237 OA
ATOM     95  O   UNL A   1      45.793  25.834  38.919  1.00  0.00    -0.744 OA
ENDBRANCH  88  92
ENDBRANCH  62  85
ENDBRANCH  36  37
ENDBRANCH  28  31
ENDBRANCH  26  27
ENDBRANCH  25  26
ENDBRANCH   1  25
TORSDOF 17
ENDMDL
MODEL 3
REMARK VINA RESULT:     -12.1      1.871      2.179
REMARK SMILES O=C(Cc1ccccc1)Nc1cc(Cl)ccc1C(=O)NCCCCNC(=O)c1ccc(-c2c3nc(c(-c4cc(S(=O)(=O)[O-])ccc4F)c4ccc([nH]4)c(-c4cc(S(=O)(=O)[O-])ccc4F)c4nc(c(-c5cc(S(=O)(=O)[O-])ccc5F)c5ccc2[nH]5)C=C4)C=C3)cc1
REMARK SMILES IDX 22 1 21 2 20 3 18 4 19 5 17 7 11 8 12 9 13 10 16 11 14 12
REMARK SMILES IDX 15 13 10 14 1 15 2 16 3 18 4 19 5 20 9 21 6 22 8 23 7 24
REMARK SMILES IDX 23 25 24 26 25 27 26 28 27 30 28 31 29 32 90 33 30 34 89 35
REMARK SMILES IDX 31 36 32 37 33 38 83 39 34 40 88 41 82 42 84 43 35 44 87 45
REMARK SMILES IDX 81 46 80 47 36 49 68 50 48 51 67 52 49 53 52 54 66 55 85 56
REMARK SMILES IDX 50 57 51 58 65 60 86 61 53 62 37 63 38 64 46 65 39 66 45 67
REMARK SMILES IDX 47 68 44 69 40 70 41 71 42 72 43 73 69 74 70 75 78 76 71 77
REMARK SMILES IDX 77 78 79 79 76 80 72 81 73 82 74 83 75 84 54 85 55 86 63 87
REMARK SMILES IDX 56 88 62 89 64 90 61 91 57 92 58 93 59 94 60 95
REMARK H PARENT 20 6 10 17 25 29 84 48 52 59
REMARK Flexibility Score: inf
ROOT
ATOM      1  C   UNL A   1      31.791  27.567  26.976  1.00  0.00     0.023 C 
ENDROOT
BRANCH   1   2
ATOM      2  C   UNL A   1      32.189  26.183  26.481  1.00  0.00     0.116 C 
BRANCH   2   3
ATOM      3  N   UNL A   1      31.296  25.106  26.846  1.00  0.00    -0.352 N 
ATOM      4  C   UNL A   1      31.526  23.744  26.877  1.00  0.00     0.253 C 
ATOM      5  O   UNL A   1      30.598  23.006  27.210  1.00  0.00    -0.269 OA
ATOM      6  H   UNL A   1      30.389  25.383  27.112  1.00  0.00     0.163 HD
BRANCH   4   7
ATOM      7  C   UNL A   1      32.787  23.129  26.356  1.00  0.00     0.063 A 
ATOM      8  C   UNL A   1      33.159  22.956  25.006  1.00  0.00     0.055 A 
ATOM      9  C   UNL A   1      34.246  22.119  24.699  1.00  0.00     0.047 A 
ATOM     10  C   UNL A   1      35.035  21.575  25.715  1.00  0.00     0.043 A 
ATOM     11  C   UNL A   1      33.617  22.592  27.364  1.00  0.00     0.017 A 
ATOM     12  Cl  UNL A   1      36.399  20.604  25.313  1.00  0.00    -0.084 Cl
ATOM     13  C   UNL A   1      34.744  21.832  27.048  1.00  0.00     0.021 A 
BRANCH   8  14
ATOM     14  N   UNL A   1      32.547  23.589  23.896  1.00  0.00    -0.325 N 
ATOM     15  O   UNL A   1      33.994  25.374  23.756  1.00  0.00    -0.274 OA
ATOM     16  C   UNL A   1      32.974  24.800  23.378  1.00  0.00     0.228 C 
ATOM     17  H   UNL A   1      31.778  23.145  23.471  1.00  0.00     0.169 HD
BRANCH  16  18
ATOM     18  C   UNL A   1      32.057  25.452  22.355  1.00  0.00     0.135 C 
BRANCH  18  19
ATOM     19  C   UNL A   1      30.946  26.366  22.817  1.00  0.00    -0.039 A 
ATOM     20  C   UNL A   1      29.834  25.934  23.549  1.00  0.00     0.004 A 
ATOM     21  C   UNL A   1      30.973  27.701  22.377  1.00  0.00     0.004 A 
ATOM     22  C   UNL A   1      28.809  26.830  23.876  1.00  0.00     0.000 A 
ATOM     23  C   UNL A   1      29.946  28.590  22.690  1.00  0.00     0.000 A 
ATOM     24  C   UNL A   1      28.865  28.155  23.447  1.00  0.00     0.000 A 
ENDBRANCH  18  19
ENDBRANCH  16  18
ENDBRANCH   8  14
ENDBRANCH   4   7
ENDBRANCH   2   3
ENDBRANCH   1   2
BRANCH   1  25
ATOM     25  C   UNL A   1      31.798  28.704  25.950  1.00  0.00     0.023 C 
BRANCH  25  26
ATOM     26  C   UNL A   1      33.012  29.635  25.912  1.00  0.00     0.116 C 
BRANCH  26  27
ATOM     27  N   UNL A   1      32.812  30.934  26.534  1.00  0.00    -0.352 N 
ATOM     28  C   UNL A   1      33.623  31.648  27.394  1.00  0.00     0.251 C 
ATOM     29  H   UNL A   1      31.962  31.374  26.306  1.00  0.00     0.163 HD
ATOM     30  O   UNL A   1      33.236  32.735  27.801  1.00  0.00    -0.269 OA
BRANCH  28  31
ATOM     31  C   UNL A   1      34.922  31.103  27.872  1.00  0.00     0.039 A 
ATOM     32  C   UNL A   1      35.992  31.994  28.008  1.00  0.00     0.014 A 
ATOM     33  C   UNL A   1      35.100  29.760  28.211  1.00  0.00     0.014 A 
ATOM     34  C   UNL A   1      37.184  31.571  28.604  1.00  0.00     0.010 A 
ATOM     35  C   UNL A   1      36.263  29.355  28.872  1.00  0.00     0.010 A 
ATOM     36  C   UNL A   1      37.302  30.266  29.110  1.00  0.00    -0.014 A 
BRANCH  36  37
ATOM     37  C   UNL A   1      38.446  29.908  29.992  1.00  0.00     0.031 A 
ATOM     38  C   UNL A   1      38.583  30.469  31.378  1.00  0.00     0.074 A 
ATOM     39  C   UNL A   1      39.411  29.107  29.495  1.00  0.00     0.049 A 
ATOM     40  N   UNL A   1      39.496  30.218  32.283  1.00  0.00    -0.248 NA
ATOM     41  C   UNL A   1      37.586  31.465  31.789  1.00  0.00     0.031 C 
ATOM     42  C   UNL A   1      39.442  28.578  28.128  1.00  0.00     0.029 A 
ATOM     43  N   UNL A   1      40.548  28.596  30.069  1.00  0.00    -0.354 N 
ATOM     44  C   UNL A   1      39.188  31.023  33.372  1.00  0.00     0.074 A 
ATOM     45  C   UNL A   1      38.038  31.817  32.985  1.00  0.00     0.031 C 
ATOM     46  C   UNL A   1      40.518  27.789  27.983  1.00  0.00     0.029 A 
ATOM     47  C   UNL A   1      41.271  27.780  29.232  1.00  0.00     0.049 A 
ATOM     48  H   UNL A   1      40.819  28.796  30.995  1.00  0.00     0.167 HD
ATOM     49  C   UNL A   1      39.793  31.081  34.587  1.00  0.00     0.034 A 
ATOM     50  C   UNL A   1      42.411  27.092  29.441  1.00  0.00     0.034 A 
ATOM     51  C   UNL A   1      40.947  30.288  34.949  1.00  0.00     0.049 A 
ATOM     52  C   UNL A   1      43.047  27.138  30.803  1.00  0.00     0.074 A 
ATOM     53  C   UNL A   1      41.599  30.215  36.168  1.00  0.00     0.029 A 
ATOM     54  N   UNL A   1      41.638  29.445  34.085  1.00  0.00    -0.354 N 
ATOM     55  N   UNL A   1      42.682  27.826  31.860  1.00  0.00    -0.248 NA
ATOM     56  C   UNL A   1      44.231  26.296  31.007  1.00  0.00     0.031 C 
ATOM     57  C   UNL A   1      42.717  29.383  36.024  1.00  0.00     0.029 A 
ATOM     58  C   UNL A   1      42.723  28.874  34.735  1.00  0.00     0.049 A 
ATOM     59  H   UNL A   1      41.392  29.277  33.146  1.00  0.00     0.167 HD
ATOM     60  C   UNL A   1      43.579  27.481  32.865  1.00  0.00     0.074 A 
ATOM     61  C   UNL A   1      44.489  26.508  32.289  1.00  0.00     0.031 C 
ATOM     62  C   UNL A   1      43.641  27.922  34.147  1.00  0.00     0.034 A 
BRANCH  49  63
ATOM     63  C   UNL A   1      39.227  32.056  35.597  1.00  0.00     0.023 A 
ATOM     64  C   UNL A   1      39.687  33.383  35.678  1.00  0.00     0.031 A 
ATOM     65  C   UNL A   1      38.248  31.647  36.518  1.00  0.00     0.131 A 
ATOM     66  C   UNL A   1      39.243  34.220  36.714  1.00  0.00     0.055 A 
ATOM     67  C   UNL A   1      37.743  32.513  37.492  1.00  0.00     0.041 A 
ATOM     68  F   UNL A   1      37.777  30.390  36.505  1.00  0.00    -0.206 F 
ATOM     69  C   UNL A   1      38.256  33.802  37.607  1.00  0.00     0.022 A 
BRANCH  66  70
ATOM     70  S   UNL A   1      40.099  35.798  36.977  1.00  0.00     0.124 S 
ATOM     71  O   UNL A   1      39.653  36.573  35.822  1.00  0.00    -0.237 OA
ATOM     72  O   UNL A   1      39.581  36.226  38.272  1.00  0.00    -0.237 OA
ATOM     73  O   UNL A   1      41.513  35.428  36.961  1.00  0.00    -0.744 OA
ENDBRANCH  66  70
ENDBRANCH  49  63
BRANCH  50  74
ATOM     74  C   UNL A   1      43.006  26.288  28.336  1.00  0.00     0.023 A 
ATOM     75  C   UNL A   1      44.073  26.782  27.570  1.00  0.00     0.031 A 
ATOM     76  C   UNL A   1      42.515  25.006  28.036  1.00  0.00     0.131 A 
ATOM     77  C   UNL A   1      44.597  26.010  26.521  1.00  0.00     0.055 A 
ATOM     78  C   UNL A   1      43.066  24.224  27.020  1.00  0.00     0.041 A 
ATOM     79  F   UNL A   1      41.505  24.481  28.750  1.00  0.00    -0.206 F 
ATOM     80  C   UNL A   1      44.108  24.729  26.249  1.00  0.00     0.022 A 
BRANCH  77  81
ATOM     81  S   UNL A   1      45.902  26.722  25.482  1.00  0.00     0.124 S 
ATOM     82  O   UNL A   1      45.191  27.805  24.812  1.00  0.00    -0.237 OA
ATOM     83  O   UNL A   1      46.895  27.122  26.473  1.00  0.00    -0.237 OA
ATOM     84  O   UNL A   1      46.298  25.609  24.622  1.00  0.00    -0.744 OA
ENDBRANCH  77  81
ENDBRANCH  50  74
BRANCH  62  85
ATOM     85  C   UNL A   1      44.719  27.325  35.022  1.00  0.00     0.023 A 
ATOM     86  C   UNL A   1      45.993  27.910  35.134  1.00  0.00     0.031 A 
ATOM     87  C   UNL A   1      44.475  26.133  35.728  1.00  0.00     0.131 A 
ATOM     88  C   UNL A   1      46.995  27.268  35.879  1.00  0.00     0.055 A 
ATOM     89  C   UNL A   1      45.457  25.533  36.518  1.00  0.00     0.041 A 
ATOM     90  F   UNL A   1      43.279  25.527  35.655  1.00  0.00    -0.206 F 
ATOM     91  C   UNL A   1      46.729  26.093  36.585  1.00  0.00     0.022 A 
BRANCH  88  92
ATOM     92  S   UNL A   1      48.682  27.932  35.823  1.00  0.00     0.124 S 
ATOM     93  O   UNL A   1      48.454  29.305  35.382  1.00  0.00    -0.237 OA
ATOM     94  O   UNL A   1      49.127  27.771  37.203  1.00  0.00    -0.237 OA
ATOM     95  O   UNL A   1      49.356  27.073  34.850  1.00  0.00    -0.744 OA
ENDBRANCH  88  92
ENDBRANCH  62  85
ENDBRANCH  36  37
ENDBRANCH  28  31
ENDBRANCH  26  27
ENDBRANCH  25  26
ENDBRANCH   1  25
TORSDOF 17
ENDMDL
