MODEL 1
REMARK VINA RESULT:     -12.3      0.000      0.000
REMARK SMILES COc1cccc(-c2c(C(=O)NCCCCNC(=O)c3ccc(-c4c5nc(c(-c6cc(S(=O)(=O)[O-])ccc6F)c6ccc([nH]6)c(-c6cc(S(=O)(=O)[O-])ccc6F)c6nc(c(-c7cc(S(=O)(=O)[O-])ccc7F)c7ccc4[nH]7)C=C6)C=C5)cc3)nnn2Cc2ccc(OC(F)(F)F)cc2)c1
REMARK SMILES IDX 14 1 13 2 12 3 10 4 11 5 9 7 8 8 85 9 83 10 84 11 7 12 3 13
REMARK SMILES IDX 4 14 98 15 5 16 6 17 2 18 1 19 86 20 87 21 88 22 97 23 89 24
REMARK SMILES IDX 96 25 90 26 91 27 92 28 93 29 94 30 95 31 15 32 16 33 17 34
REMARK SMILES IDX 18 35 19 37 20 38 21 39 82 40 22 41 81 42 23 43 24 44 25 45
REMARK SMILES IDX 75 46 26 47 80 48 74 49 76 50 27 51 79 52 73 53 72 54 28 56
REMARK SMILES IDX 60 57 40 58 59 59 41 60 44 61 58 62 77 63 42 64 43 65 57 67
REMARK SMILES IDX 78 68 45 69 29 70 30 71 38 72 31 73 37 74 39 75 36 76 32 77
REMARK SMILES IDX 33 78 34 79 35 80 61 81 62 82 70 83 63 84 69 85 71 86 68 87
REMARK SMILES IDX 64 88 65 89 66 90 67 91 46 92 47 93 55 94 48 95 54 96 56 97
REMARK SMILES IDX 53 98 49 99 50 100 51 101 52 102
REMARK H PARENT 12 6 17 36 76 55 44 66
REMARK Flexibility Score: inf
ROOT
ATOM      1  C   UNL A   1      33.109  29.087  26.009  1.00  0.00     0.023 C 
ENDROOT
BRANCH   1   2
ATOM      2  C   UNL A   1      33.238  28.270  24.731  1.00  0.00     0.116 C 
BRANCH   2   3
ATOM      3  N   UNL A   1      32.288  28.553  23.691  1.00  0.00    -0.351 N 
ATOM      4  C   UNL A   1      31.705  27.746  22.736  1.00  0.00     0.274 C 
ATOM      5  O   UNL A   1      30.882  28.333  22.023  1.00  0.00    -0.267 OA
ATOM      6  H   UNL A   1      32.000  29.494  23.654  1.00  0.00     0.163 HD
BRANCH   4   7
ATOM      7  C   UNL A   1      32.024  26.326  22.474  1.00  0.00     0.178 A 
ATOM      8  C   UNL A   1      32.151  25.144  23.219  1.00  0.00     0.102 A 
ATOM      9  N   UNL A   1      32.482  24.193  22.269  1.00  0.00    -0.239 N 
ATOM     10  N   UNL A   1      32.302  26.010  21.149  1.00  0.00    -0.124 NA
ATOM     11  N   UNL A   1      32.636  24.740  21.056  1.00  0.00    -0.066 NA
BRANCH   8  12
ATOM     12  C   UNL A   1      32.074  24.800  24.635  1.00  0.00     0.006 A 
ATOM     13  C   UNL A   1      30.692  24.050  26.501  1.00  0.00     0.119 A 
ATOM     14  C   UNL A   1      31.852  23.869  27.257  1.00  0.00     0.046 A 
ATOM     15  C   UNL A   1      30.807  24.508  25.191  1.00  0.00     0.056 A 
ATOM     16  C   UNL A   1      33.109  24.164  26.721  1.00  0.00     0.005 A 
ATOM     17  C   UNL A   1      33.223  24.644  25.415  1.00  0.00     0.011 A 
BRANCH  13  18
ATOM     18  O   UNL A   1      29.525  23.744  27.144  1.00  0.00    -0.497 OA
ATOM     19  C   UNL A   1      29.189  22.368  27.278  1.00  0.00     0.278 C 
ENDBRANCH  13  18
ENDBRANCH   8  12
BRANCH   9  20
ATOM     20  C   UNL A   1      32.847  22.794  22.458  1.00  0.00     0.182 C 
BRANCH  20  21
ATOM     21  C   UNL A   1      34.131  22.604  23.226  1.00  0.00    -0.026 A 
ATOM     22  C   UNL A   1      35.281  23.328  22.887  1.00  0.00     0.009 A 
ATOM     23  C   UNL A   1      34.213  21.659  24.256  1.00  0.00     0.009 A 
ATOM     24  C   UNL A   1      36.483  23.096  23.561  1.00  0.00     0.047 A 
ATOM     25  C   UNL A   1      35.413  21.439  24.937  1.00  0.00     0.047 A 
ATOM     26  C   UNL A   1      36.560  22.149  24.587  1.00  0.00     0.129 A 
BRANCH  26  27
ATOM     27  O   UNL A   1      37.797  22.014  25.148  1.00  0.00    -0.406 OA
BRANCH  27  28
ATOM     28  C   UNL A   1      38.198  22.997  26.087  1.00  0.00     0.573 C 
ATOM     29  F   UNL A   1      38.697  24.090  25.474  1.00  0.00    -0.132 F 
ATOM     30  F   UNL A   1      37.168  23.357  26.886  1.00  0.00    -0.132 F 
ATOM     31  F   UNL A   1      39.165  22.476  26.875  1.00  0.00    -0.132 F 
ENDBRANCH  27  28
ENDBRANCH  26  27
ENDBRANCH  20  21
ENDBRANCH   9  20
ENDBRANCH   4   7
ENDBRANCH   2   3
ENDBRANCH   1   2
BRANCH   1  32
ATOM     32  C   UNL A   1      34.051  28.727  27.153  1.00  0.00     0.023 C 
BRANCH  32  33
ATOM     33  C   UNL A   1      35.343  29.537  27.212  1.00  0.00     0.116 C 
BRANCH  33  34
ATOM     34  N   UNL A   1      35.528  30.258  28.467  1.00  0.00    -0.352 N 
ATOM     35  C   UNL A   1      36.486  30.009  29.438  1.00  0.00     0.251 C 
ATOM     36  H   UNL A   1      34.905  30.999  28.644  1.00  0.00     0.163 HD
ATOM     37  O   UNL A   1      36.329  30.394  30.584  1.00  0.00    -0.269 OA
BRANCH  35  38
ATOM     38  C   UNL A   1      37.703  29.269  29.047  1.00  0.00     0.039 A 
ATOM     39  C   UNL A   1      38.452  29.656  27.932  1.00  0.00     0.014 A 
ATOM     40  C   UNL A   1      38.107  28.198  29.843  1.00  0.00     0.014 A 
ATOM     41  C   UNL A   1      39.668  29.020  27.683  1.00  0.00     0.010 A 
ATOM     42  C   UNL A   1      39.347  27.629  29.647  1.00  0.00     0.010 A 
ATOM     43  C   UNL A   1      40.127  28.024  28.560  1.00  0.00    -0.014 A 
BRANCH  43  44
ATOM     44  C   UNL A   1      41.510  27.545  28.479  1.00  0.00     0.031 A 
ATOM     45  C   UNL A   1      41.662  26.264  27.733  1.00  0.00     0.074 A 
ATOM     46  C   UNL A   1      42.588  28.304  28.775  1.00  0.00     0.049 A 
ATOM     47  N   UNL A   1      42.001  25.107  28.199  1.00  0.00    -0.248 NA
ATOM     48  C   UNL A   1      41.219  26.226  26.329  1.00  0.00     0.031 C 
ATOM     49  C   UNL A   1      42.588  29.701  29.214  1.00  0.00     0.029 A 
ATOM     50  N   UNL A   1      43.918  28.038  28.615  1.00  0.00    -0.354 N 
ATOM     51  C   UNL A   1      42.102  24.273  27.087  1.00  0.00     0.074 A 
ATOM     52  C   UNL A   1      41.361  24.929  26.047  1.00  0.00     0.031 C 
ATOM     53  C   UNL A   1      43.821  30.225  29.052  1.00  0.00     0.029 A 
ATOM     54  C   UNL A   1      44.733  29.171  28.638  1.00  0.00     0.049 A 
ATOM     55  H   UNL A   1      44.271  27.128  28.493  1.00  0.00     0.167 HD
ATOM     56  C   UNL A   1      43.045  23.288  27.034  1.00  0.00     0.034 A 
ATOM     57  C   UNL A   1      46.050  29.261  28.304  1.00  0.00     0.034 A 
ATOM     58  C   UNL A   1      43.580  23.018  28.358  1.00  0.00     0.049 A 
ATOM     59  C   UNL A   1      46.618  27.896  28.417  1.00  0.00     0.074 A 
ATOM     60  C   UNL A   1      43.021  22.719  29.589  1.00  0.00     0.029 A 
ATOM     61  N   UNL A   1      44.870  23.420  28.640  1.00  0.00    -0.354 N 
ATOM     62  N   UNL A   1      46.718  27.255  29.549  1.00  0.00    -0.248 NA
ATOM     63  C   UNL A   1      46.635  27.055  27.230  1.00  0.00     0.031 C 
ATOM     64  C   UNL A   1      43.801  23.449  30.535  1.00  0.00     0.029 A 
ATOM     65  C   UNL A   1      44.848  24.067  29.849  1.00  0.00     0.049 A 
ATOM     66  H   UNL A   1      45.662  23.268  28.077  1.00  0.00     0.167 HD
ATOM     67  C   UNL A   1      46.348  25.953  29.254  1.00  0.00     0.074 A 
ATOM     68  C   UNL A   1      46.425  25.863  27.796  1.00  0.00     0.031 C 
ATOM     69  C   UNL A   1      45.730  25.167  30.187  1.00  0.00     0.034 A 
BRANCH  56  70
ATOM     70  C   UNL A   1      43.808  22.893  25.772  1.00  0.00     0.023 A 
ATOM     71  C   UNL A   1      43.866  21.515  25.490  1.00  0.00     0.031 A 
ATOM     72  C   UNL A   1      44.727  23.692  25.055  1.00  0.00     0.131 A 
ATOM     73  C   UNL A   1      44.919  20.975  24.734  1.00  0.00     0.055 A 
ATOM     74  C   UNL A   1      45.725  23.154  24.234  1.00  0.00     0.041 A 
ATOM     75  F   UNL A   1      44.772  25.025  25.147  1.00  0.00    -0.206 F 
ATOM     76  C   UNL A   1      45.860  21.785  24.113  1.00  0.00     0.022 A 
BRANCH  73  77
ATOM     77  S   UNL A   1      45.160  19.183  24.799  1.00  0.00     0.124 S 
ATOM     78  O   UNL A   1      44.125  18.801  25.755  1.00  0.00    -0.237 OA
ATOM     79  O   UNL A   1      44.931  18.801  23.410  1.00  0.00    -0.237 OA
ATOM     80  O   UNL A   1      46.535  19.045  25.269  1.00  0.00    -0.744 OA
ENDBRANCH  73  77
ENDBRANCH  56  70
BRANCH  57  81
ATOM     81  C   UNL A   1      46.765  30.401  27.657  1.00  0.00     0.023 A 
ATOM     82  C   UNL A   1      46.096  31.458  27.001  1.00  0.00     0.031 A 
ATOM     83  C   UNL A   1      48.146  30.584  27.893  1.00  0.00     0.131 A 
ATOM     84  C   UNL A   1      46.803  32.624  26.614  1.00  0.00     0.055 A 
ATOM     85  C   UNL A   1      48.841  31.732  27.503  1.00  0.00     0.041 A 
ATOM     86  F   UNL A   1      48.860  29.686  28.591  1.00  0.00    -0.206 F 
ATOM     87  C   UNL A   1      48.168  32.764  26.870  1.00  0.00     0.022 A 
BRANCH  84  88
ATOM     88  S   UNL A   1      45.932  34.037  25.856  1.00  0.00     0.124 S 
ATOM     89  O   UNL A   1      47.018  34.759  25.204  1.00  0.00    -0.237 OA
ATOM     90  O   UNL A   1      44.967  33.382  24.980  1.00  0.00    -0.237 OA
ATOM     91  O   UNL A   1      45.341  34.729  27.003  1.00  0.00    -0.744 OA
ENDBRANCH  84  88
ENDBRANCH  57  81
BRANCH  69  92
ATOM     92  C   UNL A   1      45.793  25.579  31.643  1.00  0.00     0.023 A 
ATOM     93  C   UNL A   1      46.870  25.318  32.521  1.00  0.00     0.031 A 
ATOM     94  C   UNL A   1      44.733  26.366  32.131  1.00  0.00     0.131 A 
ATOM     95  C   UNL A   1      46.845  25.822  33.836  1.00  0.00     0.055 A 
ATOM     96  C   UNL A   1      44.722  26.880  33.425  1.00  0.00     0.041 A 
ATOM     97  F   UNL A   1      43.693  26.675  31.338  1.00  0.00    -0.206 F 
ATOM     98  C   UNL A   1      45.775  26.602  34.287  1.00  0.00     0.022 A 
BRANCH  95  99
ATOM     99  S   UNL A   1      48.193  25.450  35.003  1.00  0.00     0.124 S 
ATOM    100  O   UNL A   1      48.707  24.166  34.542  1.00  0.00    -0.237 OA
ATOM    101  O   UNL A   1      49.085  26.594  34.830  1.00  0.00    -0.237 OA
ATOM    102  O   UNL A   1      47.515  25.404  36.301  1.00  0.00    -0.744 OA
ENDBRANCH  95  99
ENDBRANCH  69  92
ENDBRANCH  43  44
ENDBRANCH  35  38
ENDBRANCH  33  34
ENDBRANCH  32  33
ENDBRANCH   1  32
TORSDOF 20
ENDMDL
MODEL 2
REMARK VINA RESULT:     -12.3      2.378      3.397
REMARK SMILES COc1cccc(-c2c(C(=O)NCCCCNC(=O)c3ccc(-c4c5nc(c(-c6cc(S(=O)(=O)[O-])ccc6F)c6ccc([nH]6)c(-c6cc(S(=O)(=O)[O-])ccc6F)c6nc(c(-c7cc(S(=O)(=O)[O-])ccc7F)c7ccc4[nH]7)C=C6)C=C5)cc3)nnn2Cc2ccc(OC(F)(F)F)cc2)c1
REMARK SMILES IDX 14 1 13 2 12 3 10 4 11 5 9 7 8 8 85 9 83 10 84 11 7 12 3 13
REMARK SMILES IDX 4 14 98 15 5 16 6 17 2 18 1 19 86 20 87 21 88 22 97 23 89 24
REMARK SMILES IDX 96 25 90 26 91 27 92 28 93 29 94 30 95 31 15 32 16 33 17 34
REMARK SMILES IDX 18 35 19 37 20 38 21 39 82 40 22 41 81 42 23 43 24 44 25 45
REMARK SMILES IDX 75 46 26 47 80 48 74 49 76 50 27 51 79 52 73 53 72 54 28 56
REMARK SMILES IDX 60 57 40 58 59 59 41 60 44 61 58 62 77 63 42 64 43 65 57 67
REMARK SMILES IDX 78 68 45 69 29 70 30 71 38 72 31 73 37 74 39 75 36 76 32 77
REMARK SMILES IDX 33 78 34 79 35 80 61 81 62 82 70 83 63 84 69 85 71 86 68 87
REMARK SMILES IDX 64 88 65 89 66 90 67 91 46 92 47 93 55 94 48 95 54 96 56 97
REMARK SMILES IDX 53 98 49 99 50 100 51 101 52 102
REMARK H PARENT 12 6 17 36 76 55 44 66
REMARK Flexibility Score: inf
ROOT
ATOM      1  C   UNL A   1      33.878  28.656  25.029  1.00  0.00     0.023 C 
ENDROOT
BRANCH   1   2
ATOM      2  C   UNL A   1      33.362  27.237  24.838  1.00  0.00     0.116 C 
BRANCH   2   3
ATOM      3  N   UNL A   1      32.732  26.626  25.976  1.00  0.00    -0.351 N 
ATOM      4  C   UNL A   1      32.182  25.374  26.159  1.00  0.00     0.274 C 
ATOM      5  O   UNL A   1      31.765  25.176  27.306  1.00  0.00    -0.267 OA
ATOM      6  H   UNL A   1      32.685  27.207  26.770  1.00  0.00     0.163 HD
BRANCH   4   7
ATOM      7  C   UNL A   1      32.006  24.334  25.122  1.00  0.00     0.178 A 
ATOM      8  C   UNL A   1      32.825  23.478  24.371  1.00  0.00     0.102 A 
ATOM      9  N   UNL A   1      31.929  22.777  23.582  1.00  0.00    -0.239 N 
ATOM     10  N   UNL A   1      30.693  24.103  24.724  1.00  0.00    -0.124 NA
ATOM     11  N   UNL A   1      30.673  23.211  23.755  1.00  0.00    -0.066 NA
BRANCH   8  12
ATOM     12  C   UNL A   1      34.264  23.272  24.242  1.00  0.00     0.006 A 
ATOM     13  C   UNL A   1      36.283  22.227  25.127  1.00  0.00     0.119 A 
ATOM     14  C   UNL A   1      36.955  22.592  23.959  1.00  0.00     0.046 A 
ATOM     15  C   UNL A   1      34.938  22.562  25.262  1.00  0.00     0.056 A 
ATOM     16  C   UNL A   1      36.302  23.303  22.948  1.00  0.00     0.005 A 
ATOM     17  C   UNL A   1      34.959  23.658  23.093  1.00  0.00     0.011 A 
BRANCH  13  18
ATOM     18  O   UNL A   1      37.037  21.551  26.046  1.00  0.00    -0.497 OA
ATOM     19  C   UNL A   1      38.436  21.455  25.806  1.00  0.00     0.278 C 
ENDBRANCH  13  18
ENDBRANCH   8  12
BRANCH   9  20
ATOM     20  C   UNL A   1      32.197  21.819  22.517  1.00  0.00     0.182 C 
BRANCH  20  21
ATOM     21  C   UNL A   1      32.276  20.391  22.996  1.00  0.00    -0.026 A 
ATOM     22  C   UNL A   1      32.376  20.099  24.362  1.00  0.00     0.009 A 
ATOM     23  C   UNL A   1      32.308  19.331  22.081  1.00  0.00     0.009 A 
ATOM     24  C   UNL A   1      32.517  18.777  24.792  1.00  0.00     0.047 A 
ATOM     25  C   UNL A   1      32.436  18.009  22.514  1.00  0.00     0.047 A 
ATOM     26  C   UNL A   1      32.551  17.723  23.873  1.00  0.00     0.129 A 
BRANCH  26  27
ATOM     27  O   UNL A   1      32.708  16.486  24.428  1.00  0.00    -0.406 OA
BRANCH  27  28
ATOM     28  C   UNL A   1      33.958  16.196  25.031  1.00  0.00     0.573 C 
ATOM     29  F   UNL A   1      34.193  14.868  25.062  1.00  0.00    -0.132 F 
ATOM     30  F   UNL A   1      34.968  16.820  24.384  1.00  0.00    -0.132 F 
ATOM     31  F   UNL A   1      33.941  16.651  26.304  1.00  0.00    -0.132 F 
ENDBRANCH  27  28
ENDBRANCH  26  27
ENDBRANCH  20  21
ENDBRANCH   9  20
ENDBRANCH   4   7
ENDBRANCH   2   3
ENDBRANCH   1   2
BRANCH   1  32
ATOM     32  C   UNL A   1      33.826  29.222  26.444  1.00  0.00     0.023 C 
BRANCH  32  33
ATOM     33  C   UNL A   1      35.049  28.929  27.308  1.00  0.00     0.116 C 
BRANCH  33  34
ATOM     34  N   UNL A   1      35.268  29.908  28.368  1.00  0.00    -0.352 N 
ATOM     35  C   UNL A   1      36.327  29.948  29.261  1.00  0.00     0.251 C 
ATOM     36  H   UNL A   1      34.590  30.616  28.459  1.00  0.00     0.163 HD
ATOM     37  O   UNL A   1      36.233  30.548  30.318  1.00  0.00    -0.269 OA
BRANCH  35  38
ATOM     38  C   UNL A   1      37.576  29.246  28.898  1.00  0.00     0.039 A 
ATOM     39  C   UNL A   1      38.269  29.572  27.728  1.00  0.00     0.014 A 
ATOM     40  C   UNL A   1      38.066  28.277  29.772  1.00  0.00     0.014 A 
ATOM     41  C   UNL A   1      39.513  28.987  27.497  1.00  0.00     0.010 A 
ATOM     42  C   UNL A   1      39.331  27.764  29.587  1.00  0.00     0.010 A 
ATOM     43  C   UNL A   1      40.056  28.103  28.444  1.00  0.00    -0.014 A 
BRANCH  43  44
ATOM     44  C   UNL A   1      41.462  27.698  28.360  1.00  0.00     0.031 A 
ATOM     45  C   UNL A   1      41.677  26.407  27.648  1.00  0.00     0.074 A 
ATOM     46  C   UNL A   1      42.499  28.523  28.623  1.00  0.00     0.049 A 
ATOM     47  N   UNL A   1      42.084  25.284  28.141  1.00  0.00    -0.248 NA
ATOM     48  C   UNL A   1      41.223  26.305  26.250  1.00  0.00     0.031 C 
ATOM     49  C   UNL A   1      42.427  29.930  29.023  1.00  0.00     0.029 A 
ATOM     50  N   UNL A   1      43.840  28.326  28.455  1.00  0.00    -0.354 N 
ATOM     51  C   UNL A   1      42.220  24.425  27.052  1.00  0.00     0.074 A 
ATOM     52  C   UNL A   1      41.434  25.011  26.003  1.00  0.00     0.031 C 
ATOM     53  C   UNL A   1      43.627  30.516  28.832  1.00  0.00     0.029 A 
ATOM     54  C   UNL A   1      44.591  29.503  28.438  1.00  0.00     0.049 A 
ATOM     55  H   UNL A   1      44.242  27.434  28.354  1.00  0.00     0.167 HD
ATOM     56  C   UNL A   1      43.215  23.493  27.015  1.00  0.00     0.034 A 
ATOM     57  C   UNL A   1      45.898  29.655  28.086  1.00  0.00     0.034 A 
ATOM     58  C   UNL A   1      43.777  23.290  28.340  1.00  0.00     0.049 A 
ATOM     59  C   UNL A   1      46.542  28.327  28.230  1.00  0.00     0.074 A 
ATOM     60  C   UNL A   1      43.248  22.995  29.585  1.00  0.00     0.029 A 
ATOM     61  N   UNL A   1      45.046  23.770  28.596  1.00  0.00    -0.354 N 
ATOM     62  N   UNL A   1      46.688  27.725  29.378  1.00  0.00    -0.248 NA
ATOM     63  C   UNL A   1      46.593  27.455  27.066  1.00  0.00     0.031 C 
ATOM     64  C   UNL A   1      43.996  23.794  30.502  1.00  0.00     0.029 A 
ATOM     65  C   UNL A   1      45.001  24.448  29.787  1.00  0.00     0.049 A 
ATOM     66  H   UNL A   1      45.840  23.646  28.028  1.00  0.00     0.167 HD
ATOM     67  C   UNL A   1      46.388  26.397  29.123  1.00  0.00     0.074 A 
ATOM     68  C   UNL A   1      46.455  26.270  27.667  1.00  0.00     0.031 C 
ATOM     69  C   UNL A   1      45.824  25.605  30.084  1.00  0.00     0.034 A 
BRANCH  56  70
ATOM     70  C   UNL A   1      43.987  23.105  25.756  1.00  0.00     0.023 A 
ATOM     71  C   UNL A   1      44.098  21.726  25.499  1.00  0.00     0.031 A 
ATOM     72  C   UNL A   1      44.869  23.926  25.019  1.00  0.00     0.131 A 
ATOM     73  C   UNL A   1      45.167  21.214  24.746  1.00  0.00     0.055 A 
ATOM     74  C   UNL A   1      45.883  23.414  24.201  1.00  0.00     0.041 A 
ATOM     75  F   UNL A   1      44.861  25.261  25.086  1.00  0.00    -0.206 F 
ATOM     76  C   UNL A   1      46.072  22.049  24.104  1.00  0.00     0.022 A 
BRANCH  73  77
ATOM     77  S   UNL A   1      45.480  19.435  24.842  1.00  0.00     0.124 S 
ATOM     78  O   UNL A   1      46.835  19.423  25.384  1.00  0.00    -0.237 OA
ATOM     79  O   UNL A   1      44.420  18.994  25.741  1.00  0.00    -0.237 OA
ATOM     80  O   UNL A   1      45.351  18.994  23.456  1.00  0.00    -0.744 OA
ENDBRANCH  73  77
ENDBRANCH  56  70
BRANCH  57  81
ATOM     81  C   UNL A   1      46.543  30.814  27.400  1.00  0.00     0.023 A 
ATOM     82  C   UNL A   1      45.809  31.879  26.831  1.00  0.00     0.031 A 
ATOM     83  C   UNL A   1      47.939  31.004  27.510  1.00  0.00     0.131 A 
ATOM     84  C   UNL A   1      46.470  33.059  26.405  1.00  0.00     0.055 A 
ATOM     85  C   UNL A   1      48.587  32.166  27.082  1.00  0.00     0.041 A 
ATOM     86  F   UNL A   1      48.720  30.098  28.120  1.00  0.00    -0.206 F 
ATOM     87  C   UNL A   1      47.852  33.204  26.537  1.00  0.00     0.022 A 
BRANCH  84  88
ATOM     88  S   UNL A   1      45.523  34.480  25.761  1.00  0.00     0.124 S 
ATOM     89  O   UNL A   1      44.285  34.401  26.527  1.00  0.00    -0.237 OA
ATOM     90  O   UNL A   1      46.401  35.605  26.058  1.00  0.00    -0.237 OA
ATOM     91  O   UNL A   1      45.380  34.178  24.336  1.00  0.00    -0.744 OA
ENDBRANCH  84  88
ENDBRANCH  57  81
BRANCH  69  92
ATOM     92  C   UNL A   1      45.878  26.060  31.528  1.00  0.00     0.023 A 
ATOM     93  C   UNL A   1      44.798  26.619  32.250  1.00  0.00     0.031 A 
ATOM     94  C   UNL A   1      47.074  25.820  32.229  1.00  0.00     0.131 A 
ATOM     95  C   UNL A   1      44.950  26.932  33.615  1.00  0.00     0.055 A 
ATOM     96  C   UNL A   1      47.213  26.111  33.584  1.00  0.00     0.041 A 
ATOM     97  F   UNL A   1      48.128  25.264  31.609  1.00  0.00    -0.206 F 
ATOM     98  C   UNL A   1      46.154  26.678  34.281  1.00  0.00     0.022 A 
BRANCH  95  99
ATOM     99  S   UNL A   1      43.592  27.706  34.551  1.00  0.00     0.124 S 
ATOM    100  O   UNL A   1      43.898  29.130  34.491  1.00  0.00    -0.237 OA
ATOM    101  O   UNL A   1      42.411  27.275  33.807  1.00  0.00    -0.237 OA
ATOM    102  O   UNL A   1      43.718  27.112  35.884  1.00  0.00    -0.744 OA
ENDBRANCH  95  99
ENDBRANCH  69  92
ENDBRANCH  43  44
ENDBRANCH  35  38
ENDBRANCH  33  34
ENDBRANCH  32  33
ENDBRANCH   1  32
TORSDOF 20
ENDMDL
MODEL 3
REMARK VINA RESULT:     -12.1      2.400      3.310
REMARK SMILES COc1cccc(-c2c(C(=O)NCCCCNC(=O)c3ccc(-c4c5nc(c(-c6cc(S(=O)(=O)[O-])ccc6F)c6ccc([nH]6)c(-c6cc(S(=O)(=O)[O-])ccc6F)c6nc(c(-c7cc(S(=O)(=O)[O-])ccc7F)c7ccc4[nH]7)C=C6)C=C5)cc3)nnn2Cc2ccc(OC(F)(F)F)cc2)c1
REMARK SMILES IDX 14 1 13 2 12 3 10 4 11 5 9 7 8 8 85 9 83 10 84 11 7 12 3 13
REMARK SMILES IDX 4 14 98 15 5 16 6 17 2 18 1 19 86 20 87 21 88 22 97 23 89 24
REMARK SMILES IDX 96 25 90 26 91 27 92 28 93 29 94 30 95 31 15 32 16 33 17 34
REMARK SMILES IDX 18 35 19 37 20 38 21 39 82 40 22 41 81 42 23 43 24 44 25 45
REMARK SMILES IDX 75 46 26 47 80 48 74 49 76 50 27 51 79 52 73 53 72 54 28 56
REMARK SMILES IDX 60 57 40 58 59 59 41 60 44 61 58 62 77 63 42 64 43 65 57 67
REMARK SMILES IDX 78 68 45 69 29 70 30 71 38 72 31 73 37 74 39 75 36 76 32 77
REMARK SMILES IDX 33 78 34 79 35 80 61 81 62 82 70 83 63 84 69 85 71 86 68 87
REMARK SMILES IDX 64 88 65 89 66 90 67 91 46 92 47 93 55 94 48 95 54 96 56 97
REMARK SMILES IDX 53 98 49 99 50 100 51 101 52 102
REMARK H PARENT 12 6 17 36 76 55 44 66
REMARK Flexibility Score: inf
ROOT
ATOM      1  C   UNL A   1      32.341  29.833  26.925  1.00  0.00     0.023 C 
ENDROOT
BRANCH   1   2
ATOM      2  C   UNL A   1      31.845  29.858  25.486  1.00  0.00     0.116 C 
BRANCH   2   3
ATOM      3  N   UNL A   1      32.852  29.838  24.461  1.00  0.00    -0.351 N 
ATOM      4  C   UNL A   1      33.208  28.871  23.543  1.00  0.00     0.274 C 
ATOM      5  O   UNL A   1      34.106  29.226  22.769  1.00  0.00    -0.267 OA
ATOM      6  H   UNL A   1      33.384  30.664  24.404  1.00  0.00     0.163 HD
BRANCH   4   7
ATOM      7  C   UNL A   1      32.669  27.496  23.463  1.00  0.00     0.178 A 
ATOM      8  C   UNL A   1      31.408  26.886  23.392  1.00  0.00     0.102 A 
ATOM      9  N   UNL A   1      31.701  25.534  23.348  1.00  0.00    -0.239 N 
ATOM     10  N   UNL A   1      33.619  26.480  23.476  1.00  0.00    -0.124 NA
ATOM     11  N   UNL A   1      33.017  25.309  23.470  1.00  0.00    -0.066 NA
BRANCH   8  12
ATOM     12  C   UNL A   1      30.027  27.357  23.419  1.00  0.00     0.006 A 
ATOM     13  C   UNL A   1      28.391  28.992  22.643  1.00  0.00     0.119 A 
ATOM     14  C   UNL A   1      27.377  28.199  23.184  1.00  0.00     0.046 A 
ATOM     15  C   UNL A   1      29.712  28.565  22.757  1.00  0.00     0.056 A 
ATOM     16  C   UNL A   1      27.677  27.008  23.851  1.00  0.00     0.005 A 
ATOM     17  C   UNL A   1      29.003  26.590  23.984  1.00  0.00     0.011 A 
BRANCH  13  18
ATOM     18  O   UNL A   1      27.970  30.140  22.033  1.00  0.00    -0.497 OA
ATOM     19  C   UNL A   1      27.925  31.325  22.819  1.00  0.00     0.278 C 
ENDBRANCH  13  18
ENDBRANCH   8  12
BRANCH   9  20
ATOM     20  C   UNL A   1      30.792  24.395  23.377  1.00  0.00     0.182 C 
BRANCH  20  21
ATOM     21  C   UNL A   1      31.464  23.097  23.751  1.00  0.00    -0.026 A 
ATOM     22  C   UNL A   1      32.154  22.346  22.792  1.00  0.00     0.009 A 
ATOM     23  C   UNL A   1      31.362  22.589  25.053  1.00  0.00     0.009 A 
ATOM     24  C   UNL A   1      32.715  21.112  23.132  1.00  0.00     0.047 A 
ATOM     25  C   UNL A   1      31.935  21.362  25.394  1.00  0.00     0.047 A 
ATOM     26  C   UNL A   1      32.608  20.610  24.433  1.00  0.00     0.129 A 
BRANCH  26  27
ATOM     27  O   UNL A   1      33.188  19.388  24.623  1.00  0.00    -0.406 OA
BRANCH  27  28
ATOM     28  C   UNL A   1      32.555  18.267  24.029  1.00  0.00     0.573 C 
ATOM     29  F   UNL A   1      31.987  17.472  24.959  1.00  0.00    -0.132 F 
ATOM     30  F   UNL A   1      31.620  18.653  23.132  1.00  0.00    -0.132 F 
ATOM     31  F   UNL A   1      33.486  17.544  23.367  1.00  0.00    -0.132 F 
ENDBRANCH  27  28
ENDBRANCH  26  27
ENDBRANCH  20  21
ENDBRANCH   9  20
ENDBRANCH   4   7
ENDBRANCH   2   3
ENDBRANCH   1   2
BRANCH   1  32
ATOM     32  C   UNL A   1      33.308  28.715  27.300  1.00  0.00     0.023 C 
BRANCH  32  33
ATOM     33  C   UNL A   1      34.770  29.133  27.424  1.00  0.00     0.116 C 
BRANCH  33  34
ATOM     34  N   UNL A   1      35.004  30.159  28.436  1.00  0.00    -0.352 N 
ATOM     35  C   UNL A   1      36.069  30.231  29.320  1.00  0.00     0.251 C 
ATOM     36  H   UNL A   1      34.332  30.876  28.498  1.00  0.00     0.163 HD
ATOM     37  O   UNL A   1      35.987  30.882  30.347  1.00  0.00    -0.269 OA
BRANCH  35  38
ATOM     38  C   UNL A   1      37.310  29.502  28.982  1.00  0.00     0.039 A 
ATOM     39  C   UNL A   1      37.993  29.761  27.790  1.00  0.00     0.014 A 
ATOM     40  C   UNL A   1      37.802  28.579  29.903  1.00  0.00     0.014 A 
ATOM     41  C   UNL A   1      39.231  29.155  27.578  1.00  0.00     0.010 A 
ATOM     42  C   UNL A   1      39.062  28.048  29.733  1.00  0.00     0.010 A 
ATOM     43  C   UNL A   1      39.778  28.320  28.566  1.00  0.00    -0.014 A 
BRANCH  43  44
ATOM     44  C   UNL A   1      41.180  27.901  28.490  1.00  0.00     0.031 A 
ATOM     45  C   UNL A   1      41.392  26.634  27.737  1.00  0.00     0.074 A 
ATOM     46  C   UNL A   1      42.222  28.705  28.798  1.00  0.00     0.049 A 
ATOM     47  N   UNL A   1      41.779  25.489  28.196  1.00  0.00    -0.248 NA
ATOM     48  C   UNL A   1      40.960  26.586  26.329  1.00  0.00     0.031 C 
ATOM     49  C   UNL A   1      42.160  30.098  29.246  1.00  0.00     0.029 A 
ATOM     50  N   UNL A   1      43.564  28.498  28.644  1.00  0.00    -0.354 N 
ATOM     51  C   UNL A   1      41.922  24.668  27.080  1.00  0.00     0.074 A 
ATOM     52  C   UNL A   1      41.160  25.299  26.040  1.00  0.00     0.031 C 
ATOM     53  C   UNL A   1      43.369  30.676  29.095  1.00  0.00     0.029 A 
ATOM     54  C   UNL A   1      44.328  29.665  28.680  1.00  0.00     0.049 A 
ATOM     55  H   UNL A   1      43.956  27.605  28.519  1.00  0.00     0.167 HD
ATOM     56  C   UNL A   1      42.907  23.725  27.027  1.00  0.00     0.034 A 
ATOM     57  C   UNL A   1      45.642  29.814  28.354  1.00  0.00     0.034 A 
ATOM     58  C   UNL A   1      43.446  23.470  28.352  1.00  0.00     0.049 A 
ATOM     59  C   UNL A   1      46.268  28.475  28.462  1.00  0.00     0.074 A 
ATOM     60  C   UNL A   1      42.893  23.138  29.577  1.00  0.00     0.029 A 
ATOM     61  N   UNL A   1      44.715  23.925  28.645  1.00  0.00    -0.354 N 
ATOM     62  N   UNL A   1      46.389  27.831  29.590  1.00  0.00    -0.248 NA
ATOM     63  C   UNL A   1      46.329  27.643  27.270  1.00  0.00     0.031 C 
ATOM     64  C   UNL A   1      43.635  23.895  30.533  1.00  0.00     0.029 A 
ATOM     65  C   UNL A   1      44.658  24.562  29.858  1.00  0.00     0.049 A 
ATOM     66  H   UNL A   1      45.517  23.812  28.085  1.00  0.00     0.167 HD
ATOM     67  C   UNL A   1      46.078  26.517  29.284  1.00  0.00     0.074 A 
ATOM     68  C   UNL A   1      46.167  26.440  27.826  1.00  0.00     0.031 C 
ATOM     69  C   UNL A   1      45.490  25.698  30.208  1.00  0.00     0.034 A 
BRANCH  56  70
ATOM     70  C   UNL A   1      43.695  23.373  25.767  1.00  0.00     0.023 A 
ATOM     71  C   UNL A   1      43.698  22.014  25.400  1.00  0.00     0.031 A 
ATOM     72  C   UNL A   1      44.674  24.169  25.132  1.00  0.00     0.131 A 
ATOM     73  C   UNL A   1      44.750  21.471  24.644  1.00  0.00     0.055 A 
ATOM     74  C   UNL A   1      45.674  23.635  24.310  1.00  0.00     0.041 A 
ATOM     75  F   UNL A   1      44.778  25.489  25.309  1.00  0.00    -0.206 F 
ATOM     76  C   UNL A   1      45.749  22.271  24.106  1.00  0.00     0.022 A 
BRANCH  73  77
ATOM     77  S   UNL A   1      44.905  19.669  24.603  1.00  0.00     0.124 S 
ATOM     78  O   UNL A   1      44.658  19.405  23.188  1.00  0.00    -0.237 OA
ATOM     79  O   UNL A   1      46.274  19.477  25.067  1.00  0.00    -0.237 OA
ATOM     80  O   UNL A   1      43.862  19.219  25.520  1.00  0.00    -0.744 OA
ENDBRANCH  73  77
ENDBRANCH  56  70
BRANCH  57  81
ATOM     81  C   UNL A   1      46.311  30.989  27.720  1.00  0.00     0.023 A 
ATOM     82  C   UNL A   1      45.622  31.933  26.925  1.00  0.00     0.031 A 
ATOM     83  C   UNL A   1      47.629  31.331  28.097  1.00  0.00     0.131 A 
ATOM     84  C   UNL A   1      46.249  33.146  26.546  1.00  0.00     0.055 A 
ATOM     85  C   UNL A   1      48.246  32.525  27.714  1.00  0.00     0.041 A 
ATOM     86  F   UNL A   1      48.342  30.553  28.927  1.00  0.00    -0.206 F 
ATOM     87  C   UNL A   1      47.553  33.444  26.945  1.00  0.00     0.022 A 
BRANCH  84  88
ATOM     88  S   UNL A   1      45.336  34.415  25.605  1.00  0.00     0.124 S 
ATOM     89  O   UNL A   1      44.267  34.777  26.528  1.00  0.00    -0.237 OA
ATOM     90  O   UNL A   1      46.359  35.428  25.366  1.00  0.00    -0.237 OA
ATOM     91  O   UNL A   1      44.895  33.701  24.406  1.00  0.00    -0.744 OA
ENDBRANCH  84  88
ENDBRANCH  57  81
BRANCH  69  92
ATOM     92  C   UNL A   1      45.526  26.102  31.667  1.00  0.00     0.023 A 
ATOM     93  C   UNL A   1      44.441  26.650  32.391  1.00  0.00     0.031 A 
ATOM     94  C   UNL A   1      46.706  25.821  32.379  1.00  0.00     0.131 A 
ATOM     95  C   UNL A   1      44.575  26.914  33.768  1.00  0.00     0.055 A 
ATOM     96  C   UNL A   1      46.827  26.063  33.746  1.00  0.00     0.041 A 
ATOM     97  F   UNL A   1      47.763  25.273  31.758  1.00  0.00    -0.206 F 
ATOM     98  C   UNL A   1      45.763  26.620  34.445  1.00  0.00     0.022 A 
BRANCH  95  99
ATOM     99  S   UNL A   1      43.212  27.673  34.709  1.00  0.00     0.124 S 
ATOM    100  O   UNL A   1      42.341  26.548  35.026  1.00  0.00    -0.237 OA
ATOM    101  O   UNL A   1      43.909  28.280  35.840  1.00  0.00    -0.237 OA
ATOM    102  O   UNL A   1      42.642  28.636  33.763  1.00  0.00    -0.744 OA
ENDBRANCH  95  99
ENDBRANCH  69  92
ENDBRANCH  43  44
ENDBRANCH  35  38
ENDBRANCH  33  34
ENDBRANCH  32  33
ENDBRANCH   1  32
TORSDOF 20
ENDMDL
