MODEL 1
REMARK VINA RESULT:     -12.5      0.000      0.000
REMARK SMILES Cc1nn(-c2ccccc2)c(C)c1CNC(=O)CCCC(=O)NCCCCNC(=O)c1ccc(-c2c3nc(c(-c4cc(S(=O)(=O)[O-])ccc4F)c4ccc([nH]4)c(-c4cc(S(=O)(=O)[O-])ccc4F)c4nc(c(-c5cc(S(=O)(=O)[O-])ccc5F)c5ccc2[nH]5)C=C4)C=C3)cc1
REMARK SMILES IDX 24 1 23 2 21 3 22 4 20 6 19 7 18 8 16 9 15 10 17 12 14 13
REMARK SMILES IDX 13 14 1 15 2 16 3 17 4 18 11 19 12 20 5 21 6 22 10 23 7 24
REMARK SMILES IDX 9 25 8 26 25 27 26 28 27 29 28 30 29 31 30 33 31 34 32 35
REMARK SMILES IDX 93 36 33 37 92 38 34 39 35 40 36 41 86 42 37 43 91 44 85 45
REMARK SMILES IDX 87 46 38 47 90 48 84 49 83 50 39 52 71 53 51 54 70 55 52 56
REMARK SMILES IDX 55 57 69 58 88 59 53 60 54 61 68 63 89 64 56 65 40 66 41 67
REMARK SMILES IDX 49 68 42 69 48 70 50 71 47 72 43 73 44 74 45 75 46 76 72 77
REMARK SMILES IDX 73 78 81 79 74 80 80 81 82 82 79 83 75 84 76 85 77 86 78 87
REMARK SMILES IDX 57 88 58 89 66 90 59 91 65 92 67 93 64 94 60 95 61 96 62 97
REMARK SMILES IDX 63 98
REMARK H PARENT 23 5 15 11 28 32 87 51 55 62
REMARK Flexibility Score: inf
ROOT
ATOM      1  C   UNL A   1      32.305  30.138  25.751  1.00  0.00     0.116 C 
ENDROOT
BRANCH   1   2
ATOM      2  N   UNL A   1      33.101  29.570  24.689  1.00  0.00    -0.356 N 
ATOM      3  C   UNL A   1      32.751  28.955  23.531  1.00  0.00     0.220 C 
ATOM      4  O   UNL A   1      33.673  28.568  22.805  1.00  0.00    -0.275 OA
ATOM      5  H   UNL A   1      34.073  29.643  24.830  1.00  0.00     0.163 HD
BRANCH   3   6
ATOM      6  C   UNL A   1      31.314  28.818  23.058  1.00  0.00     0.100 C 
BRANCH   6   7
ATOM      7  C   UNL A   1      30.391  27.766  23.644  1.00  0.00     0.020 C 
BRANCH   7   8
ATOM      8  C   UNL A   1      30.703  26.967  24.911  1.00  0.00     0.100 C 
BRANCH   8   9
ATOM      9  C   UNL A   1      30.225  25.588  25.397  1.00  0.00     0.220 C 
ATOM     10  N   UNL A   1      30.334  24.378  24.818  1.00  0.00    -0.352 N 
ATOM     11  H   UNL A   1      29.944  23.683  25.396  1.00  0.00     0.163 HD
ATOM     12  O   UNL A   1      29.598  25.575  26.470  1.00  0.00    -0.275 OA
BRANCH  10  13
ATOM     13  C   UNL A   1      30.853  23.792  23.596  1.00  0.00     0.155 C 
BRANCH  13  14
ATOM     14  C   UNL A   1      32.342  23.845  23.506  1.00  0.00     0.016 A 
ATOM     15  C   UNL A   1      32.547  25.488  21.459  1.00  0.00     0.069 C 
ATOM     16  C   UNL A   1      33.075  24.637  22.565  1.00  0.00     0.065 A 
ATOM     17  N   UNL A   1      34.388  24.638  22.826  1.00  0.00    -0.173 NA
ATOM     18  N   UNL A   1      34.542  23.715  23.795  1.00  0.00    -0.237 N 
ATOM     19  C   UNL A   1      33.326  23.327  24.338  1.00  0.00     0.046 A 
ATOM     20  C   UNL A   1      33.270  22.627  25.649  1.00  0.00     0.067 C 
BRANCH  18  21
ATOM     21  C   UNL A   1      35.813  23.367  24.315  1.00  0.00     0.065 A 
ATOM     22  C   UNL A   1      36.380  24.135  25.333  1.00  0.00     0.028 A 
ATOM     23  C   UNL A   1      36.404  22.157  23.924  1.00  0.00     0.028 A 
ATOM     24  C   UNL A   1      37.472  23.619  26.036  1.00  0.00     0.002 A 
ATOM     25  C   UNL A   1      37.490  21.650  24.628  1.00  0.00     0.002 A 
ATOM     26  C   UNL A   1      38.007  22.371  25.700  1.00  0.00     0.000 A 
ENDBRANCH  18  21
ENDBRANCH  13  14
ENDBRANCH  10  13
ENDBRANCH   8   9
ENDBRANCH   7   8
ENDBRANCH   6   7
ENDBRANCH   3   6
ENDBRANCH   1   2
BRANCH   1  27
ATOM     27  C   UNL A   1      32.961  29.993  27.126  1.00  0.00     0.023 C 
BRANCH  27  28
ATOM     28  C   UNL A   1      34.006  28.886  27.238  1.00  0.00     0.023 C 
BRANCH  28  29
ATOM     29  C   UNL A   1      35.410  29.399  27.524  1.00  0.00     0.116 C 
BRANCH  29  30
ATOM     30  N   UNL A   1      35.597  29.876  28.900  1.00  0.00    -0.352 N 
ATOM     31  C   UNL A   1      36.569  29.448  29.791  1.00  0.00     0.251 C 
ATOM     32  H   UNL A   1      34.971  30.565  29.221  1.00  0.00     0.163 HD
ATOM     33  O   UNL A   1      36.405  29.531  31.008  1.00  0.00    -0.269 OA
BRANCH  31  34
ATOM     34  C   UNL A   1      37.824  28.932  29.223  1.00  0.00     0.039 A 
ATOM     35  C   UNL A   1      38.430  29.457  28.079  1.00  0.00     0.014 A 
ATOM     36  C   UNL A   1      38.445  27.939  29.977  1.00  0.00     0.014 A 
ATOM     37  C   UNL A   1      39.709  29.010  27.745  1.00  0.00     0.010 A 
ATOM     38  C   UNL A   1      39.768  27.681  29.776  1.00  0.00     0.010 A 
ATOM     39  C   UNL A   1      40.377  28.129  28.613  1.00  0.00    -0.014 A 
BRANCH  39  40
ATOM     40  C   UNL A   1      41.773  27.745  28.435  1.00  0.00     0.031 A 
ATOM     41  C   UNL A   1      41.943  26.466  27.701  1.00  0.00     0.074 A 
ATOM     42  C   UNL A   1      42.798  28.599  28.667  1.00  0.00     0.049 A 
ATOM     43  N   UNL A   1      42.259  25.318  28.197  1.00  0.00    -0.248 NA
ATOM     44  C   UNL A   1      41.502  26.396  26.296  1.00  0.00     0.031 C 
ATOM     45  C   UNL A   1      42.742  30.001  29.103  1.00  0.00     0.029 A 
ATOM     46  N   UNL A   1      44.130  28.418  28.467  1.00  0.00    -0.354 N 
ATOM     47  C   UNL A   1      42.358  24.455  27.112  1.00  0.00     0.074 A 
ATOM     48  C   UNL A   1      41.623  25.089  26.053  1.00  0.00     0.031 C 
ATOM     49  C   UNL A   1      43.945  30.593  28.916  1.00  0.00     0.029 A 
ATOM     50  C   UNL A   1      44.904  29.579  28.514  1.00  0.00     0.049 A 
ATOM     51  H   UNL A   1      44.522  27.531  28.301  1.00  0.00     0.167 HD
ATOM     52  C   UNL A   1      43.291  23.461  27.101  1.00  0.00     0.034 A 
ATOM     53  C   UNL A   1      46.238  29.698  28.252  1.00  0.00     0.034 A 
ATOM     54  C   UNL A   1      43.830  23.262  28.435  1.00  0.00     0.049 A 
ATOM     55  C   UNL A   1      46.810  28.338  28.434  1.00  0.00     0.074 A 
ATOM     56  C   UNL A   1      43.275  22.966  29.666  1.00  0.00     0.029 A 
ATOM     57  N   UNL A   1      45.070  23.799  28.714  1.00  0.00    -0.354 N 
ATOM     58  N   UNL A   1      46.820  27.725  29.587  1.00  0.00    -0.248 NA
ATOM     59  C   UNL A   1      46.863  27.465  27.270  1.00  0.00     0.031 C 
ATOM     60  C   UNL A   1      43.961  23.814  30.588  1.00  0.00     0.029 A 
ATOM     61  C   UNL A   1      44.971  24.490  29.899  1.00  0.00     0.049 A 
ATOM     62  H   UNL A   1      45.882  23.705  28.165  1.00  0.00     0.167 HD
ATOM     63  C   UNL A   1      46.432  26.423  29.306  1.00  0.00     0.074 A 
ATOM     64  C   UNL A   1      46.556  26.301  27.852  1.00  0.00     0.031 C 
ATOM     65  C   UNL A   1      45.761  25.666  30.227  1.00  0.00     0.034 A 
BRANCH  52  66
ATOM     66  C   UNL A   1      44.018  22.964  25.864  1.00  0.00     0.023 A 
ATOM     67  C   UNL A   1      44.045  21.570  25.668  1.00  0.00     0.031 A 
ATOM     68  C   UNL A   1      44.903  23.707  25.051  1.00  0.00     0.131 A 
ATOM     69  C   UNL A   1      44.996  20.973  24.824  1.00  0.00     0.055 A 
ATOM     70  C   UNL A   1      45.805  23.112  24.163  1.00  0.00     0.041 A 
ATOM     71  F   UNL A   1      45.015  25.038  25.114  1.00  0.00    -0.206 F 
ATOM     72  C   UNL A   1      45.883  21.735  24.073  1.00  0.00     0.022 A 
BRANCH  69  73
ATOM     73  S   UNL A   1      45.174  19.173  24.881  1.00  0.00     0.124 S 
ATOM     74  O   UNL A   1      45.537  18.873  23.501  1.00  0.00    -0.237 OA
ATOM     75  O   UNL A   1      46.227  19.010  25.878  1.00  0.00    -0.237 OA
ATOM     76  O   UNL A   1      43.848  18.717  25.293  1.00  0.00    -0.744 OA
ENDBRANCH  69  73
ENDBRANCH  52  66
BRANCH  53  77
ATOM     77  C   UNL A   1      46.940  30.801  27.522  1.00  0.00     0.023 A 
ATOM     78  C   UNL A   1      46.292  31.970  27.049  1.00  0.00     0.031 A 
ATOM     79  C   UNL A   1      48.354  30.823  27.509  1.00  0.00     0.131 A 
ATOM     80  C   UNL A   1      47.052  33.083  26.602  1.00  0.00     0.055 A 
ATOM     81  C   UNL A   1      49.096  31.928  27.078  1.00  0.00     0.041 A 
ATOM     82  F   UNL A   1      49.068  29.796  27.995  1.00  0.00    -0.206 F 
ATOM     83  C   UNL A   1      48.447  33.067  26.632  1.00  0.00     0.022 A 
BRANCH  80  84
ATOM     84  S   UNL A   1      46.238  34.619  26.032  1.00  0.00     0.124 S 
ATOM     85  O   UNL A   1      47.090  35.654  26.604  1.00  0.00    -0.237 OA
ATOM     86  O   UNL A   1      46.275  34.476  24.581  1.00  0.00    -0.237 OA
ATOM     87  O   UNL A   1      44.899  34.536  26.617  1.00  0.00    -0.744 OA
ENDBRANCH  80  84
ENDBRANCH  53  77
BRANCH  65  88
ATOM     88  C   UNL A   1      45.680  26.170  31.661  1.00  0.00     0.023 A 
ATOM     89  C   UNL A   1      44.576  26.846  32.235  1.00  0.00     0.031 A 
ATOM     90  C   UNL A   1      46.746  25.830  32.512  1.00  0.00     0.131 A 
ATOM     91  C   UNL A   1      44.579  27.161  33.612  1.00  0.00     0.055 A 
ATOM     92  C   UNL A   1      46.733  26.121  33.875  1.00  0.00     0.041 A 
ATOM     93  F   UNL A   1      47.812  25.168  32.036  1.00  0.00    -0.206 F 
ATOM     94  C   UNL A   1      45.651  26.793  34.430  1.00  0.00     0.022 A 
BRANCH  91  95
ATOM     95  S   UNL A   1      43.193  28.077  34.369  1.00  0.00     0.124 S 
ATOM     96  O   UNL A   1      43.785  28.666  35.565  1.00  0.00    -0.237 OA
ATOM     97  O   UNL A   1      42.818  29.015  33.315  1.00  0.00    -0.237 OA
ATOM     98  O   UNL A   1      42.199  27.034  34.634  1.00  0.00    -0.744 OA
ENDBRANCH  91  95
ENDBRANCH  65  88
ENDBRANCH  39  40
ENDBRANCH  31  34
ENDBRANCH  29  30
ENDBRANCH  28  29
ENDBRANCH  27  28
ENDBRANCH   1  27
TORSDOF 20
ENDMDL
MODEL 2
REMARK VINA RESULT:     -12.2      4.253      5.571
REMARK SMILES Cc1nn(-c2ccccc2)c(C)c1CNC(=O)CCCC(=O)NCCCCNC(=O)c1ccc(-c2c3nc(c(-c4cc(S(=O)(=O)[O-])ccc4F)c4ccc([nH]4)c(-c4cc(S(=O)(=O)[O-])ccc4F)c4nc(c(-c5cc(S(=O)(=O)[O-])ccc5F)c5ccc2[nH]5)C=C4)C=C3)cc1
REMARK SMILES IDX 24 1 23 2 21 3 22 4 20 6 19 7 18 8 16 9 15 10 17 12 14 13
REMARK SMILES IDX 13 14 1 15 2 16 3 17 4 18 11 19 12 20 5 21 6 22 10 23 7 24
REMARK SMILES IDX 9 25 8 26 25 27 26 28 27 29 28 30 29 31 30 33 31 34 32 35
REMARK SMILES IDX 93 36 33 37 92 38 34 39 35 40 36 41 86 42 37 43 91 44 85 45
REMARK SMILES IDX 87 46 38 47 90 48 84 49 83 50 39 52 71 53 51 54 70 55 52 56
REMARK SMILES IDX 55 57 69 58 88 59 53 60 54 61 68 63 89 64 56 65 40 66 41 67
REMARK SMILES IDX 49 68 42 69 48 70 50 71 47 72 43 73 44 74 45 75 46 76 72 77
REMARK SMILES IDX 73 78 81 79 74 80 80 81 82 82 79 83 75 84 76 85 77 86 78 87
REMARK SMILES IDX 57 88 58 89 66 90 59 91 65 92 67 93 64 94 60 95 61 96 62 97
REMARK SMILES IDX 63 98
REMARK H PARENT 23 5 15 11 28 32 87 51 55 62
REMARK Flexibility Score: inf
ROOT
ATOM      1  C   UNL A   1      33.277  29.621  26.454  1.00  0.00     0.116 C 
ENDROOT
BRANCH   1   2
ATOM      2  N   UNL A   1      33.526  29.720  25.036  1.00  0.00    -0.356 N 
ATOM      3  C   UNL A   1      33.353  28.830  24.026  1.00  0.00     0.220 C 
ATOM      4  O   UNL A   1      33.660  29.209  22.890  1.00  0.00    -0.275 OA
ATOM      5  H   UNL A   1      33.885  30.592  24.749  1.00  0.00     0.163 HD
BRANCH   3   6
ATOM      6  C   UNL A   1      32.721  27.461  24.216  1.00  0.00     0.100 C 
BRANCH   6   7
ATOM      7  C   UNL A   1      31.241  27.315  24.511  1.00  0.00     0.020 C 
BRANCH   7   8
ATOM      8  C   UNL A   1      30.678  26.483  25.666  1.00  0.00     0.100 C 
BRANCH   8   9
ATOM      9  C   UNL A   1      30.182  25.029  25.736  1.00  0.00     0.220 C 
ATOM     10  N   UNL A   1      30.255  24.042  24.824  1.00  0.00    -0.352 N 
ATOM     11  H   UNL A   1      29.864  23.213  25.181  1.00  0.00     0.163 HD
ATOM     12  O   UNL A   1      29.577  24.708  26.773  1.00  0.00    -0.275 OA
BRANCH  10  13
ATOM     13  C   UNL A   1      30.737  23.836  23.470  1.00  0.00     0.155 C 
BRANCH  13  14
ATOM     14  C   UNL A   1      32.227  23.844  23.371  1.00  0.00     0.016 A 
ATOM     15  C   UNL A   1      32.462  25.353  21.226  1.00  0.00     0.069 C 
ATOM     16  C   UNL A   1      32.975  24.557  22.379  1.00  0.00     0.065 A 
ATOM     17  N   UNL A   1      34.289  24.539  22.635  1.00  0.00    -0.173 NA
ATOM     18  N   UNL A   1      34.425  23.673  23.657  1.00  0.00    -0.237 N 
ATOM     19  C   UNL A   1      33.202  23.352  24.228  1.00  0.00     0.046 A 
ATOM     20  C   UNL A   1      33.135  22.734  25.580  1.00  0.00     0.067 C 
BRANCH  18  21
ATOM     21  C   UNL A   1      35.689  23.323  24.192  1.00  0.00     0.065 A 
ATOM     22  C   UNL A   1      36.223  24.061  25.249  1.00  0.00     0.028 A 
ATOM     23  C   UNL A   1      36.305  22.136  23.770  1.00  0.00     0.028 A 
ATOM     24  C   UNL A   1      37.307  23.535  25.957  1.00  0.00     0.002 A 
ATOM     25  C   UNL A   1      37.383  21.618  24.479  1.00  0.00     0.002 A 
ATOM     26  C   UNL A   1      37.867  22.308  25.587  1.00  0.00     0.000 A 
ENDBRANCH  18  21
ENDBRANCH  13  14
ENDBRANCH  10  13
ENDBRANCH   8   9
ENDBRANCH   7   8
ENDBRANCH   6   7
ENDBRANCH   3   6
ENDBRANCH   1   2
BRANCH   1  27
ATOM     27  C   UNL A   1      31.879  30.103  26.846  1.00  0.00     0.023 C 
BRANCH  27  28
ATOM     28  C   UNL A   1      31.677  31.616  26.814  1.00  0.00     0.023 C 
BRANCH  28  29
ATOM     29  C   UNL A   1      32.898  32.405  27.264  1.00  0.00     0.116 C 
BRANCH  29  30
ATOM     30  N   UNL A   1      32.606  33.799  27.615  1.00  0.00    -0.352 N 
ATOM     31  C   UNL A   1      33.103  34.491  28.709  1.00  0.00     0.251 C 
ATOM     32  H   UNL A   1      31.998  34.291  27.016  1.00  0.00     0.163 HD
ATOM     33  O   UNL A   1      32.499  35.450  29.190  1.00  0.00    -0.269 OA
BRANCH  31  34
ATOM     34  C   UNL A   1      34.403  34.060  29.245  1.00  0.00     0.039 A 
ATOM     35  C   UNL A   1      34.545  33.280  30.395  1.00  0.00     0.014 A 
ATOM     36  C   UNL A   1      35.502  34.389  28.456  1.00  0.00     0.014 A 
ATOM     37  C   UNL A   1      35.811  32.778  30.700  1.00  0.00     0.010 A 
ATOM     38  C   UNL A   1      36.673  33.714  28.632  1.00  0.00     0.010 A 
ATOM     39  C   UNL A   1      36.870  32.990  29.799  1.00  0.00    -0.014 A 
BRANCH  39  40
ATOM     40  C   UNL A   1      38.177  32.362  29.948  1.00  0.00     0.031 A 
ATOM     41  C   UNL A   1      38.206  30.949  29.494  1.00  0.00     0.074 A 
ATOM     42  C   UNL A   1      39.301  33.072  30.208  1.00  0.00     0.049 A 
ATOM     43  N   UNL A   1      38.222  29.893  30.234  1.00  0.00    -0.248 NA
ATOM     44  C   UNL A   1      37.973  30.663  28.067  1.00  0.00     0.031 C 
ATOM     45  C   UNL A   1      39.450  34.524  30.373  1.00  0.00     0.029 A 
ATOM     46  N   UNL A   1      40.589  32.645  30.287  1.00  0.00    -0.354 N 
ATOM     47  C   UNL A   1      38.313  28.820  29.354  1.00  0.00     0.074 A 
ATOM     48  C   UNL A   1      37.877  29.331  28.084  1.00  0.00     0.031 C 
ATOM     49  C   UNL A   1      40.758  34.867  30.305  1.00  0.00     0.029 A 
ATOM     50  C   UNL A   1      41.554  33.653  30.269  1.00  0.00     0.049 A 
ATOM     51  H   UNL A   1      40.824  31.692  30.354  1.00  0.00     0.167 HD
ATOM     52  C   UNL A   1      39.031  27.710  29.687  1.00  0.00     0.034 A 
ATOM     53  C   UNL A   1      42.910  33.503  30.236  1.00  0.00     0.034 A 
ATOM     54  C   UNL A   1      39.320  27.707  31.111  1.00  0.00     0.049 A 
ATOM     55  C   UNL A   1      43.179  32.137  30.756  1.00  0.00     0.074 A 
ATOM     56  C   UNL A   1      38.543  27.762  32.253  1.00  0.00     0.029 A 
ATOM     57  N   UNL A   1      40.584  28.087  31.512  1.00  0.00    -0.354 N 
ATOM     58  N   UNL A   1      42.902  31.780  31.982  1.00  0.00    -0.248 NA
ATOM     59  C   UNL A   1      43.236  31.045  29.794  1.00  0.00     0.031 C 
ATOM     60  C   UNL A   1      39.234  28.662  33.120  1.00  0.00     0.029 A 
ATOM     61  C   UNL A   1      40.445  29.013  32.518  1.00  0.00     0.049 A 
ATOM     62  H   UNL A   1      41.435  27.754  31.144  1.00  0.00     0.167 HD
ATOM     63  C   UNL A   1      42.319  30.526  31.869  1.00  0.00     0.074 A 
ATOM     64  C   UNL A   1      42.630  30.089  30.506  1.00  0.00     0.031 C 
ATOM     65  C   UNL A   1      41.387  30.091  32.772  1.00  0.00     0.034 A 
BRANCH  52  66
ATOM     66  C   UNL A   1      39.824  26.860  28.711  1.00  0.00     0.023 A 
ATOM     67  C   UNL A   1      40.861  27.507  28.012  1.00  0.00     0.031 A 
ATOM     68  C   UNL A   1      39.464  25.585  28.218  1.00  0.00     0.131 A 
ATOM     69  C   UNL A   1      41.383  26.967  26.824  1.00  0.00     0.055 A 
ATOM     70  C   UNL A   1      40.033  25.022  27.071  1.00  0.00     0.041 A 
ATOM     71  F   UNL A   1      38.493  24.839  28.754  1.00  0.00    -0.206 F 
ATOM     72  C   UNL A   1      40.971  25.730  26.343  1.00  0.00     0.022 A 
BRANCH  69  73
ATOM     73  S   UNL A   1      42.469  28.010  25.821  1.00  0.00     0.124 S 
ATOM     74  O   UNL A   1      43.735  27.881  26.535  1.00  0.00    -0.237 OA
ATOM     75  O   UNL A   1      42.390  27.357  24.519  1.00  0.00    -0.237 OA
ATOM     76  O   UNL A   1      41.838  29.326  25.899  1.00  0.00    -0.744 OA
ENDBRANCH  69  73
ENDBRANCH  52  66
BRANCH  53  77
ATOM     77  C   UNL A   1      43.910  34.307  29.464  1.00  0.00     0.023 A 
ATOM     78  C   UNL A   1      44.423  33.921  28.200  1.00  0.00     0.031 A 
ATOM     79  C   UNL A   1      44.185  35.633  29.870  1.00  0.00     0.131 A 
ATOM     80  C   UNL A   1      45.160  34.843  27.411  1.00  0.00     0.055 A 
ATOM     81  C   UNL A   1      44.902  36.539  29.082  1.00  0.00     0.041 A 
ATOM     82  F   UNL A   1      43.692  36.123  31.019  1.00  0.00    -0.206 F 
ATOM     83  C   UNL A   1      45.385  36.150  27.843  1.00  0.00     0.022 A 
BRANCH  80  84
ATOM     84  S   UNL A   1      45.791  34.382  25.756  1.00  0.00     0.124 S 
ATOM     85  O   UNL A   1      46.426  33.095  26.012  1.00  0.00    -0.237 OA
ATOM     86  O   UNL A   1      44.576  34.359  24.950  1.00  0.00    -0.237 OA
ATOM     87  O   UNL A   1      46.718  35.467  25.428  1.00  0.00    -0.744 OA
ENDBRANCH  80  84
ENDBRANCH  53  77
BRANCH  65  88
ATOM     88  C   UNL A   1      41.194  30.885  34.055  1.00  0.00     0.023 A 
ATOM     89  C   UNL A   1      40.218  31.891  34.262  1.00  0.00     0.031 A 
ATOM     90  C   UNL A   1      41.975  30.503  35.160  1.00  0.00     0.131 A 
ATOM     91  C   UNL A   1      40.065  32.475  35.539  1.00  0.00     0.055 A 
ATOM     92  C   UNL A   1      41.804  31.065  36.424  1.00  0.00     0.041 A 
ATOM     93  F   UNL A   1      42.901  29.539  35.037  1.00  0.00    -0.206 F 
ATOM     94  C   UNL A   1      40.851  32.058  36.617  1.00  0.00     0.022 A 
BRANCH  91  95
ATOM     95  S   UNL A   1      38.852  33.809  35.823  1.00  0.00     0.124 S 
ATOM     96  O   UNL A   1      38.750  33.875  37.276  1.00  0.00    -0.237 OA
ATOM     97  O   UNL A   1      39.482  34.956  35.176  1.00  0.00    -0.237 OA
ATOM     98  O   UNL A   1      37.646  33.321  35.151  1.00  0.00    -0.744 OA
ENDBRANCH  91  95
ENDBRANCH  65  88
ENDBRANCH  39  40
ENDBRANCH  31  34
ENDBRANCH  29  30
ENDBRANCH  28  29
ENDBRANCH  27  28
ENDBRANCH   1  27
TORSDOF 20
ENDMDL
MODEL 3
REMARK VINA RESULT:     -12.2      3.141      8.767
REMARK SMILES Cc1nn(-c2ccccc2)c(C)c1CNC(=O)CCCC(=O)NCCCCNC(=O)c1ccc(-c2c3nc(c(-c4cc(S(=O)(=O)[O-])ccc4F)c4ccc([nH]4)c(-c4cc(S(=O)(=O)[O-])ccc4F)c4nc(c(-c5cc(S(=O)(=O)[O-])ccc5F)c5ccc2[nH]5)C=C4)C=C3)cc1
REMARK SMILES IDX 24 1 23 2 21 3 22 4 20 6 19 7 18 8 16 9 15 10 17 12 14 13
REMARK SMILES IDX 13 14 1 15 2 16 3 17 4 18 11 19 12 20 5 21 6 22 10 23 7 24
REMARK SMILES IDX 9 25 8 26 25 27 26 28 27 29 28 30 29 31 30 33 31 34 32 35
REMARK SMILES IDX 93 36 33 37 92 38 34 39 35 40 36 41 86 42 37 43 91 44 85 45
REMARK SMILES IDX 87 46 38 47 90 48 84 49 83 50 39 52 71 53 51 54 70 55 52 56
REMARK SMILES IDX 55 57 69 58 88 59 53 60 54 61 68 63 89 64 56 65 40 66 41 67
REMARK SMILES IDX 49 68 42 69 48 70 50 71 47 72 43 73 44 74 45 75 46 76 72 77
REMARK SMILES IDX 73 78 81 79 74 80 80 81 82 82 79 83 75 84 76 85 77 86 78 87
REMARK SMILES IDX 57 88 58 89 66 90 59 91 65 92 67 93 64 94 60 95 61 96 62 97
REMARK SMILES IDX 63 98
REMARK H PARENT 23 5 15 11 28 32 87 51 55 62
REMARK Flexibility Score: inf
ROOT
ATOM      1  C   UNL A   1      35.507  20.655  25.131  1.00  0.00     0.116 C 
ENDROOT
BRANCH   1   2
ATOM      2  N   UNL A   1      34.249  19.955  25.244  1.00  0.00    -0.356 N 
ATOM      3  C   UNL A   1      33.012  20.243  24.767  1.00  0.00     0.220 C 
ATOM      4  O   UNL A   1      32.112  19.437  25.029  1.00  0.00    -0.275 OA
ATOM      5  H   UNL A   1      34.299  19.117  25.759  1.00  0.00     0.163 HD
BRANCH   3   6
ATOM      6  C   UNL A   1      32.718  21.430  23.865  1.00  0.00     0.100 C 
BRANCH   6   7
ATOM      7  C   UNL A   1      31.503  22.308  24.095  1.00  0.00     0.020 C 
BRANCH   7   8
ATOM      8  C   UNL A   1      31.149  22.942  25.442  1.00  0.00     0.100 C 
BRANCH   8   9
ATOM      9  C   UNL A   1      32.019  23.610  26.521  1.00  0.00     0.220 C 
ATOM     10  N   UNL A   1      32.866  24.652  26.431  1.00  0.00    -0.352 N 
ATOM     11  H   UNL A   1      33.258  24.855  27.311  1.00  0.00     0.163 HD
ATOM     12  O   UNL A   1      31.983  23.091  27.650  1.00  0.00    -0.275 OA
BRANCH  10  13
ATOM     13  C   UNL A   1      33.373  25.566  25.424  1.00  0.00     0.155 C 
BRANCH  13  14
ATOM     14  C   UNL A   1      32.401  26.641  25.065  1.00  0.00     0.016 A 
ATOM     15  C   UNL A   1      32.876  28.278  27.070  1.00  0.00     0.069 C 
ATOM     16  C   UNL A   1      32.222  27.858  25.797  1.00  0.00     0.065 A 
ATOM     17  N   UNL A   1      31.422  28.717  25.153  1.00  0.00    -0.173 NA
ATOM     18  N   UNL A   1      30.929  28.011  24.117  1.00  0.00    -0.237 N 
ATOM     19  C   UNL A   1      31.606  26.813  23.939  1.00  0.00     0.046 A 
ATOM     20  C   UNL A   1      31.499  26.065  22.658  1.00  0.00     0.067 C 
BRANCH  18  21
ATOM     21  C   UNL A   1      29.981  28.551  23.214  1.00  0.00     0.065 A 
ATOM     22  C   UNL A   1      28.626  28.260  23.375  1.00  0.00     0.028 A 
ATOM     23  C   UNL A   1      30.396  29.511  22.280  1.00  0.00     0.028 A 
ATOM     24  C   UNL A   1      27.686  29.025  22.680  1.00  0.00     0.002 A 
ATOM     25  C   UNL A   1      29.456  30.268  21.592  1.00  0.00     0.002 A 
ATOM     26  C   UNL A   1      28.100  30.040  21.811  1.00  0.00     0.000 A 
ENDBRANCH  18  21
ENDBRANCH  13  14
ENDBRANCH  10  13
ENDBRANCH   8   9
ENDBRANCH   7   8
ENDBRANCH   6   7
ENDBRANCH   3   6
ENDBRANCH   1   2
BRANCH   1  27
ATOM     27  C   UNL A   1      36.702  19.709  24.999  1.00  0.00     0.023 C 
BRANCH  27  28
ATOM     28  C   UNL A   1      38.026  20.378  24.635  1.00  0.00     0.023 C 
BRANCH  28  29
ATOM     29  C   UNL A   1      38.964  20.559  25.819  1.00  0.00     0.116 C 
BRANCH  29  30
ATOM     30  N   UNL A   1      39.962  19.491  25.953  1.00  0.00    -0.352 N 
ATOM     31  C   UNL A   1      41.337  19.656  26.008  1.00  0.00     0.251 C 
ATOM     32  H   UNL A   1      39.622  18.569  26.007  1.00  0.00     0.163 HD
ATOM     33  O   UNL A   1      42.106  18.756  25.669  1.00  0.00    -0.269 OA
BRANCH  31  34
ATOM     34  C   UNL A   1      41.842  20.935  26.530  1.00  0.00     0.039 A 
ATOM     35  C   UNL A   1      42.235  22.001  25.717  1.00  0.00     0.014 A 
ATOM     36  C   UNL A   1      41.798  21.064  27.915  1.00  0.00     0.014 A 
ATOM     37  C   UNL A   1      42.517  23.226  26.324  1.00  0.00     0.010 A 
ATOM     38  C   UNL A   1      41.852  22.307  28.471  1.00  0.00     0.010 A 
ATOM     39  C   UNL A   1      42.307  23.371  27.707  1.00  0.00    -0.014 A 
BRANCH  39  40
ATOM     40  C   UNL A   1      42.410  24.653  28.395  1.00  0.00     0.031 A 
ATOM     41  C   UNL A   1      41.218  25.518  28.211  1.00  0.00     0.074 A 
ATOM     42  C   UNL A   1      43.364  24.906  29.323  1.00  0.00     0.049 A 
ATOM     43  N   UNL A   1      41.117  26.554  27.450  1.00  0.00    -0.248 NA
ATOM     44  C   UNL A   1      39.927  25.064  28.759  1.00  0.00     0.031 C 
ATOM     45  C   UNL A   1      44.420  24.014  29.820  1.00  0.00     0.029 A 
ATOM     46  N   UNL A   1      43.534  26.007  30.102  1.00  0.00    -0.354 N 
ATOM     47  C   UNL A   1      39.839  27.056  27.668  1.00  0.00     0.074 A 
ATOM     48  C   UNL A   1      39.094  25.967  28.238  1.00  0.00     0.031 C 
ATOM     49  C   UNL A   1      44.960  24.520  30.953  1.00  0.00     0.029 A 
ATOM     50  C   UNL A   1      44.420  25.851  31.170  1.00  0.00     0.049 A 
ATOM     51  H   UNL A   1      43.066  26.855  29.926  1.00  0.00     0.167 HD
ATOM     52  C   UNL A   1      39.611  28.400  27.649  1.00  0.00     0.034 A 
ATOM     53  C   UNL A   1      44.698  26.752  32.156  1.00  0.00     0.034 A 
ATOM     54  C   UNL A   1      40.737  29.093  27.049  1.00  0.00     0.049 A 
ATOM     55  C   UNL A   1      44.318  28.081  31.609  1.00  0.00     0.074 A 
ATOM     56  C   UNL A   1      41.383  29.009  25.829  1.00  0.00     0.029 A 
ATOM     57  N   UNL A   1      41.632  29.718  27.893  1.00  0.00    -0.354 N 
ATOM     58  N   UNL A   1      44.918  28.620  30.581  1.00  0.00    -0.248 NA
ATOM     59  C   UNL A   1      42.958  28.546  31.843  1.00  0.00     0.031 C 
ATOM     60  C   UNL A   1      42.773  29.090  26.149  1.00  0.00     0.029 A 
ATOM     61  C   UNL A   1      42.898  29.339  27.518  1.00  0.00     0.049 A 
ATOM     62  H   UNL A   1      41.404  30.329  28.632  1.00  0.00     0.167 HD
ATOM     63  C   UNL A   1      43.896  29.130  29.795  1.00  0.00     0.074 A 
ATOM     64  C   UNL A   1      42.718  29.132  30.665  1.00  0.00     0.031 C 
ATOM     65  C   UNL A   1      44.021  29.218  28.435  1.00  0.00     0.034 A 
BRANCH  52  66
ATOM     66  C   UNL A   1      38.602  29.124  28.523  1.00  0.00     0.023 A 
ATOM     67  C   UNL A   1      38.889  29.181  29.900  1.00  0.00     0.031 A 
ATOM     68  C   UNL A   1      37.287  29.495  28.162  1.00  0.00     0.131 A 
ATOM     69  C   UNL A   1      37.881  29.447  30.842  1.00  0.00     0.055 A 
ATOM     70  C   UNL A   1      36.302  29.823  29.100  1.00  0.00     0.041 A 
ATOM     71  F   UNL A   1      36.842  29.488  26.902  1.00  0.00    -0.206 F 
ATOM     72  C   UNL A   1      36.585  29.763  30.452  1.00  0.00     0.022 A 
BRANCH  69  73
ATOM     73  S   UNL A   1      38.258  29.179  32.591  1.00  0.00     0.124 S 
ATOM     74  O   UNL A   1      37.647  27.875  32.824  1.00  0.00    -0.237 OA
ATOM     75  O   UNL A   1      39.716  29.220  32.591  1.00  0.00    -0.237 OA
ATOM     76  O   UNL A   1      37.602  30.305  33.254  1.00  0.00    -0.744 OA
ENDBRANCH  69  73
ENDBRANCH  52  66
BRANCH  53  77
ATOM     77  C   UNL A   1      44.915  26.488  33.614  1.00  0.00     0.023 A 
ATOM     78  C   UNL A   1      43.904  26.626  34.598  1.00  0.00     0.031 A 
ATOM     79  C   UNL A   1      46.099  25.832  34.024  1.00  0.00     0.131 A 
ATOM     80  C   UNL A   1      44.101  26.115  35.909  1.00  0.00     0.055 A 
ATOM     81  C   UNL A   1      46.282  25.322  35.313  1.00  0.00     0.041 A 
ATOM     82  F   UNL A   1      47.094  25.591  33.155  1.00  0.00    -0.206 F 
ATOM     83  C   UNL A   1      45.278  25.452  36.259  1.00  0.00     0.022 A 
BRANCH  80  84
ATOM     84  S   UNL A   1      42.793  26.239  37.181  1.00  0.00     0.124 S 
ATOM     85  O   UNL A   1      42.064  24.989  37.001  1.00  0.00    -0.237 OA
ATOM     86  O   UNL A   1      43.562  26.371  38.413  1.00  0.00    -0.237 OA
ATOM     87  O   UNL A   1      42.051  27.440  36.796  1.00  0.00    -0.744 OA
ENDBRANCH  80  84
ENDBRANCH  53  77
BRANCH  65  88
ATOM     88  C   UNL A   1      45.394  29.002  27.816  1.00  0.00     0.023 A 
ATOM     89  C   UNL A   1      45.858  27.792  27.243  1.00  0.00     0.031 A 
ATOM     90  C   UNL A   1      46.222  30.132  27.703  1.00  0.00     0.131 A 
ATOM     91  C   UNL A   1      47.113  27.753  26.597  1.00  0.00     0.055 A 
ATOM     92  C   UNL A   1      47.449  30.094  27.043  1.00  0.00     0.041 A 
ATOM     93  F   UNL A   1      45.831  31.315  28.204  1.00  0.00    -0.206 F 
ATOM     94  C   UNL A   1      47.902  28.902  26.491  1.00  0.00     0.022 A 
BRANCH  91  95
ATOM     95  S   UNL A   1      47.759  26.197  25.894  1.00  0.00     0.124 S 
ATOM     96  O   UNL A   1      47.103  26.110  24.594  1.00  0.00    -0.237 OA
ATOM     97  O   UNL A   1      49.200  26.434  25.866  1.00  0.00    -0.237 OA
ATOM     98  O   UNL A   1      47.331  25.183  26.861  1.00  0.00    -0.744 OA
ENDBRANCH  91  95
ENDBRANCH  65  88
ENDBRANCH  39  40
ENDBRANCH  31  34
ENDBRANCH  29  30
ENDBRANCH  28  29
ENDBRANCH  27  28
ENDBRANCH   1  27
TORSDOF 20
ENDMDL
