MODEL 1
REMARK VINA RESULT:     -11.7      0.000      0.000
REMARK SMILES [NH3+]CCC1=c2cc([N+](=O)[O-])ccc2=N[C@H]1C(=O)NCCCCNC(=O)c1ccc(-c2c3nc(c(-c4cc(S(=O)(=O)[O-])ccc4F)c4ccc([nH]4)c(-c4cc(S(=O)(=O)[O-])ccc4F)c4nc(c(-c5cc(S(=O)(=O)[O-])ccc5F)c5ccc2[nH]5)C=C4)C=C3)cc1
REMARK SMILES IDX 20 1 19 2 18 3 16 4 17 5 15 7 4 8 5 9 6 10 13 11 14 12 7 13
REMARK SMILES IDX 12 14 11 15 3 16 2 17 1 18 8 22 9 23 10 24 21 25 22 26 23 27
REMARK SMILES IDX 24 28 25 30 26 31 27 32 88 33 28 34 87 35 29 36 30 37 31 38
REMARK SMILES IDX 81 39 32 40 86 41 80 42 82 43 33 44 85 45 79 46 78 47 34 49
REMARK SMILES IDX 66 50 46 51 65 52 47 53 50 54 64 55 83 56 48 57 49 58 63 60
REMARK SMILES IDX 84 61 51 62 35 63 36 64 44 65 37 66 43 67 45 68 42 69 38 70
REMARK SMILES IDX 39 71 40 72 41 73 67 74 68 75 76 76 69 77 75 78 77 79 74 80
REMARK SMILES IDX 70 81 71 82 72 83 73 84 52 85 53 86 61 87 54 88 60 89 62 90
REMARK SMILES IDX 59 91 55 92 56 93 57 94 58 95
REMARK H PARENT 18 6 1 19 1 20 1 21 23 29 82 48 50 59
REMARK Flexibility Score: inf
ROOT
ATOM      1  C   UNL A   1      33.630  28.874  25.144  1.00  0.00     0.023 C 
ENDROOT
BRANCH   1   2
ATOM      2  C   UNL A   1      33.436  27.364  25.270  1.00  0.00     0.116 C 
BRANCH   2   3
ATOM      3  N   UNL A   1      33.796  26.634  24.066  1.00  0.00    -0.354 N 
ATOM      4  C   UNL A   1      34.026  25.293  23.916  1.00  0.00     0.249 C 
ATOM      5  O   UNL A   1      34.265  24.866  22.784  1.00  0.00    -0.272 OA
ATOM      6  H   UNL A   1      33.885  27.177  23.249  1.00  0.00     0.163 HD
BRANCH   4   7
ATOM      7  C   UNL A   1      33.941  24.372  25.153  1.00  0.00     0.222 C 
ATOM      8  C   UNL A   1      32.882  23.308  25.008  1.00  0.00    -0.021 C 
ATOM      9  C   UNL A   1      33.445  22.100  25.002  1.00  0.00     0.009 A 
ATOM     10  C   UNL A   1      32.953  20.759  24.913  1.00  0.00     0.096 A 
ATOM     11  C   UNL A   1      34.883  22.396  25.126  1.00  0.00     0.067 A 
ATOM     12  N   UNL A   1      35.239  23.635  25.258  1.00  0.00    -0.267 NA
ATOM     13  C   UNL A   1      33.846  19.750  24.924  1.00  0.00     0.270 A 
ATOM     14  C   UNL A   1      35.800  21.235  25.101  1.00  0.00     0.035 A 
ATOM     15  C   UNL A   1      35.284  19.996  25.001  1.00  0.00     0.088 A 
BRANCH   8  16
ATOM     16  C   UNL A   1      31.420  23.632  24.895  1.00  0.00     0.096 C 
BRANCH  16  17
ATOM     17  C   UNL A   1      30.800  23.438  23.499  1.00  0.00     0.263 C 
BRANCH  17  18
ATOM     18  N   UNL A   1      31.795  23.348  22.432  1.00  0.00    -0.357 N 
ATOM     19  H   UNL A   1      31.818  24.225  21.914  1.00  0.00     0.344 HD
ATOM     20  H   UNL A   1      31.549  22.585  21.802  1.00  0.00     0.344 HD
ATOM     21  H   UNL A   1      32.714  23.170  22.839  1.00  0.00     0.344 HD
ENDBRANCH  17  18
ENDBRANCH  16  17
ENDBRANCH   8  16
BRANCH  13  22
ATOM     22  N   UNL A   1      33.324  18.378  24.877  1.00  0.00     0.062 N 
ATOM     23  O   UNL A   1      32.152  18.178  25.228  1.00  0.00    -0.258 OA
ATOM     24  O   UNL A   1      34.102  17.489  24.501  1.00  0.00    -0.258 OA
ENDBRANCH  13  22
ENDBRANCH   4   7
ENDBRANCH   2   3
ENDBRANCH   1   2
BRANCH   1  25
ATOM     25  C   UNL A   1      32.375  29.726  25.322  1.00  0.00     0.023 C 
BRANCH  25  26
ATOM     26  C   UNL A   1      32.077  30.168  26.750  1.00  0.00     0.116 C 
BRANCH  26  27
ATOM     27  N   UNL A   1      32.043  31.616  26.904  1.00  0.00    -0.352 N 
ATOM     28  C   UNL A   1      32.978  32.466  27.456  1.00  0.00     0.251 C 
ATOM     29  H   UNL A   1      31.230  32.053  26.563  1.00  0.00     0.163 HD
ATOM     30  O   UNL A   1      32.702  33.650  27.619  1.00  0.00    -0.269 OA
BRANCH  28  31
ATOM     31  C   UNL A   1      34.290  31.938  27.890  1.00  0.00     0.039 A 
ATOM     32  C   UNL A   1      34.446  30.588  28.209  1.00  0.00     0.014 A 
ATOM     33  C   UNL A   1      35.371  32.814  28.019  1.00  0.00     0.014 A 
ATOM     34  C   UNL A   1      35.608  30.161  28.844  1.00  0.00     0.010 A 
ATOM     35  C   UNL A   1      36.572  32.361  28.573  1.00  0.00     0.010 A 
ATOM     36  C   UNL A   1      36.679  31.046  29.051  1.00  0.00    -0.014 A 
BRANCH  36  37
ATOM     37  C   UNL A   1      37.888  30.574  29.778  1.00  0.00     0.031 A 
ATOM     38  C   UNL A   1      38.113  30.938  31.223  1.00  0.00     0.074 A 
ATOM     39  C   UNL A   1      38.757  29.759  29.151  1.00  0.00     0.049 A 
ATOM     40  N   UNL A   1      39.083  30.572  32.021  1.00  0.00    -0.248 NA
ATOM     41  C   UNL A   1      37.125  31.826  31.854  1.00  0.00     0.031 C 
ATOM     42  C   UNL A   1      38.640  29.336  27.755  1.00  0.00     0.029 A 
ATOM     43  N   UNL A   1      39.887  29.122  29.599  1.00  0.00    -0.354 N 
ATOM     44  C   UNL A   1      38.829  31.189  33.242  1.00  0.00     0.074 A 
ATOM     45  C   UNL A   1      37.635  31.987  33.068  1.00  0.00     0.031 C 
ATOM     46  C   UNL A   1      39.623  28.468  27.477  1.00  0.00     0.029 A 
ATOM     47  C   UNL A   1      40.483  28.324  28.651  1.00  0.00     0.049 A 
ATOM     48  H   UNL A   1      40.238  29.226  30.513  1.00  0.00     0.167 HD
ATOM     49  C   UNL A   1      39.515  31.082  34.405  1.00  0.00     0.034 A 
ATOM     50  C   UNL A   1      41.600  27.569  28.705  1.00  0.00     0.034 A 
ATOM     51  C   UNL A   1      40.697  30.273  34.572  1.00  0.00     0.049 A 
ATOM     52  C   UNL A   1      42.367  27.495  29.998  1.00  0.00     0.074 A 
ATOM     53  C   UNL A   1      41.448  30.085  35.719  1.00  0.00     0.029 A 
ATOM     54  N   UNL A   1      41.295  29.516  33.576  1.00  0.00    -0.354 N 
ATOM     55  N   UNL A   1      42.089  28.056  31.152  1.00  0.00    -0.248 NA
ATOM     56  C   UNL A   1      43.598  26.693  30.002  1.00  0.00     0.031 C 
ATOM     57  C   UNL A   1      42.528  29.260  35.403  1.00  0.00     0.029 A 
ATOM     58  C   UNL A   1      42.421  28.881  34.074  1.00  0.00     0.049 A 
ATOM     59  H   UNL A   1      40.969  29.442  32.650  1.00  0.00     0.167 HD
ATOM     60  C   UNL A   1      43.107  27.672  32.021  1.00  0.00     0.074 A 
ATOM     61  C   UNL A   1      43.988  26.802  31.267  1.00  0.00     0.031 C 
ATOM     62  C   UNL A   1      43.297  28.018  33.319  1.00  0.00     0.034 A 
BRANCH  49  63
ATOM     63  C   UNL A   1      39.011  31.840  35.609  1.00  0.00     0.023 A 
ATOM     64  C   UNL A   1      38.361  31.159  36.656  1.00  0.00     0.031 A 
ATOM     65  C   UNL A   1      39.072  33.244  35.665  1.00  0.00     0.131 A 
ATOM     66  C   UNL A   1      37.777  31.885  37.702  1.00  0.00     0.055 A 
ATOM     67  C   UNL A   1      38.518  33.961  36.727  1.00  0.00     0.041 A 
ATOM     68  F   UNL A   1      39.681  33.940  34.692  1.00  0.00    -0.206 F 
ATOM     69  C   UNL A   1      37.857  33.281  37.747  1.00  0.00     0.022 A 
BRANCH  66  70
ATOM     70  S   UNL A   1      36.843  31.055  39.016  1.00  0.00     0.124 S 
ATOM     71  O   UNL A   1      36.687  29.709  38.466  1.00  0.00    -0.237 OA
ATOM     72  O   UNL A   1      37.753  31.161  40.153  1.00  0.00    -0.237 OA
ATOM     73  O   UNL A   1      35.613  31.831  39.118  1.00  0.00    -0.744 OA
ENDBRANCH  66  70
ENDBRANCH  49  63
BRANCH  50  74
ATOM     74  C   UNL A   1      42.006  26.801  27.493  1.00  0.00     0.023 A 
ATOM     75  C   UNL A   1      41.719  25.428  27.384  1.00  0.00     0.031 A 
ATOM     76  C   UNL A   1      42.806  27.390  26.501  1.00  0.00     0.131 A 
ATOM     77  C   UNL A   1      42.303  24.673  26.359  1.00  0.00     0.055 A 
ATOM     78  C   UNL A   1      43.322  26.649  25.437  1.00  0.00     0.041 A 
ATOM     79  F   UNL A   1      43.115  28.694  26.570  1.00  0.00    -0.206 F 
ATOM     80  C   UNL A   1      43.089  25.279  25.375  1.00  0.00     0.022 A 
BRANCH  77  81
ATOM     81  S   UNL A   1      42.189  22.862  26.361  1.00  0.00     0.124 S 
ATOM     82  O   UNL A   1      43.083  22.501  27.457  1.00  0.00    -0.237 OA
ATOM     83  O   UNL A   1      40.764  22.654  26.613  1.00  0.00    -0.237 OA
ATOM     84  O   UNL A   1      42.642  22.487  25.026  1.00  0.00    -0.744 OA
ENDBRANCH  77  81
ENDBRANCH  50  74
BRANCH  62  85
ATOM     85  C   UNL A   1      44.515  27.485  34.034  1.00  0.00     0.023 A 
ATOM     86  C   UNL A   1      44.422  26.325  34.826  1.00  0.00     0.031 A 
ATOM     87  C   UNL A   1      45.720  28.209  34.051  1.00  0.00     0.131 A 
ATOM     88  C   UNL A   1      45.502  25.946  35.635  1.00  0.00     0.055 A 
ATOM     89  C   UNL A   1      46.807  27.804  34.825  1.00  0.00     0.041 A 
ATOM     90  F   UNL A   1      45.853  29.327  33.318  1.00  0.00    -0.206 F 
ATOM     91  C   UNL A   1      46.696  26.676  35.632  1.00  0.00     0.022 A 
BRANCH  88  92
ATOM     92  S   UNL A   1      45.370  24.545  36.778  1.00  0.00     0.124 S 
ATOM     93  O   UNL A   1      44.358  25.018  37.721  1.00  0.00    -0.237 OA
ATOM     94  O   UNL A   1      44.941  23.465  35.893  1.00  0.00    -0.237 OA
ATOM     95  O   UNL A   1      46.714  24.409  37.327  1.00  0.00    -0.744 OA
ENDBRANCH  88  92
ENDBRANCH  62  85
ENDBRANCH  36  37
ENDBRANCH  28  31
ENDBRANCH  26  27
ENDBRANCH  25  26
ENDBRANCH   1  25
TORSDOF 18
ENDMDL
MODEL 2
REMARK VINA RESULT:     -11.5      5.181     10.567
REMARK SMILES [NH3+]CCC1=c2cc([N+](=O)[O-])ccc2=N[C@H]1C(=O)NCCCCNC(=O)c1ccc(-c2c3nc(c(-c4cc(S(=O)(=O)[O-])ccc4F)c4ccc([nH]4)c(-c4cc(S(=O)(=O)[O-])ccc4F)c4nc(c(-c5cc(S(=O)(=O)[O-])ccc5F)c5ccc2[nH]5)C=C4)C=C3)cc1
REMARK SMILES IDX 20 1 19 2 18 3 16 4 17 5 15 7 4 8 5 9 6 10 13 11 14 12 7 13
REMARK SMILES IDX 12 14 11 15 3 16 2 17 1 18 8 22 9 23 10 24 21 25 22 26 23 27
REMARK SMILES IDX 24 28 25 30 26 31 27 32 88 33 28 34 87 35 29 36 30 37 31 38
REMARK SMILES IDX 81 39 32 40 86 41 80 42 82 43 33 44 85 45 79 46 78 47 34 49
REMARK SMILES IDX 66 50 46 51 65 52 47 53 50 54 64 55 83 56 48 57 49 58 63 60
REMARK SMILES IDX 84 61 51 62 35 63 36 64 44 65 37 66 43 67 45 68 42 69 38 70
REMARK SMILES IDX 39 71 40 72 41 73 67 74 68 75 76 76 69 77 75 78 77 79 74 80
REMARK SMILES IDX 70 81 71 82 72 83 73 84 52 85 53 86 61 87 54 88 60 89 62 90
REMARK SMILES IDX 59 91 55 92 56 93 57 94 58 95
REMARK H PARENT 18 6 1 19 1 20 1 21 23 29 82 48 50 59
REMARK Flexibility Score: inf
ROOT
ATOM      1  C   UNL A   1      35.438  23.546  23.783  1.00  0.00     0.023 C 
ENDROOT
BRANCH   1   2
ATOM      2  C   UNL A   1      34.472  23.727  24.952  1.00  0.00     0.116 C 
BRANCH   2   3
ATOM      3  N   UNL A   1      34.409  25.093  25.441  1.00  0.00    -0.354 N 
ATOM      4  C   UNL A   1      33.566  26.101  25.056  1.00  0.00     0.249 C 
ATOM      5  O   UNL A   1      33.642  27.182  25.645  1.00  0.00    -0.272 OA
ATOM      6  H   UNL A   1      35.058  25.326  26.145  1.00  0.00     0.163 HD
BRANCH   4   7
ATOM      7  C   UNL A   1      32.538  25.834  23.934  1.00  0.00     0.222 C 
ATOM      8  C   UNL A   1      31.114  25.913  24.425  1.00  0.00    -0.021 C 
ATOM      9  C   UNL A   1      30.478  26.919  23.826  1.00  0.00     0.009 A 
ATOM     10  C   UNL A   1      29.149  27.445  23.879  1.00  0.00     0.096 A 
ATOM     11  C   UNL A   1      31.514  27.503  22.955  1.00  0.00     0.067 A 
ATOM     12  N   UNL A   1      32.676  26.931  22.925  1.00  0.00    -0.267 NA
ATOM     13  C   UNL A   1      28.857  28.519  23.118  1.00  0.00     0.270 A 
ATOM     14  C   UNL A   1      31.121  28.697  22.174  1.00  0.00     0.035 A 
ATOM     15  C   UNL A   1      29.861  29.159  22.273  1.00  0.00     0.088 A 
BRANCH   8  16
ATOM     16  C   UNL A   1      30.556  24.959  25.442  1.00  0.00     0.096 C 
BRANCH  16  17
ATOM     17  C   UNL A   1      30.864  23.471  25.198  1.00  0.00     0.263 C 
BRANCH  17  18
ATOM     18  N   UNL A   1      30.201  22.580  26.148  1.00  0.00    -0.357 N 
ATOM     19  H   UNL A   1      30.870  21.891  26.492  1.00  0.00     0.344 HD
ATOM     20  H   UNL A   1      29.428  22.103  25.685  1.00  0.00     0.344 HD
ATOM     21  H   UNL A   1      29.843  23.125  26.932  1.00  0.00     0.344 HD
ENDBRANCH  17  18
ENDBRANCH  16  17
ENDBRANCH   8  16
BRANCH  13  22
ATOM     22  N   UNL A   1      27.477  29.021  23.149  1.00  0.00     0.062 N 
ATOM     23  O   UNL A   1      27.270  30.204  22.842  1.00  0.00    -0.258 OA
ATOM     24  O   UNL A   1      26.593  28.226  23.502  1.00  0.00    -0.258 OA
ENDBRANCH  13  22
ENDBRANCH   4   7
ENDBRANCH   2   3
ENDBRANCH   1   2
BRANCH   1  25
ATOM     25  C   UNL A   1      36.456  22.416  23.926  1.00  0.00     0.023 C 
BRANCH  25  26
ATOM     26  C   UNL A   1      36.655  21.885  25.341  1.00  0.00     0.116 C 
BRANCH  26  27
ATOM     27  N   UNL A   1      37.689  20.863  25.427  1.00  0.00    -0.352 N 
ATOM     28  C   UNL A   1      38.986  20.959  25.885  1.00  0.00     0.251 C 
ATOM     29  H   UNL A   1      37.422  19.970  25.111  1.00  0.00     0.163 HD
ATOM     30  O   UNL A   1      39.751  20.009  25.747  1.00  0.00    -0.269 OA
BRANCH  28  31
ATOM     31  C   UNL A   1      39.462  22.219  26.499  1.00  0.00     0.039 A 
ATOM     32  C   UNL A   1      38.903  23.445  26.133  1.00  0.00     0.014 A 
ATOM     33  C   UNL A   1      40.509  22.176  27.423  1.00  0.00     0.014 A 
ATOM     34  C   UNL A   1      39.521  24.626  26.530  1.00  0.00     0.010 A 
ATOM     35  C   UNL A   1      41.070  23.367  27.894  1.00  0.00     0.010 A 
ATOM     36  C   UNL A   1      40.624  24.603  27.401  1.00  0.00    -0.014 A 
BRANCH  36  37
ATOM     37  C   UNL A   1      41.294  25.879  27.767  1.00  0.00     0.031 A 
ATOM     38  C   UNL A   1      42.672  26.205  27.253  1.00  0.00     0.074 A 
ATOM     39  C   UNL A   1      40.630  26.781  28.516  1.00  0.00     0.049 A 
ATOM     40  N   UNL A   1      43.381  27.289  27.430  1.00  0.00    -0.248 NA
ATOM     41  C   UNL A   1      43.342  25.182  26.434  1.00  0.00     0.031 C 
ATOM     42  C   UNL A   1      39.291  26.577  29.067  1.00  0.00     0.029 A 
ATOM     43  N   UNL A   1      40.971  28.046  28.923  1.00  0.00    -0.354 N 
ATOM     44  C   UNL A   1      44.580  27.079  26.756  1.00  0.00     0.074 A 
ATOM     45  C   UNL A   1      44.520  25.746  26.200  1.00  0.00     0.031 C 
ATOM     46  C   UNL A   1      38.900  27.697  29.691  1.00  0.00     0.029 A 
ATOM     47  C   UNL A   1      39.985  28.675  29.648  1.00  0.00     0.049 A 
ATOM     48  H   UNL A   1      41.837  28.465  28.717  1.00  0.00     0.167 HD
ATOM     49  C   UNL A   1      45.624  27.928  26.598  1.00  0.00     0.034 A 
ATOM     50  C   UNL A   1      39.954  29.893  30.226  1.00  0.00     0.034 A 
ATOM     51  C   UNL A   1      45.669  29.261  27.146  1.00  0.00     0.049 A 
ATOM     52  C   UNL A   1      41.142  30.805  30.069  1.00  0.00     0.074 A 
ATOM     53  C   UNL A   1      46.675  30.202  27.021  1.00  0.00     0.029 A 
ATOM     54  N   UNL A   1      44.671  29.844  27.913  1.00  0.00    -0.354 N 
ATOM     55  N   UNL A   1      42.250  30.603  29.396  1.00  0.00    -0.248 NA
ATOM     56  C   UNL A   1      41.082  32.107  30.748  1.00  0.00     0.031 C 
ATOM     57  C   UNL A   1      46.311  31.332  27.755  1.00  0.00     0.029 A 
ATOM     58  C   UNL A   1      45.049  31.123  28.290  1.00  0.00     0.049 A 
ATOM     59  H   UNL A   1      43.820  29.413  28.155  1.00  0.00     0.167 HD
ATOM     60  C   UNL A   1      43.017  31.752  29.565  1.00  0.00     0.074 A 
ATOM     61  C   UNL A   1      42.231  32.659  30.377  1.00  0.00     0.031 C 
ATOM     62  C   UNL A   1      44.263  32.022  29.100  1.00  0.00     0.034 A 
BRANCH  49  63
ATOM     63  C   UNL A   1      46.811  27.465  25.788  1.00  0.00     0.023 A 
ATOM     64  C   UNL A   1      46.974  27.895  24.458  1.00  0.00     0.031 A 
ATOM     65  C   UNL A   1      47.712  26.511  26.295  1.00  0.00     0.131 A 
ATOM     66  C   UNL A   1      48.000  27.355  23.673  1.00  0.00     0.055 A 
ATOM     67  C   UNL A   1      48.754  26.002  25.519  1.00  0.00     0.041 A 
ATOM     68  F   UNL A   1      47.600  26.069  27.558  1.00  0.00    -0.206 F 
ATOM     69  C   UNL A   1      48.894  26.416  24.197  1.00  0.00     0.022 A 
BRANCH  66  70
ATOM     70  S   UNL A   1      48.183  27.805  21.925  1.00  0.00     0.124 S 
ATOM     71  O   UNL A   1      49.423  28.580  21.945  1.00  0.00    -0.237 OA
ATOM     72  O   UNL A   1      48.277  26.497  21.281  1.00  0.00    -0.237 OA
ATOM     73  O   UNL A   1      46.977  28.568  21.629  1.00  0.00    -0.744 OA
ENDBRANCH  66  70
ENDBRANCH  49  63
BRANCH  50  74
ATOM     74  C   UNL A   1      38.725  30.307  30.963  1.00  0.00     0.023 A 
ATOM     75  C   UNL A   1      37.673  30.959  30.294  1.00  0.00     0.031 A 
ATOM     76  C   UNL A   1      38.647  30.186  32.360  1.00  0.00     0.131 A 
ATOM     77  C   UNL A   1      36.635  31.545  31.031  1.00  0.00     0.055 A 
ATOM     78  C   UNL A   1      37.571  30.704  33.083  1.00  0.00     0.041 A 
ATOM     79  F   UNL A   1      39.632  29.582  33.041  1.00  0.00    -0.206 F 
ATOM     80  C   UNL A   1      36.570  31.406  32.420  1.00  0.00     0.022 A 
BRANCH  77  81
ATOM     81  S   UNL A   1      35.428  32.635  30.226  1.00  0.00     0.124 S 
ATOM     82  O   UNL A   1      36.198  33.861  30.044  1.00  0.00    -0.237 OA
ATOM     83  O   UNL A   1      35.124  31.892  29.005  1.00  0.00    -0.237 OA
ATOM     84  O   UNL A   1      34.337  32.711  31.192  1.00  0.00    -0.744 OA
ENDBRANCH  77  81
ENDBRANCH  50  74
BRANCH  62  85
ATOM     85  C   UNL A   1      44.893  33.346  29.460  1.00  0.00     0.023 A 
ATOM     86  C   UNL A   1      44.697  34.472  28.638  1.00  0.00     0.031 A 
ATOM     87  C   UNL A   1      45.804  33.449  30.526  1.00  0.00     0.131 A 
ATOM     88  C   UNL A   1      45.434  35.640  28.872  1.00  0.00     0.055 A 
ATOM     89  C   UNL A   1      46.504  34.628  30.780  1.00  0.00     0.041 A 
ATOM     90  F   UNL A   1      46.031  32.398  31.332  1.00  0.00    -0.206 F 
ATOM     91  C   UNL A   1      46.331  35.726  29.943  1.00  0.00     0.022 A 
BRANCH  88  92
ATOM     92  S   UNL A   1      45.319  37.061  27.750  1.00  0.00     0.124 S 
ATOM     93  O   UNL A   1      44.566  38.021  28.554  1.00  0.00    -0.237 OA
ATOM     94  O   UNL A   1      46.723  37.395  27.532  1.00  0.00    -0.237 OA
ATOM     95  O   UNL A   1      44.611  36.536  26.588  1.00  0.00    -0.744 OA
ENDBRANCH  88  92
ENDBRANCH  62  85
ENDBRANCH  36  37
ENDBRANCH  28  31
ENDBRANCH  26  27
ENDBRANCH  25  26
ENDBRANCH   1  25
TORSDOF 18
ENDMDL
MODEL 3
REMARK VINA RESULT:     -11.3      5.086     10.463
REMARK SMILES [NH3+]CCC1=c2cc([N+](=O)[O-])ccc2=N[C@H]1C(=O)NCCCCNC(=O)c1ccc(-c2c3nc(c(-c4cc(S(=O)(=O)[O-])ccc4F)c4ccc([nH]4)c(-c4cc(S(=O)(=O)[O-])ccc4F)c4nc(c(-c5cc(S(=O)(=O)[O-])ccc5F)c5ccc2[nH]5)C=C4)C=C3)cc1
REMARK SMILES IDX 20 1 19 2 18 3 16 4 17 5 15 7 4 8 5 9 6 10 13 11 14 12 7 13
REMARK SMILES IDX 12 14 11 15 3 16 2 17 1 18 8 22 9 23 10 24 21 25 22 26 23 27
REMARK SMILES IDX 24 28 25 30 26 31 27 32 88 33 28 34 87 35 29 36 30 37 31 38
REMARK SMILES IDX 81 39 32 40 86 41 80 42 82 43 33 44 85 45 79 46 78 47 34 49
REMARK SMILES IDX 66 50 46 51 65 52 47 53 50 54 64 55 83 56 48 57 49 58 63 60
REMARK SMILES IDX 84 61 51 62 35 63 36 64 44 65 37 66 43 67 45 68 42 69 38 70
REMARK SMILES IDX 39 71 40 72 41 73 67 74 68 75 76 76 69 77 75 78 77 79 74 80
REMARK SMILES IDX 70 81 71 82 72 83 73 84 52 85 53 86 61 87 54 88 60 89 62 90
REMARK SMILES IDX 59 91 55 92 56 93 57 94 58 95
REMARK H PARENT 18 6 1 19 1 20 1 21 23 29 82 48 50 59
REMARK Flexibility Score: inf
ROOT
ATOM      1  C   UNL A   1      34.985  22.840  24.155  1.00  0.00     0.023 C 
ENDROOT
BRANCH   1   2
ATOM      2  C   UNL A   1      34.996  24.298  24.609  1.00  0.00     0.116 C 
BRANCH   2   3
ATOM      3  N   UNL A   1      33.959  24.607  25.579  1.00  0.00    -0.354 N 
ATOM      4  C   UNL A   1      33.057  25.637  25.568  1.00  0.00     0.249 C 
ATOM      5  O   UNL A   1      32.216  25.684  26.468  1.00  0.00    -0.272 OA
ATOM      6  H   UNL A   1      33.896  23.993  26.346  1.00  0.00     0.163 HD
BRANCH   4   7
ATOM      7  C   UNL A   1      33.107  26.668  24.418  1.00  0.00     0.222 C 
ATOM      8  C   UNL A   1      31.923  26.554  23.490  1.00  0.00    -0.021 C 
ATOM      9  C   UNL A   1      31.195  27.669  23.539  1.00  0.00     0.009 A 
ATOM     10  C   UNL A   1      30.008  28.127  22.884  1.00  0.00     0.096 A 
ATOM     11  C   UNL A   1      31.910  28.498  24.524  1.00  0.00     0.067 A 
ATOM     12  N   UNL A   1      33.008  28.031  25.029  1.00  0.00    -0.267 NA
ATOM     13  C   UNL A   1      29.534  29.347  23.203  1.00  0.00     0.270 A 
ATOM     14  C   UNL A   1      31.309  29.812  24.841  1.00  0.00     0.035 A 
ATOM     15  C   UNL A   1      30.183  30.187  24.206  1.00  0.00     0.088 A 
BRANCH   8  16
ATOM     16  C   UNL A   1      31.664  25.332  22.656  1.00  0.00     0.096 C 
BRANCH  16  17
ATOM     17  C   UNL A   1      30.495  24.444  23.121  1.00  0.00     0.263 C 
BRANCH  17  18
ATOM     18  N   UNL A   1      30.284  24.475  24.567  1.00  0.00    -0.357 N 
ATOM     19  H   UNL A   1      31.131  24.166  25.041  1.00  0.00     0.344 HD
ATOM     20  H   UNL A   1      29.511  23.857  24.811  1.00  0.00     0.344 HD
ATOM     21  H   UNL A   1      30.061  25.428  24.857  1.00  0.00     0.344 HD
ENDBRANCH  17  18
ENDBRANCH  16  17
ENDBRANCH   8  16
BRANCH  13  22
ATOM     22  N   UNL A   1      28.340  29.822  22.491  1.00  0.00     0.062 N 
ATOM     23  O   UNL A   1      27.392  30.266  23.154  1.00  0.00    -0.258 OA
ATOM     24  O   UNL A   1      28.345  29.732  21.254  1.00  0.00    -0.258 OA
ENDBRANCH  13  22
ENDBRANCH   4   7
ENDBRANCH   2   3
ENDBRANCH   1   2
BRANCH   1  25
ATOM     25  C   UNL A   1      35.897  21.892  24.933  1.00  0.00     0.023 C 
BRANCH  25  26
ATOM     26  C   UNL A   1      37.323  21.772  24.409  1.00  0.00     0.116 C 
BRANCH  26  27
ATOM     27  N   UNL A   1      38.046  20.640  24.973  1.00  0.00    -0.352 N 
ATOM     28  C   UNL A   1      39.096  20.622  25.866  1.00  0.00     0.251 C 
ATOM     29  H   UNL A   1      37.738  19.756  24.672  1.00  0.00     0.163 HD
ATOM     30  O   UNL A   1      39.663  19.563  26.117  1.00  0.00    -0.269 OA
BRANCH  28  31
ATOM     31  C   UNL A   1      39.564  21.884  26.482  1.00  0.00     0.039 A 
ATOM     32  C   UNL A   1      38.981  23.105  26.138  1.00  0.00     0.014 A 
ATOM     33  C   UNL A   1      40.628  21.849  27.387  1.00  0.00     0.014 A 
ATOM     34  C   UNL A   1      39.587  24.292  26.535  1.00  0.00     0.010 A 
ATOM     35  C   UNL A   1      41.180  23.045  27.858  1.00  0.00     0.010 A 
ATOM     36  C   UNL A   1      40.706  24.278  27.385  1.00  0.00    -0.014 A 
BRANCH  36  37
ATOM     37  C   UNL A   1      41.363  25.561  27.751  1.00  0.00     0.031 A 
ATOM     38  C   UNL A   1      42.763  25.872  27.288  1.00  0.00     0.074 A 
ATOM     39  C   UNL A   1      40.670  26.480  28.450  1.00  0.00     0.049 A 
ATOM     40  N   UNL A   1      43.467  26.959  27.471  1.00  0.00    -0.248 NA
ATOM     41  C   UNL A   1      43.464  24.830  26.522  1.00  0.00     0.031 C 
ATOM     42  C   UNL A   1      39.308  26.292  28.948  1.00  0.00     0.029 A 
ATOM     43  N   UNL A   1      40.997  27.754  28.843  1.00  0.00    -0.354 N 
ATOM     44  C   UNL A   1      44.692  26.732  26.854  1.00  0.00     0.074 A 
ATOM     45  C   UNL A   1      44.653  25.387  26.326  1.00  0.00     0.031 C 
ATOM     46  C   UNL A   1      38.894  27.426  29.529  1.00  0.00     0.029 A 
ATOM     47  C   UNL A   1      39.983  28.401  29.511  1.00  0.00     0.049 A 
ATOM     48  H   UNL A   1      41.872  28.166  28.664  1.00  0.00     0.167 HD
ATOM     49  C   UNL A   1      45.745  27.575  26.722  1.00  0.00     0.034 A 
ATOM     50  C   UNL A   1      39.931  29.632  30.059  1.00  0.00     0.034 A 
ATOM     51  C   UNL A   1      45.770  28.920  27.241  1.00  0.00     0.049 A 
ATOM     52  C   UNL A   1      41.126  30.538  29.932  1.00  0.00     0.074 A 
ATOM     53  C   UNL A   1      46.783  29.857  27.137  1.00  0.00     0.029 A 
ATOM     54  N   UNL A   1      44.742  29.523  27.951  1.00  0.00    -0.354 N 
ATOM     55  N   UNL A   1      42.261  30.319  29.312  1.00  0.00    -0.248 NA
ATOM     56  C   UNL A   1      41.041  31.855  30.578  1.00  0.00     0.031 C 
ATOM     57  C   UNL A   1      46.391  31.004  27.829  1.00  0.00     0.029 A 
ATOM     58  C   UNL A   1      45.107  30.808  28.315  1.00  0.00     0.049 A 
ATOM     59  H   UNL A   1      43.879  29.099  28.166  1.00  0.00     0.167 HD
ATOM     60  C   UNL A   1      43.024  31.470  29.488  1.00  0.00     0.074 A 
ATOM     61  C   UNL A   1      42.206  32.396  30.244  1.00  0.00     0.031 C 
ATOM     62  C   UNL A   1      44.289  31.727  29.070  1.00  0.00     0.034 A 
BRANCH  49  63
ATOM     63  C   UNL A   1      46.964  27.092  25.974  1.00  0.00     0.023 A 
ATOM     64  C   UNL A   1      48.042  26.516  26.670  1.00  0.00     0.031 A 
ATOM     65  C   UNL A   1      47.104  27.309  24.591  1.00  0.00     0.131 A 
ATOM     66  C   UNL A   1      49.222  26.197  25.986  1.00  0.00     0.055 A 
ATOM     67  C   UNL A   1      48.269  26.958  23.907  1.00  0.00     0.041 A 
ATOM     68  F   UNL A   1      46.104  27.856  23.881  1.00  0.00    -0.206 F 
ATOM     69  C   UNL A   1      49.339  26.409  24.608  1.00  0.00     0.022 A 
BRANCH  66  70
ATOM     70  S   UNL A   1      50.671  25.547  26.862  1.00  0.00     0.124 S 
ATOM     71  O   UNL A   1      51.089  26.708  27.647  1.00  0.00    -0.237 OA
ATOM     72  O   UNL A   1      50.096  24.448  27.633  1.00  0.00    -0.237 OA
ATOM     73  O   UNL A   1      51.584  25.158  25.793  1.00  0.00    -0.744 OA
ENDBRANCH  66  70
ENDBRANCH  49  63
BRANCH  50  74
ATOM     74  C   UNL A   1      38.672  30.064  30.733  1.00  0.00     0.023 A 
ATOM     75  C   UNL A   1      37.649  30.698  30.005  1.00  0.00     0.031 A 
ATOM     76  C   UNL A   1      38.536  29.980  32.128  1.00  0.00     0.131 A 
ATOM     77  C   UNL A   1      36.582  31.302  30.682  1.00  0.00     0.055 A 
ATOM     78  C   UNL A   1      37.432  30.516  32.792  1.00  0.00     0.041 A 
ATOM     79  F   UNL A   1      39.492  29.395  32.866  1.00  0.00    -0.206 F 
ATOM     80  C   UNL A   1      36.459  31.201  32.071  1.00  0.00     0.022 A 
BRANCH  77  81
ATOM     81  S   UNL A   1      35.409  32.370  29.800  1.00  0.00     0.124 S 
ATOM     82  O   UNL A   1      34.400  32.625  30.823  1.00  0.00    -0.237 OA
ATOM     83  O   UNL A   1      36.253  33.510  29.447  1.00  0.00    -0.237 OA
ATOM     84  O   UNL A   1      34.976  31.549  28.674  1.00  0.00    -0.744 OA
ENDBRANCH  77  81
ENDBRANCH  50  74
BRANCH  62  85
ATOM     85  C   UNL A   1      44.907  33.058  29.427  1.00  0.00     0.023 A 
ATOM     86  C   UNL A   1      44.747  34.166  28.573  1.00  0.00     0.031 A 
ATOM     87  C   UNL A   1      45.773  33.183  30.527  1.00  0.00     0.131 A 
ATOM     88  C   UNL A   1      45.477  35.338  28.811  1.00  0.00     0.055 A 
ATOM     89  C   UNL A   1      46.464  34.367  30.784  1.00  0.00     0.041 A 
ATOM     90  F   UNL A   1      45.964  32.150  31.364  1.00  0.00    -0.206 F 
ATOM     91  C   UNL A   1      46.328  35.447  29.916  1.00  0.00     0.022 A 
BRANCH  88  92
ATOM     92  S   UNL A   1      45.411  36.734  27.654  1.00  0.00     0.124 S 
ATOM     93  O   UNL A   1      45.310  37.875  28.562  1.00  0.00    -0.237 OA
ATOM     94  O   UNL A   1      46.683  36.608  26.949  1.00  0.00    -0.237 OA
ATOM     95  O   UNL A   1      44.221  36.472  26.853  1.00  0.00    -0.744 OA
ENDBRANCH  88  92
ENDBRANCH  62  85
ENDBRANCH  36  37
ENDBRANCH  28  31
ENDBRANCH  26  27
ENDBRANCH  25  26
ENDBRANCH   1  25
TORSDOF 18
ENDMDL
