MODEL 1
REMARK VINA RESULT:     -11.6      0.000      0.000
REMARK SMILES Cc1coc2cc3c(cc12)[C@@H](C)[C@H](CCC(=O)N[C@@H](Cc1c[nH]c2ccccc12)C(=O)NCCCCNC(=O)c1ccc(-c2c4nc(c(-c5cc(S(=O)(=O)[O-])ccc5F)c5ccc([nH]5)c(-c5cc(S(=O)(=O)[O-])ccc5F)c5nc(c(-c6cc(S(=O)(=O)[O-])ccc6F)c6ccc2[nH]6)C=C5)C=C4)cc1)C(=O)O3
REMARK SMILES IDX 34 1 33 2 32 3 30 4 31 5 19 7 18 8 16 9 17 10 15 12 14 13
REMARK SMILES IDX 13 14 1 15 2 16 3 17 10 18 4 19 5 20 9 21 6 22 8 23 7 24
REMARK SMILES IDX 11 25 105 26 12 27 103 28 104 29 20 30 21 31 22 32 29 33
REMARK SMILES IDX 23 34 24 35 28 36 25 38 27 39 26 40 35 41 36 42 37 43 38 44
REMARK SMILES IDX 39 46 40 47 41 48 102 49 42 50 101 51 43 52 44 53 45 54
REMARK SMILES IDX 95 55 46 56 100 57 94 58 96 59 47 60 99 61 93 62 92 63 48 65
REMARK SMILES IDX 80 66 60 67 79 68 61 69 64 70 78 71 97 72 62 73 63 74 77 76
REMARK SMILES IDX 98 77 65 78 49 79 50 80 58 81 51 82 57 83 59 84 56 85 52 86
REMARK SMILES IDX 53 87 54 88 55 89 81 90 82 91 90 92 83 93 89 94 91 95 88 96
REMARK SMILES IDX 84 97 85 98 86 99 87 100 66 101 67 102 75 103 68 104 74 105
REMARK SMILES IDX 76 106 73 107 69 108 70 109 71 110 72 111
REMARK H PARENT 32 6 18 11 23 37 37 45 96 64 64 75
REMARK Flexibility Score: inf
ROOT
ATOM      1  C   UNL A   1      36.445  31.963  32.753  1.00  0.00     0.023 C 
ENDROOT
BRANCH   1   2
ATOM      2  C   UNL A   1      37.727  32.711  32.477  1.00  0.00     0.116 C 
BRANCH   2   3
ATOM      3  N   UNL A   1      37.937  33.952  33.172  1.00  0.00    -0.354 N 
ATOM      4  C   UNL A   1      38.933  34.201  34.087  1.00  0.00     0.242 C 
ATOM      5  O   UNL A   1      38.930  35.299  34.651  1.00  0.00    -0.273 OA
ATOM      6  H   UNL A   1      37.314  34.687  32.976  1.00  0.00     0.163 HD
BRANCH   4   7
ATOM      7  C   UNL A   1      39.988  33.103  34.483  1.00  0.00     0.175 C 
BRANCH   7   8
ATOM      8  N   UNL A   1      39.351  32.017  35.288  1.00  0.00    -0.344 N 
ATOM      9  C   UNL A   1      38.690  31.910  36.492  1.00  0.00     0.220 C 
ATOM     10  O   UNL A   1      38.180  30.802  36.718  1.00  0.00    -0.275 OA
ATOM     11  H   UNL A   1      39.423  31.145  34.838  1.00  0.00     0.164 HD
BRANCH   9  12
ATOM     12  C   UNL A   1      38.545  33.004  37.599  1.00  0.00     0.101 C 
BRANCH  12  13
ATOM     13  C   UNL A   1      37.297  32.958  38.624  1.00  0.00     0.026 C 
BRANCH  13  14
ATOM     14  C   UNL A   1      37.472  32.068  39.928  1.00  0.00     0.107 C 
ATOM     15  C   UNL A   1      31.859  34.131  44.059  1.00  0.00     0.048 C 
ATOM     16  C   UNL A   1      32.203  34.286  42.631  1.00  0.00    -0.005 A 
ATOM     17  C   UNL A   1      31.350  34.736  41.640  1.00  0.00     0.199 A 
ATOM     18  C   UNL A   1      33.407  33.888  41.969  1.00  0.00     0.024 A 
ATOM     19  O   UNL A   1      31.887  34.531  40.415  1.00  0.00    -0.464 OA
ATOM     20  C   UNL A   1      33.071  33.906  40.620  1.00  0.00     0.137 A 
ATOM     21  C   UNL A   1      34.705  33.435  42.327  1.00  0.00     0.020 A 
ATOM     22  C   UNL A   1      33.790  33.246  39.646  1.00  0.00     0.095 A 
ATOM     23  C   UNL A   1      35.489  32.841  41.330  1.00  0.00    -0.001 A 
ATOM     24  C   UNL A   1      34.864  32.533  40.143  1.00  0.00     0.138 A 
ATOM     25  C   UNL A   1      36.944  32.435  41.384  1.00  0.00     0.034 C 
ATOM     26  O   UNL A   1      35.298  31.344  39.513  1.00  0.00    -0.426 OA
ATOM     27  C   UNL A   1      37.077  31.218  42.333  1.00  0.00     0.014 C 
ATOM     28  C   UNL A   1      36.624  30.920  39.611  1.00  0.00     0.314 C 
ATOM     29  O   UNL A   1      37.058  29.806  39.324  1.00  0.00    -0.251 OA
ENDBRANCH  13  14
ENDBRANCH  12  13
ENDBRANCH   9  12
ENDBRANCH   7   8
BRANCH   7  30
ATOM     30  C   UNL A   1      41.007  32.838  33.301  1.00  0.00     0.072 C 
BRANCH  30  31
ATOM     31  C   UNL A   1      42.025  33.765  32.605  1.00  0.00    -0.020 A 
ATOM     32  C   UNL A   1      43.097  34.259  33.347  1.00  0.00     0.087 A 
ATOM     33  C   UNL A   1      42.152  34.407  31.306  1.00  0.00     0.003 A 
ATOM     34  N   UNL A   1      43.766  35.202  32.625  1.00  0.00    -0.361 N 
ATOM     35  C   UNL A   1      43.185  35.347  31.395  1.00  0.00     0.046 A 
ATOM     36  C   UNL A   1      41.447  34.386  30.079  1.00  0.00     0.010 A 
ATOM     37  H   UNL A   1      44.551  35.705  32.942  1.00  0.00     0.166 HD
ATOM     38  C   UNL A   1      43.492  36.269  30.381  1.00  0.00     0.026 A 
ATOM     39  C   UNL A   1      41.747  35.283  29.045  1.00  0.00     0.001 A 
ATOM     40  C   UNL A   1      42.745  36.230  29.207  1.00  0.00     0.002 A 
ENDBRANCH  30  31
ENDBRANCH   7  30
ENDBRANCH   4   7
ENDBRANCH   2   3
ENDBRANCH   1   2
BRANCH   1  41
ATOM     41  C   UNL A   1      35.533  31.814  31.552  1.00  0.00     0.023 C 
BRANCH  41  42
ATOM     42  C   UNL A   1      34.742  33.069  31.123  1.00  0.00     0.116 C 
BRANCH  42  43
ATOM     43  N   UNL A   1      34.987  33.609  29.789  1.00  0.00    -0.352 N 
ATOM     44  C   UNL A   1      35.640  33.124  28.675  1.00  0.00     0.251 C 
ATOM     45  H   UNL A   1      34.608  34.508  29.658  1.00  0.00     0.163 HD
ATOM     46  O   UNL A   1      35.272  33.550  27.578  1.00  0.00    -0.269 OA
BRANCH  44  47
ATOM     47  C   UNL A   1      36.807  32.199  28.729  1.00  0.00     0.039 A 
ATOM     48  C   UNL A   1      36.721  30.863  28.381  1.00  0.00     0.014 A 
ATOM     49  C   UNL A   1      38.026  32.665  29.262  1.00  0.00     0.014 A 
ATOM     50  C   UNL A   1      37.753  29.984  28.652  1.00  0.00     0.010 A 
ATOM     51  C   UNL A   1      39.104  31.793  29.481  1.00  0.00     0.010 A 
ATOM     52  C   UNL A   1      38.953  30.438  29.202  1.00  0.00    -0.014 A 
BRANCH  52  53
ATOM     53  C   UNL A   1      39.992  29.413  29.315  1.00  0.00     0.031 A 
ATOM     54  C   UNL A   1      40.313  29.010  30.715  1.00  0.00     0.074 A 
ATOM     55  C   UNL A   1      40.665  28.822  28.313  1.00  0.00     0.049 A 
ATOM     56  N   UNL A   1      41.376  29.284  31.401  1.00  0.00    -0.248 NA
ATOM     57  C   UNL A   1      39.251  28.351  31.482  1.00  0.00     0.031 C 
ATOM     58  C   UNL A   1      40.336  28.787  26.890  1.00  0.00     0.029 A 
ATOM     59  N   UNL A   1      41.779  28.036  28.407  1.00  0.00    -0.354 N 
ATOM     60  C   UNL A   1      41.196  28.683  32.646  1.00  0.00     0.074 A 
ATOM     61  C   UNL A   1      39.820  28.251  32.683  1.00  0.00     0.031 C 
ATOM     62  C   UNL A   1      41.091  27.835  26.294  1.00  0.00     0.029 A 
ATOM     63  C   UNL A   1      42.056  27.324  27.256  1.00  0.00     0.049 A 
ATOM     64  H   UNL A   1      42.332  27.982  29.219  1.00  0.00     0.167 HD
ATOM     65  C   UNL A   1      42.239  28.430  33.487  1.00  0.00     0.034 A 
ATOM     66  C   UNL A   1      42.958  26.323  27.128  1.00  0.00     0.034 A 
ATOM     67  C   UNL A   1      43.424  29.138  33.093  1.00  0.00     0.049 A 
ATOM     68  C   UNL A   1      43.962  26.423  28.212  1.00  0.00     0.074 A 
ATOM     69  C   UNL A   1      43.818  30.457  33.028  1.00  0.00     0.029 A 
ATOM     70  N   UNL A   1      44.363  28.419  32.401  1.00  0.00    -0.354 N 
ATOM     71  N   UNL A   1      44.884  27.341  28.292  1.00  0.00    -0.248 NA
ATOM     72  C   UNL A   1      43.773  25.629  29.418  1.00  0.00     0.031 C 
ATOM     73  C   UNL A   1      44.778  30.517  31.978  1.00  0.00     0.029 A 
ATOM     74  C   UNL A   1      44.931  29.229  31.457  1.00  0.00     0.049 A 
ATOM     75  H   UNL A   1      44.591  27.473  32.557  1.00  0.00     0.167 HD
ATOM     76  C   UNL A   1      45.066  27.534  29.650  1.00  0.00     0.074 A 
ATOM     77  C   UNL A   1      44.504  26.344  30.274  1.00  0.00     0.031 C 
ATOM     78  C   UNL A   1      45.379  28.763  30.157  1.00  0.00     0.034 A 
BRANCH  65  79
ATOM     79  C   UNL A   1      42.295  27.263  34.453  1.00  0.00     0.023 A 
ATOM     80  C   UNL A   1      43.022  26.089  34.191  1.00  0.00     0.031 A 
ATOM     81  C   UNL A   1      41.825  27.404  35.778  1.00  0.00     0.131 A 
ATOM     82  C   UNL A   1      43.273  25.136  35.187  1.00  0.00     0.055 A 
ATOM     83  C   UNL A   1      42.131  26.486  36.792  1.00  0.00     0.041 A 
ATOM     84  F   UNL A   1      41.112  28.479  36.151  1.00  0.00    -0.206 F 
ATOM     85  C   UNL A   1      42.864  25.344  36.498  1.00  0.00     0.022 A 
BRANCH  82  86
ATOM     86  S   UNL A   1      44.167  23.614  34.775  1.00  0.00     0.124 S 
ATOM     87  O   UNL A   1      43.159  22.876  34.014  1.00  0.00    -0.237 OA
ATOM     88  O   UNL A   1      45.288  24.135  33.991  1.00  0.00    -0.237 OA
ATOM     89  O   UNL A   1      44.522  23.061  36.068  1.00  0.00    -0.744 OA
ENDBRANCH  82  86
ENDBRANCH  65  79
BRANCH  66  90
ATOM     90  C   UNL A   1      42.764  25.074  26.363  1.00  0.00     0.023 A 
ATOM     91  C   UNL A   1      41.766  24.163  26.758  1.00  0.00     0.031 A 
ATOM     92  C   UNL A   1      43.729  24.624  25.448  1.00  0.00     0.131 A 
ATOM     93  C   UNL A   1      41.779  22.846  26.285  1.00  0.00     0.055 A 
ATOM     94  C   UNL A   1      43.734  23.310  24.967  1.00  0.00     0.041 A 
ATOM     95  F   UNL A   1      44.725  25.433  25.055  1.00  0.00    -0.206 F 
ATOM     96  C   UNL A   1      42.762  22.410  25.396  1.00  0.00     0.022 A 
BRANCH  93  97
ATOM     97  S   UNL A   1      40.540  21.657  26.868  1.00  0.00     0.124 S 
ATOM     98  O   UNL A   1      39.285  22.300  26.483  1.00  0.00    -0.237 OA
ATOM     99  O   UNL A   1      40.893  20.463  26.109  1.00  0.00    -0.237 OA
ATOM    100  O   UNL A   1      40.781  21.592  28.307  1.00  0.00    -0.744 OA
ENDBRANCH  93  97
ENDBRANCH  66  90
BRANCH  78 101
ATOM    101  C   UNL A   1      45.980  29.806  29.246  1.00  0.00     0.023 A 
ATOM    102  C   UNL A   1      45.080  30.589  28.495  1.00  0.00     0.031 A 
ATOM    103  C   UNL A   1      47.350  29.923  28.948  1.00  0.00     0.131 A 
ATOM    104  C   UNL A   1      45.545  31.424  27.473  1.00  0.00     0.055 A 
ATOM    105  C   UNL A   1      47.816  30.818  27.979  1.00  0.00     0.041 A 
ATOM    106  F   UNL A   1      48.265  29.125  29.517  1.00  0.00    -0.206 F 
ATOM    107  C   UNL A   1      46.912  31.560  27.225  1.00  0.00     0.022 A 
BRANCH 104 108
ATOM    108  S   UNL A   1      44.376  32.213  26.335  1.00  0.00     0.124 S 
ATOM    109  O   UNL A   1      43.441  31.128  26.052  1.00  0.00    -0.237 OA
ATOM    110  O   UNL A   1      43.841  33.307  27.144  1.00  0.00    -0.237 OA
ATOM    111  O   UNL A   1      45.207  32.632  25.210  1.00  0.00    -0.744 OA
ENDBRANCH 104 108
ENDBRANCH  78 101
ENDBRANCH  52  53
ENDBRANCH  44  47
ENDBRANCH  42  43
ENDBRANCH  41  42
ENDBRANCH   1  41
TORSDOF 20
ENDMDL
MODEL 2
REMARK VINA RESULT:     -11.3      1.492      2.661
REMARK SMILES Cc1coc2cc3c(cc12)[C@@H](C)[C@H](CCC(=O)N[C@@H](Cc1c[nH]c2ccccc12)C(=O)NCCCCNC(=O)c1ccc(-c2c4nc(c(-c5cc(S(=O)(=O)[O-])ccc5F)c5ccc([nH]5)c(-c5cc(S(=O)(=O)[O-])ccc5F)c5nc(c(-c6cc(S(=O)(=O)[O-])ccc6F)c6ccc2[nH]6)C=C5)C=C4)cc1)C(=O)O3
REMARK SMILES IDX 34 1 33 2 32 3 30 4 31 5 19 7 18 8 16 9 17 10 15 12 14 13
REMARK SMILES IDX 13 14 1 15 2 16 3 17 10 18 4 19 5 20 9 21 6 22 8 23 7 24
REMARK SMILES IDX 11 25 105 26 12 27 103 28 104 29 20 30 21 31 22 32 29 33
REMARK SMILES IDX 23 34 24 35 28 36 25 38 27 39 26 40 35 41 36 42 37 43 38 44
REMARK SMILES IDX 39 46 40 47 41 48 102 49 42 50 101 51 43 52 44 53 45 54
REMARK SMILES IDX 95 55 46 56 100 57 94 58 96 59 47 60 99 61 93 62 92 63 48 65
REMARK SMILES IDX 80 66 60 67 79 68 61 69 64 70 78 71 97 72 62 73 63 74 77 76
REMARK SMILES IDX 98 77 65 78 49 79 50 80 58 81 51 82 57 83 59 84 56 85 52 86
REMARK SMILES IDX 53 87 54 88 55 89 81 90 82 91 90 92 83 93 89 94 91 95 88 96
REMARK SMILES IDX 84 97 85 98 86 99 87 100 66 101 67 102 75 103 68 104 74 105
REMARK SMILES IDX 76 106 73 107 69 108 70 109 71 110 72 111
REMARK H PARENT 32 6 18 11 23 37 37 45 96 64 64 75
REMARK Flexibility Score: inf
ROOT
ATOM      1  C   UNL A   1      36.435  34.623  33.187  1.00  0.00     0.023 C 
ENDROOT
BRANCH   1   2
ATOM      2  C   UNL A   1      37.815  34.532  32.581  1.00  0.00     0.116 C 
BRANCH   2   3
ATOM      3  N   UNL A   1      38.627  33.401  32.939  1.00  0.00    -0.354 N 
ATOM      4  C   UNL A   1      39.994  33.324  32.815  1.00  0.00     0.242 C 
ATOM      5  O   UNL A   1      40.534  32.250  33.099  1.00  0.00    -0.273 OA
ATOM      6  H   UNL A   1      38.164  32.613  33.302  1.00  0.00     0.163 HD
BRANCH   4   7
ATOM      7  C   UNL A   1      40.844  34.518  32.245  1.00  0.00     0.175 C 
BRANCH   7   8
ATOM      8  N   UNL A   1      41.825  35.008  33.262  1.00  0.00    -0.344 N 
ATOM      9  C   UNL A   1      41.781  35.518  34.542  1.00  0.00     0.220 C 
ATOM     10  O   UNL A   1      42.884  35.664  35.090  1.00  0.00    -0.275 OA
ATOM     11  H   UNL A   1      42.749  34.952  32.928  1.00  0.00     0.164 HD
BRANCH   9  12
ATOM     12  C   UNL A   1      40.516  35.956  35.349  1.00  0.00     0.101 C 
BRANCH  12  13
ATOM     13  C   UNL A   1      39.904  34.984  36.484  1.00  0.00     0.026 C 
BRANCH  13  14
ATOM     14  C   UNL A   1      40.945  34.190  37.384  1.00  0.00     0.107 C 
ATOM     15  C   UNL A   1      36.732  31.290  42.549  1.00  0.00     0.048 C 
ATOM     16  C   UNL A   1      36.475  31.901  41.229  1.00  0.00    -0.005 A 
ATOM     17  C   UNL A   1      35.274  31.872  40.546  1.00  0.00     0.199 A 
ATOM     18  C   UNL A   1      37.420  32.513  40.346  1.00  0.00     0.024 A 
ATOM     19  O   UNL A   1      35.434  32.303  39.274  1.00  0.00    -0.464 OA
ATOM     20  C   UNL A   1      36.754  32.568  39.127  1.00  0.00     0.137 A 
ATOM     21  C   UNL A   1      38.772  32.949  40.387  1.00  0.00     0.020 A 
ATOM     22  C   UNL A   1      37.392  32.732  37.916  1.00  0.00     0.095 A 
ATOM     23  C   UNL A   1      39.413  33.208  39.170  1.00  0.00    -0.001 A 
ATOM     24  C   UNL A   1      38.768  32.805  38.024  1.00  0.00     0.138 A 
ATOM     25  C   UNL A   1      40.765  33.839  38.927  1.00  0.00     0.034 C 
ATOM     26  O   UNL A   1      39.602  32.329  36.987  1.00  0.00    -0.426 OA
ATOM     27  C   UNL A   1      41.860  32.844  39.389  1.00  0.00     0.014 C 
ATOM     28  C   UNL A   1      40.880  32.854  36.791  1.00  0.00     0.314 C 
ATOM     29  O   UNL A   1      41.773  32.367  36.101  1.00  0.00    -0.251 OA
ENDBRANCH  13  14
ENDBRANCH  12  13
ENDBRANCH   9  12
ENDBRANCH   7   8
BRANCH   7  30
ATOM     30  C   UNL A   1      41.201  34.289  30.720  1.00  0.00     0.072 C 
BRANCH  30  31
ATOM     31  C   UNL A   1      42.365  34.813  29.856  1.00  0.00    -0.020 A 
ATOM     32  C   UNL A   1      43.657  34.366  30.130  1.00  0.00     0.087 A 
ATOM     33  C   UNL A   1      42.537  35.800  28.801  1.00  0.00     0.003 A 
ATOM     34  N   UNL A   1      44.561  35.080  29.401  1.00  0.00    -0.361 N 
ATOM     35  C   UNL A   1      43.911  35.992  28.617  1.00  0.00     0.046 A 
ATOM     36  C   UNL A   1      41.692  36.643  28.039  1.00  0.00     0.010 A 
ATOM     37  H   UNL A   1      45.537  34.957  29.434  1.00  0.00     0.166 HD
ATOM     38  C   UNL A   1      44.455  36.987  27.789  1.00  0.00     0.026 A 
ATOM     39  C   UNL A   1      42.213  37.630  27.192  1.00  0.00     0.001 A 
ATOM     40  C   UNL A   1      43.582  37.814  27.088  1.00  0.00     0.002 A 
ENDBRANCH  30  31
ENDBRANCH   7  30
ENDBRANCH   4   7
ENDBRANCH   2   3
ENDBRANCH   1   2
BRANCH   1  41
ATOM     41  C   UNL A   1      35.332  34.935  32.195  1.00  0.00     0.023 C 
BRANCH  41  42
ATOM     42  C   UNL A   1      34.969  33.821  31.190  1.00  0.00     0.116 C 
BRANCH  42  43
ATOM     43  N   UNL A   1      35.251  34.056  29.777  1.00  0.00    -0.352 N 
ATOM     44  C   UNL A   1      35.803  33.280  28.779  1.00  0.00     0.251 C 
ATOM     45  H   UNL A   1      34.995  34.956  29.474  1.00  0.00     0.163 HD
ATOM     46  O   UNL A   1      35.468  33.535  27.619  1.00  0.00    -0.269 OA
BRANCH  44  47
ATOM     47  C   UNL A   1      36.834  32.231  29.012  1.00  0.00     0.039 A 
ATOM     48  C   UNL A   1      38.084  32.511  29.536  1.00  0.00     0.014 A 
ATOM     49  C   UNL A   1      36.581  30.913  28.579  1.00  0.00     0.014 A 
ATOM     50  C   UNL A   1      39.091  31.565  29.531  1.00  0.00     0.010 A 
ATOM     51  C   UNL A   1      37.578  29.927  28.631  1.00  0.00     0.010 A 
ATOM     52  C   UNL A   1      38.851  30.265  29.082  1.00  0.00    -0.014 A 
BRANCH  52  53
ATOM     53  C   UNL A   1      39.978  29.348  29.255  1.00  0.00     0.031 A 
ATOM     54  C   UNL A   1      40.248  28.962  30.670  1.00  0.00     0.074 A 
ATOM     55  C   UNL A   1      40.769  28.840  28.295  1.00  0.00     0.049 A 
ATOM     56  N   UNL A   1      41.233  29.332  31.424  1.00  0.00    -0.248 NA
ATOM     57  C   UNL A   1      39.211  28.190  31.363  1.00  0.00     0.031 C 
ATOM     58  C   UNL A   1      40.536  28.790  26.854  1.00  0.00     0.029 A 
ATOM     59  N   UNL A   1      41.948  28.168  28.455  1.00  0.00    -0.354 N 
ATOM     60  C   UNL A   1      41.035  28.700  32.651  1.00  0.00     0.074 A 
ATOM     61  C   UNL A   1      39.710  28.132  32.597  1.00  0.00     0.031 C 
ATOM     62  C   UNL A   1      41.419  27.927  26.301  1.00  0.00     0.029 A 
ATOM     63  C   UNL A   1      42.368  27.502  27.320  1.00  0.00     0.049 A 
ATOM     64  H   UNL A   1      42.451  28.159  29.301  1.00  0.00     0.167 HD
ATOM     65  C   UNL A   1      42.043  28.541  33.557  1.00  0.00     0.034 A 
ATOM     66  C   UNL A   1      43.372  26.597  27.244  1.00  0.00     0.034 A 
ATOM     67  C   UNL A   1      43.173  29.370  33.244  1.00  0.00     0.049 A 
ATOM     68  C   UNL A   1      44.290  26.784  28.391  1.00  0.00     0.074 A 
ATOM     69  C   UNL A   1      43.436  30.722  33.214  1.00  0.00     0.029 A 
ATOM     70  N   UNL A   1      44.222  28.756  32.610  1.00  0.00    -0.354 N 
ATOM     71  N   UNL A   1      45.108  27.788  28.536  1.00  0.00    -0.248 NA
ATOM     72  C   UNL A   1      44.106  25.959  29.577  1.00  0.00     0.031 C 
ATOM     73  C   UNL A   1      44.450  30.891  32.228  1.00  0.00     0.029 A 
ATOM     74  C   UNL A   1      44.764  29.632  31.710  1.00  0.00     0.049 A 
ATOM     75  H   UNL A   1      44.533  27.836  32.774  1.00  0.00     0.167 HD
ATOM     76  C   UNL A   1      45.183  27.981  29.904  1.00  0.00     0.074 A 
ATOM     77  C   UNL A   1      44.705  26.733  30.484  1.00  0.00     0.031 C 
ATOM     78  C   UNL A   1      45.339  29.229  30.438  1.00  0.00     0.034 A 
BRANCH  65  79
ATOM     79  C   UNL A   1      42.154  27.374  34.517  1.00  0.00     0.023 A 
ATOM     80  C   UNL A   1      42.886  26.211  34.222  1.00  0.00     0.031 A 
ATOM     81  C   UNL A   1      41.738  27.507  35.861  1.00  0.00     0.131 A 
ATOM     82  C   UNL A   1      43.190  25.260  35.206  1.00  0.00     0.055 A 
ATOM     83  C   UNL A   1      42.097  26.591  36.859  1.00  0.00     0.041 A 
ATOM     84  F   UNL A   1      41.026  28.571  36.265  1.00  0.00    -0.206 F 
ATOM     85  C   UNL A   1      42.833  25.460  36.533  1.00  0.00     0.022 A 
BRANCH  82  86
ATOM     86  S   UNL A   1      44.087  23.750  34.753  1.00  0.00     0.124 S 
ATOM     87  O   UNL A   1      44.574  23.294  36.056  1.00  0.00    -0.237 OA
ATOM     88  O   UNL A   1      43.021  22.940  34.162  1.00  0.00    -0.237 OA
ATOM     89  O   UNL A   1      45.098  24.216  33.822  1.00  0.00    -0.744 OA
ENDBRANCH  82  86
ENDBRANCH  65  79
BRANCH  66  90
ATOM     90  C   UNL A   1      43.354  25.345  26.460  1.00  0.00     0.023 A 
ATOM     91  C   UNL A   1      42.485  24.302  26.835  1.00  0.00     0.031 A 
ATOM     92  C   UNL A   1      44.377  25.043  25.548  1.00  0.00     0.131 A 
ATOM     93  C   UNL A   1      42.679  23.006  26.343  1.00  0.00     0.055 A 
ATOM     94  C   UNL A   1      44.562  23.749  25.050  1.00  0.00     0.041 A 
ATOM     95  F   UNL A   1      45.257  25.985  25.175  1.00  0.00    -0.206 F 
ATOM     96  C   UNL A   1      43.718  22.720  25.457  1.00  0.00     0.022 A 
BRANCH  93  97
ATOM     97  S   UNL A   1      41.608  21.653  26.900  1.00  0.00     0.124 S 
ATOM     98  O   UNL A   1      40.627  21.566  25.819  1.00  0.00    -0.237 OA
ATOM     99  O   UNL A   1      42.551  20.543  26.983  1.00  0.00    -0.237 OA
ATOM    100  O   UNL A   1      41.079  22.136  28.172  1.00  0.00    -0.744 OA
ENDBRANCH  93  97
ENDBRANCH  66  90
BRANCH  78 101
ATOM    101  C   UNL A   1      45.888  30.338  29.574  1.00  0.00     0.023 A 
ATOM    102  C   UNL A   1      45.018  30.882  28.608  1.00  0.00     0.031 A 
ATOM    103  C   UNL A   1      47.238  30.731  29.530  1.00  0.00     0.131 A 
ATOM    104  C   UNL A   1      45.501  31.755  27.627  1.00  0.00     0.055 A 
ATOM    105  C   UNL A   1      47.699  31.665  28.595  1.00  0.00     0.041 A 
ATOM    106  F   UNL A   1      48.162  30.169  30.322  1.00  0.00    -0.206 F 
ATOM    107  C   UNL A   1      46.835  32.167  27.628  1.00  0.00     0.022 A 
BRANCH 104 108
ATOM    108  S   UNL A   1      44.449  32.232  26.230  1.00  0.00     0.124 S 
ATOM    109  O   UNL A   1      43.897  33.506  26.680  1.00  0.00    -0.237 OA
ATOM    110  O   UNL A   1      45.409  32.319  25.130  1.00  0.00    -0.237 OA
ATOM    111  O   UNL A   1      43.490  31.137  26.120  1.00  0.00    -0.744 OA
ENDBRANCH 104 108
ENDBRANCH  78 101
ENDBRANCH  52  53
ENDBRANCH  44  47
ENDBRANCH  42  43
ENDBRANCH  41  42
ENDBRANCH   1  41
TORSDOF 20
ENDMDL
MODEL 3
REMARK VINA RESULT:     -11.2      4.521     13.839
REMARK SMILES Cc1coc2cc3c(cc12)[C@@H](C)[C@H](CCC(=O)N[C@@H](Cc1c[nH]c2ccccc12)C(=O)NCCCCNC(=O)c1ccc(-c2c4nc(c(-c5cc(S(=O)(=O)[O-])ccc5F)c5ccc([nH]5)c(-c5cc(S(=O)(=O)[O-])ccc5F)c5nc(c(-c6cc(S(=O)(=O)[O-])ccc6F)c6ccc2[nH]6)C=C5)C=C4)cc1)C(=O)O3
REMARK SMILES IDX 34 1 33 2 32 3 30 4 31 5 19 7 18 8 16 9 17 10 15 12 14 13
REMARK SMILES IDX 13 14 1 15 2 16 3 17 10 18 4 19 5 20 9 21 6 22 8 23 7 24
REMARK SMILES IDX 11 25 105 26 12 27 103 28 104 29 20 30 21 31 22 32 29 33
REMARK SMILES IDX 23 34 24 35 28 36 25 38 27 39 26 40 35 41 36 42 37 43 38 44
REMARK SMILES IDX 39 46 40 47 41 48 102 49 42 50 101 51 43 52 44 53 45 54
REMARK SMILES IDX 95 55 46 56 100 57 94 58 96 59 47 60 99 61 93 62 92 63 48 65
REMARK SMILES IDX 80 66 60 67 79 68 61 69 64 70 78 71 97 72 62 73 63 74 77 76
REMARK SMILES IDX 98 77 65 78 49 79 50 80 58 81 51 82 57 83 59 84 56 85 52 86
REMARK SMILES IDX 53 87 54 88 55 89 81 90 82 91 90 92 83 93 89 94 91 95 88 96
REMARK SMILES IDX 84 97 85 98 86 99 87 100 66 101 67 102 75 103 68 104 74 105
REMARK SMILES IDX 76 106 73 107 69 108 70 109 71 110 72 111
REMARK H PARENT 32 6 18 11 23 37 37 45 96 64 64 75
REMARK Flexibility Score: inf
ROOT
ATOM      1  C   UNL A   1      44.258  24.802  25.039  1.00  0.00     0.023 C 
ENDROOT
BRANCH   1   2
ATOM      2  C   UNL A   1      44.695  25.273  26.406  1.00  0.00     0.116 C 
BRANCH   2   3
ATOM      3  N   UNL A   1      45.337  26.556  26.496  1.00  0.00    -0.354 N 
ATOM      4  C   UNL A   1      46.191  26.958  27.496  1.00  0.00     0.242 C 
ATOM      5  O   UNL A   1      46.601  28.122  27.464  1.00  0.00    -0.273 OA
ATOM      6  H   UNL A   1      45.148  27.203  25.780  1.00  0.00     0.163 HD
BRANCH   4   7
ATOM      7  C   UNL A   1      46.567  26.012  28.694  1.00  0.00     0.175 C 
BRANCH   7   8
ATOM      8  N   UNL A   1      47.854  25.299  28.429  1.00  0.00    -0.344 N 
ATOM      9  C   UNL A   1      48.686  25.088  27.350  1.00  0.00     0.220 C 
ATOM     10  O   UNL A   1      49.767  24.541  27.616  1.00  0.00    -0.275 OA
ATOM     11  H   UNL A   1      48.200  24.865  29.241  1.00  0.00     0.164 HD
BRANCH   9  12
ATOM     12  C   UNL A   1      48.404  25.427  25.850  1.00  0.00     0.101 C 
BRANCH  12  13
ATOM     13  C   UNL A   1      49.570  26.066  24.933  1.00  0.00     0.026 C 
BRANCH  13  14
ATOM     14  C   UNL A   1      50.124  27.490  25.368  1.00  0.00     0.107 C 
ATOM     15  C   UNL A   1      56.536  25.874  28.387  1.00  0.00     0.048 C 
ATOM     16  C   UNL A   1      55.590  25.145  27.517  1.00  0.00    -0.005 A 
ATOM     17  C   UNL A   1      55.845  23.949  26.872  1.00  0.00     0.199 A 
ATOM     18  C   UNL A   1      54.304  25.576  27.063  1.00  0.00     0.024 A 
ATOM     19  O   UNL A   1      54.876  23.675  25.968  1.00  0.00    -0.464 OA
ATOM     20  C   UNL A   1      54.019  24.723  26.003  1.00  0.00     0.137 A 
ATOM     21  C   UNL A   1      53.382  26.620  27.345  1.00  0.00     0.020 A 
ATOM     22  C   UNL A   1      53.073  24.995  25.038  1.00  0.00     0.095 A 
ATOM     23  C   UNL A   1      52.358  26.856  26.420  1.00  0.00    -0.001 A 
ATOM     24  C   UNL A   1      52.453  26.219  25.205  1.00  0.00     0.138 A 
ATOM     25  C   UNL A   1      51.158  27.767  26.547  1.00  0.00     0.034 C 
ATOM     26  O   UNL A   1      51.996  26.957  24.089  1.00  0.00    -0.426 OA
ATOM     27  C   UNL A   1      51.652  29.235  26.503  1.00  0.00     0.014 C 
ATOM     28  C   UNL A   1      50.932  27.853  24.205  1.00  0.00     0.314 C 
ATOM     29  O   UNL A   1      50.610  28.715  23.390  1.00  0.00    -0.251 OA
ENDBRANCH  13  14
ENDBRANCH  12  13
ENDBRANCH   9  12
ENDBRANCH   7   8
BRANCH   7  30
ATOM     30  C   UNL A   1      46.203  26.678  30.083  1.00  0.00     0.072 C 
BRANCH  30  31
ATOM     31  C   UNL A   1      46.178  26.103  31.514  1.00  0.00    -0.020 A 
ATOM     32  C   UNL A   1      47.133  26.544  32.430  1.00  0.00     0.087 A 
ATOM     33  C   UNL A   1      45.439  25.071  32.226  1.00  0.00     0.003 A 
ATOM     34  N   UNL A   1      47.074  25.789  33.563  1.00  0.00    -0.361 N 
ATOM     35  C   UNL A   1      46.083  24.854  33.449  1.00  0.00     0.046 A 
ATOM     36  C   UNL A   1      44.352  24.210  31.942  1.00  0.00     0.010 A 
ATOM     37  H   UNL A   1      47.659  25.899  34.347  1.00  0.00     0.166 HD
ATOM     38  C   UNL A   1      45.745  23.818  34.335  1.00  0.00     0.026 A 
ATOM     39  C   UNL A   1      43.984  23.181  32.820  1.00  0.00     0.001 A 
ATOM     40  C   UNL A   1      44.690  22.976  33.994  1.00  0.00     0.002 A 
ENDBRANCH  30  31
ENDBRANCH   7  30
ENDBRANCH   4   7
ENDBRANCH   2   3
ENDBRANCH   1   2
BRANCH   1  41
ATOM     41  C   UNL A   1      43.321  23.612  25.055  1.00  0.00     0.023 C 
BRANCH  41  42
ATOM     42  C   UNL A   1      43.761  22.394  25.897  1.00  0.00     0.116 C 
BRANCH  42  43
ATOM     43  N   UNL A   1      42.745  21.710  26.692  1.00  0.00    -0.352 N 
ATOM     44  C   UNL A   1      41.592  22.130  27.322  1.00  0.00     0.251 C 
ATOM     45  H   UNL A   1      42.922  20.748  26.803  1.00  0.00     0.163 HD
ATOM     46  O   UNL A   1      40.701  21.292  27.480  1.00  0.00    -0.269 OA
BRANCH  44  47
ATOM     47  C   UNL A   1      41.403  23.492  27.894  1.00  0.00     0.039 A 
ATOM     48  C   UNL A   1      40.316  24.290  27.586  1.00  0.00     0.014 A 
ATOM     49  C   UNL A   1      42.422  24.047  28.694  1.00  0.00     0.014 A 
ATOM     50  C   UNL A   1      40.278  25.623  27.950  1.00  0.00     0.010 A 
ATOM     51  C   UNL A   1      42.363  25.382  29.124  1.00  0.00     0.010 A 
ATOM     52  C   UNL A   1      41.298  26.182  28.722  1.00  0.00    -0.014 A 
BRANCH  52  53
ATOM     53  C   UNL A   1      41.057  27.567  29.131  1.00  0.00     0.031 A 
ATOM     54  C   UNL A   1      41.975  28.564  28.507  1.00  0.00     0.074 A 
ATOM     55  C   UNL A   1      40.123  28.011  29.988  1.00  0.00     0.049 A 
ATOM     56  N   UNL A   1      42.941  29.218  29.066  1.00  0.00    -0.248 NA
ATOM     57  C   UNL A   1      41.890  28.732  27.052  1.00  0.00     0.031 C 
ATOM     58  C   UNL A   1      38.928  27.324  30.472  1.00  0.00     0.029 A 
ATOM     59  N   UNL A   1      40.027  29.255  30.546  1.00  0.00    -0.354 N 
ATOM     60  C   UNL A   1      43.490  30.020  28.066  1.00  0.00     0.074 A 
ATOM     61  C   UNL A   1      42.899  29.573  26.828  1.00  0.00     0.031 C 
ATOM     62  C   UNL A   1      38.113  28.230  31.059  1.00  0.00     0.029 A 
ATOM     63  C   UNL A   1      38.803  29.510  31.132  1.00  0.00     0.049 A 
ATOM     64  H   UNL A   1      40.762  29.909  30.530  1.00  0.00     0.167 HD
ATOM     65  C   UNL A   1      44.261  31.109  28.350  1.00  0.00     0.034 A 
ATOM     66  C   UNL A   1      38.355  30.710  31.569  1.00  0.00     0.034 A 
ATOM     67  C   UNL A   1      44.691  31.112  29.721  1.00  0.00     0.049 A 
ATOM     68  C   UNL A   1      39.509  31.606  31.813  1.00  0.00     0.074 A 
ATOM     69  C   UNL A   1      45.523  30.340  30.502  1.00  0.00     0.029 A 
ATOM     70  N   UNL A   1      43.989  31.917  30.579  1.00  0.00    -0.354 N 
ATOM     71  N   UNL A   1      40.355  31.482  32.797  1.00  0.00    -0.248 NA
ATOM     72  C   UNL A   1      39.912  32.531  30.763  1.00  0.00     0.031 C 
ATOM     73  C   UNL A   1      45.011  30.451  31.827  1.00  0.00     0.029 A 
ATOM     74  C   UNL A   1      43.896  31.292  31.792  1.00  0.00     0.049 A 
ATOM     75  H   UNL A   1      43.612  32.800  30.358  1.00  0.00     0.167 HD
ATOM     76  C   UNL A   1      41.554  31.947  32.286  1.00  0.00     0.074 A 
ATOM     77  C   UNL A   1      41.181  32.736  31.120  1.00  0.00     0.031 C 
ATOM     78  C   UNL A   1      42.748  31.407  32.673  1.00  0.00     0.034 A 
BRANCH  65  79
ATOM     79  C   UNL A   1      44.326  32.357  27.494  1.00  0.00     0.023 A 
ATOM     80  C   UNL A   1      43.688  33.559  27.846  1.00  0.00     0.031 A 
ATOM     81  C   UNL A   1      45.247  32.448  26.425  1.00  0.00     0.131 A 
ATOM     82  C   UNL A   1      43.964  34.764  27.185  1.00  0.00     0.055 A 
ATOM     83  C   UNL A   1      45.573  33.663  25.808  1.00  0.00     0.041 A 
ATOM     84  F   UNL A   1      45.915  31.368  25.992  1.00  0.00    -0.206 F 
ATOM     85  C   UNL A   1      44.932  34.833  26.192  1.00  0.00     0.022 A 
BRANCH  82  86
ATOM     86  S   UNL A   1      43.066  36.270  27.646  1.00  0.00     0.124 S 
ATOM     87  O   UNL A   1      41.734  35.997  27.106  1.00  0.00    -0.237 OA
ATOM     88  O   UNL A   1      43.170  36.240  29.106  1.00  0.00    -0.237 OA
ATOM     89  O   UNL A   1      43.813  37.330  26.995  1.00  0.00    -0.744 OA
ENDBRANCH  82  86
ENDBRANCH  65  79
BRANCH  66  90
ATOM     90  C   UNL A   1      36.985  31.236  31.406  1.00  0.00     0.023 A 
ATOM     91  C   UNL A   1      36.469  31.446  30.112  1.00  0.00     0.031 A 
ATOM     92  C   UNL A   1      36.294  31.815  32.482  1.00  0.00     0.131 A 
ATOM     93  C   UNL A   1      35.336  32.245  29.920  1.00  0.00     0.055 A 
ATOM     94  C   UNL A   1      35.156  32.606  32.289  1.00  0.00     0.041 A 
ATOM     95  F   UNL A   1      36.751  31.680  33.737  1.00  0.00    -0.206 F 
ATOM     96  C   UNL A   1      34.679  32.834  31.001  1.00  0.00     0.022 A 
BRANCH  93  97
ATOM     97  S   UNL A   1      34.733  32.580  28.243  1.00  0.00     0.124 S 
ATOM     98  O   UNL A   1      33.654  33.536  28.485  1.00  0.00    -0.237 OA
ATOM     99  O   UNL A   1      35.924  33.125  27.602  1.00  0.00    -0.237 OA
ATOM    100  O   UNL A   1      34.297  31.269  27.769  1.00  0.00    -0.744 OA
ENDBRANCH  93  97
ENDBRANCH  66  90
BRANCH  78 101
ATOM    101  C   UNL A   1      42.825  30.642  33.971  1.00  0.00     0.023 A 
ATOM    102  C   UNL A   1      42.492  29.273  33.924  1.00  0.00     0.031 A 
ATOM    103  C   UNL A   1      43.013  31.222  35.239  1.00  0.00     0.131 A 
ATOM    104  C   UNL A   1      42.327  28.540  35.104  1.00  0.00     0.055 A 
ATOM    105  C   UNL A   1      42.924  30.466  36.413  1.00  0.00     0.041 A 
ATOM    106  F   UNL A   1      43.202  32.541  35.388  1.00  0.00    -0.206 F 
ATOM    107  C   UNL A   1      42.563  29.124  36.350  1.00  0.00     0.022 A 
BRANCH 104 108
ATOM    108  S   UNL A   1      41.634  26.865  35.051  1.00  0.00     0.124 S 
ATOM    109  O   UNL A   1      40.521  27.022  34.119  1.00  0.00    -0.237 OA
ATOM    110  O   UNL A   1      42.760  26.076  34.554  1.00  0.00    -0.237 OA
ATOM    111  O   UNL A   1      41.258  26.594  36.435  1.00  0.00    -0.744 OA
ENDBRANCH 104 108
ENDBRANCH  78 101
ENDBRANCH  52  53
ENDBRANCH  44  47
ENDBRANCH  42  43
ENDBRANCH  41  42
ENDBRANCH   1  41
TORSDOF 20
ENDMDL
