MODEL 1
REMARK VINA RESULT:     -11.7      0.000      0.000
REMARK SMILES O=C(NCCCCNC(=O)[C@@H](NC(=O)c1ccncc1Cl)C1CC1)c1ccc(-c2c3nc(c(-c4cc(S(=O)(=O)[O-])ccc4F)c4ccc([nH]4)c(-c4cc(S(=O)(=O)[O-])ccc4F)c4nc(c(-c5cc(S(=O)(=O)[O-])ccc5F)c5ccc2[nH]5)C=C4)C=C3)cc1
REMARK SMILES IDX 5 1 4 2 3 3 1 4 2 5 25 7 26 8 87 9 27 10 86 11 28 12 29 13
REMARK SMILES IDX 30 14 80 15 31 16 85 17 79 18 81 19 32 20 84 21 78 22 77 23
REMARK SMILES IDX 33 25 65 26 45 27 64 28 46 29 49 30 63 31 82 32 47 33 48 34
REMARK SMILES IDX 62 36 83 37 50 38 34 39 35 40 43 41 36 42 42 43 44 44 41 45
REMARK SMILES IDX 37 46 38 47 39 48 40 49 66 50 67 51 75 52 68 53 74 54 76 55
REMARK SMILES IDX 73 56 69 57 70 58 71 59 72 60 51 61 52 62 60 63 53 64 59 65
REMARK SMILES IDX 61 66 58 67 54 68 55 69 56 70 57 71 6 72 7 73 8 74 9 75
REMARK SMILES IDX 10 77 11 78 12 79 13 80 14 82 15 83 16 84 20 85 17 86 19 87
REMARK SMILES IDX 21 88 18 89 22 90 23 91 24 92
REMARK H PARENT 3 6 81 24 49 35 8 76 12 81
REMARK Flexibility Score: inf
ROOT
ATOM      1  C   UNL A   1      31.575  31.882  26.533  1.00  0.00     0.023 C 
ENDROOT
BRANCH   1   2
ATOM      2  C   UNL A   1      32.840  32.500  27.113  1.00  0.00     0.116 C 
BRANCH   2   3
ATOM      3  N   UNL A   1      32.617  33.830  27.668  1.00  0.00    -0.352 N 
ATOM      4  O   UNL A   1      32.888  35.502  29.163  1.00  0.00    -0.269 OA
ATOM      5  C   UNL A   1      33.277  34.437  28.715  1.00  0.00     0.251 C 
ATOM      6  H   UNL A   1      31.907  34.361  27.241  1.00  0.00     0.163 HD
BRANCH   5   7
ATOM      7  C   UNL A   1      34.453  33.750  29.290  1.00  0.00     0.039 A 
ATOM      8  C   UNL A   1      34.263  32.657  30.139  1.00  0.00     0.014 A 
ATOM      9  C   UNL A   1      35.733  34.245  29.036  1.00  0.00     0.014 A 
ATOM     10  C   UNL A   1      35.342  32.152  30.849  1.00  0.00     0.010 A 
ATOM     11  C   UNL A   1      36.830  33.670  29.683  1.00  0.00     0.010 A 
ATOM     12  C   UNL A   1      36.639  32.637  30.614  1.00  0.00    -0.014 A 
BRANCH  12  13
ATOM     13  C   UNL A   1      37.781  31.990  31.308  1.00  0.00     0.031 A 
ATOM     14  C   UNL A   1      38.603  30.923  30.640  1.00  0.00     0.074 A 
ATOM     15  C   UNL A   1      38.088  32.413  32.550  1.00  0.00     0.049 A 
ATOM     16  N   UNL A   1      39.631  30.264  31.108  1.00  0.00    -0.248 NA
ATOM     17  C   UNL A   1      38.214  30.540  29.275  1.00  0.00     0.031 C 
ATOM     18  C   UNL A   1      37.352  33.444  33.290  1.00  0.00     0.029 A 
ATOM     19  N   UNL A   1      39.100  32.056  33.401  1.00  0.00    -0.354 N 
ATOM     20  C   UNL A   1      40.006  29.375  30.107  1.00  0.00     0.074 A 
ATOM     21  C   UNL A   1      39.073  29.561  29.015  1.00  0.00     0.031 C 
ATOM     22  C   UNL A   1      37.967  33.671  34.457  1.00  0.00     0.029 A 
ATOM     23  C   UNL A   1      39.088  32.750  34.588  1.00  0.00     0.049 A 
ATOM     24  H   UNL A   1      39.770  31.369  33.184  1.00  0.00     0.167 HD
ATOM     25  C   UNL A   1      41.037  28.491  30.104  1.00  0.00     0.034 A 
ATOM     26  C   UNL A   1      39.872  32.640  35.676  1.00  0.00     0.034 A 
ATOM     27  C   UNL A   1      41.956  28.326  31.207  1.00  0.00     0.049 A 
ATOM     28  C   UNL A   1      40.979  31.624  35.660  1.00  0.00     0.074 A 
ATOM     29  C   UNL A   1      43.050  27.482  31.301  1.00  0.00     0.029 A 
ATOM     30  N   UNL A   1      41.885  29.012  32.416  1.00  0.00    -0.354 N 
ATOM     31  N   UNL A   1      41.324  30.797  34.700  1.00  0.00    -0.248 NA
ATOM     32  C   UNL A   1      41.802  31.527  36.870  1.00  0.00     0.031 C 
ATOM     33  C   UNL A   1      43.596  27.608  32.583  1.00  0.00     0.029 A 
ATOM     34  C   UNL A   1      42.893  28.586  33.268  1.00  0.00     0.049 A 
ATOM     35  H   UNL A   1      41.216  29.700  32.634  1.00  0.00     0.167 HD
ATOM     36  C   UNL A   1      42.417  30.088  35.189  1.00  0.00     0.074 A 
ATOM     37  C   UNL A   1      42.686  30.608  36.515  1.00  0.00     0.031 C 
ATOM     38  C   UNL A   1      43.132  29.098  34.598  1.00  0.00     0.034 A 
BRANCH  25  39
ATOM     39  C   UNL A   1      41.193  27.602  28.892  1.00  0.00     0.023 A 
ATOM     40  C   UNL A   1      42.197  27.820  27.933  1.00  0.00     0.031 A 
ATOM     41  C   UNL A   1      40.316  26.521  28.690  1.00  0.00     0.131 A 
ATOM     42  C   UNL A   1      42.262  27.010  26.788  1.00  0.00     0.055 A 
ATOM     43  C   UNL A   1      40.432  25.673  27.585  1.00  0.00     0.041 A 
ATOM     44  F   UNL A   1      39.324  26.273  29.559  1.00  0.00    -0.206 F 
ATOM     45  C   UNL A   1      41.401  25.923  26.619  1.00  0.00     0.022 A 
BRANCH  42  46
ATOM     46  S   UNL A   1      43.404  27.476  25.457  1.00  0.00     0.124 S 
ATOM     47  O   UNL A   1      44.233  28.481  26.117  1.00  0.00    -0.237 OA
ATOM     48  O   UNL A   1      44.061  26.210  25.149  1.00  0.00    -0.237 OA
ATOM     49  O   UNL A   1      42.522  27.993  24.413  1.00  0.00    -0.744 OA
ENDBRANCH  42  46
ENDBRANCH  25  39
BRANCH  26  50
ATOM     50  C   UNL A   1      39.607  33.479  36.876  1.00  0.00     0.023 A 
ATOM     51  C   UNL A   1      38.949  32.955  37.999  1.00  0.00     0.031 A 
ATOM     52  C   UNL A   1      39.996  34.831  36.911  1.00  0.00     0.131 A 
ATOM     53  C   UNL A   1      38.667  33.786  39.093  1.00  0.00     0.055 A 
ATOM     54  C   UNL A   1      39.765  35.639  38.024  1.00  0.00     0.041 A 
ATOM     55  F   UNL A   1      40.635  35.382  35.865  1.00  0.00    -0.206 F 
ATOM     56  C   UNL A   1      39.084  35.120  39.120  1.00  0.00     0.022 A 
BRANCH  53  57
ATOM     57  S   UNL A   1      37.673  33.118  40.455  1.00  0.00     0.124 S 
ATOM     58  O   UNL A   1      38.451  31.950  40.847  1.00  0.00    -0.237 OA
ATOM     59  O   UNL A   1      37.665  34.231  41.397  1.00  0.00    -0.237 OA
ATOM     60  O   UNL A   1      36.386  32.829  39.824  1.00  0.00    -0.744 OA
ENDBRANCH  53  57
ENDBRANCH  26  50
BRANCH  38  61
ATOM     61  C   UNL A   1      44.291  28.543  35.386  1.00  0.00     0.023 A 
ATOM     62  C   UNL A   1      44.121  27.488  36.300  1.00  0.00     0.031 A 
ATOM     63  C   UNL A   1      45.573  29.102  35.249  1.00  0.00     0.131 A 
ATOM     64  C   UNL A   1      45.202  27.068  37.090  1.00  0.00     0.055 A 
ATOM     65  C   UNL A   1      46.659  28.638  35.994  1.00  0.00     0.041 A 
ATOM     66  F   UNL A   1      45.789  30.114  34.394  1.00  0.00    -0.206 F 
ATOM     67  C   UNL A   1      46.473  27.626  36.931  1.00  0.00     0.022 A 
BRANCH  64  68
ATOM     68  S   UNL A   1      44.899  25.853  38.402  1.00  0.00     0.124 S 
ATOM     69  O   UNL A   1      44.001  26.583  39.290  1.00  0.00    -0.237 OA
ATOM     70  O   UNL A   1      44.305  24.741  37.666  1.00  0.00    -0.237 OA
ATOM     71  O   UNL A   1      46.231  25.595  38.944  1.00  0.00    -0.744 OA
ENDBRANCH  64  68
ENDBRANCH  38  61
ENDBRANCH  12  13
ENDBRANCH   5   7
ENDBRANCH   2   3
ENDBRANCH   1   2
BRANCH   1  72
ATOM     72  C   UNL A   1      31.549  30.355  26.558  1.00  0.00     0.023 C 
BRANCH  72  73
ATOM     73  C   UNL A   1      31.743  29.717  25.189  1.00  0.00     0.116 C 
BRANCH  73  74
ATOM     74  N   UNL A   1      30.763  30.189  24.231  1.00  0.00    -0.354 N 
ATOM     75  C   UNL A   1      30.198  29.513  23.185  1.00  0.00     0.242 C 
ATOM     76  H   UNL A   1      30.464  31.119  24.351  1.00  0.00     0.163 HD
ATOM     77  O   UNL A   1      29.278  30.054  22.567  1.00  0.00    -0.273 OA
BRANCH  75  78
ATOM     78  C   UNL A   1      30.624  28.042  22.873  1.00  0.00     0.174 C 
BRANCH  78  79
ATOM     79  N   UNL A   1      32.032  28.098  22.419  1.00  0.00    -0.340 N 
ATOM     80  C   UNL A   1      33.165  27.376  22.223  1.00  0.00     0.253 C 
ATOM     81  H   UNL A   1      32.222  29.027  22.153  1.00  0.00     0.164 HD
ATOM     82  O   UNL A   1      34.145  27.941  21.737  1.00  0.00    -0.269 OA
BRANCH  80  83
ATOM     83  C   UNL A   1      33.355  25.996  22.642  1.00  0.00     0.061 A 
ATOM     84  C   UNL A   1      33.042  24.994  21.715  1.00  0.00     0.035 A 
ATOM     85  C   UNL A   1      33.651  25.663  23.956  1.00  0.00     0.072 A 
ATOM     86  C   UNL A   1      33.183  23.676  22.110  1.00  0.00     0.112 A 
ATOM     87  C   UNL A   1      33.776  24.314  24.248  1.00  0.00     0.132 A 
ATOM     88  Cl  UNL A   1      33.837  26.828  25.211  1.00  0.00    -0.082 Cl
ATOM     89  N   UNL A   1      33.571  23.316  23.350  1.00  0.00    -0.263 NA
ENDBRANCH  80  83
ENDBRANCH  78  79
BRANCH  78  90
ATOM     90  C   UNL A   1      30.041  27.160  23.941  1.00  0.00     0.021 C 
ATOM     91  C   UNL A   1      28.637  26.627  23.918  1.00  0.00     0.006 C 
ATOM     92  C   UNL A   1      29.807  25.677  23.932  1.00  0.00     0.006 C 
ENDBRANCH  78  90
ENDBRANCH  75  78
ENDBRANCH  73  74
ENDBRANCH  72  73
ENDBRANCH   1  72
TORSDOF 17
ENDMDL
MODEL 2
REMARK VINA RESULT:     -11.6      1.358      2.447
REMARK SMILES O=C(NCCCCNC(=O)[C@@H](NC(=O)c1ccncc1Cl)C1CC1)c1ccc(-c2c3nc(c(-c4cc(S(=O)(=O)[O-])ccc4F)c4ccc([nH]4)c(-c4cc(S(=O)(=O)[O-])ccc4F)c4nc(c(-c5cc(S(=O)(=O)[O-])ccc5F)c5ccc2[nH]5)C=C4)C=C3)cc1
REMARK SMILES IDX 5 1 4 2 3 3 1 4 2 5 25 7 26 8 87 9 27 10 86 11 28 12 29 13
REMARK SMILES IDX 30 14 80 15 31 16 85 17 79 18 81 19 32 20 84 21 78 22 77 23
REMARK SMILES IDX 33 25 65 26 45 27 64 28 46 29 49 30 63 31 82 32 47 33 48 34
REMARK SMILES IDX 62 36 83 37 50 38 34 39 35 40 43 41 36 42 42 43 44 44 41 45
REMARK SMILES IDX 37 46 38 47 39 48 40 49 66 50 67 51 75 52 68 53 74 54 76 55
REMARK SMILES IDX 73 56 69 57 70 58 71 59 72 60 51 61 52 62 60 63 53 64 59 65
REMARK SMILES IDX 61 66 58 67 54 68 55 69 56 70 57 71 6 72 7 73 8 74 9 75
REMARK SMILES IDX 10 77 11 78 12 79 13 80 14 82 15 83 16 84 20 85 17 86 19 87
REMARK SMILES IDX 21 88 18 89 22 90 23 91 24 92
REMARK H PARENT 3 6 81 24 49 35 8 76 12 81
REMARK Flexibility Score: inf
ROOT
ATOM      1  C   UNL A   1      31.777  32.326  26.825  1.00  0.00     0.023 C 
ENDROOT
BRANCH   1   2
ATOM      2  C   UNL A   1      32.895  32.940  27.656  1.00  0.00     0.116 C 
BRANCH   2   3
ATOM      3  N   UNL A   1      32.695  34.361  27.913  1.00  0.00    -0.352 N 
ATOM      4  O   UNL A   1      32.945  36.296  29.052  1.00  0.00    -0.269 OA
ATOM      5  C   UNL A   1      33.315  35.151  28.857  1.00  0.00     0.251 C 
ATOM      6  H   UNL A   1      32.035  34.813  27.340  1.00  0.00     0.163 HD
BRANCH   5   7
ATOM      7  C   UNL A   1      34.424  34.563  29.638  1.00  0.00     0.039 A 
ATOM      8  C   UNL A   1      35.730  34.646  29.149  1.00  0.00     0.014 A 
ATOM      9  C   UNL A   1      34.145  33.870  30.817  1.00  0.00     0.014 A 
ATOM     10  C   UNL A   1      36.735  33.912  29.761  1.00  0.00     0.010 A 
ATOM     11  C   UNL A   1      35.180  33.209  31.484  1.00  0.00     0.010 A 
ATOM     12  C   UNL A   1      36.477  33.204  30.947  1.00  0.00    -0.014 A 
BRANCH  12  13
ATOM     13  C   UNL A   1      37.605  32.528  31.635  1.00  0.00     0.031 A 
ATOM     14  C   UNL A   1      38.393  31.437  30.964  1.00  0.00     0.074 A 
ATOM     15  C   UNL A   1      37.931  32.944  32.874  1.00  0.00     0.049 A 
ATOM     16  N   UNL A   1      39.406  30.751  31.427  1.00  0.00    -0.248 NA
ATOM     17  C   UNL A   1      37.986  31.062  29.602  1.00  0.00     0.031 C 
ATOM     18  C   UNL A   1      37.228  33.996  33.616  1.00  0.00     0.029 A 
ATOM     19  N   UNL A   1      38.938  32.561  33.719  1.00  0.00    -0.354 N 
ATOM     20  C   UNL A   1      39.750  29.850  30.425  1.00  0.00     0.074 A 
ATOM     21  C   UNL A   1      38.815  30.060  29.338  1.00  0.00     0.031 C 
ATOM     22  C   UNL A   1      37.857  34.209  34.779  1.00  0.00     0.029 A 
ATOM     23  C   UNL A   1      38.952  33.258  34.905  1.00  0.00     0.049 A 
ATOM     24  H   UNL A   1      39.588  31.856  33.500  1.00  0.00     0.167 HD
ATOM     25  C   UNL A   1      40.756  28.938  30.418  1.00  0.00     0.034 A 
ATOM     26  C   UNL A   1      39.740  33.128  35.989  1.00  0.00     0.034 A 
ATOM     27  C   UNL A   1      41.677  28.750  31.516  1.00  0.00     0.049 A 
ATOM     28  C   UNL A   1      40.819  32.082  35.967  1.00  0.00     0.074 A 
ATOM     29  C   UNL A   1      42.748  27.876  31.604  1.00  0.00     0.029 A 
ATOM     30  N   UNL A   1      41.632  29.440  32.723  1.00  0.00    -0.354 N 
ATOM     31  N   UNL A   1      41.135  31.244  35.007  1.00  0.00    -0.248 NA
ATOM     32  C   UNL A   1      41.646  31.965  37.173  1.00  0.00     0.031 C 
ATOM     33  C   UNL A   1      43.306  27.991  32.883  1.00  0.00     0.029 A 
ATOM     34  C   UNL A   1      42.634  28.989  33.570  1.00  0.00     0.049 A 
ATOM     35  H   UNL A   1      40.984  30.147  32.944  1.00  0.00     0.167 HD
ATOM     36  C   UNL A   1      42.211  30.506  35.491  1.00  0.00     0.074 A 
ATOM     37  C   UNL A   1      42.503  31.021  36.814  1.00  0.00     0.031 C 
ATOM     38  C   UNL A   1      42.895  29.496  34.897  1.00  0.00     0.034 A 
BRANCH  25  39
ATOM     39  C   UNL A   1      40.880  28.043  29.207  1.00  0.00     0.023 A 
ATOM     40  C   UNL A   1      41.889  28.227  28.245  1.00  0.00     0.031 A 
ATOM     41  C   UNL A   1      39.968  26.990  29.008  1.00  0.00     0.131 A 
ATOM     42  C   UNL A   1      41.924  27.414  27.100  1.00  0.00     0.055 A 
ATOM     43  C   UNL A   1      40.054  26.138  27.904  1.00  0.00     0.041 A 
ATOM     44  F   UNL A   1      38.971  26.776  29.881  1.00  0.00    -0.206 F 
ATOM     45  C   UNL A   1      41.028  26.355  26.936  1.00  0.00     0.022 A 
BRANCH  42  46
ATOM     46  S   UNL A   1      43.077  27.841  25.766  1.00  0.00     0.124 S 
ATOM     47  O   UNL A   1      43.830  26.598  25.617  1.00  0.00    -0.237 OA
ATOM     48  O   UNL A   1      42.178  28.176  24.668  1.00  0.00    -0.237 OA
ATOM     49  O   UNL A   1      43.839  28.960  26.315  1.00  0.00    -0.744 OA
ENDBRANCH  42  46
ENDBRANCH  25  39
BRANCH  26  50
ATOM     50  C   UNL A   1      39.506  33.977  37.189  1.00  0.00     0.023 A 
ATOM     51  C   UNL A   1      38.875  33.461  38.331  1.00  0.00     0.031 A 
ATOM     52  C   UNL A   1      39.897  35.328  37.203  1.00  0.00     0.131 A 
ATOM     53  C   UNL A   1      38.622  34.301  39.426  1.00  0.00     0.055 A 
ATOM     54  C   UNL A   1      39.694  36.145  38.316  1.00  0.00     0.041 A 
ATOM     55  F   UNL A   1      40.509  35.870  36.138  1.00  0.00    -0.206 F 
ATOM     56  C   UNL A   1      39.040  35.634  39.432  1.00  0.00     0.022 A 
BRANCH  53  57
ATOM     57  S   UNL A   1      37.661  33.644  40.817  1.00  0.00     0.124 S 
ATOM     58  O   UNL A   1      37.309  34.861  41.538  1.00  0.00    -0.237 OA
ATOM     59  O   UNL A   1      36.567  32.964  40.132  1.00  0.00    -0.237 OA
ATOM     60  O   UNL A   1      38.610  32.765  41.499  1.00  0.00    -0.744 OA
ENDBRANCH  53  57
ENDBRANCH  26  50
BRANCH  38  61
ATOM     61  C   UNL A   1      44.044  28.911  35.679  1.00  0.00     0.023 A 
ATOM     62  C   UNL A   1      43.876  27.778  36.495  1.00  0.00     0.031 A 
ATOM     63  C   UNL A   1      45.311  29.517  35.638  1.00  0.00     0.131 A 
ATOM     64  C   UNL A   1      44.942  27.325  37.287  1.00  0.00     0.055 A 
ATOM     65  C   UNL A   1      46.384  29.025  36.382  1.00  0.00     0.041 A 
ATOM     66  F   UNL A   1      45.523  30.605  34.879  1.00  0.00    -0.206 F 
ATOM     67  C   UNL A   1      46.199  27.932  37.223  1.00  0.00     0.022 A 
BRANCH  64  68
ATOM     68  S   UNL A   1      44.633  25.995  38.480  1.00  0.00     0.124 S 
ATOM     69  O   UNL A   1      43.992  26.713  39.577  1.00  0.00    -0.237 OA
ATOM     70  O   UNL A   1      43.776  25.089  37.723  1.00  0.00    -0.237 OA
ATOM     71  O   UNL A   1      45.970  25.481  38.774  1.00  0.00    -0.744 OA
ENDBRANCH  64  68
ENDBRANCH  38  61
ENDBRANCH  12  13
ENDBRANCH   5   7
ENDBRANCH   2   3
ENDBRANCH   1   2
BRANCH   1  72
ATOM     72  C   UNL A   1      31.791  30.800  26.774  1.00  0.00     0.023 C 
BRANCH  72  73
ATOM     73  C   UNL A   1      31.637  30.233  25.368  1.00  0.00     0.116 C 
BRANCH  73  74
ATOM     74  N   UNL A   1      32.913  29.843  24.802  1.00  0.00    -0.354 N 
ATOM     75  C   UNL A   1      33.347  28.593  24.459  1.00  0.00     0.242 C 
ATOM     76  H   UNL A   1      33.550  30.576  24.644  1.00  0.00     0.163 HD
ATOM     77  O   UNL A   1      34.423  28.490  23.863  1.00  0.00    -0.273 OA
BRANCH  75  78
ATOM     78  C   UNL A   1      32.436  27.346  24.700  1.00  0.00     0.174 C 
BRANCH  78  79
ATOM     79  N   UNL A   1      31.931  26.930  23.371  1.00  0.00    -0.340 N 
ATOM     80  C   UNL A   1      31.046  27.212  22.381  1.00  0.00     0.253 C 
ATOM     81  H   UNL A   1      32.439  26.132  23.097  1.00  0.00     0.164 HD
ATOM     82  O   UNL A   1      31.057  26.517  21.366  1.00  0.00    -0.269 OA
BRANCH  80  83
ATOM     83  C   UNL A   1      30.000  28.219  22.464  1.00  0.00     0.061 A 
ATOM     84  C   UNL A   1      30.308  29.507  22.007  1.00  0.00     0.035 A 
ATOM     85  C   UNL A   1      28.808  27.984  23.135  1.00  0.00     0.072 A 
ATOM     86  C   UNL A   1      29.336  30.485  22.111  1.00  0.00     0.112 A 
ATOM     87  C   UNL A   1      27.897  29.028  23.178  1.00  0.00     0.132 A 
ATOM     88  Cl  UNL A   1      28.437  26.495  23.916  1.00  0.00    -0.082 Cl
ATOM     89  N   UNL A   1      28.125  30.264  22.663  1.00  0.00    -0.263 NA
ENDBRANCH  80  83
ENDBRANCH  78  79
BRANCH  78  90
ATOM     90  C   UNL A   1      33.101  26.486  25.736  1.00  0.00     0.021 C 
ATOM     91  C   UNL A   1      32.685  25.077  26.052  1.00  0.00     0.006 C 
ATOM     92  C   UNL A   1      34.080  25.362  25.558  1.00  0.00     0.006 C 
ENDBRANCH  78  90
ENDBRANCH  75  78
ENDBRANCH  73  74
ENDBRANCH  72  73
ENDBRANCH   1  72
TORSDOF 17
ENDMDL
MODEL 3
REMARK VINA RESULT:     -11.4      1.354      1.972
REMARK SMILES O=C(NCCCCNC(=O)[C@@H](NC(=O)c1ccncc1Cl)C1CC1)c1ccc(-c2c3nc(c(-c4cc(S(=O)(=O)[O-])ccc4F)c4ccc([nH]4)c(-c4cc(S(=O)(=O)[O-])ccc4F)c4nc(c(-c5cc(S(=O)(=O)[O-])ccc5F)c5ccc2[nH]5)C=C4)C=C3)cc1
REMARK SMILES IDX 5 1 4 2 3 3 1 4 2 5 25 7 26 8 87 9 27 10 86 11 28 12 29 13
REMARK SMILES IDX 30 14 80 15 31 16 85 17 79 18 81 19 32 20 84 21 78 22 77 23
REMARK SMILES IDX 33 25 65 26 45 27 64 28 46 29 49 30 63 31 82 32 47 33 48 34
REMARK SMILES IDX 62 36 83 37 50 38 34 39 35 40 43 41 36 42 42 43 44 44 41 45
REMARK SMILES IDX 37 46 38 47 39 48 40 49 66 50 67 51 75 52 68 53 74 54 76 55
REMARK SMILES IDX 73 56 69 57 70 58 71 59 72 60 51 61 52 62 60 63 53 64 59 65
REMARK SMILES IDX 61 66 58 67 54 68 55 69 56 70 57 71 6 72 7 73 8 74 9 75
REMARK SMILES IDX 10 77 11 78 12 79 13 80 14 82 15 83 16 84 20 85 17 86 19 87
REMARK SMILES IDX 21 88 18 89 22 90 23 91 24 92
REMARK H PARENT 3 6 81 24 49 35 8 76 12 81
REMARK Flexibility Score: inf
ROOT
ATOM      1  C   UNL A   1      31.723  31.957  26.852  1.00  0.00     0.023 C 
ENDROOT
BRANCH   1   2
ATOM      2  C   UNL A   1      32.934  32.790  27.254  1.00  0.00     0.116 C 
BRANCH   2   3
ATOM      3  N   UNL A   1      32.578  34.141  27.668  1.00  0.00    -0.352 N 
ATOM      4  O   UNL A   1      32.579  35.934  29.044  1.00  0.00    -0.269 OA
ATOM      5  C   UNL A   1      33.073  34.863  28.734  1.00  0.00     0.251 C 
ATOM      6  H   UNL A   1      31.902  34.597  27.117  1.00  0.00     0.163 HD
BRANCH   5   7
ATOM      7  C   UNL A   1      34.199  34.291  29.500  1.00  0.00     0.039 A 
ATOM      8  C   UNL A   1      35.510  34.571  29.108  1.00  0.00     0.014 A 
ATOM      9  C   UNL A   1      33.941  33.420  30.560  1.00  0.00     0.014 A 
ATOM     10  C   UNL A   1      36.559  33.867  29.682  1.00  0.00     0.010 A 
ATOM     11  C   UNL A   1      35.009  32.784  31.200  1.00  0.00     0.010 A 
ATOM     12  C   UNL A   1      36.323  32.983  30.747  1.00  0.00    -0.014 A 
BRANCH  12  13
ATOM     13  C   UNL A   1      37.483  32.338  31.411  1.00  0.00     0.031 A 
ATOM     14  C   UNL A   1      38.244  31.222  30.751  1.00  0.00     0.074 A 
ATOM     15  C   UNL A   1      37.863  32.806  32.616  1.00  0.00     0.049 A 
ATOM     16  N   UNL A   1      39.280  30.558  31.196  1.00  0.00    -0.248 NA
ATOM     17  C   UNL A   1      37.777  30.790  29.426  1.00  0.00     0.031 C 
ATOM     18  C   UNL A   1      37.191  33.887  33.345  1.00  0.00     0.029 A 
ATOM     19  N   UNL A   1      38.909  32.461  33.430  1.00  0.00    -0.354 N 
ATOM     20  C   UNL A   1      39.581  29.616  30.218  1.00  0.00     0.074 A 
ATOM     21  C   UNL A   1      38.598  29.779  29.167  1.00  0.00     0.031 C 
ATOM     22  C   UNL A   1      37.870  34.150  34.469  1.00  0.00     0.029 A 
ATOM     23  C   UNL A   1      38.974  33.206  34.584  1.00  0.00     0.049 A 
ATOM     24  H   UNL A   1      39.551  31.748  33.211  1.00  0.00     0.167 HD
ATOM     25  C   UNL A   1      40.590  28.707  30.204  1.00  0.00     0.034 A 
ATOM     26  C   UNL A   1      39.810  33.123  35.635  1.00  0.00     0.034 A 
ATOM     27  C   UNL A   1      41.560  28.566  31.265  1.00  0.00     0.049 A 
ATOM     28  C   UNL A   1      40.891  32.080  35.609  1.00  0.00     0.074 A 
ATOM     29  C   UNL A   1      42.637  27.699  31.342  1.00  0.00     0.029 A 
ATOM     30  N   UNL A   1      41.567  29.306  32.444  1.00  0.00    -0.354 N 
ATOM     31  N   UNL A   1      41.167  31.202  34.671  1.00  0.00    -0.248 NA
ATOM     32  C   UNL A   1      41.772  32.015  36.779  1.00  0.00     0.031 C 
ATOM     33  C   UNL A   1      43.251  27.868  32.588  1.00  0.00     0.029 A 
ATOM     34  C   UNL A   1      42.608  28.892  33.262  1.00  0.00     0.049 A 
ATOM     35  H   UNL A   1      40.927  30.020  32.664  1.00  0.00     0.167 HD
ATOM     36  C   UNL A   1      42.266  30.488  35.136  1.00  0.00     0.074 A 
ATOM     37  C   UNL A   1      42.615  31.058  36.422  1.00  0.00     0.031 C 
ATOM     38  C   UNL A   1      42.927  29.455  34.554  1.00  0.00     0.034 A 
BRANCH  25  39
ATOM     39  C   UNL A   1      40.662  27.763  29.026  1.00  0.00     0.023 A 
ATOM     40  C   UNL A   1      41.581  27.947  27.979  1.00  0.00     0.031 A 
ATOM     41  C   UNL A   1      39.791  26.660  28.948  1.00  0.00     0.131 A 
ATOM     42  C   UNL A   1      41.567  27.083  26.872  1.00  0.00     0.055 A 
ATOM     43  C   UNL A   1      39.832  25.761  27.879  1.00  0.00     0.041 A 
ATOM     44  F   UNL A   1      38.877  26.441  29.907  1.00  0.00    -0.206 F 
ATOM     45  C   UNL A   1      40.715  25.977  26.826  1.00  0.00     0.022 A 
BRANCH  42  46
ATOM     46  S   UNL A   1      42.589  27.499  25.431  1.00  0.00     0.124 S 
ATOM     47  O   UNL A   1      42.483  26.281  24.632  1.00  0.00    -0.237 OA
ATOM     48  O   UNL A   1      41.913  28.675  24.894  1.00  0.00    -0.237 OA
ATOM     49  O   UNL A   1      43.909  27.746  26.007  1.00  0.00    -0.744 OA
ENDBRANCH  42  46
ENDBRANCH  25  39
BRANCH  26  50
ATOM     50  C   UNL A   1      39.627  34.021  36.808  1.00  0.00     0.023 A 
ATOM     51  C   UNL A   1      39.107  33.538  38.019  1.00  0.00     0.031 A 
ATOM     52  C   UNL A   1      39.956  35.387  36.729  1.00  0.00     0.131 A 
ATOM     53  C   UNL A   1      38.898  34.421  39.089  1.00  0.00     0.055 A 
ATOM     54  C   UNL A   1      39.799  36.249  37.815  1.00  0.00     0.041 A 
ATOM     55  F   UNL A   1      40.463  35.900  35.596  1.00  0.00    -0.206 F 
ATOM     56  C   UNL A   1      39.254  35.769  39.000  1.00  0.00     0.022 A 
BRANCH  53  57
ATOM     57  S   UNL A   1      38.073  33.795  40.578  1.00  0.00     0.124 S 
ATOM     58  O   UNL A   1      36.925  33.097  40.012  1.00  0.00    -0.237 OA
ATOM     59  O   UNL A   1      39.110  32.953  41.166  1.00  0.00    -0.237 OA
ATOM     60  O   UNL A   1      37.760  35.010  41.328  1.00  0.00    -0.744 OA
ENDBRANCH  53  57
ENDBRANCH  26  50
BRANCH  38  61
ATOM     61  C   UNL A   1      44.111  28.905  35.308  1.00  0.00     0.023 A 
ATOM     62  C   UNL A   1      43.961  27.909  36.289  1.00  0.00     0.031 A 
ATOM     63  C   UNL A   1      45.400  29.411  35.067  1.00  0.00     0.131 A 
ATOM     64  C   UNL A   1      45.072  27.497  37.040  1.00  0.00     0.055 A 
ATOM     65  C   UNL A   1      46.512  28.953  35.776  1.00  0.00     0.041 A 
ATOM     66  F   UNL A   1      45.598  30.366  34.145  1.00  0.00    -0.206 F 
ATOM     67  C   UNL A   1      46.348  28.001  36.779  1.00  0.00     0.022 A 
BRANCH  64  68
ATOM     68  S   UNL A   1      44.807  26.368  38.434  1.00  0.00     0.124 S 
ATOM     69  O   UNL A   1      43.351  26.312  38.507  1.00  0.00    -0.237 OA
ATOM     70  O   UNL A   1      45.471  25.150  37.980  1.00  0.00    -0.237 OA
ATOM     71  O   UNL A   1      45.458  27.047  39.553  1.00  0.00    -0.744 OA
ENDBRANCH  64  68
ENDBRANCH  38  61
ENDBRANCH  12  13
ENDBRANCH   5   7
ENDBRANCH   2   3
ENDBRANCH   1   2
BRANCH   1  72
ATOM     72  C   UNL A   1      31.950  30.448  26.899  1.00  0.00     0.023 C 
BRANCH  72  73
ATOM     73  C   UNL A   1      32.536  29.878  25.613  1.00  0.00     0.116 C 
BRANCH  73  74
ATOM     74  N   UNL A   1      31.551  29.818  24.552  1.00  0.00    -0.354 N 
ATOM     75  C   UNL A   1      31.124  28.729  23.844  1.00  0.00     0.242 C 
ATOM     76  H   UNL A   1      31.134  30.676  24.310  1.00  0.00     0.163 HD
ATOM     77  O   UNL A   1      30.174  28.869  23.070  1.00  0.00    -0.273 OA
BRANCH  75  78
ATOM     78  C   UNL A   1      31.744  27.319  24.115  1.00  0.00     0.174 C 
BRANCH  78  79
ATOM     79  N   UNL A   1      30.830  26.631  25.055  1.00  0.00    -0.340 N 
ATOM     80  C   UNL A   1      30.612  25.489  25.757  1.00  0.00     0.253 C 
ATOM     81  H   UNL A   1      30.084  27.244  25.247  1.00  0.00     0.164 HD
ATOM     82  O   UNL A   1      29.631  25.432  26.497  1.00  0.00    -0.269 OA
BRANCH  80  83
ATOM     83  C   UNL A   1      31.397  24.271  25.627  1.00  0.00     0.061 A 
ATOM     84  C   UNL A   1      32.386  24.037  26.591  1.00  0.00     0.035 A 
ATOM     85  C   UNL A   1      31.314  23.462  24.503  1.00  0.00     0.072 A 
ATOM     86  C   UNL A   1      33.165  22.902  26.462  1.00  0.00     0.112 A 
ATOM     87  C   UNL A   1      32.133  22.345  24.473  1.00  0.00     0.132 A 
ATOM     88  Cl  UNL A   1      30.278  23.797  23.168  1.00  0.00    -0.082 Cl
ATOM     89  N   UNL A   1      33.039  22.035  25.436  1.00  0.00    -0.263 NA
ENDBRANCH  80  83
ENDBRANCH  78  79
BRANCH  78  90
ATOM     90  C   UNL A   1      32.280  26.797  22.812  1.00  0.00     0.021 C 
ATOM     91  C   UNL A   1      33.648  27.115  22.278  1.00  0.00     0.006 C 
ATOM     92  C   UNL A   1      33.259  25.687  22.560  1.00  0.00     0.006 C 
ENDBRANCH  78  90
ENDBRANCH  75  78
ENDBRANCH  73  74
ENDBRANCH  72  73
ENDBRANCH   1  72
TORSDOF 17
ENDMDL
