MODEL 1
REMARK VINA RESULT:     -11.5      0.000      0.000
REMARK SMILES CC[C@@](O)(C(=O)NCCCCNC(=O)c1ccc(-c2c3nc(c(-c4cc(S(=O)(=O)[O-])ccc4F)c4ccc([nH]4)c(-c4cc(S(=O)(=O)[O-])ccc4F)c4nc(c(-c5cc(S(=O)(=O)[O-])ccc5F)c5ccc2[nH]5)C=C4)C=C3)cc1)[C@H]1CCc2ccc(OC)cc21
REMARK SMILES IDX 10 1 9 2 8 3 7 4 5 5 6 6 3 8 2 9 1 10 4 11 78 13 79 14 88 15
REMARK SMILES IDX 80 16 81 17 87 18 82 19 84 20 83 21 85 22 86 23 11 24 12 25
REMARK SMILES IDX 13 26 14 28 15 29 16 30 77 31 17 32 76 33 18 34 19 35 20 36
REMARK SMILES IDX 70 37 21 38 75 39 69 40 71 41 22 42 74 43 68 44 67 45 23 47
REMARK SMILES IDX 55 48 35 49 54 50 36 51 39 52 53 53 72 54 37 55 38 56 52 58
REMARK SMILES IDX 73 59 40 60 24 61 25 62 33 63 26 64 32 65 34 66 31 67 27 68
REMARK SMILES IDX 28 69 29 70 30 71 56 72 57 73 65 74 58 75 64 76 66 77 63 78
REMARK SMILES IDX 59 79 60 80 61 81 62 82 41 83 42 84 50 85 43 86 49 87 51 88
REMARK SMILES IDX 48 89 44 90 45 91 46 92 47 93
REMARK H PARENT 7 7 4 12 12 27 71 46 39 57
REMARK Flexibility Score: inf
ROOT
ATOM      1  C   UNL A   1      33.243  27.790  25.067  1.00  0.00     0.023 C 
ENDROOT
BRANCH   1   2
ATOM      2  C   UNL A   1      33.681  26.431  24.511  1.00  0.00     0.023 C 
BRANCH   2   3
ATOM      3  C   UNL A   1      33.999  25.367  25.563  1.00  0.00     0.116 C 
BRANCH   3   4
ATOM      4  N   UNL A   1      32.811  24.923  26.258  1.00  0.00    -0.354 N 
ATOM      5  C   UNL A   1      32.415  23.680  26.647  1.00  0.00     0.252 C 
ATOM      6  O   UNL A   1      31.501  23.675  27.479  1.00  0.00    -0.272 OA
ATOM      7  H   UNL A   1      32.181  25.644  26.490  1.00  0.00     0.163 HD
BRANCH   5   8
ATOM      8  C   UNL A   1      33.095  22.367  26.114  1.00  0.00     0.149 C 
BRANCH   8   9
ATOM      9  C   UNL A   1      34.565  22.575  25.656  1.00  0.00     0.043 C 
ATOM     10  C   UNL A   1      35.510  21.421  25.991  1.00  0.00     0.007 C 
ENDBRANCH   8   9
BRANCH   8  11
ATOM     11  O   UNL A   1      33.123  21.463  27.239  1.00  0.00    -0.379 OA
ATOM     12  H   UNL A   1      33.092  20.548  26.920  1.00  0.00     0.212 HD
ENDBRANCH   8  11
BRANCH   8  13
ATOM     13  C   UNL A   1      32.273  21.738  24.932  1.00  0.00     0.061 C 
ATOM     14  C   UNL A   1      32.604  22.314  23.529  1.00  0.00     0.017 C 
ATOM     15  C   UNL A   1      32.408  20.256  24.647  1.00  0.00    -0.035 A 
ATOM     16  C   UNL A   1      32.067  21.287  22.522  1.00  0.00     0.036 C 
ATOM     17  C   UNL A   1      32.320  20.016  23.268  1.00  0.00    -0.044 A 
ATOM     18  C   UNL A   1      32.685  19.212  25.521  1.00  0.00     0.050 A 
ATOM     19  C   UNL A   1      32.505  18.748  22.745  1.00  0.00     0.008 A 
ATOM     20  C   UNL A   1      32.947  17.941  25.002  1.00  0.00     0.119 A 
ATOM     21  C   UNL A   1      32.834  17.712  23.623  1.00  0.00     0.047 A 
BRANCH  20  22
ATOM     22  O   UNL A   1      33.337  16.861  25.749  1.00  0.00    -0.497 OA
ATOM     23  C   UNL A   1      32.773  15.607  25.369  1.00  0.00     0.278 C 
ENDBRANCH  20  22
ENDBRANCH   8  13
ENDBRANCH   5   8
ENDBRANCH   3   4
ENDBRANCH   2   3
ENDBRANCH   1   2
BRANCH   1  24
ATOM     24  C   UNL A   1      34.182  28.412  26.093  1.00  0.00     0.116 C 
BRANCH  24  25
ATOM     25  N   UNL A   1      33.774  29.749  26.494  1.00  0.00    -0.352 N 
ATOM     26  C   UNL A   1      34.375  30.604  27.387  1.00  0.00     0.251 C 
ATOM     27  H   UNL A   1      32.957  30.089  26.066  1.00  0.00     0.163 HD
ATOM     28  O   UNL A   1      33.809  31.647  27.705  1.00  0.00    -0.269 OA
BRANCH  26  29
ATOM     29  C   UNL A   1      35.676  30.242  27.990  1.00  0.00     0.039 A 
ATOM     30  C   UNL A   1      35.692  29.663  29.261  1.00  0.00     0.014 A 
ATOM     31  C   UNL A   1      36.872  30.448  27.297  1.00  0.00     0.014 A 
ATOM     32  C   UNL A   1      36.902  29.227  29.807  1.00  0.00     0.010 A 
ATOM     33  C   UNL A   1      38.065  29.945  27.810  1.00  0.00     0.010 A 
ATOM     34  C   UNL A   1      38.093  29.326  29.069  1.00  0.00    -0.014 A 
BRANCH  34  35
ATOM     35  C   UNL A   1      39.374  28.787  29.597  1.00  0.00     0.031 A 
ATOM     36  C   UNL A   1      40.076  29.482  30.732  1.00  0.00     0.074 A 
ATOM     37  C   UNL A   1      39.936  27.709  29.013  1.00  0.00     0.049 A 
ATOM     38  N   UNL A   1      41.233  29.213  31.280  1.00  0.00    -0.248 NA
ATOM     39  C   UNL A   1      39.397  30.653  31.307  1.00  0.00     0.031 C 
ATOM     40  C   UNL A   1      39.370  26.971  27.881  1.00  0.00     0.029 A 
ATOM     41  N   UNL A   1      41.109  27.050  29.283  1.00  0.00    -0.354 N 
ATOM     42  C   UNL A   1      41.428  30.185  32.255  1.00  0.00     0.074 A 
ATOM     43  C   UNL A   1      40.297  31.087  32.176  1.00  0.00     0.031 C 
ATOM     44  C   UNL A   1      40.184  25.950  27.572  1.00  0.00     0.029 A 
ATOM     45  C   UNL A   1      41.352  25.984  28.445  1.00  0.00     0.049 A 
ATOM     46  H   UNL A   1      41.721  27.314  30.008  1.00  0.00     0.167 HD
ATOM     47  C   UNL A   1      42.443  30.303  33.147  1.00  0.00     0.034 A 
ATOM     48  C   UNL A   1      42.402  25.142  28.378  1.00  0.00     0.034 A 
ATOM     49  C   UNL A   1      43.559  29.391  33.216  1.00  0.00     0.049 A 
ATOM     50  C   UNL A   1      43.536  25.312  29.359  1.00  0.00     0.074 A 
ATOM     51  C   UNL A   1      44.614  29.386  34.111  1.00  0.00     0.029 A 
ATOM     52  N   UNL A   1      43.772  28.326  32.348  1.00  0.00    -0.354 N 
ATOM     53  N   UNL A   1      43.680  26.208  30.308  1.00  0.00    -0.248 NA
ATOM     54  C   UNL A   1      44.643  24.351  29.265  1.00  0.00     0.031 C 
ATOM     55  C   UNL A   1      45.500  28.369  33.742  1.00  0.00     0.029 A 
ATOM     56  C   UNL A   1      44.958  27.681  32.668  1.00  0.00     0.049 A 
ATOM     57  H   UNL A   1      43.170  28.068  31.613  1.00  0.00     0.167 HD
ATOM     58  C   UNL A   1      44.877  25.894  30.947  1.00  0.00     0.074 A 
ATOM     59  C   UNL A   1      45.405  24.720  30.282  1.00  0.00     0.031 C 
ATOM     60  C   UNL A   1      45.479  26.515  31.993  1.00  0.00     0.034 A 
BRANCH  47  61
ATOM     61  C   UNL A   1      42.399  31.475  34.100  1.00  0.00     0.023 A 
ATOM     62  C   UNL A   1      41.616  31.451  35.268  1.00  0.00     0.031 A 
ATOM     63  C   UNL A   1      43.132  32.644  33.827  1.00  0.00     0.131 A 
ATOM     64  C   UNL A   1      41.521  32.594  36.074  1.00  0.00     0.055 A 
ATOM     65  C   UNL A   1      43.102  33.749  34.680  1.00  0.00     0.041 A 
ATOM     66  F   UNL A   1      43.882  32.737  32.718  1.00  0.00    -0.206 F 
ATOM     67  C   UNL A   1      42.280  33.735  35.803  1.00  0.00     0.022 A 
BRANCH  64  68
ATOM     68  S   UNL A   1      40.278  32.622  37.394  1.00  0.00     0.124 S 
ATOM     69  O   UNL A   1      39.367  31.563  36.964  1.00  0.00    -0.237 OA
ATOM     70  O   UNL A   1      41.073  32.336  38.583  1.00  0.00    -0.237 OA
ATOM     71  O   UNL A   1      39.729  33.975  37.320  1.00  0.00    -0.744 OA
ENDBRANCH  64  68
ENDBRANCH  47  61
BRANCH  48  72
ATOM     72  C   UNL A   1      42.446  24.068  27.343  1.00  0.00     0.023 A 
ATOM     73  C   UNL A   1      41.799  22.839  27.548  1.00  0.00     0.031 A 
ATOM     74  C   UNL A   1      43.173  24.238  26.151  1.00  0.00     0.131 A 
ATOM     75  C   UNL A   1      41.934  21.810  26.602  1.00  0.00     0.055 A 
ATOM     76  C   UNL A   1      43.256  23.233  25.186  1.00  0.00     0.041 A 
ATOM     77  F   UNL A   1      43.808  25.395  25.902  1.00  0.00    -0.206 F 
ATOM     78  C   UNL A   1      42.646  22.003  25.416  1.00  0.00     0.022 A 
BRANCH  75  79
ATOM     79  S   UNL A   1      41.240  20.179  26.988  1.00  0.00     0.124 S 
ATOM     80  O   UNL A   1      40.831  20.351  28.377  1.00  0.00    -0.237 OA
ATOM     81  O   UNL A   1      40.164  20.070  26.009  1.00  0.00    -0.237 OA
ATOM     82  O   UNL A   1      42.366  19.271  26.776  1.00  0.00    -0.744 OA
ENDBRANCH  75  79
ENDBRANCH  48  72
BRANCH  60  83
ATOM     83  C   UNL A   1      46.756  25.900  32.517  1.00  0.00     0.023 A 
ATOM     84  C   UNL A   1      46.752  24.927  33.531  1.00  0.00     0.031 A 
ATOM     85  C   UNL A   1      47.997  26.302  31.992  1.00  0.00     0.131 A 
ATOM     86  C   UNL A   1      47.967  24.429  34.027  1.00  0.00     0.055 A 
ATOM     87  C   UNL A   1      49.199  25.755  32.444  1.00  0.00     0.041 A 
ATOM     88  F   UNL A   1      48.062  27.231  31.024  1.00  0.00    -0.206 F 
ATOM     89  C   UNL A   1      49.190  24.823  33.476  1.00  0.00     0.022 A 
BRANCH  86  90
ATOM     90  S   UNL A   1      47.935  23.325  35.467  1.00  0.00     0.124 S 
ATOM     91  O   UNL A   1      49.271  23.512  36.021  1.00  0.00    -0.237 OA
ATOM     92  O   UNL A   1      46.835  23.870  36.255  1.00  0.00    -0.237 OA
ATOM     93  O   UNL A   1      47.685  22.007  34.884  1.00  0.00    -0.744 OA
ENDBRANCH  86  90
ENDBRANCH  60  83
ENDBRANCH  34  35
ENDBRANCH  26  29
ENDBRANCH  24  25
ENDBRANCH   1  24
TORSDOF 18
ENDMDL
MODEL 2
REMARK VINA RESULT:     -11.5      2.027      2.911
REMARK SMILES CC[C@@](O)(C(=O)NCCCCNC(=O)c1ccc(-c2c3nc(c(-c4cc(S(=O)(=O)[O-])ccc4F)c4ccc([nH]4)c(-c4cc(S(=O)(=O)[O-])ccc4F)c4nc(c(-c5cc(S(=O)(=O)[O-])ccc5F)c5ccc2[nH]5)C=C4)C=C3)cc1)[C@H]1CCc2ccc(OC)cc21
REMARK SMILES IDX 10 1 9 2 8 3 7 4 5 5 6 6 3 8 2 9 1 10 4 11 78 13 79 14 88 15
REMARK SMILES IDX 80 16 81 17 87 18 82 19 84 20 83 21 85 22 86 23 11 24 12 25
REMARK SMILES IDX 13 26 14 28 15 29 16 30 77 31 17 32 76 33 18 34 19 35 20 36
REMARK SMILES IDX 70 37 21 38 75 39 69 40 71 41 22 42 74 43 68 44 67 45 23 47
REMARK SMILES IDX 55 48 35 49 54 50 36 51 39 52 53 53 72 54 37 55 38 56 52 58
REMARK SMILES IDX 73 59 40 60 24 61 25 62 33 63 26 64 32 65 34 66 31 67 27 68
REMARK SMILES IDX 28 69 29 70 30 71 56 72 57 73 65 74 58 75 64 76 66 77 63 78
REMARK SMILES IDX 59 79 60 80 61 81 62 82 41 83 42 84 50 85 43 86 49 87 51 88
REMARK SMILES IDX 48 89 44 90 45 91 46 92 47 93
REMARK H PARENT 7 7 4 12 12 27 71 46 39 57
REMARK Flexibility Score: inf
ROOT
ATOM      1  C   UNL A   1      32.090  29.317  25.148  1.00  0.00     0.023 C 
ENDROOT
BRANCH   1   2
ATOM      2  C   UNL A   1      32.457  29.072  23.682  1.00  0.00     0.023 C 
BRANCH   2   3
ATOM      3  C   UNL A   1      31.773  27.870  23.028  1.00  0.00     0.116 C 
BRANCH   3   4
ATOM      4  N   UNL A   1      32.537  27.354  21.914  1.00  0.00    -0.354 N 
ATOM      5  C   UNL A   1      32.877  26.079  21.578  1.00  0.00     0.252 C 
ATOM      6  O   UNL A   1      33.274  25.948  20.415  1.00  0.00    -0.272 OA
ATOM      7  H   UNL A   1      32.868  28.043  21.292  1.00  0.00     0.163 HD
BRANCH   5   8
ATOM      8  C   UNL A   1      32.733  24.871  22.574  1.00  0.00     0.149 C 
BRANCH   8   9
ATOM      9  C   UNL A   1      31.407  24.893  23.384  1.00  0.00     0.043 C 
ATOM     10  C   UNL A   1      30.683  23.549  23.463  1.00  0.00     0.007 C 
ENDBRANCH   8   9
BRANCH   8  11
ATOM     11  O   UNL A   1      32.707  23.689  21.746  1.00  0.00    -0.379 OA
ATOM     12  H   UNL A   1      31.826  23.588  21.353  1.00  0.00     0.212 HD
ENDBRANCH   8  11
BRANCH   8  13
ATOM     13  C   UNL A   1      33.944  24.808  23.573  1.00  0.00     0.061 C 
ATOM     14  C   UNL A   1      33.827  25.754  24.798  1.00  0.00     0.017 C 
ATOM     15  C   UNL A   1      34.251  23.501  24.277  1.00  0.00    -0.035 A 
ATOM     16  C   UNL A   1      34.827  25.217  25.833  1.00  0.00     0.036 C 
ATOM     17  C   UNL A   1      34.724  23.748  25.573  1.00  0.00    -0.044 A 
ATOM     18  C   UNL A   1      34.039  22.197  23.847  1.00  0.00     0.050 A 
ATOM     19  C   UNL A   1      34.988  22.711  26.452  1.00  0.00     0.008 A 
ATOM     20  C   UNL A   1      34.231  21.145  24.745  1.00  0.00     0.119 A 
ATOM     21  C   UNL A   1      34.725  21.405  26.032  1.00  0.00     0.047 A 
BRANCH  20  22
ATOM     22  O   UNL A   1      33.952  19.830  24.476  1.00  0.00    -0.497 OA
ATOM     23  C   UNL A   1      32.613  19.414  24.738  1.00  0.00     0.278 C 
ENDBRANCH  20  22
ENDBRANCH   8  13
ENDBRANCH   5   8
ENDBRANCH   3   4
ENDBRANCH   2   3
ENDBRANCH   1   2
BRANCH   1  24
ATOM     24  C   UNL A   1      33.237  29.764  26.046  1.00  0.00     0.116 C 
BRANCH  24  25
ATOM     25  N   UNL A   1      33.047  31.103  26.581  1.00  0.00    -0.352 N 
ATOM     26  C   UNL A   1      33.810  31.782  27.500  1.00  0.00     0.251 C 
ATOM     27  H   UNL A   1      32.265  31.590  26.236  1.00  0.00     0.163 HD
ATOM     28  O   UNL A   1      33.417  32.860  27.939  1.00  0.00    -0.269 OA
BRANCH  26  29
ATOM     29  C   UNL A   1      35.075  31.190  27.986  1.00  0.00     0.039 A 
ATOM     30  C   UNL A   1      36.227  31.980  28.004  1.00  0.00     0.014 A 
ATOM     31  C   UNL A   1      35.123  29.871  28.446  1.00  0.00     0.014 A 
ATOM     32  C   UNL A   1      37.408  31.471  28.548  1.00  0.00     0.010 A 
ATOM     33  C   UNL A   1      36.278  29.391  29.055  1.00  0.00     0.010 A 
ATOM     34  C   UNL A   1      37.433  30.186  29.116  1.00  0.00    -0.014 A 
BRANCH  34  35
ATOM     35  C   UNL A   1      38.656  29.660  29.779  1.00  0.00     0.031 A 
ATOM     36  C   UNL A   1      39.071  30.186  31.126  1.00  0.00     0.074 A 
ATOM     37  C   UNL A   1      39.426  28.756  29.138  1.00  0.00     0.049 A 
ATOM     38  N   UNL A   1      40.140  29.911  31.829  1.00  0.00    -0.248 NA
ATOM     39  C   UNL A   1      38.178  31.173  31.751  1.00  0.00     0.031 C 
ATOM     40  C   UNL A   1      39.149  28.199  27.812  1.00  0.00     0.029 A 
ATOM     41  N   UNL A   1      40.601  28.152  29.511  1.00  0.00    -0.354 N 
ATOM     42  C   UNL A   1      40.055  30.698  32.973  1.00  0.00     0.074 A 
ATOM     43  C   UNL A   1      38.861  31.507  32.835  1.00  0.00     0.031 C 
ATOM     44  C   UNL A   1      40.111  27.319  27.495  1.00  0.00     0.029 A 
ATOM     45  C   UNL A   1      41.101  27.283  28.567  1.00  0.00     0.049 A 
ATOM     46  H   UNL A   1      41.046  28.324  30.372  1.00  0.00     0.167 HD
ATOM     47  C   UNL A   1      40.881  30.727  34.048  1.00  0.00     0.034 A 
ATOM     48  C   UNL A   1      42.234  26.552  28.559  1.00  0.00     0.034 A 
ATOM     49  C   UNL A   1      42.063  29.908  34.172  1.00  0.00     0.049 A 
ATOM     50  C   UNL A   1      43.155  26.626  29.751  1.00  0.00     0.074 A 
ATOM     51  C   UNL A   1      42.943  29.820  35.236  1.00  0.00     0.029 A 
ATOM     52  N   UNL A   1      42.539  29.042  33.194  1.00  0.00    -0.354 N 
ATOM     53  N   UNL A   1      43.034  27.338  30.847  1.00  0.00    -0.248 NA
ATOM     54  C   UNL A   1      44.361  25.789  29.708  1.00  0.00     0.031 C 
ATOM     55  C   UNL A   1      43.986  28.961  34.876  1.00  0.00     0.029 A 
ATOM     56  C   UNL A   1      43.716  28.444  33.619  1.00  0.00     0.049 A 
ATOM     57  H   UNL A   1      42.105  28.879  32.326  1.00  0.00     0.167 HD
ATOM     58  C   UNL A   1      44.130  27.006  31.639  1.00  0.00     0.074 A 
ATOM     59  C   UNL A   1      44.892  26.021  30.899  1.00  0.00     0.031 C 
ATOM     60  C   UNL A   1      44.471  27.468  32.869  1.00  0.00     0.034 A 
BRANCH  47  61
ATOM     61  C   UNL A   1      40.545  31.695  35.158  1.00  0.00     0.023 A 
ATOM     62  C   UNL A   1      39.551  31.411  36.112  1.00  0.00     0.031 A 
ATOM     63  C   UNL A   1      41.210  32.930  35.253  1.00  0.00     0.131 A 
ATOM     64  C   UNL A   1      39.197  32.376  37.066  1.00  0.00     0.055 A 
ATOM     65  C   UNL A   1      40.913  33.853  36.259  1.00  0.00     0.041 A 
ATOM     66  F   UNL A   1      42.153  33.270  34.361  1.00  0.00    -0.206 F 
ATOM     67  C   UNL A   1      39.889  33.585  37.163  1.00  0.00     0.022 A 
BRANCH  64  68
ATOM     68  S   UNL A   1      37.720  32.091  38.078  1.00  0.00     0.124 S 
ATOM     69  O   UNL A   1      38.233  32.335  39.425  1.00  0.00    -0.237 OA
ATOM     70  O   UNL A   1      36.785  33.084  37.561  1.00  0.00    -0.237 OA
ATOM     71  O   UNL A   1      37.373  30.700  37.795  1.00  0.00    -0.744 OA
ENDBRANCH  64  68
ENDBRANCH  47  61
BRANCH  48  72
ATOM     72  C   UNL A   1      42.573  25.695  27.385  1.00  0.00     0.023 A 
ATOM     73  C   UNL A   1      42.137  24.363  27.312  1.00  0.00     0.031 A 
ATOM     74  C   UNL A   1      43.378  26.183  26.340  1.00  0.00     0.131 A 
ATOM     75  C   UNL A   1      42.548  23.549  26.245  1.00  0.00     0.055 A 
ATOM     76  C   UNL A   1      43.737  25.387  25.251  1.00  0.00     0.041 A 
ATOM     77  F   UNL A   1      43.820  27.451  26.357  1.00  0.00    -0.206 F 
ATOM     78  C   UNL A   1      43.334  24.056  25.207  1.00  0.00     0.022 A 
BRANCH  75  79
ATOM     79  S   UNL A   1      42.118  21.787  26.280  1.00  0.00     0.124 S 
ATOM     80  O   UNL A   1      40.691  21.824  25.980  1.00  0.00    -0.237 OA
ATOM     81  O   UNL A   1      42.980  21.244  25.237  1.00  0.00    -0.237 OA
ATOM     82  O   UNL A   1      42.459  21.381  27.642  1.00  0.00    -0.744 OA
ENDBRANCH  75  79
ENDBRANCH  48  72
BRANCH  60  83
ATOM     83  C   UNL A   1      45.699  26.868  33.514  1.00  0.00     0.023 A 
ATOM     84  C   UNL A   1      45.634  25.706  34.302  1.00  0.00     0.031 A 
ATOM     85  C   UNL A   1      46.955  27.477  33.338  1.00  0.00     0.131 A 
ATOM     86  C   UNL A   1      46.791  25.220  34.929  1.00  0.00     0.055 A 
ATOM     87  C   UNL A   1      48.113  26.953  33.912  1.00  0.00     0.041 A 
ATOM     88  F   UNL A   1      47.076  28.592  32.599  1.00  0.00    -0.206 F 
ATOM     89  C   UNL A   1      48.034  25.826  34.724  1.00  0.00     0.022 A 
BRANCH  86  90
ATOM     90  S   UNL A   1      46.638  23.838  36.095  1.00  0.00     0.124 S 
ATOM     91  O   UNL A   1      47.887  23.116  35.875  1.00  0.00    -0.237 OA
ATOM     92  O   UNL A   1      46.515  24.523  37.377  1.00  0.00    -0.237 OA
ATOM     93  O   UNL A   1      45.433  23.143  35.646  1.00  0.00    -0.744 OA
ENDBRANCH  86  90
ENDBRANCH  60  83
ENDBRANCH  34  35
ENDBRANCH  26  29
ENDBRANCH  24  25
ENDBRANCH   1  24
TORSDOF 18
ENDMDL
MODEL 3
REMARK VINA RESULT:     -11.4      2.432      8.049
REMARK SMILES CC[C@@](O)(C(=O)NCCCCNC(=O)c1ccc(-c2c3nc(c(-c4cc(S(=O)(=O)[O-])ccc4F)c4ccc([nH]4)c(-c4cc(S(=O)(=O)[O-])ccc4F)c4nc(c(-c5cc(S(=O)(=O)[O-])ccc5F)c5ccc2[nH]5)C=C4)C=C3)cc1)[C@H]1CCc2ccc(OC)cc21
REMARK SMILES IDX 10 1 9 2 8 3 7 4 5 5 6 6 3 8 2 9 1 10 4 11 78 13 79 14 88 15
REMARK SMILES IDX 80 16 81 17 87 18 82 19 84 20 83 21 85 22 86 23 11 24 12 25
REMARK SMILES IDX 13 26 14 28 15 29 16 30 77 31 17 32 76 33 18 34 19 35 20 36
REMARK SMILES IDX 70 37 21 38 75 39 69 40 71 41 22 42 74 43 68 44 67 45 23 47
REMARK SMILES IDX 55 48 35 49 54 50 36 51 39 52 53 53 72 54 37 55 38 56 52 58
REMARK SMILES IDX 73 59 40 60 24 61 25 62 33 63 26 64 32 65 34 66 31 67 27 68
REMARK SMILES IDX 28 69 29 70 30 71 56 72 57 73 65 74 58 75 64 76 66 77 63 78
REMARK SMILES IDX 59 79 60 80 61 81 62 82 41 83 42 84 50 85 43 86 49 87 51 88
REMARK SMILES IDX 48 89 44 90 45 91 46 92 47 93
REMARK H PARENT 7 7 4 12 12 27 71 46 39 57
REMARK Flexibility Score: inf
ROOT
ATOM      1  C   UNL A   1      33.701  28.817  24.758  1.00  0.00     0.023 C 
ENDROOT
BRANCH   1   2
ATOM      2  C   UNL A   1      33.086  29.122  23.389  1.00  0.00     0.023 C 
BRANCH   2   3
ATOM      3  C   UNL A   1      32.130  28.057  22.850  1.00  0.00     0.116 C 
BRANCH   3   4
ATOM      4  N   UNL A   1      32.747  27.248  21.822  1.00  0.00    -0.354 N 
ATOM      5  C   UNL A   1      32.834  25.897  21.680  1.00  0.00     0.252 C 
ATOM      6  O   UNL A   1      33.160  25.524  20.547  1.00  0.00    -0.272 OA
ATOM      7  H   UNL A   1      33.178  27.763  21.101  1.00  0.00     0.163 HD
BRANCH   5   8
ATOM      8  C   UNL A   1      32.504  24.897  22.848  1.00  0.00     0.149 C 
BRANCH   8   9
ATOM      9  C   UNL A   1      31.609  25.518  23.957  1.00  0.00     0.043 C 
ATOM     10  C   UNL A   1      30.130  25.143  23.872  1.00  0.00     0.007 C 
ENDBRANCH   8   9
BRANCH   8  11
ATOM     11  O   UNL A   1      31.747  23.829  22.239  1.00  0.00    -0.379 OA
ATOM     12  H   UNL A   1      30.813  24.084  22.186  1.00  0.00     0.212 HD
ENDBRANCH   8  11
BRANCH   8  13
ATOM     13  C   UNL A   1      33.814  24.331  23.502  1.00  0.00     0.061 C 
ATOM     14  C   UNL A   1      34.453  25.246  24.581  1.00  0.00     0.017 C 
ATOM     15  C   UNL A   1      33.750  23.025  24.268  1.00  0.00    -0.035 A 
ATOM     16  C   UNL A   1      35.398  24.342  25.385  1.00  0.00     0.036 C 
ATOM     17  C   UNL A   1      34.634  23.056  25.356  1.00  0.00    -0.044 A 
ATOM     18  C   UNL A   1      32.910  21.934  24.083  1.00  0.00     0.050 A 
ATOM     19  C   UNL A   1      34.693  22.014  26.266  1.00  0.00     0.008 A 
ATOM     20  C   UNL A   1      32.906  20.909  25.032  1.00  0.00     0.119 A 
ATOM     21  C   UNL A   1      33.811  20.943  26.103  1.00  0.00     0.047 A 
BRANCH  20  22
ATOM     22  O   UNL A   1      32.050  19.838  25.018  1.00  0.00    -0.497 OA
ATOM     23  C   UNL A   1      32.662  18.553  25.117  1.00  0.00     0.278 C 
ENDBRANCH  20  22
ENDBRANCH   8  13
ENDBRANCH   5   8
ENDBRANCH   3   4
ENDBRANCH   2   3
ENDBRANCH   1   2
BRANCH   1  24
ATOM     24  C   UNL A   1      32.761  28.968  25.948  1.00  0.00     0.116 C 
BRANCH  24  25
ATOM     25  N   UNL A   1      32.401  30.352  26.211  1.00  0.00    -0.352 N 
ATOM     26  C   UNL A   1      33.043  31.276  27.000  1.00  0.00     0.251 C 
ATOM     27  H   UNL A   1      31.587  30.671  25.762  1.00  0.00     0.163 HD
ATOM     28  O   UNL A   1      32.515  32.365  27.214  1.00  0.00    -0.269 OA
BRANCH  26  29
ATOM     29  C   UNL A   1      34.344  30.938  27.618  1.00  0.00     0.039 A 
ATOM     30  C   UNL A   1      35.304  31.942  27.761  1.00  0.00     0.014 A 
ATOM     31  C   UNL A   1      34.607  29.645  28.078  1.00  0.00     0.014 A 
ATOM     32  C   UNL A   1      36.500  31.666  28.428  1.00  0.00     0.010 A 
ATOM     33  C   UNL A   1      35.765  29.392  28.808  1.00  0.00     0.010 A 
ATOM     34  C   UNL A   1      36.723  30.400  28.994  1.00  0.00    -0.014 A 
BRANCH  34  35
ATOM     35  C   UNL A   1      37.950  30.114  29.784  1.00  0.00     0.031 A 
ATOM     36  C   UNL A   1      38.997  29.181  29.241  1.00  0.00     0.074 A 
ATOM     37  C   UNL A   1      38.091  30.647  31.015  1.00  0.00     0.049 A 
ATOM     38  N   UNL A   1      40.095  28.748  29.808  1.00  0.00    -0.248 NA
ATOM     39  C   UNL A   1      38.763  28.640  27.894  1.00  0.00     0.031 C 
ATOM     40  C   UNL A   1      37.126  31.537  31.666  1.00  0.00     0.029 A 
ATOM     41  N   UNL A   1      39.093  30.513  31.943  1.00  0.00    -0.354 N 
ATOM     42  C   UNL A   1      40.676  27.876  28.893  1.00  0.00     0.074 A 
ATOM     43  C   UNL A   1      39.774  27.795  27.763  1.00  0.00     0.031 C 
ATOM     44  C   UNL A   1      37.595  31.887  32.873  1.00  0.00     0.029 A 
ATOM     45  C   UNL A   1      38.867  31.211  33.109  1.00  0.00     0.049 A 
ATOM     46  H   UNL A   1      39.899  29.968  31.791  1.00  0.00     0.167 HD
ATOM     47  C   UNL A   1      41.863  27.223  28.977  1.00  0.00     0.034 A 
ATOM     48  C   UNL A   1      39.592  31.286  34.242  1.00  0.00     0.034 A 
ATOM     49  C   UNL A   1      42.753  27.321  30.108  1.00  0.00     0.049 A 
ATOM     50  C   UNL A   1      40.891  30.524  34.326  1.00  0.00     0.074 A 
ATOM     51  C   UNL A   1      43.999  26.744  30.277  1.00  0.00     0.029 A 
ATOM     52  N   UNL A   1      42.488  28.035  31.272  1.00  0.00    -0.354 N 
ATOM     53  N   UNL A   1      41.452  29.744  33.431  1.00  0.00    -0.248 NA
ATOM     54  C   UNL A   1      41.660  30.661  35.570  1.00  0.00     0.031 C 
ATOM     55  C   UNL A   1      44.454  27.046  31.565  1.00  0.00     0.029 A 
ATOM     56  C   UNL A   1      43.532  27.884  32.172  1.00  0.00     0.049 A 
ATOM     57  H   UNL A   1      41.676  28.569  31.433  1.00  0.00     0.167 HD
ATOM     58  C   UNL A   1      42.657  29.327  33.992  1.00  0.00     0.074 A 
ATOM     59  C   UNL A   1      42.745  29.953  35.295  1.00  0.00     0.031 C 
ATOM     60  C   UNL A   1      43.606  28.508  33.472  1.00  0.00     0.034 A 
BRANCH  47  61
ATOM     61  C   UNL A   1      42.246  26.326  27.822  1.00  0.00     0.023 A 
ATOM     62  C   UNL A   1      41.779  25.004  27.726  1.00  0.00     0.031 A 
ATOM     63  C   UNL A   1      43.110  26.791  26.815  1.00  0.00     0.131 A 
ATOM     64  C   UNL A   1      42.237  24.170  26.695  1.00  0.00     0.055 A 
ATOM     65  C   UNL A   1      43.495  25.983  25.742  1.00  0.00     0.041 A 
ATOM     66  F   UNL A   1      43.607  28.037  26.861  1.00  0.00    -0.206 F 
ATOM     67  C   UNL A   1      43.071  24.659  25.687  1.00  0.00     0.022 A 
BRANCH  64  68
ATOM     68  S   UNL A   1      41.849  22.401  26.776  1.00  0.00     0.124 S 
ATOM     69  O   UNL A   1      40.441  22.425  27.165  1.00  0.00    -0.237 OA
ATOM     70  O   UNL A   1      42.128  21.954  25.417  1.00  0.00    -0.237 OA
ATOM     71  O   UNL A   1      42.762  21.895  27.800  1.00  0.00    -0.744 OA
ENDBRANCH  64  68
ENDBRANCH  47  61
BRANCH  48  72
ATOM     72  C   UNL A   1      39.111  32.100  35.397  1.00  0.00     0.023 A 
ATOM     73  C   UNL A   1      38.515  31.491  36.513  1.00  0.00     0.031 A 
ATOM     74  C   UNL A   1      39.199  33.503  35.382  1.00  0.00     0.131 A 
ATOM     75  C   UNL A   1      37.985  32.283  37.543  1.00  0.00     0.055 A 
ATOM     76  C   UNL A   1      38.723  34.285  36.436  1.00  0.00     0.041 A 
ATOM     77  F   UNL A   1      39.764  34.137  34.341  1.00  0.00    -0.206 F 
ATOM     78  C   UNL A   1      38.097  33.675  37.519  1.00  0.00     0.022 A 
BRANCH  75  79
ATOM     79  S   UNL A   1      37.061  31.470  38.876  1.00  0.00     0.124 S 
ATOM     80  O   UNL A   1      37.988  31.589  39.995  1.00  0.00    -0.237 OA
ATOM     81  O   UNL A   1      35.855  32.288  38.950  1.00  0.00    -0.237 OA
ATOM     82  O   UNL A   1      36.860  30.113  38.372  1.00  0.00    -0.744 OA
ENDBRANCH  75  79
ENDBRANCH  48  72
BRANCH  60  83
ATOM     83  C   UNL A   1      44.852  28.287  34.298  1.00  0.00     0.023 A 
ATOM     84  C   UNL A   1      44.960  27.227  35.215  1.00  0.00     0.031 A 
ATOM     85  C   UNL A   1      45.947  29.160  34.167  1.00  0.00     0.131 A 
ATOM     86  C   UNL A   1      46.114  27.098  36.003  1.00  0.00     0.055 A 
ATOM     87  C   UNL A   1      47.117  28.989  34.906  1.00  0.00     0.041 A 
ATOM     88  F   UNL A   1      45.899  30.193  33.309  1.00  0.00    -0.206 F 
ATOM     89  C   UNL A   1      47.201  27.961  35.841  1.00  0.00     0.022 A 
BRANCH  86  90
ATOM     90  S   UNL A   1      46.141  25.842  37.312  1.00  0.00     0.124 S 
ATOM     91  O   UNL A   1      47.530  25.896  37.755  1.00  0.00    -0.237 OA
ATOM     92  O   UNL A   1      45.150  26.350  38.254  1.00  0.00    -0.237 OA
ATOM     93  O   UNL A   1      45.761  24.613  36.616  1.00  0.00    -0.744 OA
ENDBRANCH  86  90
ENDBRANCH  60  83
ENDBRANCH  34  35
ENDBRANCH  26  29
ENDBRANCH  24  25
ENDBRANCH   1  24
TORSDOF 18
ENDMDL
