MODEL 1
REMARK VINA RESULT:     -11.3      0.000      0.000
REMARK SMILES Cn1ncc(C(=O)NCCCCNC(=O)c2ccc(-c3c4nc(c(-c5cc(S(=O)(=O)[O-])ccc5F)c5ccc([nH]5)c(-c5cc(S(=O)(=O)[O-])ccc5F)c5nc(c(-c6cc(S(=O)(=O)[O-])ccc6F)c6ccc3[nH]6)C=C5)C=C4)cc2)c1NS(=O)(=O)[C@@H]1CCS(=O)(=O)C1
REMARK SMILES IDX 10 1 9 2 8 3 6 4 7 5 5 7 1 8 2 9 3 10 79 11 4 12 80 13 81 15
REMARK SMILES IDX 82 16 83 17 84 18 85 19 90 20 86 21 87 22 88 23 89 24 11 25
REMARK SMILES IDX 12 26 13 27 14 28 15 30 16 31 17 32 78 33 18 34 77 35 19 36
REMARK SMILES IDX 20 37 21 38 71 39 22 40 76 41 70 42 72 43 23 44 75 45 69 46
REMARK SMILES IDX 68 47 24 49 56 50 36 51 55 52 37 53 40 54 54 55 73 56 38 57
REMARK SMILES IDX 39 58 53 60 74 61 41 62 25 63 26 64 34 65 27 66 33 67 35 68
REMARK SMILES IDX 32 69 28 70 29 71 30 72 31 73 57 74 58 75 66 76 59 77 65 78
REMARK SMILES IDX 67 79 64 80 60 81 61 82 62 83 63 84 42 85 43 86 51 87 44 88
REMARK SMILES IDX 50 89 52 90 49 91 45 92 46 93 47 94 48 95
REMARK H PARENT 8 6 80 14 13 29 72 48 40 59
REMARK Flexibility Score: inf
ROOT
ATOM      1  C   UNL A   1      32.277  27.183  26.559  1.00  0.00     0.023 C 
ENDROOT
BRANCH   1   2
ATOM      2  C   UNL A   1      31.342  25.919  26.218  1.00  0.00     0.116 C 
BRANCH   2   3
ATOM      3  N   UNL A   1      30.087  25.864  25.405  1.00  0.00    -0.352 N 
ATOM      4  C   UNL A   1      29.579  26.373  24.229  1.00  0.00     0.256 C 
ATOM      5  O   UNL A   1      28.395  26.198  23.941  1.00  0.00    -0.269 OA
ATOM      6  H   UNL A   1      29.420  25.288  25.844  1.00  0.00     0.163 HD
BRANCH   4   7
ATOM      7  C   UNL A   1      30.459  27.087  23.391  1.00  0.00     0.102 A 
ATOM      8  C   UNL A   1      33.768  27.445  22.887  1.00  0.00     0.176 C 
ATOM      9  N   UNL A   1      32.365  27.504  22.525  1.00  0.00    -0.251 N 
ATOM     10  N   UNL A   1      31.787  28.732  22.607  1.00  0.00    -0.179 NA
ATOM     11  C   UNL A   1      31.413  26.491  22.612  1.00  0.00     0.150 A 
ATOM     12  C   UNL A   1      30.606  28.469  23.174  1.00  0.00     0.151 A 
BRANCH  11  13
ATOM     13  N   UNL A   1      31.422  25.124  22.273  1.00  0.00    -0.267 N 
ATOM     14  H   UNL A   1      30.696  24.795  21.696  1.00  0.00     0.181 HD
BRANCH  13  15
ATOM     15  S   UNL A   1      32.576  24.007  22.777  1.00  0.00     0.237 S 
ATOM     16  O   UNL A   1      31.938  22.704  22.723  1.00  0.00    -0.206 OA
ATOM     17  O   UNL A   1      33.633  24.263  21.813  1.00  0.00    -0.206 OA
BRANCH  15  18
ATOM     18  C   UNL A   1      33.432  24.054  24.386  1.00  0.00     0.145 C 
ATOM     19  C   UNL A   1      34.667  24.830  24.852  1.00  0.00     0.039 C 
ATOM     20  C   UNL A   1      33.350  22.743  25.183  1.00  0.00     0.158 C 
ATOM     21  C   UNL A   1      35.630  24.016  25.700  1.00  0.00     0.138 C 
ATOM     22  S   UNL A   1      34.733  22.644  26.302  1.00  0.00     0.151 S 
ATOM     23  O   UNL A   1      35.510  21.467  25.989  1.00  0.00    -0.229 OA
ATOM     24  O   UNL A   1      34.284  22.974  27.634  1.00  0.00    -0.229 OA
ENDBRANCH  15  18
ENDBRANCH  13  15
ENDBRANCH  11  13
ENDBRANCH   4   7
ENDBRANCH   2   3
ENDBRANCH   1   2
BRANCH   1  25
ATOM     25  C   UNL A   1      31.807  28.682  26.511  1.00  0.00     0.023 C 
BRANCH  25  26
ATOM     26  C   UNL A   1      32.707  29.818  25.893  1.00  0.00     0.116 C 
BRANCH  26  27
ATOM     27  N   UNL A   1      32.613  31.172  26.418  1.00  0.00    -0.352 N 
ATOM     28  C   UNL A   1      33.437  31.851  27.321  1.00  0.00     0.251 C 
ATOM     29  H   UNL A   1      31.848  31.693  26.083  1.00  0.00     0.163 HD
ATOM     30  O   UNL A   1      33.109  33.004  27.612  1.00  0.00    -0.269 OA
BRANCH  28  31
ATOM     31  C   UNL A   1      34.663  31.279  27.981  1.00  0.00     0.039 A 
ATOM     32  C   UNL A   1      35.838  32.051  28.003  1.00  0.00     0.014 A 
ATOM     33  C   UNL A   1      34.758  29.955  28.420  1.00  0.00     0.014 A 
ATOM     34  C   UNL A   1      37.047  31.544  28.535  1.00  0.00     0.010 A 
ATOM     35  C   UNL A   1      35.968  29.454  28.974  1.00  0.00     0.010 A 
ATOM     36  C   UNL A   1      37.130  30.245  29.063  1.00  0.00    -0.014 A 
BRANCH  36  37
ATOM     37  C   UNL A   1      38.395  29.757  29.735  1.00  0.00     0.031 A 
ATOM     38  C   UNL A   1      38.850  30.270  31.087  1.00  0.00     0.074 A 
ATOM     39  C   UNL A   1      39.180  28.841  29.121  1.00  0.00     0.049 A 
ATOM     40  N   UNL A   1      39.921  29.958  31.782  1.00  0.00    -0.248 NA
ATOM     41  C   UNL A   1      37.995  31.273  31.730  1.00  0.00     0.031 C 
ATOM     42  C   UNL A   1      38.912  28.254  27.809  1.00  0.00     0.029 A 
ATOM     43  N   UNL A   1      40.362  28.244  29.511  1.00  0.00    -0.354 N 
ATOM     44  C   UNL A   1      39.874  30.726  32.945  1.00  0.00     0.074 A 
ATOM     45  C   UNL A   1      38.688  31.554  32.828  1.00  0.00     0.031 C 
ATOM     46  C   UNL A   1      39.885  27.377  27.511  1.00  0.00     0.029 A 
ATOM     47  C   UNL A   1      40.874  27.361  28.587  1.00  0.00     0.049 A 
ATOM     48  H   UNL A   1      40.800  28.433  30.373  1.00  0.00     0.167 HD
ATOM     49  C   UNL A   1      40.719  30.738  34.013  1.00  0.00     0.034 A 
ATOM     50  C   UNL A   1      42.010  26.627  28.579  1.00  0.00     0.034 A 
ATOM     51  C   UNL A   1      41.906  29.917  34.141  1.00  0.00     0.049 A 
ATOM     52  C   UNL A   1      42.958  26.684  29.752  1.00  0.00     0.074 A 
ATOM     53  C   UNL A   1      42.785  29.831  35.212  1.00  0.00     0.029 A 
ATOM     54  N   UNL A   1      42.397  29.054  33.170  1.00  0.00    -0.354 N 
ATOM     55  N   UNL A   1      42.865  27.386  30.857  1.00  0.00    -0.248 NA
ATOM     56  C   UNL A   1      44.161  25.841  29.680  1.00  0.00     0.031 C 
ATOM     57  C   UNL A   1      43.839  28.978  34.861  1.00  0.00     0.029 A 
ATOM     58  C   UNL A   1      43.580  28.464  33.601  1.00  0.00     0.049 A 
ATOM     59  H   UNL A   1      41.968  28.885  32.300  1.00  0.00     0.167 HD
ATOM     60  C   UNL A   1      43.980  27.044  31.620  1.00  0.00     0.074 A 
ATOM     61  C   UNL A   1      44.725  26.066  30.858  1.00  0.00     0.031 C 
ATOM     62  C   UNL A   1      44.345  27.500  32.845  1.00  0.00     0.034 A 
BRANCH  49  63
ATOM     63  C   UNL A   1      40.404  31.702  35.141  1.00  0.00     0.023 A 
ATOM     64  C   UNL A   1      39.487  31.375  36.155  1.00  0.00     0.031 A 
ATOM     65  C   UNL A   1      41.018  32.967  35.199  1.00  0.00     0.131 A 
ATOM     66  C   UNL A   1      39.142  32.329  37.125  1.00  0.00     0.055 A 
ATOM     67  C   UNL A   1      40.737  33.880  36.219  1.00  0.00     0.041 A 
ATOM     68  F   UNL A   1      41.895  33.346  34.256  1.00  0.00    -0.206 F 
ATOM     69  C   UNL A   1      39.778  33.570  37.179  1.00  0.00     0.022 A 
BRANCH  66  70
ATOM     70  S   UNL A   1      37.726  31.985  38.205  1.00  0.00     0.124 S 
ATOM     71  O   UNL A   1      36.813  33.068  37.847  1.00  0.00    -0.237 OA
ATOM     72  O   UNL A   1      37.328  30.646  37.788  1.00  0.00    -0.237 OA
ATOM     73  O   UNL A   1      38.291  32.080  39.550  1.00  0.00    -0.744 OA
ENDBRANCH  66  70
ENDBRANCH  49  63
BRANCH  50  74
ATOM     74  C   UNL A   1      42.345  25.778  27.395  1.00  0.00     0.023 A 
ATOM     75  C   UNL A   1      41.992  24.419  27.348  1.00  0.00     0.031 A 
ATOM     76  C   UNL A   1      43.069  26.310  26.313  1.00  0.00     0.131 A 
ATOM     77  C   UNL A   1      42.394  23.630  26.257  1.00  0.00     0.055 A 
ATOM     78  C   UNL A   1      43.421  25.533  25.208  1.00  0.00     0.041 A 
ATOM     79  F   UNL A   1      43.434  27.601  26.308  1.00  0.00    -0.206 F 
ATOM     80  C   UNL A   1      43.093  24.182  25.181  1.00  0.00     0.022 A 
BRANCH  77  81
ATOM     81  S   UNL A   1      42.048  21.849  26.293  1.00  0.00     0.124 S 
ATOM     82  O   UNL A   1      40.654  21.809  25.865  1.00  0.00    -0.237 OA
ATOM     83  O   UNL A   1      43.028  21.330  25.345  1.00  0.00    -0.237 OA
ATOM     84  O   UNL A   1      42.284  21.486  27.689  1.00  0.00    -0.744 OA
ENDBRANCH  77  81
ENDBRANCH  50  74
BRANCH  62  85
ATOM     85  C   UNL A   1      45.593  26.909  33.464  1.00  0.00     0.023 A 
ATOM     86  C   UNL A   1      45.553  25.762  34.278  1.00  0.00     0.031 A 
ATOM     87  C   UNL A   1      46.845  27.515  33.249  1.00  0.00     0.131 A 
ATOM     88  C   UNL A   1      46.727  25.288  34.887  1.00  0.00     0.055 A 
ATOM     89  C   UNL A   1      48.019  27.008  33.812  1.00  0.00     0.041 A 
ATOM     90  F   UNL A   1      46.950  28.615  32.487  1.00  0.00    -0.206 F 
ATOM     91  C   UNL A   1      47.962  25.895  34.646  1.00  0.00     0.022 A 
BRANCH  88  92
ATOM     92  S   UNL A   1      46.609  23.916  36.071  1.00  0.00     0.124 S 
ATOM     93  O   UNL A   1      45.356  24.216  36.757  1.00  0.00    -0.237 OA
ATOM     94  O   UNL A   1      46.594  22.749  35.196  1.00  0.00    -0.237 OA
ATOM     95  O   UNL A   1      47.813  24.062  36.887  1.00  0.00    -0.744 OA
ENDBRANCH  88  92
ENDBRANCH  62  85
ENDBRANCH  36  37
ENDBRANCH  28  31
ENDBRANCH  26  27
ENDBRANCH  25  26
ENDBRANCH   1  25
TORSDOF 17
ENDMDL
MODEL 2
REMARK VINA RESULT:     -11.2      1.690      7.706
REMARK SMILES Cn1ncc(C(=O)NCCCCNC(=O)c2ccc(-c3c4nc(c(-c5cc(S(=O)(=O)[O-])ccc5F)c5ccc([nH]5)c(-c5cc(S(=O)(=O)[O-])ccc5F)c5nc(c(-c6cc(S(=O)(=O)[O-])ccc6F)c6ccc3[nH]6)C=C5)C=C4)cc2)c1NS(=O)(=O)[C@@H]1CCS(=O)(=O)C1
REMARK SMILES IDX 10 1 9 2 8 3 6 4 7 5 5 7 1 8 2 9 3 10 79 11 4 12 80 13 81 15
REMARK SMILES IDX 82 16 83 17 84 18 85 19 90 20 86 21 87 22 88 23 89 24 11 25
REMARK SMILES IDX 12 26 13 27 14 28 15 30 16 31 17 32 78 33 18 34 77 35 19 36
REMARK SMILES IDX 20 37 21 38 71 39 22 40 76 41 70 42 72 43 23 44 75 45 69 46
REMARK SMILES IDX 68 47 24 49 56 50 36 51 55 52 37 53 40 54 54 55 73 56 38 57
REMARK SMILES IDX 39 58 53 60 74 61 41 62 25 63 26 64 34 65 27 66 33 67 35 68
REMARK SMILES IDX 32 69 28 70 29 71 30 72 31 73 57 74 58 75 66 76 59 77 65 78
REMARK SMILES IDX 67 79 64 80 60 81 61 82 62 83 63 84 42 85 43 86 51 87 44 88
REMARK SMILES IDX 50 89 52 90 49 91 45 92 46 93 47 94 48 95
REMARK H PARENT 8 6 80 14 13 29 72 48 40 59
REMARK Flexibility Score: inf
ROOT
ATOM      1  C   UNL A   1      30.831  29.250  23.183  1.00  0.00     0.023 C 
ENDROOT
BRANCH   1   2
ATOM      2  C   UNL A   1      30.533  27.887  22.380  1.00  0.00     0.116 C 
BRANCH   2   3
ATOM      3  N   UNL A   1      31.481  27.009  21.625  1.00  0.00    -0.352 N 
ATOM      4  C   UNL A   1      32.789  26.577  21.695  1.00  0.00     0.256 C 
ATOM      5  O   UNL A   1      33.274  25.928  20.769  1.00  0.00    -0.269 OA
ATOM      6  H   UNL A   1      31.035  26.623  20.838  1.00  0.00     0.163 HD
BRANCH   4   7
ATOM      7  C   UNL A   1      33.525  26.905  22.852  1.00  0.00     0.102 A 
ATOM      8  C   UNL A   1      33.253  26.668  26.198  1.00  0.00     0.176 C 
ATOM      9  N   UNL A   1      33.958  26.808  24.939  1.00  0.00    -0.251 N 
ATOM     10  N   UNL A   1      34.323  28.075  24.606  1.00  0.00    -0.179 NA
ATOM     11  C   UNL A   1      33.872  25.994  23.812  1.00  0.00     0.150 A 
ATOM     12  C   UNL A   1      34.025  28.139  23.305  1.00  0.00     0.151 A 
BRANCH  11  13
ATOM     13  N   UNL A   1      33.858  24.598  23.626  1.00  0.00    -0.267 N 
ATOM     14  H   UNL A   1      34.712  24.161  23.406  1.00  0.00     0.181 HD
BRANCH  13  15
ATOM     15  S   UNL A   1      32.496  23.617  23.749  1.00  0.00     0.237 S 
ATOM     16  O   UNL A   1      31.424  24.461  24.245  1.00  0.00    -0.206 OA
ATOM     17  O   UNL A   1      32.382  23.147  22.378  1.00  0.00    -0.206 OA
BRANCH  15  18
ATOM     18  C   UNL A   1      32.402  22.091  24.742  1.00  0.00     0.145 C 
ATOM     19  C   UNL A   1      32.718  21.822  26.215  1.00  0.00     0.039 C 
ATOM     20  C   UNL A   1      32.662  20.804  23.945  1.00  0.00     0.158 C 
ATOM     21  C   UNL A   1      33.475  20.529  26.464  1.00  0.00     0.138 C 
ATOM     22  S   UNL A   1      33.247  19.532  25.048  1.00  0.00     0.151 S 
ATOM     23  O   UNL A   1      34.560  19.106  24.622  1.00  0.00    -0.229 OA
ATOM     24  O   UNL A   1      32.164  18.622  25.333  1.00  0.00    -0.229 OA
ENDBRANCH  15  18
ENDBRANCH  13  15
ENDBRANCH  11  13
ENDBRANCH   4   7
ENDBRANCH   2   3
ENDBRANCH   1   2
BRANCH   1  25
ATOM     25  C   UNL A   1      30.682  29.422  24.738  1.00  0.00     0.023 C 
BRANCH  25  26
ATOM     26  C   UNL A   1      31.819  30.072  25.616  1.00  0.00     0.116 C 
BRANCH  26  27
ATOM     27  N   UNL A   1      31.659  31.434  26.101  1.00  0.00    -0.352 N 
ATOM     28  C   UNL A   1      32.423  32.164  27.017  1.00  0.00     0.251 C 
ATOM     29  H   UNL A   1      30.890  31.919  25.724  1.00  0.00     0.163 HD
ATOM     30  O   UNL A   1      32.045  33.311  27.265  1.00  0.00    -0.269 OA
BRANCH  28  31
ATOM     31  C   UNL A   1      33.641  31.651  27.739  1.00  0.00     0.039 A 
ATOM     32  C   UNL A   1      34.536  32.582  28.294  1.00  0.00     0.014 A 
ATOM     33  C   UNL A   1      34.030  30.308  27.740  1.00  0.00     0.014 A 
ATOM     34  C   UNL A   1      35.740  32.173  28.915  1.00  0.00     0.010 A 
ATOM     35  C   UNL A   1      35.230  29.896  28.384  1.00  0.00     0.010 A 
ATOM     36  C   UNL A   1      36.097  30.817  29.003  1.00  0.00    -0.014 A 
BRANCH  36  37
ATOM     37  C   UNL A   1      37.326  30.384  29.771  1.00  0.00     0.031 A 
ATOM     38  C   UNL A   1      38.365  29.447  29.187  1.00  0.00     0.074 A 
ATOM     39  C   UNL A   1      37.524  30.820  31.037  1.00  0.00     0.049 A 
ATOM     40  N   UNL A   1      39.464  28.974  29.731  1.00  0.00    -0.248 NA
ATOM     41  C   UNL A   1      38.127  28.973  27.820  1.00  0.00     0.031 C 
ATOM     42  C   UNL A   1      36.620  31.706  31.768  1.00  0.00     0.029 A 
ATOM     43  N   UNL A   1      38.543  30.578  31.937  1.00  0.00    -0.354 N 
ATOM     44  C   UNL A   1      40.050  28.143  28.777  1.00  0.00     0.074 A 
ATOM     45  C   UNL A   1      39.149  28.145  27.639  1.00  0.00     0.031 C 
ATOM     46  C   UNL A   1      37.125  31.945  32.989  1.00  0.00     0.029 A 
ATOM     47  C   UNL A   1      38.373  31.200  33.155  1.00  0.00     0.049 A 
ATOM     48  H   UNL A   1      39.321  30.012  31.727  1.00  0.00     0.167 HD
ATOM     49  C   UNL A   1      41.226  27.457  28.828  1.00  0.00     0.034 A 
ATOM     50  C   UNL A   1      39.111  31.174  34.287  1.00  0.00     0.034 A 
ATOM     51  C   UNL A   1      42.133  27.446  29.958  1.00  0.00     0.049 A 
ATOM     52  C   UNL A   1      40.389  30.372  34.341  1.00  0.00     0.074 A 
ATOM     53  C   UNL A   1      43.366  26.819  30.069  1.00  0.00     0.029 A 
ATOM     54  N   UNL A   1      41.908  28.072  31.177  1.00  0.00    -0.354 N 
ATOM     55  N   UNL A   1      40.940  29.633  33.408  1.00  0.00    -0.248 NA
ATOM     56  C   UNL A   1      41.149  30.412  35.600  1.00  0.00     0.031 C 
ATOM     57  C   UNL A   1      43.848  27.004  31.371  1.00  0.00     0.029 A 
ATOM     58  C   UNL A   1      42.957  27.816  32.052  1.00  0.00     0.049 A 
ATOM     59  H   UNL A   1      41.117  28.619  31.390  1.00  0.00     0.167 HD
ATOM     60  C   UNL A   1      42.124  29.145  33.961  1.00  0.00     0.074 A 
ATOM     61  C   UNL A   1      42.214  29.683  35.300  1.00  0.00     0.031 C 
ATOM     62  C   UNL A   1      43.053  28.330  33.399  1.00  0.00     0.034 A 
BRANCH  49  63
ATOM     63  C   UNL A   1      41.598  26.620  27.618  1.00  0.00     0.023 A 
ATOM     64  C   UNL A   1      41.307  25.246  27.555  1.00  0.00     0.031 A 
ATOM     65  C   UNL A   1      42.261  27.198  26.519  1.00  0.00     0.131 A 
ATOM     66  C   UNL A   1      41.757  24.482  26.468  1.00  0.00     0.055 A 
ATOM     67  C   UNL A   1      42.627  26.449  25.398  1.00  0.00     0.041 A 
ATOM     68  F   UNL A   1      42.577  28.503  26.520  1.00  0.00    -0.206 F 
ATOM     69  C   UNL A   1      42.393  25.077  25.377  1.00  0.00     0.022 A 
BRANCH  66  70
ATOM     70  S   UNL A   1      41.651  22.675  26.583  1.00  0.00     0.124 S 
ATOM     71  O   UNL A   1      42.354  22.261  25.371  1.00  0.00    -0.237 OA
ATOM     72  O   UNL A   1      42.331  22.398  27.843  1.00  0.00    -0.237 OA
ATOM     73  O   UNL A   1      40.213  22.414  26.577  1.00  0.00    -0.744 OA
ENDBRANCH  66  70
ENDBRANCH  49  63
BRANCH  50  74
ATOM     74  C   UNL A   1      38.649  31.916  35.499  1.00  0.00     0.023 A 
ATOM     75  C   UNL A   1      38.108  31.241  36.607  1.00  0.00     0.031 A 
ATOM     76  C   UNL A   1      38.700  33.321  35.544  1.00  0.00     0.131 A 
ATOM     77  C   UNL A   1      37.609  31.974  37.697  1.00  0.00     0.055 A 
ATOM     78  C   UNL A   1      38.250  34.042  36.651  1.00  0.00     0.041 A 
ATOM     79  F   UNL A   1      39.205  34.015  34.511  1.00  0.00    -0.206 F 
ATOM     80  C   UNL A   1      37.690  33.368  37.732  1.00  0.00     0.022 A 
BRANCH  77  81
ATOM     81  S   UNL A   1      36.788  31.082  39.046  1.00  0.00     0.124 S 
ATOM     82  O   UNL A   1      37.772  31.192  40.117  1.00  0.00    -0.237 OA
ATOM     83  O   UNL A   1      35.561  31.852  39.217  1.00  0.00    -0.237 OA
ATOM     84  O   UNL A   1      36.605  29.738  38.502  1.00  0.00    -0.744 OA
ENDBRANCH  77  81
ENDBRANCH  50  74
BRANCH  62  85
ATOM     85  C   UNL A   1      44.279  28.001  34.222  1.00  0.00     0.023 A 
ATOM     86  C   UNL A   1      44.336  26.872  35.060  1.00  0.00     0.031 A 
ATOM     87  C   UNL A   1      45.407  28.841  34.179  1.00  0.00     0.131 A 
ATOM     88  C   UNL A   1      45.470  26.643  35.858  1.00  0.00     0.055 A 
ATOM     89  C   UNL A   1      46.554  28.579  34.932  1.00  0.00     0.041 A 
ATOM     90  F   UNL A   1      45.413  29.937  33.403  1.00  0.00    -0.206 F 
ATOM     91  C   UNL A   1      46.586  27.481  35.787  1.00  0.00     0.022 A 
BRANCH  88  92
ATOM     92  S   UNL A   1      45.437  25.281  37.058  1.00  0.00     0.124 S 
ATOM     93  O   UNL A   1      44.162  25.502  37.732  1.00  0.00    -0.237 OA
ATOM     94  O   UNL A   1      45.509  24.105  36.197  1.00  0.00    -0.237 OA
ATOM     95  O   UNL A   1      46.622  25.519  37.881  1.00  0.00    -0.744 OA
ENDBRANCH  88  92
ENDBRANCH  62  85
ENDBRANCH  36  37
ENDBRANCH  28  31
ENDBRANCH  26  27
ENDBRANCH  25  26
ENDBRANCH   1  25
TORSDOF 17
ENDMDL
MODEL 3
REMARK VINA RESULT:     -11.2      2.449      8.048
REMARK SMILES Cn1ncc(C(=O)NCCCCNC(=O)c2ccc(-c3c4nc(c(-c5cc(S(=O)(=O)[O-])ccc5F)c5ccc([nH]5)c(-c5cc(S(=O)(=O)[O-])ccc5F)c5nc(c(-c6cc(S(=O)(=O)[O-])ccc6F)c6ccc3[nH]6)C=C5)C=C4)cc2)c1NS(=O)(=O)[C@@H]1CCS(=O)(=O)C1
REMARK SMILES IDX 10 1 9 2 8 3 6 4 7 5 5 7 1 8 2 9 3 10 79 11 4 12 80 13 81 15
REMARK SMILES IDX 82 16 83 17 84 18 85 19 90 20 86 21 87 22 88 23 89 24 11 25
REMARK SMILES IDX 12 26 13 27 14 28 15 30 16 31 17 32 78 33 18 34 77 35 19 36
REMARK SMILES IDX 20 37 21 38 71 39 22 40 76 41 70 42 72 43 23 44 75 45 69 46
REMARK SMILES IDX 68 47 24 49 56 50 36 51 55 52 37 53 40 54 54 55 73 56 38 57
REMARK SMILES IDX 39 58 53 60 74 61 41 62 25 63 26 64 34 65 27 66 33 67 35 68
REMARK SMILES IDX 32 69 28 70 29 71 30 72 31 73 57 74 58 75 66 76 59 77 65 78
REMARK SMILES IDX 67 79 64 80 60 81 61 82 62 83 63 84 42 85 43 86 51 87 44 88
REMARK SMILES IDX 50 89 52 90 49 91 45 92 46 93 47 94 48 95
REMARK H PARENT 8 6 80 14 13 29 72 48 40 59
REMARK Flexibility Score: inf
ROOT
ATOM      1  C   UNL A   1      31.475  30.036  25.887  1.00  0.00     0.023 C 
ENDROOT
BRANCH   1   2
ATOM      2  C   UNL A   1      31.832  28.709  26.725  1.00  0.00     0.116 C 
BRANCH   2   3
ATOM      3  N   UNL A   1      31.053  27.439  26.861  1.00  0.00    -0.352 N 
ATOM      4  C   UNL A   1      30.469  26.479  26.061  1.00  0.00     0.256 C 
ATOM      5  O   UNL A   1      29.766  25.603  26.564  1.00  0.00    -0.269 OA
ATOM      6  H   UNL A   1      30.915  27.223  27.811  1.00  0.00     0.163 HD
BRANCH   4   7
ATOM      7  C   UNL A   1      30.712  26.547  24.674  1.00  0.00     0.102 A 
ATOM      8  C   UNL A   1      33.287  27.014  22.558  1.00  0.00     0.176 C 
ATOM      9  N   UNL A   1      31.965  26.563  22.947  1.00  0.00    -0.251 N 
ATOM     10  N   UNL A   1      30.937  27.379  22.591  1.00  0.00    -0.179 NA
ATOM     11  C   UNL A   1      31.617  25.752  24.024  1.00  0.00     0.150 A 
ATOM     12  C   UNL A   1      30.169  27.387  23.685  1.00  0.00     0.151 A 
BRANCH  11  13
ATOM     13  N   UNL A   1      32.156  24.564  24.554  1.00  0.00    -0.267 N 
ATOM     14  H   UNL A   1      31.814  23.712  24.196  1.00  0.00     0.181 HD
BRANCH  13  15
ATOM     15  S   UNL A   1      33.337  24.482  25.751  1.00  0.00     0.237 S 
ATOM     16  O   UNL A   1      33.728  25.850  26.036  1.00  0.00    -0.206 OA
ATOM     17  O   UNL A   1      32.611  23.774  26.792  1.00  0.00    -0.206 OA
BRANCH  15  18
ATOM     18  C   UNL A   1      34.901  23.557  25.603  1.00  0.00     0.145 C 
ATOM     19  C   UNL A   1      36.327  23.907  26.034  1.00  0.00     0.039 C 
ATOM     20  C   UNL A   1      34.974  22.634  24.378  1.00  0.00     0.158 C 
ATOM     21  C   UNL A   1      37.392  23.546  25.013  1.00  0.00     0.138 C 
ATOM     22  S   UNL A   1      36.681  22.367  23.939  1.00  0.00     0.151 S 
ATOM     23  O   UNL A   1      36.902  22.841  22.593  1.00  0.00    -0.229 OA
ATOM     24  O   UNL A   1      37.087  21.062  24.404  1.00  0.00    -0.229 OA
ENDBRANCH  15  18
ENDBRANCH  13  15
ENDBRANCH  11  13
ENDBRANCH   4   7
ENDBRANCH   2   3
ENDBRANCH   1   2
BRANCH   1  25
ATOM     25  C   UNL A   1      31.351  31.476  26.503  1.00  0.00     0.023 C 
BRANCH  25  26
ATOM     26  C   UNL A   1      32.617  32.358  26.822  1.00  0.00     0.116 C 
BRANCH  26  27
ATOM     27  N   UNL A   1      32.443  33.673  27.420  1.00  0.00    -0.352 N 
ATOM     28  C   UNL A   1      33.195  34.329  28.399  1.00  0.00     0.251 C 
ATOM     29  H   UNL A   1      31.673  34.183  27.079  1.00  0.00     0.163 HD
ATOM     30  O   UNL A   1      32.806  35.448  28.740  1.00  0.00    -0.269 OA
BRANCH  28  31
ATOM     31  C   UNL A   1      34.413  33.767  29.083  1.00  0.00     0.039 A 
ATOM     32  C   UNL A   1      34.236  32.791  30.079  1.00  0.00     0.014 A 
ATOM     33  C   UNL A   1      35.702  34.281  28.912  1.00  0.00     0.014 A 
ATOM     34  C   UNL A   1      35.329  32.278  30.816  1.00  0.00     0.010 A 
ATOM     35  C   UNL A   1      36.803  33.750  29.639  1.00  0.00     0.010 A 
ATOM     36  C   UNL A   1      36.642  32.723  30.590  1.00  0.00    -0.014 A 
BRANCH  36  37
ATOM     37  C   UNL A   1      37.814  32.084  31.301  1.00  0.00     0.031 A 
ATOM     38  C   UNL A   1      38.633  30.969  30.682  1.00  0.00     0.074 A 
ATOM     39  C   UNL A   1      38.158  32.491  32.545  1.00  0.00     0.049 A 
ATOM     40  N   UNL A   1      39.658  30.311  31.178  1.00  0.00    -0.248 NA
ATOM     41  C   UNL A   1      38.238  30.530  29.340  1.00  0.00     0.031 C 
ATOM     42  C   UNL A   1      37.470  33.535  33.304  1.00  0.00     0.029 A 
ATOM     43  N   UNL A   1      39.165  32.079  33.395  1.00  0.00    -0.354 N 
ATOM     44  C   UNL A   1      40.031  29.377  30.211  1.00  0.00     0.074 A 
ATOM     45  C   UNL A   1      39.083  29.529  29.123  1.00  0.00     0.031 C 
ATOM     46  C   UNL A   1      38.077  33.691  34.492  1.00  0.00     0.029 A 
ATOM     47  C   UNL A   1      39.177  32.735  34.607  1.00  0.00     0.049 A 
ATOM     48  H   UNL A   1      39.815  31.379  33.156  1.00  0.00     0.167 HD
ATOM     49  C   UNL A   1      41.064  28.490  30.214  1.00  0.00     0.034 A 
ATOM     50  C   UNL A   1      39.960  32.588  35.699  1.00  0.00     0.034 A 
ATOM     51  C   UNL A   1      42.016  28.327  31.295  1.00  0.00     0.049 A 
ATOM     52  C   UNL A   1      41.075  31.569  35.702  1.00  0.00     0.074 A 
ATOM     53  C   UNL A   1      43.121  27.489  31.354  1.00  0.00     0.029 A 
ATOM     54  N   UNL A   1      41.976  28.997  32.511  1.00  0.00    -0.354 N 
ATOM     55  N   UNL A   1      41.431  30.732  34.757  1.00  0.00    -0.248 NA
ATOM     56  C   UNL A   1      41.898  31.485  36.918  1.00  0.00     0.031 C 
ATOM     57  C   UNL A   1      43.700  27.598  32.625  1.00  0.00     0.029 A 
ATOM     58  C   UNL A   1      43.009  28.565  33.335  1.00  0.00     0.049 A 
ATOM     59  H   UNL A   1      41.310  29.680  32.754  1.00  0.00     0.167 HD
ATOM     60  C   UNL A   1      42.537  30.044  35.256  1.00  0.00     0.074 A 
ATOM     61  C   UNL A   1      42.797  30.572  36.578  1.00  0.00     0.031 C 
ATOM     62  C   UNL A   1      43.271  29.068  34.663  1.00  0.00     0.034 A 
BRANCH  49  63
ATOM     63  C   UNL A   1      41.212  27.587  29.005  1.00  0.00     0.023 A 
ATOM     64  C   UNL A   1      42.207  27.808  28.037  1.00  0.00     0.031 A 
ATOM     65  C   UNL A   1      40.341  26.498  28.808  1.00  0.00     0.131 A 
ATOM     66  C   UNL A   1      42.251  27.017  26.879  1.00  0.00     0.055 A 
ATOM     67  C   UNL A   1      40.446  25.658  27.696  1.00  0.00     0.041 A 
ATOM     68  F   UNL A   1      39.362  26.237  29.688  1.00  0.00    -0.206 F 
ATOM     69  C   UNL A   1      41.393  25.928  26.712  1.00  0.00     0.022 A 
BRANCH  66  70
ATOM     70  S   UNL A   1      43.329  27.541  25.517  1.00  0.00     0.124 S 
ATOM     71  O   UNL A   1      42.363  28.111  24.580  1.00  0.00    -0.237 OA
ATOM     72  O   UNL A   1      44.223  28.489  26.170  1.00  0.00    -0.237 OA
ATOM     73  O   UNL A   1      43.951  26.296  25.074  1.00  0.00    -0.744 OA
ENDBRANCH  66  70
ENDBRANCH  49  63
BRANCH  50  74
ATOM     74  C   UNL A   1      39.708  33.415  36.918  1.00  0.00     0.023 A 
ATOM     75  C   UNL A   1      38.945  32.922  37.990  1.00  0.00     0.031 A 
ATOM     76  C   UNL A   1      40.192  34.733  37.004  1.00  0.00     0.131 A 
ATOM     77  C   UNL A   1      38.659  33.754  39.085  1.00  0.00     0.055 A 
ATOM     78  C   UNL A   1      39.947  35.538  38.118  1.00  0.00     0.041 A 
ATOM     79  F   UNL A   1      40.924  35.254  36.007  1.00  0.00    -0.206 F 
ATOM     80  C   UNL A   1      39.167  35.053  39.162  1.00  0.00     0.022 A 
BRANCH  77  81
ATOM     81  S   UNL A   1      37.552  33.137  40.384  1.00  0.00     0.124 S 
ATOM     82  O   UNL A   1      36.385  32.729  39.611  1.00  0.00    -0.237 OA
ATOM     83  O   UNL A   1      38.344  32.061  40.971  1.00  0.00    -0.237 OA
ATOM     84  O   UNL A   1      37.357  34.302  41.244  1.00  0.00    -0.744 OA
ENDBRANCH  77  81
ENDBRANCH  50  74
BRANCH  62  85
ATOM     85  C   UNL A   1      44.462  28.532  35.427  1.00  0.00     0.023 A 
ATOM     86  C   UNL A   1      44.330  27.543  36.420  1.00  0.00     0.031 A 
ATOM     87  C   UNL A   1      45.752  29.031  35.169  1.00  0.00     0.131 A 
ATOM     88  C   UNL A   1      45.455  27.124  37.151  1.00  0.00     0.055 A 
ATOM     89  C   UNL A   1      46.876  28.571  35.859  1.00  0.00     0.041 A 
ATOM     90  F   UNL A   1      45.944  29.979  34.237  1.00  0.00    -0.206 F 
ATOM     91  C   UNL A   1      46.729  27.621  36.866  1.00  0.00     0.022 A 
BRANCH  88  92
ATOM     92  S   UNL A   1      45.219  25.982  38.542  1.00  0.00     0.124 S 
ATOM     93  O   UNL A   1      45.169  24.689  37.867  1.00  0.00    -0.237 OA
ATOM     94  O   UNL A   1      46.404  26.231  39.355  1.00  0.00    -0.237 OA
ATOM     95  O   UNL A   1      43.957  26.420  39.137  1.00  0.00    -0.744 OA
ENDBRANCH  88  92
ENDBRANCH  62  85
ENDBRANCH  36  37
ENDBRANCH  28  31
ENDBRANCH  26  27
ENDBRANCH  25  26
ENDBRANCH   1  25
TORSDOF 17
ENDMDL
