MODEL 1
REMARK VINA RESULT:     -13.1      0.000      0.000
REMARK SMILES COc1cc(OC)c(-c2cc(C(=O)NCCCCNC(=O)c3ccc(-c4c5nc(c(-c6cc(S(=O)(=O)[O-])ccc6F)c6ccc([nH]6)c(-c6cc(S(=O)(=O)[O-])ccc6F)c6nc(c(-c7cc(S(=O)(=O)[O-])ccc7F)c7ccc4[nH]7)C=C6)C=C5)cc3)c3c(-c4ccc(Cl)cc4)[nH]nc3n2)cc1OC
REMARK SMILES IDX 17 1 16 2 15 3 14 4 12 5 13 6 11 8 9 9 10 10 97 11 96 12
REMARK SMILES IDX 85 13 95 14 86 15 94 16 8 18 3 19 4 20 99 21 5 22 98 23 2 24
REMARK SMILES IDX 1 25 100 26 101 27 6 28 7 29 87 30 88 31 93 32 89 33 92 34
REMARK SMILES IDX 90 35 91 36 18 37 19 38 20 39 21 41 22 42 23 43 84 44 24 45
REMARK SMILES IDX 83 46 25 47 26 48 27 49 77 50 28 51 82 52 76 53 78 54 29 55
REMARK SMILES IDX 81 56 75 57 74 58 30 60 62 61 42 62 61 63 43 64 46 65 60 66
REMARK SMILES IDX 79 67 44 68 45 69 59 71 80 72 47 73 31 74 32 75 40 76 33 77
REMARK SMILES IDX 39 78 41 79 38 80 34 81 35 82 36 83 37 84 63 85 64 86 72 87
REMARK SMILES IDX 65 88 71 89 73 90 70 91 66 92 67 93 68 94 69 95 48 96 49 97
REMARK SMILES IDX 57 98 50 99 56 100 58 101 55 102 51 103 52 104 53 105 54 106
REMARK H PARENT 14 7 94 17 19 40 78 59 46 70
REMARK Flexibility Score: inf
ROOT
ATOM      1  C   UNL A   1      33.079  31.178  27.182  1.00  0.00     0.023 C 
ENDROOT
BRANCH   1   2
ATOM      2  C   UNL A   1      32.501  29.763  27.361  1.00  0.00     0.023 C 
BRANCH   2   3
ATOM      3  C   UNL A   1      32.219  29.028  26.052  1.00  0.00     0.116 C 
BRANCH   3   4
ATOM      4  N   UNL A   1      31.238  27.972  26.211  1.00  0.00    -0.352 N 
ATOM      5  C   UNL A   1      31.115  26.669  25.806  1.00  0.00     0.252 C 
ATOM      6  O   UNL A   1      30.221  26.056  26.382  1.00  0.00    -0.269 OA
ATOM      7  H   UNL A   1      30.466  28.266  26.745  1.00  0.00     0.163 HD
BRANCH   5   8
ATOM      8  C   UNL A   1      31.983  25.989  24.814  1.00  0.00     0.055 A 
ATOM      9  C   UNL A   1      33.706  24.279  24.252  1.00  0.00     0.077 A 
ATOM     10  C   UNL A   1      33.023  25.126  25.163  1.00  0.00     0.043 A 
ATOM     11  N   UNL A   1      33.536  24.267  22.908  1.00  0.00    -0.226 NA
ATOM     12  C   UNL A   1      32.636  25.197  22.494  1.00  0.00     0.182 A 
ATOM     13  C   UNL A   1      31.887  26.035  23.407  1.00  0.00     0.059 A 
ATOM     14  N   UNL A   1      32.355  25.469  21.220  1.00  0.00    -0.154 NA
ATOM     15  C   UNL A   1      31.146  26.868  22.577  1.00  0.00     0.075 A 
ATOM     16  N   UNL A   1      31.450  26.454  21.301  1.00  0.00    -0.275 N 
ATOM     17  H   UNL A   1      31.033  26.853  20.504  1.00  0.00     0.190 HD
BRANCH   9  18
ATOM     18  C   UNL A   1      34.643  23.306  24.841  1.00  0.00     0.046 A 
ATOM     19  C   UNL A   1      36.756  21.600  25.667  1.00  0.00     0.164 A 
ATOM     20  C   UNL A   1      35.470  21.097  25.405  1.00  0.00     0.097 A 
ATOM     21  C   UNL A   1      37.005  22.961  25.521  1.00  0.00     0.161 A 
ATOM     22  C   UNL A   1      34.422  21.927  24.962  1.00  0.00     0.132 A 
ATOM     23  C   UNL A   1      35.937  23.791  25.154  1.00  0.00     0.064 A 
BRANCH  19  24
ATOM     24  O   UNL A   1      37.746  20.683  25.892  1.00  0.00    -0.493 OA
ATOM     25  C   UNL A   1      38.073  19.940  24.719  1.00  0.00     0.278 C 
ENDBRANCH  19  24
BRANCH  21  26
ATOM     26  O   UNL A   1      38.177  23.654  25.609  1.00  0.00    -0.493 OA
ATOM     27  C   UNL A   1      38.604  24.176  26.853  1.00  0.00     0.278 C 
ENDBRANCH  21  26
BRANCH  22  28
ATOM     28  O   UNL A   1      33.271  21.238  24.675  1.00  0.00    -0.496 OA
ATOM     29  C   UNL A   1      33.143  19.929  25.221  1.00  0.00     0.278 C 
ENDBRANCH  22  28
ENDBRANCH   9  18
BRANCH  15  30
ATOM     30  C   UNL A   1      30.249  27.999  22.782  1.00  0.00     0.000 A 
ATOM     31  C   UNL A   1      30.735  29.309  22.674  1.00  0.00     0.012 A 
ATOM     32  C   UNL A   1      28.884  27.791  23.029  1.00  0.00     0.012 A 
ATOM     33  C   UNL A   1      29.857  30.394  22.746  1.00  0.00     0.021 A 
ATOM     34  C   UNL A   1      28.005  28.876  23.085  1.00  0.00     0.021 A 
ATOM     35  C   UNL A   1      28.494  30.171  22.931  1.00  0.00     0.041 A 
ATOM     36  Cl  UNL A   1      27.403  31.502  22.952  1.00  0.00    -0.084 Cl
ENDBRANCH  15  30
ENDBRANCH   5   8
ENDBRANCH   3   4
ENDBRANCH   2   3
ENDBRANCH   1   2
BRANCH   1  37
ATOM     37  C   UNL A   1      34.539  31.349  27.605  1.00  0.00     0.116 C 
BRANCH  37  38
ATOM     38  N   UNL A   1      34.688  32.147  28.816  1.00  0.00    -0.352 N 
ATOM     39  C   UNL A   1      35.518  31.906  29.897  1.00  0.00     0.251 C 
ATOM     40  H   UNL A   1      34.130  32.956  28.871  1.00  0.00     0.163 HD
ATOM     41  O   UNL A   1      35.224  32.353  30.997  1.00  0.00    -0.269 OA
BRANCH  39  42
ATOM     42  C   UNL A   1      36.757  31.119  29.709  1.00  0.00     0.039 A 
ATOM     43  C   UNL A   1      38.007  31.688  29.942  1.00  0.00     0.014 A 
ATOM     44  C   UNL A   1      36.665  29.795  29.276  1.00  0.00     0.014 A 
ATOM     45  C   UNL A   1      39.143  30.887  29.826  1.00  0.00     0.010 A 
ATOM     46  C   UNL A   1      37.776  28.972  29.254  1.00  0.00     0.010 A 
ATOM     47  C   UNL A   1      39.026  29.513  29.520  1.00  0.00    -0.014 A 
BRANCH  47  48
ATOM     48  C   UNL A   1      40.168  28.614  29.751  1.00  0.00     0.031 A 
ATOM     49  C   UNL A   1      40.439  28.465  31.205  1.00  0.00     0.074 A 
ATOM     50  C   UNL A   1      40.802  27.843  28.833  1.00  0.00     0.049 A 
ATOM     51  N   UNL A   1      41.323  29.110  31.891  1.00  0.00    -0.248 NA
ATOM     52  C   UNL A   1      39.467  27.740  32.046  1.00  0.00     0.031 C 
ATOM     53  C   UNL A   1      40.440  27.677  27.423  1.00  0.00     0.029 A 
ATOM     54  N   UNL A   1      41.864  26.980  28.966  1.00  0.00    -0.354 N 
ATOM     55  C   UNL A   1      41.258  28.559  33.164  1.00  0.00     0.074 A 
ATOM     56  C   UNL A   1      39.945  27.991  33.269  1.00  0.00     0.031 C 
ATOM     57  C   UNL A   1      41.109  26.626  26.893  1.00  0.00     0.029 A 
ATOM     58  C   UNL A   1      42.073  26.133  27.868  1.00  0.00     0.049 A 
ATOM     59  H   UNL A   1      42.434  26.958  29.769  1.00  0.00     0.167 HD
ATOM     60  C   UNL A   1      42.419  28.252  33.809  1.00  0.00     0.034 A 
ATOM     61  C   UNL A   1      42.985  25.124  27.734  1.00  0.00     0.034 A 
ATOM     62  C   UNL A   1      43.533  28.894  33.139  1.00  0.00     0.049 A 
ATOM     63  C   UNL A   1      44.109  25.444  28.638  1.00  0.00     0.074 A 
ATOM     64  C   UNL A   1      44.020  30.172  32.970  1.00  0.00     0.029 A 
ATOM     65  N   UNL A   1      44.080  28.122  32.147  1.00  0.00    -0.354 N 
ATOM     66  N   UNL A   1      44.880  26.479  28.458  1.00  0.00    -0.248 NA
ATOM     67  C   UNL A   1      44.163  24.852  29.969  1.00  0.00     0.031 C 
ATOM     68  C   UNL A   1      44.774  30.157  31.756  1.00  0.00     0.029 A 
ATOM     69  C   UNL A   1      44.799  28.860  31.248  1.00  0.00     0.049 A 
ATOM     70  H   UNL A   1      43.966  27.146  32.088  1.00  0.00     0.167 HD
ATOM     71  C   UNL A   1      45.141  26.934  29.733  1.00  0.00     0.074 A 
ATOM     72  C   UNL A   1      44.843  25.806  30.609  1.00  0.00     0.031 C 
ATOM     73  C   UNL A   1      45.220  28.274  29.986  1.00  0.00     0.034 A 
BRANCH  60  74
ATOM     74  C   UNL A   1      42.660  26.977  34.618  1.00  0.00     0.023 A 
ATOM     75  C   UNL A   1      43.525  26.021  34.042  1.00  0.00     0.031 A 
ATOM     76  C   UNL A   1      41.887  26.513  35.706  1.00  0.00     0.131 A 
ATOM     77  C   UNL A   1      43.513  24.678  34.463  1.00  0.00     0.055 A 
ATOM     78  C   UNL A   1      41.908  25.185  36.147  1.00  0.00     0.041 A 
ATOM     79  F   UNL A   1      41.008  27.277  36.361  1.00  0.00    -0.206 F 
ATOM     80  C   UNL A   1      42.702  24.251  35.508  1.00  0.00     0.022 A 
BRANCH  77  81
ATOM     81  S   UNL A   1      44.471  23.464  33.519  1.00  0.00     0.124 S 
ATOM     82  O   UNL A   1      45.671  24.226  33.196  1.00  0.00    -0.237 OA
ATOM     83  O   UNL A   1      44.628  22.387  34.491  1.00  0.00    -0.237 OA
ATOM     84  O   UNL A   1      43.600  23.156  32.387  1.00  0.00    -0.744 OA
ENDBRANCH  77  81
ENDBRANCH  60  74
BRANCH  61  85
ATOM     85  C   UNL A   1      42.875  23.803  27.038  1.00  0.00     0.023 A 
ATOM     86  C   UNL A   1      43.730  23.396  25.979  1.00  0.00     0.031 A 
ATOM     87  C   UNL A   1      42.090  22.790  27.628  1.00  0.00     0.131 A 
ATOM     88  C   UNL A   1      43.790  22.035  25.581  1.00  0.00     0.055 A 
ATOM     89  C   UNL A   1      42.163  21.449  27.241  1.00  0.00     0.041 A 
ATOM     90  F   UNL A   1      41.289  23.057  28.671  1.00  0.00    -0.206 F 
ATOM     91  C   UNL A   1      43.025  21.062  26.226  1.00  0.00     0.022 A 
BRANCH  88  92
ATOM     92  S   UNL A   1      44.940  21.468  24.273  1.00  0.00     0.124 S 
ATOM     93  O   UNL A   1      44.578  20.062  24.126  1.00  0.00    -0.237 OA
ATOM     94  O   UNL A   1      44.612  22.344  23.157  1.00  0.00    -0.237 OA
ATOM     95  O   UNL A   1      46.263  21.697  24.857  1.00  0.00    -0.744 OA
ENDBRANCH  88  92
ENDBRANCH  61  85
BRANCH  73  96
ATOM     96  C   UNL A   1      45.704  29.167  28.871  1.00  0.00     0.023 A 
ATOM     97  C   UNL A   1      47.052  29.445  28.555  1.00  0.00     0.031 A 
ATOM     98  C   UNL A   1      44.710  29.792  28.096  1.00  0.00     0.131 A 
ATOM     99  C   UNL A   1      47.358  30.338  27.509  1.00  0.00     0.055 A 
ATOM    100  C   UNL A   1      45.016  30.655  27.047  1.00  0.00     0.041 A 
ATOM    101  F   UNL A   1      43.409  29.571  28.346  1.00  0.00    -0.206 F 
ATOM    102  C   UNL A   1      46.343  30.941  26.757  1.00  0.00     0.022 A 
BRANCH  99 103
ATOM    103  S   UNL A   1      49.083  30.789  27.139  1.00  0.00     0.124 S 
ATOM    104  O   UNL A   1      49.730  30.785  28.446  1.00  0.00    -0.237 OA
ATOM    105  O   UNL A   1      49.494  29.728  26.221  1.00  0.00    -0.237 OA
ATOM    106  O   UNL A   1      48.964  32.112  26.521  1.00  0.00    -0.744 OA
ENDBRANCH  99 103
ENDBRANCH  73  96
ENDBRANCH  47  48
ENDBRANCH  39  42
ENDBRANCH  37  38
ENDBRANCH   1  37
TORSDOF 19
ENDMDL
MODEL 2
REMARK VINA RESULT:     -12.8      2.171      2.548
REMARK SMILES COc1cc(OC)c(-c2cc(C(=O)NCCCCNC(=O)c3ccc(-c4c5nc(c(-c6cc(S(=O)(=O)[O-])ccc6F)c6ccc([nH]6)c(-c6cc(S(=O)(=O)[O-])ccc6F)c6nc(c(-c7cc(S(=O)(=O)[O-])ccc7F)c7ccc4[nH]7)C=C6)C=C5)cc3)c3c(-c4ccc(Cl)cc4)[nH]nc3n2)cc1OC
REMARK SMILES IDX 17 1 16 2 15 3 14 4 12 5 13 6 11 8 9 9 10 10 97 11 96 12
REMARK SMILES IDX 85 13 95 14 86 15 94 16 8 18 3 19 4 20 99 21 5 22 98 23 2 24
REMARK SMILES IDX 1 25 100 26 101 27 6 28 7 29 87 30 88 31 93 32 89 33 92 34
REMARK SMILES IDX 90 35 91 36 18 37 19 38 20 39 21 41 22 42 23 43 84 44 24 45
REMARK SMILES IDX 83 46 25 47 26 48 27 49 77 50 28 51 82 52 76 53 78 54 29 55
REMARK SMILES IDX 81 56 75 57 74 58 30 60 62 61 42 62 61 63 43 64 46 65 60 66
REMARK SMILES IDX 79 67 44 68 45 69 59 71 80 72 47 73 31 74 32 75 40 76 33 77
REMARK SMILES IDX 39 78 41 79 38 80 34 81 35 82 36 83 37 84 63 85 64 86 72 87
REMARK SMILES IDX 65 88 71 89 73 90 70 91 66 92 67 93 68 94 69 95 48 96 49 97
REMARK SMILES IDX 57 98 50 99 56 100 58 101 55 102 51 103 52 104 53 105 54 106
REMARK H PARENT 14 7 94 17 19 40 78 59 46 70
REMARK Flexibility Score: inf
ROOT
ATOM      1  C   UNL A   1      32.789  30.403  27.415  1.00  0.00     0.023 C 
ENDROOT
BRANCH   1   2
ATOM      2  C   UNL A   1      33.134  28.943  27.076  1.00  0.00     0.023 C 
BRANCH   2   3
ATOM      3  C   UNL A   1      34.454  28.765  26.329  1.00  0.00     0.116 C 
BRANCH   3   4
ATOM      4  N   UNL A   1      34.263  28.578  24.904  1.00  0.00    -0.352 N 
ATOM      5  C   UNL A   1      33.770  27.589  24.094  1.00  0.00     0.252 C 
ATOM      6  O   UNL A   1      33.561  27.954  22.942  1.00  0.00    -0.269 OA
ATOM      7  H   UNL A   1      34.562  29.360  24.388  1.00  0.00     0.163 HD
BRANCH   5   8
ATOM      8  C   UNL A   1      33.445  26.207  24.523  1.00  0.00     0.055 A 
ATOM      9  C   UNL A   1      34.168  23.936  25.254  1.00  0.00     0.077 A 
ATOM     10  C   UNL A   1      34.393  25.187  24.620  1.00  0.00     0.043 A 
ATOM     11  N   UNL A   1      32.982  23.504  25.746  1.00  0.00    -0.226 NA
ATOM     12  C   UNL A   1      31.982  24.402  25.544  1.00  0.00     0.182 A 
ATOM     13  C   UNL A   1      32.196  25.706  24.951  1.00  0.00     0.059 A 
ATOM     14  N   UNL A   1      30.699  24.191  25.837  1.00  0.00    -0.154 NA
ATOM     15  C   UNL A   1      30.925  26.261  24.875  1.00  0.00     0.075 A 
ATOM     16  N   UNL A   1      30.097  25.322  25.446  1.00  0.00    -0.275 N 
ATOM     17  H   UNL A   1      29.130  25.471  25.558  1.00  0.00     0.190 HD
BRANCH   9  18
ATOM     18  C   UNL A   1      35.345  23.067  25.420  1.00  0.00     0.046 A 
ATOM     19  C   UNL A   1      37.850  21.735  25.525  1.00  0.00     0.164 A 
ATOM     20  C   UNL A   1      36.691  21.079  25.075  1.00  0.00     0.097 A 
ATOM     21  C   UNL A   1      37.774  23.065  25.929  1.00  0.00     0.161 A 
ATOM     22  C   UNL A   1      35.450  21.739  24.985  1.00  0.00     0.132 A 
ATOM     23  C   UNL A   1      36.520  23.689  25.910  1.00  0.00     0.064 A 
BRANCH  19  24
ATOM     24  O   UNL A   1      39.035  21.069  25.379  1.00  0.00    -0.493 OA
ATOM     25  C   UNL A   1      39.914  21.277  26.485  1.00  0.00     0.278 C 
ENDBRANCH  19  24
BRANCH  21  26
ATOM     26  O   UNL A   1      38.765  23.930  26.293  1.00  0.00    -0.493 OA
ATOM     27  C   UNL A   1      38.468  25.053  27.101  1.00  0.00     0.278 C 
ENDBRANCH  21  26
BRANCH  22  28
ATOM     28  O   UNL A   1      34.461  20.959  24.441  1.00  0.00    -0.496 OA
ATOM     29  C   UNL A   1      34.436  19.585  24.816  1.00  0.00     0.278 C 
ENDBRANCH  22  28
ENDBRANCH   9  18
BRANCH  15  30
ATOM     30  C   UNL A   1      30.364  27.489  24.324  1.00  0.00     0.000 A 
ATOM     31  C   UNL A   1      30.799  28.734  24.798  1.00  0.00     0.012 A 
ATOM     32  C   UNL A   1      29.432  27.439  23.276  1.00  0.00     0.012 A 
ATOM     33  C   UNL A   1      30.357  29.912  24.189  1.00  0.00     0.021 A 
ATOM     34  C   UNL A   1      29.004  28.617  22.659  1.00  0.00     0.021 A 
ATOM     35  C   UNL A   1      29.478  29.847  23.110  1.00  0.00     0.041 A 
ATOM     36  Cl  UNL A   1      28.987  31.293  22.316  1.00  0.00    -0.084 Cl
ENDBRANCH  15  30
ENDBRANCH   5   8
ENDBRANCH   3   4
ENDBRANCH   2   3
ENDBRANCH   1   2
BRANCH   1  37
ATOM     37  C   UNL A   1      33.978  31.366  27.460  1.00  0.00     0.116 C 
BRANCH  37  38
ATOM     38  N   UNL A   1      34.019  32.159  28.682  1.00  0.00    -0.352 N 
ATOM     39  C   UNL A   1      34.870  32.013  29.763  1.00  0.00     0.251 C 
ATOM     40  H   UNL A   1      33.361  32.889  28.745  1.00  0.00     0.163 HD
ATOM     41  O   UNL A   1      34.518  32.403  30.868  1.00  0.00    -0.269 OA
BRANCH  39  42
ATOM     42  C   UNL A   1      36.201  31.395  29.570  1.00  0.00     0.039 A 
ATOM     43  C   UNL A   1      37.350  32.181  29.506  1.00  0.00     0.014 A 
ATOM     44  C   UNL A   1      36.297  30.010  29.434  1.00  0.00     0.014 A 
ATOM     45  C   UNL A   1      38.590  31.551  29.400  1.00  0.00     0.010 A 
ATOM     46  C   UNL A   1      37.526  29.376  29.427  1.00  0.00     0.010 A 
ATOM     47  C   UNL A   1      38.684  30.141  29.400  1.00  0.00    -0.014 A 
BRANCH  47  48
ATOM     48  C   UNL A   1      39.983  29.497  29.650  1.00  0.00     0.031 A 
ATOM     49  C   UNL A   1      40.311  29.509  31.100  1.00  0.00     0.074 A 
ATOM     50  C   UNL A   1      40.732  28.796  28.764  1.00  0.00     0.049 A 
ATOM     51  N   UNL A   1      41.070  30.360  31.708  1.00  0.00    -0.248 NA
ATOM     52  C   UNL A   1      39.516  28.676  32.023  1.00  0.00     0.031 C 
ATOM     53  C   UNL A   1      40.377  28.460  27.382  1.00  0.00     0.029 A 
ATOM     54  N   UNL A   1      41.944  28.163  28.916  1.00  0.00    -0.354 N 
ATOM     55  C   UNL A   1      41.141  29.902  33.017  1.00  0.00     0.074 A 
ATOM     56  C   UNL A   1      39.965  29.102  33.208  1.00  0.00     0.031 C 
ATOM     57  C   UNL A   1      41.224  27.520  26.901  1.00  0.00     0.029 A 
ATOM     58  C   UNL A   1      42.287  27.294  27.870  1.00  0.00     0.049 A 
ATOM     59  H   UNL A   1      42.526  28.310  29.696  1.00  0.00     0.167 HD
ATOM     60  C   UNL A   1      42.354  29.870  33.638  1.00  0.00     0.034 A 
ATOM     61  C   UNL A   1      43.373  26.470  27.771  1.00  0.00     0.034 A 
ATOM     62  C   UNL A   1      43.308  30.662  32.886  1.00  0.00     0.049 A 
ATOM     63  C   UNL A   1      44.435  27.064  28.610  1.00  0.00     0.074 A 
ATOM     64  C   UNL A   1      43.535  31.993  32.613  1.00  0.00     0.029 A 
ATOM     65  N   UNL A   1      43.970  29.938  31.928  1.00  0.00    -0.354 N 
ATOM     66  N   UNL A   1      44.988  28.212  28.332  1.00  0.00    -0.248 NA
ATOM     67  C   UNL A   1      44.632  26.592  29.975  1.00  0.00     0.031 C 
ATOM     68  C   UNL A   1      44.249  32.033  31.375  1.00  0.00     0.029 A 
ATOM     69  C   UNL A   1      44.512  30.732  30.956  1.00  0.00     0.049 A 
ATOM     70  H   UNL A   1      44.046  28.956  31.939  1.00  0.00     0.167 HD
ATOM     71  C   UNL A   1      45.185  28.800  29.563  1.00  0.00     0.074 A 
ATOM     72  C   UNL A   1      45.130  27.704  30.523  1.00  0.00     0.031 C 
ATOM     73  C   UNL A   1      45.010  30.145  29.722  1.00  0.00     0.034 A 
BRANCH  60  74
ATOM     74  C   UNL A   1      42.855  28.727  34.521  1.00  0.00     0.023 A 
ATOM     75  C   UNL A   1      43.334  29.084  35.801  1.00  0.00     0.031 A 
ATOM     76  C   UNL A   1      43.183  27.419  34.098  1.00  0.00     0.131 A 
ATOM     77  C   UNL A   1      44.175  28.224  36.531  1.00  0.00     0.055 A 
ATOM     78  C   UNL A   1      43.986  26.552  34.847  1.00  0.00     0.041 A 
ATOM     79  F   UNL A   1      42.822  26.919  32.913  1.00  0.00    -0.206 F 
ATOM     80  C   UNL A   1      44.512  26.962  36.058  1.00  0.00     0.022 A 
BRANCH  77  81
ATOM     81  S   UNL A   1      44.943  28.846  38.050  1.00  0.00     0.124 S 
ATOM     82  O   UNL A   1      44.600  27.796  39.002  1.00  0.00    -0.237 OA
ATOM     83  O   UNL A   1      46.346  28.936  37.660  1.00  0.00    -0.237 OA
ATOM     84  O   UNL A   1      44.276  30.129  38.263  1.00  0.00    -0.744 OA
ENDBRANCH  77  81
ENDBRANCH  60  74
BRANCH  61  85
ATOM     85  C   UNL A   1      43.505  25.105  27.171  1.00  0.00     0.023 A 
ATOM     86  C   UNL A   1      44.336  24.810  26.057  1.00  0.00     0.031 A 
ATOM     87  C   UNL A   1      43.021  23.996  27.897  1.00  0.00     0.131 A 
ATOM     88  C   UNL A   1      44.666  23.467  25.738  1.00  0.00     0.055 A 
ATOM     89  C   UNL A   1      43.361  22.677  27.586  1.00  0.00     0.041 A 
ATOM     90  F   UNL A   1      42.273  24.166  28.998  1.00  0.00    -0.206 F 
ATOM     91  C   UNL A   1      44.198  22.407  26.514  1.00  0.00     0.022 A 
BRANCH  88  92
ATOM     92  S   UNL A   1      45.798  23.060  24.357  1.00  0.00     0.124 S 
ATOM     93  O   UNL A   1      46.570  24.290  24.213  1.00  0.00    -0.237 OA
ATOM     94  O   UNL A   1      46.515  21.897  24.863  1.00  0.00    -0.237 OA
ATOM     95  O   UNL A   1      44.891  22.777  23.242  1.00  0.00    -0.744 OA
ENDBRANCH  88  92
ENDBRANCH  61  85
BRANCH  73  96
ATOM     96  C   UNL A   1      45.286  31.031  28.532  1.00  0.00     0.023 A 
ATOM     97  C   UNL A   1      46.530  31.609  28.199  1.00  0.00     0.031 A 
ATOM     98  C   UNL A   1      44.190  31.316  27.698  1.00  0.00     0.131 A 
ATOM     99  C   UNL A   1      46.632  32.455  27.076  1.00  0.00     0.055 A 
ATOM    100  C   UNL A   1      44.300  32.132  26.576  1.00  0.00     0.041 A 
ATOM    101  F   UNL A   1      42.978  30.798  27.961  1.00  0.00    -0.206 F 
ATOM    102  C   UNL A   1      45.521  32.715  26.267  1.00  0.00     0.022 A 
BRANCH  99 103
ATOM    103  S   UNL A   1      48.201  33.291  26.676  1.00  0.00     0.124 S 
ATOM    104  O   UNL A   1      48.502  34.058  27.878  1.00  0.00    -0.237 OA
ATOM    105  O   UNL A   1      49.092  32.167  26.396  1.00  0.00    -0.237 OA
ATOM    106  O   UNL A   1      47.864  34.102  25.504  1.00  0.00    -0.744 OA
ENDBRANCH  99 103
ENDBRANCH  73  96
ENDBRANCH  47  48
ENDBRANCH  39  42
ENDBRANCH  37  38
ENDBRANCH   1  37
TORSDOF 19
ENDMDL
MODEL 3
REMARK VINA RESULT:     -12.7      6.478     14.080
REMARK SMILES COc1cc(OC)c(-c2cc(C(=O)NCCCCNC(=O)c3ccc(-c4c5nc(c(-c6cc(S(=O)(=O)[O-])ccc6F)c6ccc([nH]6)c(-c6cc(S(=O)(=O)[O-])ccc6F)c6nc(c(-c7cc(S(=O)(=O)[O-])ccc7F)c7ccc4[nH]7)C=C6)C=C5)cc3)c3c(-c4ccc(Cl)cc4)[nH]nc3n2)cc1OC
REMARK SMILES IDX 17 1 16 2 15 3 14 4 12 5 13 6 11 8 9 9 10 10 97 11 96 12
REMARK SMILES IDX 85 13 95 14 86 15 94 16 8 18 3 19 4 20 99 21 5 22 98 23 2 24
REMARK SMILES IDX 1 25 100 26 101 27 6 28 7 29 87 30 88 31 93 32 89 33 92 34
REMARK SMILES IDX 90 35 91 36 18 37 19 38 20 39 21 41 22 42 23 43 84 44 24 45
REMARK SMILES IDX 83 46 25 47 26 48 27 49 77 50 28 51 82 52 76 53 78 54 29 55
REMARK SMILES IDX 81 56 75 57 74 58 30 60 62 61 42 62 61 63 43 64 46 65 60 66
REMARK SMILES IDX 79 67 44 68 45 69 59 71 80 72 47 73 31 74 32 75 40 76 33 77
REMARK SMILES IDX 39 78 41 79 38 80 34 81 35 82 36 83 37 84 63 85 64 86 72 87
REMARK SMILES IDX 65 88 71 89 73 90 70 91 66 92 67 93 68 94 69 95 48 96 49 97
REMARK SMILES IDX 57 98 50 99 56 100 58 101 55 102 51 103 52 104 53 105 54 106
REMARK H PARENT 14 7 94 17 19 40 78 59 46 70
REMARK Flexibility Score: inf
ROOT
ATOM      1  C   UNL A   1      46.885  24.629  37.866  1.00  0.00     0.023 C 
ENDROOT
BRANCH   1   2
ATOM      2  C   UNL A   1      48.309  24.184  38.237  1.00  0.00     0.023 C 
BRANCH   2   3
ATOM      3  C   UNL A   1      48.368  22.983  39.180  1.00  0.00     0.116 C 
BRANCH   3   4
ATOM      4  N   UNL A   1      49.337  21.993  38.755  1.00  0.00    -0.352 N 
ATOM      5  C   UNL A   1      49.297  20.774  38.129  1.00  0.00     0.252 C 
ATOM      6  O   UNL A   1      50.392  20.385  37.735  1.00  0.00    -0.269 OA
ATOM      7  H   UNL A   1      50.258  22.264  38.970  1.00  0.00     0.163 HD
BRANCH   5   8
ATOM      8  C   UNL A   1      48.072  19.980  37.871  1.00  0.00     0.055 A 
ATOM      9  C   UNL A   1      46.275  18.444  38.664  1.00  0.00     0.077 A 
ATOM     10  C   UNL A   1      47.561  19.037  38.766  1.00  0.00     0.043 A 
ATOM     11  N   UNL A   1      45.410  18.610  37.635  1.00  0.00    -0.226 NA
ATOM     12  C   UNL A   1      45.919  19.405  36.658  1.00  0.00     0.182 A 
ATOM     13  C   UNL A   1      47.203  20.065  36.762  1.00  0.00     0.059 A 
ATOM     14  N   UNL A   1      45.322  19.653  35.491  1.00  0.00    -0.154 NA
ATOM     15  C   UNL A   1      47.356  20.712  35.542  1.00  0.00     0.075 A 
ATOM     16  N   UNL A   1      46.193  20.449  34.856  1.00  0.00    -0.275 N 
ATOM     17  H   UNL A   1      46.013  20.820  33.962  1.00  0.00     0.190 HD
BRANCH   9  18
ATOM     18  C   UNL A   1      45.846  17.617  39.805  1.00  0.00     0.046 A 
ATOM     19  C   UNL A   1      44.609  16.250  41.964  1.00  0.00     0.164 A 
ATOM     20  C   UNL A   1      45.891  16.813  42.093  1.00  0.00     0.097 A 
ATOM     21  C   UNL A   1      43.928  16.361  40.756  1.00  0.00     0.161 A 
ATOM     22  C   UNL A   1      46.500  17.523  41.040  1.00  0.00     0.132 A 
ATOM     23  C   UNL A   1      44.574  17.002  39.691  1.00  0.00     0.064 A 
BRANCH  19  24
ATOM     24  O   UNL A   1      44.029  15.763  43.103  1.00  0.00    -0.493 OA
ATOM     25  C   UNL A   1      44.271  16.599  44.234  1.00  0.00     0.278 C 
ENDBRANCH  19  24
BRANCH  21  26
ATOM     26  O   UNL A   1      42.653  15.999  40.430  1.00  0.00    -0.493 OA
ATOM     27  C   UNL A   1      42.352  14.652  40.120  1.00  0.00     0.278 C 
ENDBRANCH  21  26
BRANCH  22  28
ATOM     28  O   UNL A   1      47.709  18.072  41.388  1.00  0.00    -0.496 OA
ATOM     29  C   UNL A   1      48.094  17.985  42.756  1.00  0.00     0.278 C 
ENDBRANCH  22  28
ENDBRANCH   9  18
BRANCH  15  30
ATOM     30  C   UNL A   1      48.417  21.485  34.907  1.00  0.00     0.000 A 
ATOM     31  C   UNL A   1      49.535  20.834  34.369  1.00  0.00     0.012 A 
ATOM     32  C   UNL A   1      48.303  22.877  34.774  1.00  0.00     0.012 A 
ATOM     33  C   UNL A   1      50.493  21.556  33.651  1.00  0.00     0.021 A 
ATOM     34  C   UNL A   1      49.253  23.595  34.044  1.00  0.00     0.021 A 
ATOM     35  C   UNL A   1      50.336  22.930  33.475  1.00  0.00     0.041 A 
ATOM     36  Cl  UNL A   1      51.479  23.809  32.535  1.00  0.00    -0.084 Cl
ENDBRANCH  15  30
ENDBRANCH   5   8
ENDBRANCH   3   4
ENDBRANCH   2   3
ENDBRANCH   1   2
BRANCH   1  37
ATOM     37  C   UNL A   1      45.901  23.497  37.562  1.00  0.00     0.116 C 
BRANCH  37  38
ATOM     38  N   UNL A   1      44.512  23.941  37.557  1.00  0.00    -0.352 N 
ATOM     39  C   UNL A   1      43.885  24.764  36.638  1.00  0.00     0.251 C 
ATOM     40  H   UNL A   1      43.952  23.614  38.297  1.00  0.00     0.163 HD
ATOM     41  O   UNL A   1      42.908  25.417  36.976  1.00  0.00    -0.269 OA
BRANCH  39  42
ATOM     42  C   UNL A   1      44.399  24.840  35.251  1.00  0.00     0.039 A 
ATOM     43  C   UNL A   1      44.620  23.682  34.508  1.00  0.00     0.014 A 
ATOM     44  C   UNL A   1      44.680  26.089  34.694  1.00  0.00     0.014 A 
ATOM     45  C   UNL A   1      45.032  23.804  33.181  1.00  0.00     0.010 A 
ATOM     46  C   UNL A   1      44.992  26.218  33.354  1.00  0.00     0.010 A 
ATOM     47  C   UNL A   1      45.180  25.077  32.587  1.00  0.00    -0.014 A 
BRANCH  47  48
ATOM     48  C   UNL A   1      45.258  25.194  31.122  1.00  0.00     0.031 A 
ATOM     49  C   UNL A   1      46.470  25.952  30.714  1.00  0.00     0.074 A 
ATOM     50  C   UNL A   1      44.482  24.560  30.208  1.00  0.00     0.049 A 
ATOM     51  N   UNL A   1      46.527  27.207  30.415  1.00  0.00    -0.248 NA
ATOM     52  C   UNL A   1      47.799  25.342  30.916  1.00  0.00     0.031 C 
ATOM     53  C   UNL A   1      43.446  23.559  30.477  1.00  0.00     0.029 A 
ATOM     54  N   UNL A   1      44.492  24.610  28.834  1.00  0.00    -0.354 N 
ATOM     55  C   UNL A   1      47.839  27.419  30.014  1.00  0.00     0.074 A 
ATOM     56  C   UNL A   1      48.602  26.372  30.629  1.00  0.00     0.031 C 
ATOM     57  C   UNL A   1      43.087  22.943  29.326  1.00  0.00     0.029 A 
ATOM     58  C   UNL A   1      43.741  23.606  28.206  1.00  0.00     0.049 A 
ATOM     59  H   UNL A   1      44.986  25.297  28.331  1.00  0.00     0.167 HD
ATOM     60  C   UNL A   1      48.073  28.153  28.889  1.00  0.00     0.034 A 
ATOM     61  C   UNL A   1      43.623  23.344  26.870  1.00  0.00     0.034 A 
ATOM     62  C   UNL A   1      46.867  28.867  28.514  1.00  0.00     0.049 A 
ATOM     63  C   UNL A   1      43.888  24.613  26.162  1.00  0.00     0.074 A 
ATOM     64  C   UNL A   1      46.118  29.920  28.989  1.00  0.00     0.029 A 
ATOM     65  N   UNL A   1      46.059  28.148  27.671  1.00  0.00    -0.354 N 
ATOM     66  N   UNL A   1      43.104  25.650  26.265  1.00  0.00    -0.248 NA
ATOM     67  C   UNL A   1      45.220  24.890  25.639  1.00  0.00     0.031 C 
ATOM     68  C   UNL A   1      44.790  29.722  28.498  1.00  0.00     0.029 A 
ATOM     69  C   UNL A   1      44.769  28.601  27.672  1.00  0.00     0.049 A 
ATOM     70  H   UNL A   1      46.373  27.391  27.125  1.00  0.00     0.167 HD
ATOM     71  C   UNL A   1      43.965  26.727  26.271  1.00  0.00     0.074 A 
ATOM     72  C   UNL A   1      45.209  26.224  25.699  1.00  0.00     0.031 C 
ATOM     73  C   UNL A   1      43.712  27.810  27.064  1.00  0.00     0.034 A 
BRANCH  60  74
ATOM     74  C   UNL A   1      49.108  27.808  27.819  1.00  0.00     0.023 A 
ATOM     75  C   UNL A   1      50.035  28.822  27.489  1.00  0.00     0.031 A 
ATOM     76  C   UNL A   1      49.051  26.726  26.912  1.00  0.00     0.131 A 
ATOM     77  C   UNL A   1      50.752  28.790  26.279  1.00  0.00     0.055 A 
ATOM     78  C   UNL A   1      49.798  26.680  25.729  1.00  0.00     0.041 A 
ATOM     79  F   UNL A   1      48.224  25.687  27.061  1.00  0.00    -0.206 F 
ATOM     80  C   UNL A   1      50.632  27.728  25.391  1.00  0.00     0.022 A 
BRANCH  77  81
ATOM     81  S   UNL A   1      51.737  30.239  25.816  1.00  0.00     0.124 S 
ATOM     82  O   UNL A   1      52.673  30.324  26.930  1.00  0.00    -0.237 OA
ATOM     83  O   UNL A   1      52.292  29.824  24.531  1.00  0.00    -0.237 OA
ATOM     84  O   UNL A   1      50.745  31.310  25.745  1.00  0.00    -0.744 OA
ENDBRANCH  77  81
ENDBRANCH  60  74
BRANCH  61  85
ATOM     85  C   UNL A   1      43.496  22.040  26.144  1.00  0.00     0.023 A 
ATOM     86  C   UNL A   1      44.596  21.344  25.576  1.00  0.00     0.031 A 
ATOM     87  C   UNL A   1      42.294  21.311  26.267  1.00  0.00     0.131 A 
ATOM     88  C   UNL A   1      44.468  19.983  25.190  1.00  0.00     0.055 A 
ATOM     89  C   UNL A   1      42.179  19.968  25.898  1.00  0.00     0.041 A 
ATOM     90  F   UNL A   1      41.211  21.857  26.840  1.00  0.00    -0.206 F 
ATOM     91  C   UNL A   1      43.270  19.293  25.373  1.00  0.00     0.022 A 
BRANCH  88  92
ATOM     92  S   UNL A   1      45.890  19.038  24.528  1.00  0.00     0.124 S 
ATOM     93  O   UNL A   1      45.476  18.772  23.154  1.00  0.00    -0.237 OA
ATOM     94  O   UNL A   1      47.001  19.963  24.706  1.00  0.00    -0.237 OA
ATOM     95  O   UNL A   1      45.943  17.852  25.387  1.00  0.00    -0.744 OA
ENDBRANCH  88  92
ENDBRANCH  61  85
BRANCH  73  96
ATOM     96  C   UNL A   1      42.269  28.135  27.361  1.00  0.00     0.023 A 
ATOM     97  C   UNL A   1      41.612  27.942  28.596  1.00  0.00     0.031 A 
ATOM     98  C   UNL A   1      41.515  28.660  26.296  1.00  0.00     0.131 A 
ATOM     99  C   UNL A   1      40.242  28.253  28.718  1.00  0.00     0.055 A 
ATOM    100  C   UNL A   1      40.169  28.988  26.427  1.00  0.00     0.041 A 
ATOM    101  F   UNL A   1      42.081  28.866  25.095  1.00  0.00    -0.206 F 
ATOM    102  C   UNL A   1      39.523  28.775  27.637  1.00  0.00     0.022 A 
BRANCH  99 103
ATOM    103  S   UNL A   1      39.344  27.926  30.269  1.00  0.00     0.124 S 
ATOM    104  O   UNL A   1      38.856  26.562  30.106  1.00  0.00    -0.237 OA
ATOM    105  O   UNL A   1      40.384  28.115  31.278  1.00  0.00    -0.237 OA
ATOM    106  O   UNL A   1      38.298  28.951  30.278  1.00  0.00    -0.744 OA
ENDBRANCH  99 103
ENDBRANCH  73  96
ENDBRANCH  47  48
ENDBRANCH  39  42
ENDBRANCH  37  38
ENDBRANCH   1  37
TORSDOF 19
ENDMDL
