MODEL 1
REMARK VINA RESULT:     -13.6      0.000      0.000
REMARK SMILES Cc1ccc2c(c1)[C@@]1([NH2+][C@@H](CCC(=O)NCCCCNC(=O)c3ccc(-c4c5nc(c(-c6cc(S(=O)(=O)[O-])ccc6F)c6ccc([nH]6)c(-c6cc(S(=O)(=O)[O-])ccc6F)c6nc(c(-c7cc(S(=O)(=O)[O-])ccc7F)c7ccc4[nH]7)C=C6)C=C5)cc3)[C@H]3C(=O)N(Cc4ccccc4)C(=O)[C@H]31)C(=O)N2
REMARK SMILES IDX 17 1 16 2 15 3 13 4 14 5 12 7 11 8 10 9 1 10 2 11 3 12 7 13
REMARK SMILES IDX 4 14 6 15 5 16 8 17 102 18 9 19 99 20 100 21 86 25 97 26
REMARK SMILES IDX 101 27 87 28 89 29 98 30 88 31 90 32 91 33 92 34 96 35 93 36
REMARK SMILES IDX 95 37 94 38 18 39 19 40 20 41 21 42 22 44 23 45 24 46 85 47
REMARK SMILES IDX 25 48 84 49 26 50 27 51 28 52 78 53 29 54 83 55 77 56 79 57
REMARK SMILES IDX 30 58 82 59 76 60 75 61 31 63 63 64 43 65 62 66 44 67 47 68
REMARK SMILES IDX 61 69 80 70 45 71 46 72 60 74 81 75 48 76 32 77 33 78 41 79
REMARK SMILES IDX 34 80 40 81 42 82 39 83 35 84 36 85 37 86 38 87 64 88 65 89
REMARK SMILES IDX 73 90 66 91 72 92 74 93 71 94 67 95 68 96 69 97 70 98 49 99
REMARK SMILES IDX 50 100 58 101 51 102 57 103 59 104 56 105 52 106 53 107
REMARK SMILES IDX 54 108 55 109
REMARK H PARENT 15 6 102 22 9 23 9 24 20 43 79 62 47 73
REMARK Flexibility Score: inf
ROOT
ATOM      1  C   UNL A   1      33.430  29.155  25.199  1.00  0.00     0.023 C 
ENDROOT
BRANCH   1   2
ATOM      2  C   UNL A   1      33.760  28.685  23.780  1.00  0.00     0.116 C 
BRANCH   2   3
ATOM      3  N   UNL A   1      33.692  27.233  23.600  1.00  0.00    -0.356 N 
ATOM      4  C   UNL A   1      33.735  26.434  22.496  1.00  0.00     0.220 C 
ATOM      5  O   UNL A   1      33.754  26.825  21.342  1.00  0.00    -0.275 OA
ATOM      6  H   UNL A   1      33.596  26.734  24.444  1.00  0.00     0.163 HD
BRANCH   4   7
ATOM      7  C   UNL A   1      33.753  24.944  22.749  1.00  0.00     0.106 C 
BRANCH   7   8
ATOM      8  C   UNL A   1      34.830  24.481  23.740  1.00  0.00     0.076 C 
BRANCH   8   9
ATOM      9  C   UNL A   1      34.587  23.229  24.605  1.00  0.00     0.197 C 
ATOM     10  C   UNL A   1      35.622  17.111  24.786  1.00  0.00     0.044 C 
ATOM     11  C   UNL A   1      34.370  17.837  24.386  1.00  0.00    -0.050 A 
ATOM     12  C   UNL A   1      33.477  17.233  23.473  1.00  0.00     0.005 A 
ATOM     13  C   UNL A   1      34.185  19.173  24.797  1.00  0.00     0.016 A 
ATOM     14  C   UNL A   1      32.403  17.946  22.953  1.00  0.00     0.027 A 
ATOM     15  C   UNL A   1      33.154  19.908  24.233  1.00  0.00     0.047 A 
ATOM     16  C   UNL A   1      32.289  19.272  23.326  1.00  0.00     0.051 A 
ATOM     17  C   UNL A   1      33.040  21.441  24.101  1.00  0.00     0.216 C 
ATOM     18  N   UNL A   1      31.623  20.209  22.559  1.00  0.00    -0.320 N 
ATOM     19  N   UNL A   1      34.411  21.979  23.872  1.00  0.00    -0.326 N 
ATOM     20  C   UNL A   1      32.510  22.172  25.368  1.00  0.00     0.174 C 
ATOM     21  C   UNL A   1      32.292  21.405  22.703  1.00  0.00     0.291 C 
ATOM     22  H   UNL A   1      30.820  20.051  22.011  1.00  0.00     0.170 HD
ATOM     23  H   UNL A   1      34.545  22.151  22.875  1.00  0.00     0.347 HD
ATOM     24  H   UNL A   1      35.097  21.300  24.202  1.00  0.00     0.347 HD
ATOM     25  C   UNL A   1      33.554  23.227  25.717  1.00  0.00     0.157 C 
ATOM     26  C   UNL A   1      31.231  22.995  25.545  1.00  0.00     0.240 C 
ATOM     27  O   UNL A   1      32.549  22.063  21.701  1.00  0.00    -0.267 OA
ATOM     28  C   UNL A   1      32.815  24.509  26.008  1.00  0.00     0.239 C 
ATOM     29  N   UNL A   1      31.491  24.338  25.733  1.00  0.00    -0.277 N 
ATOM     30  O   UNL A   1      30.138  22.457  25.695  1.00  0.00    -0.274 OA
ATOM     31  O   UNL A   1      33.346  25.469  26.552  1.00  0.00    -0.274 OA
BRANCH  29  32
ATOM     32  C   UNL A   1      30.468  25.389  26.059  1.00  0.00     0.164 C 
BRANCH  32  33
ATOM     33  C   UNL A   1      29.833  26.177  24.897  1.00  0.00    -0.028 A 
ATOM     34  C   UNL A   1      28.459  26.083  24.616  1.00  0.00     0.005 A 
ATOM     35  C   UNL A   1      30.574  27.085  24.114  1.00  0.00     0.005 A 
ATOM     36  C   UNL A   1      27.837  26.957  23.706  1.00  0.00     0.000 A 
ATOM     37  C   UNL A   1      29.946  28.008  23.260  1.00  0.00     0.000 A 
ATOM     38  C   UNL A   1      28.570  27.957  23.071  1.00  0.00     0.000 A 
ENDBRANCH  32  33
ENDBRANCH  29  32
ENDBRANCH   8   9
ENDBRANCH   7   8
ENDBRANCH   4   7
ENDBRANCH   2   3
ENDBRANCH   1   2
BRANCH   1  39
ATOM     39  C   UNL A   1      32.242  30.089  25.374  1.00  0.00     0.023 C 
BRANCH  39  40
ATOM     40  C   UNL A   1      31.987  30.395  26.842  1.00  0.00     0.116 C 
BRANCH  40  41
ATOM     41  N   UNL A   1      31.954  31.829  27.169  1.00  0.00    -0.352 N 
ATOM     42  C   UNL A   1      32.947  32.712  27.562  1.00  0.00     0.251 C 
ATOM     43  H   UNL A   1      31.061  32.237  27.095  1.00  0.00     0.163 HD
ATOM     44  O   UNL A   1      32.670  33.883  27.806  1.00  0.00    -0.269 OA
BRANCH  42  45
ATOM     45  C   UNL A   1      34.328  32.219  27.753  1.00  0.00     0.039 A 
ATOM     46  C   UNL A   1      34.529  30.868  27.954  1.00  0.00     0.014 A 
ATOM     47  C   UNL A   1      35.397  33.107  27.897  1.00  0.00     0.014 A 
ATOM     48  C   UNL A   1      35.621  30.474  28.701  1.00  0.00     0.010 A 
ATOM     49  C   UNL A   1      36.613  32.642  28.422  1.00  0.00     0.010 A 
ATOM     50  C   UNL A   1      36.705  31.339  28.929  1.00  0.00    -0.014 A 
BRANCH  50  51
ATOM     51  C   UNL A   1      37.879  30.827  29.704  1.00  0.00     0.031 A 
ATOM     52  C   UNL A   1      38.068  31.155  31.168  1.00  0.00     0.074 A 
ATOM     53  C   UNL A   1      38.731  29.968  29.103  1.00  0.00     0.049 A 
ATOM     54  N   UNL A   1      39.053  30.814  31.960  1.00  0.00    -0.248 NA
ATOM     55  C   UNL A   1      37.043  31.979  31.827  1.00  0.00     0.031 C 
ATOM     56  C   UNL A   1      38.649  29.562  27.696  1.00  0.00     0.029 A 
ATOM     57  N   UNL A   1      39.782  29.230  29.587  1.00  0.00    -0.354 N 
ATOM     58  C   UNL A   1      38.804  31.435  33.182  1.00  0.00     0.074 A 
ATOM     59  C   UNL A   1      37.575  32.179  33.027  1.00  0.00     0.031 C 
ATOM     60  C   UNL A   1      39.490  28.549  27.476  1.00  0.00     0.029 A 
ATOM     61  C   UNL A   1      40.317  28.360  28.660  1.00  0.00     0.049 A 
ATOM     62  H   UNL A   1      40.122  29.312  30.507  1.00  0.00     0.167 HD
ATOM     63  C   UNL A   1      39.535  31.382  34.322  1.00  0.00     0.034 A 
ATOM     64  C   UNL A   1      41.384  27.539  28.717  1.00  0.00     0.034 A 
ATOM     65  C   UNL A   1      40.720  30.571  34.472  1.00  0.00     0.049 A 
ATOM     66  C   UNL A   1      42.179  27.502  29.988  1.00  0.00     0.074 A 
ATOM     67  C   UNL A   1      41.516  30.425  35.594  1.00  0.00     0.029 A 
ATOM     68  N   UNL A   1      41.265  29.756  33.489  1.00  0.00    -0.354 N 
ATOM     69  N   UNL A   1      41.945  28.126  31.119  1.00  0.00    -0.248 NA
ATOM     70  C   UNL A   1      43.394  26.680  29.995  1.00  0.00     0.031 C 
ATOM     71  C   UNL A   1      42.576  29.577  35.271  1.00  0.00     0.029 A 
ATOM     72  C   UNL A   1      42.401  29.127  33.972  1.00  0.00     0.049 A 
ATOM     73  H   UNL A   1      40.898  29.642  32.581  1.00  0.00     0.167 HD
ATOM     74  C   UNL A   1      42.985  27.777  31.970  1.00  0.00     0.074 A 
ATOM     75  C   UNL A   1      43.827  26.852  31.237  1.00  0.00     0.031 C 
ATOM     76  C   UNL A   1      43.228  28.200  33.235  1.00  0.00     0.034 A 
BRANCH  63  77
ATOM     77  C   UNL A   1      39.111  32.212  35.513  1.00  0.00     0.023 A 
ATOM     78  C   UNL A   1      39.579  33.536  35.639  1.00  0.00     0.031 A 
ATOM     79  C   UNL A   1      38.380  31.666  36.582  1.00  0.00     0.131 A 
ATOM     80  C   UNL A   1      39.350  34.252  36.821  1.00  0.00     0.055 A 
ATOM     81  C   UNL A   1      38.114  32.401  37.741  1.00  0.00     0.041 A 
ATOM     82  F   UNL A   1      37.912  30.409  36.518  1.00  0.00    -0.206 F 
ATOM     83  C   UNL A   1      38.614  33.694  37.870  1.00  0.00     0.022 A 
BRANCH  80  84
ATOM     84  S   UNL A   1      40.066  35.900  37.076  1.00  0.00     0.124 S 
ATOM     85  O   UNL A   1      41.491  35.594  37.190  1.00  0.00    -0.237 OA
ATOM     86  O   UNL A   1      39.675  36.596  35.853  1.00  0.00    -0.237 OA
ATOM     87  O   UNL A   1      39.434  36.373  38.302  1.00  0.00    -0.744 OA
ENDBRANCH  80  84
ENDBRANCH  63  77
BRANCH  64  88
ATOM     88  C   UNL A   1      41.737  26.720  27.516  1.00  0.00     0.023 A 
ATOM     89  C   UNL A   1      41.311  25.382  27.412  1.00  0.00     0.031 A 
ATOM     90  C   UNL A   1      42.629  27.202  26.547  1.00  0.00     0.131 A 
ATOM     91  C   UNL A   1      41.875  24.541  26.446  1.00  0.00     0.055 A 
ATOM     92  C   UNL A   1      43.111  26.385  25.521  1.00  0.00     0.041 A 
ATOM     93  F   UNL A   1      43.070  28.469  26.603  1.00  0.00    -0.206 F 
ATOM     94  C   UNL A   1      42.759  25.039  25.485  1.00  0.00     0.022 A 
BRANCH  91  95
ATOM     95  S   UNL A   1      41.641  22.741  26.539  1.00  0.00     0.124 S 
ATOM     96  O   UNL A   1      40.188  22.622  26.541  1.00  0.00    -0.237 OA
ATOM     97  O   UNL A   1      42.312  22.290  25.320  1.00  0.00    -0.237 OA
ATOM     98  O   UNL A   1      42.311  22.371  27.781  1.00  0.00    -0.744 OA
ENDBRANCH  91  95
ENDBRANCH  64  88
BRANCH  76  99
ATOM     99  C   UNL A   1      44.456  27.677  33.937  1.00  0.00     0.023 A 
ATOM    100  C   UNL A   1      44.352  26.570  34.799  1.00  0.00     0.031 A 
ATOM    101  C   UNL A   1      45.683  28.358  33.867  1.00  0.00     0.131 A 
ATOM    102  C   UNL A   1      45.444  26.205  35.595  1.00  0.00     0.055 A 
ATOM    103  C   UNL A   1      46.784  27.958  34.623  1.00  0.00     0.041 A 
ATOM    104  F   UNL A   1      45.827  29.424  33.063  1.00  0.00    -0.206 F 
ATOM    105  C   UNL A   1      46.662  26.887  35.505  1.00  0.00     0.022 A 
BRANCH 102 106
ATOM    106  S   UNL A   1      45.295  24.895  36.840  1.00  0.00     0.124 S 
ATOM    107  O   UNL A   1      45.155  23.702  36.007  1.00  0.00    -0.237 OA
ATOM    108  O   UNL A   1      46.561  25.009  37.559  1.00  0.00    -0.237 OA
ATOM    109  O   UNL A   1      44.105  25.265  37.600  1.00  0.00    -0.744 OA
ENDBRANCH 102 106
ENDBRANCH  76  99
ENDBRANCH  50  51
ENDBRANCH  42  45
ENDBRANCH  40  41
ENDBRANCH  39  40
ENDBRANCH   1  39
TORSDOF 18
ENDMDL
MODEL 2
REMARK VINA RESULT:     -13.6      0.398      7.241
REMARK SMILES Cc1ccc2c(c1)[C@@]1([NH2+][C@@H](CCC(=O)NCCCCNC(=O)c3ccc(-c4c5nc(c(-c6cc(S(=O)(=O)[O-])ccc6F)c6ccc([nH]6)c(-c6cc(S(=O)(=O)[O-])ccc6F)c6nc(c(-c7cc(S(=O)(=O)[O-])ccc7F)c7ccc4[nH]7)C=C6)C=C5)cc3)[C@H]3C(=O)N(Cc4ccccc4)C(=O)[C@H]31)C(=O)N2
REMARK SMILES IDX 17 1 16 2 15 3 13 4 14 5 12 7 11 8 10 9 1 10 2 11 3 12 7 13
REMARK SMILES IDX 4 14 6 15 5 16 8 17 102 18 9 19 99 20 100 21 86 25 97 26
REMARK SMILES IDX 101 27 87 28 89 29 98 30 88 31 90 32 91 33 92 34 96 35 93 36
REMARK SMILES IDX 95 37 94 38 18 39 19 40 20 41 21 42 22 44 23 45 24 46 85 47
REMARK SMILES IDX 25 48 84 49 26 50 27 51 28 52 78 53 29 54 83 55 77 56 79 57
REMARK SMILES IDX 30 58 82 59 76 60 75 61 31 63 63 64 43 65 62 66 44 67 47 68
REMARK SMILES IDX 61 69 80 70 45 71 46 72 60 74 81 75 48 76 32 77 33 78 41 79
REMARK SMILES IDX 34 80 40 81 42 82 39 83 35 84 36 85 37 86 38 87 64 88 65 89
REMARK SMILES IDX 73 90 66 91 72 92 74 93 71 94 67 95 68 96 69 97 70 98 49 99
REMARK SMILES IDX 50 100 58 101 51 102 57 103 59 104 56 105 52 106 53 107
REMARK SMILES IDX 54 108 55 109
REMARK H PARENT 15 6 102 22 9 23 9 24 20 43 79 62 47 73
REMARK Flexibility Score: inf
ROOT
ATOM      1  C   UNL A   1      33.398  29.126  25.151  1.00  0.00     0.023 C 
ENDROOT
BRANCH   1   2
ATOM      2  C   UNL A   1      33.721  28.658  23.730  1.00  0.00     0.116 C 
BRANCH   2   3
ATOM      3  N   UNL A   1      33.677  27.203  23.556  1.00  0.00    -0.356 N 
ATOM      4  C   UNL A   1      33.714  26.402  22.455  1.00  0.00     0.220 C 
ATOM      5  O   UNL A   1      33.704  26.788  21.299  1.00  0.00    -0.275 OA
ATOM      6  H   UNL A   1      33.607  26.706  24.404  1.00  0.00     0.163 HD
BRANCH   4   7
ATOM      7  C   UNL A   1      33.765  24.912  22.712  1.00  0.00     0.106 C 
BRANCH   7   8
ATOM      8  C   UNL A   1      34.812  24.483  23.750  1.00  0.00     0.076 C 
BRANCH   8   9
ATOM      9  C   UNL A   1      34.570  23.225  24.606  1.00  0.00     0.197 C 
ATOM     10  C   UNL A   1      35.661  17.116  24.770  1.00  0.00     0.044 C 
ATOM     11  C   UNL A   1      34.407  17.832  24.358  1.00  0.00    -0.050 A 
ATOM     12  C   UNL A   1      33.532  17.225  23.430  1.00  0.00     0.005 A 
ATOM     13  C   UNL A   1      34.204  19.164  24.773  1.00  0.00     0.016 A 
ATOM     14  C   UNL A   1      32.458  17.930  22.900  1.00  0.00     0.027 A 
ATOM     15  C   UNL A   1      33.173  19.893  24.199  1.00  0.00     0.047 A 
ATOM     16  C   UNL A   1      32.327  19.253  23.278  1.00  0.00     0.051 A 
ATOM     17  C   UNL A   1      33.046  21.425  24.073  1.00  0.00     0.216 C 
ATOM     18  N   UNL A   1      31.661  20.187  22.507  1.00  0.00    -0.320 N 
ATOM     19  N   UNL A   1      34.416  21.978  23.864  1.00  0.00    -0.326 N 
ATOM     20  C   UNL A   1      32.493  22.145  25.337  1.00  0.00     0.174 C 
ATOM     21  C   UNL A   1      32.317  21.389  22.666  1.00  0.00     0.291 C 
ATOM     22  H   UNL A   1      30.867  20.024  21.948  1.00  0.00     0.170 HD
ATOM     23  H   UNL A   1      34.561  22.155  22.870  1.00  0.00     0.347 HD
ATOM     24  H   UNL A   1      35.103  21.303  24.200  1.00  0.00     0.347 HD
ATOM     25  C   UNL A   1      33.523  23.208  25.704  1.00  0.00     0.157 C 
ATOM     26  C   UNL A   1      31.205  22.954  25.501  1.00  0.00     0.240 C 
ATOM     27  O   UNL A   1      32.581  22.055  21.670  1.00  0.00    -0.267 OA
ATOM     28  C   UNL A   1      32.768  24.481  25.992  1.00  0.00     0.239 C 
ATOM     29  N   UNL A   1      31.449  24.299  25.699  1.00  0.00    -0.277 N 
ATOM     30  O   UNL A   1      30.115  22.406  25.634  1.00  0.00    -0.274 OA
ATOM     31  O   UNL A   1      33.283  25.443  26.547  1.00  0.00    -0.274 OA
BRANCH  29  32
ATOM     32  C   UNL A   1      30.412  25.339  26.017  1.00  0.00     0.164 C 
BRANCH  32  33
ATOM     33  C   UNL A   1      29.813  26.153  24.855  1.00  0.00    -0.028 A 
ATOM     34  C   UNL A   1      28.429  26.167  24.610  1.00  0.00     0.005 A 
ATOM     35  C   UNL A   1      30.604  26.982  24.034  1.00  0.00     0.005 A 
ATOM     36  C   UNL A   1      27.856  27.072  23.697  1.00  0.00     0.000 A 
ATOM     37  C   UNL A   1      30.030  27.937  23.176  1.00  0.00     0.000 A 
ATOM     38  C   UNL A   1      28.651  27.995  23.023  1.00  0.00     0.000 A 
ENDBRANCH  32  33
ENDBRANCH  29  32
ENDBRANCH   8   9
ENDBRANCH   7   8
ENDBRANCH   4   7
ENDBRANCH   2   3
ENDBRANCH   1   2
BRANCH   1  39
ATOM     39  C   UNL A   1      32.203  30.052  25.333  1.00  0.00     0.023 C 
BRANCH  39  40
ATOM     40  C   UNL A   1      31.965  30.370  26.802  1.00  0.00     0.116 C 
BRANCH  40  41
ATOM     41  N   UNL A   1      31.961  31.806  27.121  1.00  0.00    -0.352 N 
ATOM     42  C   UNL A   1      32.968  32.667  27.528  1.00  0.00     0.251 C 
ATOM     43  H   UNL A   1      31.080  32.235  27.029  1.00  0.00     0.163 HD
ATOM     44  O   UNL A   1      32.715  33.845  27.761  1.00  0.00    -0.269 OA
BRANCH  42  45
ATOM     45  C   UNL A   1      34.333  32.142  27.746  1.00  0.00     0.039 A 
ATOM     46  C   UNL A   1      34.497  30.788  27.966  1.00  0.00     0.014 A 
ATOM     47  C   UNL A   1      35.423  33.004  27.896  1.00  0.00     0.014 A 
ATOM     48  C   UNL A   1      35.567  30.377  28.735  1.00  0.00     0.010 A 
ATOM     49  C   UNL A   1      36.618  32.516  28.445  1.00  0.00     0.010 A 
ATOM     50  C   UNL A   1      36.669  31.216  28.969  1.00  0.00    -0.014 A 
BRANCH  50  51
ATOM     51  C   UNL A   1      37.818  30.685  29.768  1.00  0.00     0.031 A 
ATOM     52  C   UNL A   1      38.878  29.803  29.147  1.00  0.00     0.074 A 
ATOM     53  C   UNL A   1      37.963  31.092  31.049  1.00  0.00     0.049 A 
ATOM     54  N   UNL A   1      39.910  29.239  29.722  1.00  0.00    -0.248 NA
ATOM     55  C   UNL A   1      38.763  29.497  27.712  1.00  0.00     0.031 C 
ATOM     56  C   UNL A   1      37.014  31.954  31.761  1.00  0.00     0.029 A 
ATOM     57  N   UNL A   1      38.971  30.904  31.962  1.00  0.00    -0.354 N 
ATOM     58  C   UNL A   1      40.524  28.462  28.743  1.00  0.00     0.074 A 
ATOM     59  C   UNL A   1      39.746  28.621  27.536  1.00  0.00     0.031 C 
ATOM     60  C   UNL A   1      37.551  32.344  32.919  1.00  0.00     0.029 A 
ATOM     61  C   UNL A   1      38.789  31.609  33.133  1.00  0.00     0.049 A 
ATOM     62  H   UNL A   1      39.748  30.324  31.797  1.00  0.00     0.167 HD
ATOM     63  C   UNL A   1      41.634  27.691  28.849  1.00  0.00     0.034 A 
ATOM     64  C   UNL A   1      39.496  31.631  34.281  1.00  0.00     0.034 A 
ATOM     65  C   UNL A   1      42.435  27.608  30.047  1.00  0.00     0.049 A 
ATOM     66  C   UNL A   1      40.718  30.766  34.374  1.00  0.00     0.074 A 
ATOM     67  C   UNL A   1      43.594  26.879  30.248  1.00  0.00     0.029 A 
ATOM     68  N   UNL A   1      42.181  28.286  31.232  1.00  0.00    -0.354 N 
ATOM     69  N   UNL A   1      41.259  30.011  33.447  1.00  0.00    -0.248 NA
ATOM     70  C   UNL A   1      41.413  30.727  35.665  1.00  0.00     0.031 C 
ATOM     71  C   UNL A   1      44.002  27.063  31.569  1.00  0.00     0.029 A 
ATOM     72  C   UNL A   1      43.147  27.970  32.174  1.00  0.00     0.049 A 
ATOM     73  H   UNL A   1      41.426  28.900  31.381  1.00  0.00     0.167 HD
ATOM     74  C   UNL A   1      42.355  29.401  34.044  1.00  0.00     0.074 A 
ATOM     75  C   UNL A   1      42.425  29.911  35.399  1.00  0.00     0.031 C 
ATOM     76  C   UNL A   1      43.212  28.490  33.520  1.00  0.00     0.034 A 
BRANCH  63  77
ATOM     77  C   UNL A   1      42.075  26.861  27.665  1.00  0.00     0.023 A 
ATOM     78  C   UNL A   1      41.693  25.506  27.585  1.00  0.00     0.031 A 
ATOM     79  C   UNL A   1      42.978  27.349  26.704  1.00  0.00     0.131 A 
ATOM     80  C   UNL A   1      42.243  24.677  26.599  1.00  0.00     0.055 A 
ATOM     81  C   UNL A   1      43.488  26.529  25.693  1.00  0.00     0.041 A 
ATOM     82  F   UNL A   1      43.379  28.630  26.733  1.00  0.00    -0.206 F 
ATOM     83  C   UNL A   1      43.133  25.184  25.647  1.00  0.00     0.022 A 
BRANCH  80  84
ATOM     84  S   UNL A   1      41.890  22.898  26.560  1.00  0.00     0.124 S 
ATOM     85  O   UNL A   1      40.433  22.879  26.683  1.00  0.00    -0.237 OA
ATOM     86  O   UNL A   1      42.409  22.511  25.252  1.00  0.00    -0.237 OA
ATOM     87  O   UNL A   1      42.615  22.369  27.710  1.00  0.00    -0.744 OA
ENDBRANCH  80  84
ENDBRANCH  63  77
BRANCH  64  88
ATOM     88  C   UNL A   1      39.026  32.495  35.407  1.00  0.00     0.023 A 
ATOM     89  C   UNL A   1      39.452  33.834  35.508  1.00  0.00     0.031 A 
ATOM     90  C   UNL A   1      38.290  31.958  36.474  1.00  0.00     0.131 A 
ATOM     91  C   UNL A   1      39.252  34.544  36.698  1.00  0.00     0.055 A 
ATOM     92  C   UNL A   1      38.003  32.707  37.619  1.00  0.00     0.041 A 
ATOM     93  F   UNL A   1      37.864  30.686  36.431  1.00  0.00    -0.206 F 
ATOM     94  C   UNL A   1      38.512  33.997  37.748  1.00  0.00     0.022 A 
BRANCH  91  95
ATOM     95  S   UNL A   1      40.123  36.112  36.994  1.00  0.00     0.124 S 
ATOM     96  O   UNL A   1      41.467  35.655  37.330  1.00  0.00    -0.237 OA
ATOM     97  O   UNL A   1      39.985  36.778  35.700  1.00  0.00    -0.237 OA
ATOM     98  O   UNL A   1      39.370  36.723  38.082  1.00  0.00    -0.744 OA
ENDBRANCH  91  95
ENDBRANCH  64  88
BRANCH  76  99
ATOM     99  C   UNL A   1      44.318  27.965  34.401  1.00  0.00     0.023 A 
ATOM    100  C   UNL A   1      44.020  27.053  35.430  1.00  0.00     0.031 A 
ATOM    101  C   UNL A   1      45.623  28.476  34.317  1.00  0.00     0.131 A 
ATOM    102  C   UNL A   1      45.004  26.715  36.364  1.00  0.00     0.055 A 
ATOM    103  C   UNL A   1      46.616  28.096  35.220  1.00  0.00     0.041 A 
ATOM    104  F   UNL A   1      45.952  29.354  33.355  1.00  0.00    -0.206 F 
ATOM    105  C   UNL A   1      46.303  27.224  36.261  1.00  0.00     0.022 A 
BRANCH 102 106
ATOM    106  S   UNL A   1      44.612  25.680  37.801  1.00  0.00     0.124 S 
ATOM    107  O   UNL A   1      44.398  24.374  37.181  1.00  0.00    -0.237 OA
ATOM    108  O   UNL A   1      45.826  25.798  38.605  1.00  0.00    -0.237 OA
ATOM    109  O   UNL A   1      43.419  26.301  38.367  1.00  0.00    -0.744 OA
ENDBRANCH 102 106
ENDBRANCH  76  99
ENDBRANCH  50  51
ENDBRANCH  42  45
ENDBRANCH  40  41
ENDBRANCH  39  40
ENDBRANCH   1  39
TORSDOF 18
ENDMDL
MODEL 3
REMARK VINA RESULT:     -13.5      4.475     10.250
REMARK SMILES Cc1ccc2c(c1)[C@@]1([NH2+][C@@H](CCC(=O)NCCCCNC(=O)c3ccc(-c4c5nc(c(-c6cc(S(=O)(=O)[O-])ccc6F)c6ccc([nH]6)c(-c6cc(S(=O)(=O)[O-])ccc6F)c6nc(c(-c7cc(S(=O)(=O)[O-])ccc7F)c7ccc4[nH]7)C=C6)C=C5)cc3)[C@H]3C(=O)N(Cc4ccccc4)C(=O)[C@H]31)C(=O)N2
REMARK SMILES IDX 17 1 16 2 15 3 13 4 14 5 12 7 11 8 10 9 1 10 2 11 3 12 7 13
REMARK SMILES IDX 4 14 6 15 5 16 8 17 102 18 9 19 99 20 100 21 86 25 97 26
REMARK SMILES IDX 101 27 87 28 89 29 98 30 88 31 90 32 91 33 92 34 96 35 93 36
REMARK SMILES IDX 95 37 94 38 18 39 19 40 20 41 21 42 22 44 23 45 24 46 85 47
REMARK SMILES IDX 25 48 84 49 26 50 27 51 28 52 78 53 29 54 83 55 77 56 79 57
REMARK SMILES IDX 30 58 82 59 76 60 75 61 31 63 63 64 43 65 62 66 44 67 47 68
REMARK SMILES IDX 61 69 80 70 45 71 46 72 60 74 81 75 48 76 32 77 33 78 41 79
REMARK SMILES IDX 34 80 40 81 42 82 39 83 35 84 36 85 37 86 38 87 64 88 65 89
REMARK SMILES IDX 73 90 66 91 72 92 74 93 71 94 67 95 68 96 69 97 70 98 49 99
REMARK SMILES IDX 50 100 58 101 51 102 57 103 59 104 56 105 52 106 53 107
REMARK SMILES IDX 54 108 55 109
REMARK H PARENT 15 6 102 22 9 23 9 24 20 43 79 62 47 73
REMARK Flexibility Score: inf
ROOT
ATOM      1  C   UNL A   1      36.478  23.343  23.895  1.00  0.00     0.023 C 
ENDROOT
BRANCH   1   2
ATOM      2  C   UNL A   1      34.960  23.518  23.989  1.00  0.00     0.116 C 
BRANCH   2   3
ATOM      3  N   UNL A   1      34.448  24.690  23.275  1.00  0.00    -0.356 N 
ATOM      4  C   UNL A   1      33.367  24.882  22.468  1.00  0.00     0.220 C 
ATOM      5  O   UNL A   1      32.604  24.011  22.090  1.00  0.00    -0.275 OA
ATOM      6  H   UNL A   1      34.993  25.501  23.403  1.00  0.00     0.163 HD
BRANCH   4   7
ATOM      7  C   UNL A   1      33.116  26.302  22.012  1.00  0.00     0.106 C 
BRANCH   7   8
ATOM      8  C   UNL A   1      31.639  26.722  22.027  1.00  0.00     0.076 C 
BRANCH   8   9
ATOM      9  C   UNL A   1      31.058  27.433  23.265  1.00  0.00     0.197 C 
ATOM     10  C   UNL A   1      31.426  32.706  26.519  1.00  0.00     0.044 C 
ATOM     11  C   UNL A   1      32.063  31.379  26.813  1.00  0.00    -0.050 A 
ATOM     12  C   UNL A   1      33.266  31.333  27.552  1.00  0.00     0.005 A 
ATOM     13  C   UNL A   1      31.544  30.215  26.210  1.00  0.00     0.016 A 
ATOM     14  C   UNL A   1      33.969  30.141  27.692  1.00  0.00     0.027 A 
ATOM     15  C   UNL A   1      32.273  29.038  26.293  1.00  0.00     0.047 A 
ATOM     16  C   UNL A   1      33.466  29.035  27.034  1.00  0.00     0.051 A 
ATOM     17  C   UNL A   1      32.222  27.819  25.349  1.00  0.00     0.216 C 
ATOM     18  N   UNL A   1      34.257  27.961  26.668  1.00  0.00    -0.320 N 
ATOM     19  N   UNL A   1      31.975  28.325  23.968  1.00  0.00    -0.326 N 
ATOM     20  C   UNL A   1      31.071  26.812  25.637  1.00  0.00     0.174 C 
ATOM     21  C   UNL A   1      33.766  27.481  25.473  1.00  0.00     0.291 C 
ATOM     22  H   UNL A   1      35.027  27.606  27.168  1.00  0.00     0.170 HD
ATOM     23  H   UNL A   1      32.859  28.370  23.461  1.00  0.00     0.347 HD
ATOM     24  H   UNL A   1      31.558  29.255  24.022  1.00  0.00     0.347 HD
ATOM     25  C   UNL A   1      30.298  26.665  24.331  1.00  0.00     0.157 C 
ATOM     26  C   UNL A   1      31.156  25.345  26.063  1.00  0.00     0.240 C 
ATOM     27  O   UNL A   1      34.553  27.240  24.565  1.00  0.00    -0.267 OA
ATOM     28  C   UNL A   1      30.058  25.192  24.116  1.00  0.00     0.239 C 
ATOM     29  N   UNL A   1      30.720  24.484  25.074  1.00  0.00    -0.277 N 
ATOM     30  O   UNL A   1      31.398  25.026  27.222  1.00  0.00    -0.274 OA
ATOM     31  O   UNL A   1      29.260  24.767  23.291  1.00  0.00    -0.274 OA
BRANCH  29  32
ATOM     32  C   UNL A   1      30.559  22.996  25.219  1.00  0.00     0.164 C 
BRANCH  32  33
ATOM     33  C   UNL A   1      31.826  22.120  25.210  1.00  0.00    -0.028 A 
ATOM     34  C   UNL A   1      32.668  22.044  26.332  1.00  0.00     0.005 A 
ATOM     35  C   UNL A   1      32.160  21.296  24.117  1.00  0.00     0.005 A 
ATOM     36  C   UNL A   1      33.697  21.087  26.412  1.00  0.00     0.000 A 
ATOM     37  C   UNL A   1      33.138  20.291  24.220  1.00  0.00     0.000 A 
ATOM     38  C   UNL A   1      33.894  20.173  25.379  1.00  0.00     0.000 A 
ENDBRANCH  32  33
ENDBRANCH  29  32
ENDBRANCH   8   9
ENDBRANCH   7   8
ENDBRANCH   4   7
ENDBRANCH   2   3
ENDBRANCH   1   2
BRANCH   1  39
ATOM     39  C   UNL A   1      37.027  21.924  23.923  1.00  0.00     0.023 C 
BRANCH  39  40
ATOM     40  C   UNL A   1      37.350  21.481  25.342  1.00  0.00     0.116 C 
BRANCH  40  41
ATOM     41  N   UNL A   1      38.517  20.592  25.452  1.00  0.00    -0.352 N 
ATOM     42  C   UNL A   1      39.720  20.724  26.127  1.00  0.00     0.251 C 
ATOM     43  H   UNL A   1      38.427  19.748  24.954  1.00  0.00     0.163 HD
ATOM     44  O   UNL A   1      40.569  19.840  26.051  1.00  0.00    -0.269 OA
BRANCH  42  45
ATOM     45  C   UNL A   1      40.002  21.964  26.881  1.00  0.00     0.039 A 
ATOM     46  C   UNL A   1      39.350  23.126  26.516  1.00  0.00     0.014 A 
ATOM     47  C   UNL A   1      41.025  22.014  27.832  1.00  0.00     0.014 A 
ATOM     48  C   UNL A   1      39.985  24.330  26.744  1.00  0.00     0.010 A 
ATOM     49  C   UNL A   1      41.501  23.260  28.267  1.00  0.00     0.010 A 
ATOM     50  C   UNL A   1      41.056  24.436  27.647  1.00  0.00    -0.014 A 
BRANCH  50  51
ATOM     51  C   UNL A   1      41.663  25.783  27.884  1.00  0.00     0.031 A 
ATOM     52  C   UNL A   1      42.967  26.193  27.236  1.00  0.00     0.074 A 
ATOM     53  C   UNL A   1      40.974  26.689  28.613  1.00  0.00     0.049 A 
ATOM     54  N   UNL A   1      43.632  27.312  27.376  1.00  0.00    -0.248 NA
ATOM     55  C   UNL A   1      43.620  25.230  26.335  1.00  0.00     0.031 C 
ATOM     56  C   UNL A   1      39.696  26.421  29.280  1.00  0.00     0.029 A 
ATOM     57  N   UNL A   1      41.193  28.021  28.866  1.00  0.00    -0.354 N 
ATOM     58  C   UNL A   1      44.806  27.162  26.642  1.00  0.00     0.074 A 
ATOM     59  C   UNL A   1      44.767  25.840  26.061  1.00  0.00     0.031 C 
ATOM     60  C   UNL A   1      39.176  27.568  29.723  1.00  0.00     0.029 A 
ATOM     61  C   UNL A   1      40.163  28.625  29.555  1.00  0.00     0.049 A 
ATOM     62  H   UNL A   1      42.005  28.498  28.583  1.00  0.00     0.167 HD
ATOM     63  C   UNL A   1      45.816  28.049  26.473  1.00  0.00     0.034 A 
ATOM     64  C   UNL A   1      40.032  29.871  30.054  1.00  0.00     0.034 A 
ATOM     65  C   UNL A   1      45.796  29.391  27.005  1.00  0.00     0.049 A 
ATOM     66  C   UNL A   1      41.166  30.833  29.857  1.00  0.00     0.074 A 
ATOM     67  C   UNL A   1      46.756  30.377  26.866  1.00  0.00     0.029 A 
ATOM     68  N   UNL A   1      44.765  29.943  27.752  1.00  0.00    -0.354 N 
ATOM     69  N   UNL A   1      42.283  30.656  29.190  1.00  0.00    -0.248 NA
ATOM     70  C   UNL A   1      41.047  32.148  30.495  1.00  0.00     0.031 C 
ATOM     71  C   UNL A   1      46.338  31.499  27.582  1.00  0.00     0.029 A 
ATOM     72  C   UNL A   1      45.079  31.246  28.103  1.00  0.00     0.049 A 
ATOM     73  H   UNL A   1      43.932  29.477  27.998  1.00  0.00     0.167 HD
ATOM     74  C   UNL A   1      43.003  31.835  29.333  1.00  0.00     0.074 A 
ATOM     75  C   UNL A   1      42.175  32.734  30.112  1.00  0.00     0.031 C 
ATOM     76  C   UNL A   1      44.243  32.136  28.873  1.00  0.00     0.034 A 
BRANCH  63  77
ATOM     77  C   UNL A   1      47.044  27.634  25.693  1.00  0.00     0.023 A 
ATOM     78  C   UNL A   1      47.148  27.973  24.328  1.00  0.00     0.031 A 
ATOM     79  C   UNL A   1      48.029  26.794  26.240  1.00  0.00     0.131 A 
ATOM     80  C   UNL A   1      48.182  27.440  23.549  1.00  0.00     0.055 A 
ATOM     81  C   UNL A   1      49.086  26.302  25.469  1.00  0.00     0.041 A 
ATOM     82  F   UNL A   1      47.979  26.437  27.534  1.00  0.00    -0.206 F 
ATOM     83  C   UNL A   1      49.157  26.612  24.114  1.00  0.00     0.022 A 
BRANCH  80  84
ATOM     84  S   UNL A   1      48.258  27.733  21.759  1.00  0.00     0.124 S 
ATOM     85  O   UNL A   1      48.567  26.398  21.250  1.00  0.00    -0.237 OA
ATOM     86  O   UNL A   1      46.910  28.213  21.470  1.00  0.00    -0.237 OA
ATOM     87  O   UNL A   1      49.325  28.716  21.609  1.00  0.00    -0.744 OA
ENDBRANCH  80  84
ENDBRANCH  63  77
BRANCH  64  88
ATOM     88  C   UNL A   1      38.782  30.232  30.791  1.00  0.00     0.023 A 
ATOM     89  C   UNL A   1      37.809  31.053  30.190  1.00  0.00     0.031 A 
ATOM     90  C   UNL A   1      38.618  29.903  32.145  1.00  0.00     0.131 A 
ATOM     91  C   UNL A   1      36.795  31.622  30.969  1.00  0.00     0.055 A 
ATOM     92  C   UNL A   1      37.544  30.391  32.894  1.00  0.00     0.041 A 
ATOM     93  F   UNL A   1      39.519  29.127  32.768  1.00  0.00    -0.206 F 
ATOM     94  C   UNL A   1      36.643  31.280  32.315  1.00  0.00     0.022 A 
BRANCH  91  95
ATOM     95  S   UNL A   1      35.776  32.976  30.313  1.00  0.00     0.124 S 
ATOM     96  O   UNL A   1      34.448  32.623  30.801  1.00  0.00    -0.237 OA
ATOM     97  O   UNL A   1      36.392  34.144  30.942  1.00  0.00    -0.237 OA
ATOM     98  O   UNL A   1      35.968  32.884  28.870  1.00  0.00    -0.744 OA
ENDBRANCH  91  95
ENDBRANCH  64  88
BRANCH  76  99
ATOM     99  C   UNL A   1      44.808  33.498  29.192  1.00  0.00     0.023 A 
ATOM    100  C   UNL A   1      44.680  34.544  28.260  1.00  0.00     0.031 A 
ATOM    101  C   UNL A   1      45.593  33.714  30.336  1.00  0.00     0.131 A 
ATOM    102  C   UNL A   1      45.366  35.746  28.467  1.00  0.00     0.055 A 
ATOM    103  C   UNL A   1      46.232  34.932  30.565  1.00  0.00     0.041 A 
ATOM    104  F   UNL A   1      45.749  32.741  31.250  1.00  0.00    -0.206 F 
ATOM    105  C   UNL A   1      46.134  35.949  29.618  1.00  0.00     0.022 A 
BRANCH 102 106
ATOM    106  S   UNL A   1      45.364  37.051  27.208  1.00  0.00     0.124 S 
ATOM    107  O   UNL A   1      46.020  38.150  27.914  1.00  0.00    -0.237 OA
ATOM    108  O   UNL A   1      46.145  36.444  26.134  1.00  0.00    -0.237 OA
ATOM    109  O   UNL A   1      43.948  37.258  26.917  1.00  0.00    -0.744 OA
ENDBRANCH 102 106
ENDBRANCH  76  99
ENDBRANCH  50  51
ENDBRANCH  42  45
ENDBRANCH  40  41
ENDBRANCH  39  40
ENDBRANCH   1  39
TORSDOF 18
ENDMDL
