MODEL 1
REMARK VINA RESULT:     -12.1      0.000      0.000
REMARK SMILES CC1=NN(c2ccc(Cl)cc2)C(=O)/C1=C/c1ccccc1OCC(=O)NCCCCNC(=O)c1ccc(-c2c3nc(c(-c4cc(S(=O)(=O)[O-])ccc4F)c4ccc([nH]4)c(-c4cc(S(=O)(=O)[O-])ccc4F)c4nc(c(-c5cc(S(=O)(=O)[O-])ccc5F)c5ccc2[nH]5)C=C4)C=C3)cc1
REMARK SMILES IDX 28 1 27 2 26 3 24 4 25 5 23 7 22 8 21 9 16 10 17 11 18 12
REMARK SMILES IDX 20 13 19 14 15 15 1 16 2 17 3 18 14 19 4 20 12 21 13 22 5 23
REMARK SMILES IDX 6 24 11 25 7 26 10 27 8 28 9 29 29 30 30 31 31 32 32 33
REMARK SMILES IDX 33 35 34 36 35 37 96 38 36 39 95 40 37 41 38 42 39 43 89 44
REMARK SMILES IDX 40 45 94 46 88 47 90 48 41 49 93 50 87 51 86 52 42 54 74 55
REMARK SMILES IDX 54 56 73 57 55 58 58 59 72 60 91 61 56 62 57 63 71 65 92 66
REMARK SMILES IDX 59 67 43 68 44 69 52 70 45 71 51 72 53 73 50 74 46 75 47 76
REMARK SMILES IDX 48 77 49 78 75 79 76 80 84 81 77 82 83 83 85 84 82 85 78 86
REMARK SMILES IDX 79 87 80 88 81 89 60 90 61 91 69 92 62 93 68 94 70 95 67 96
REMARK SMILES IDX 63 97 64 98 65 99 66 100
REMARK H PARENT 26 6 31 34 90 53 58 64
REMARK Flexibility Score: inf
ROOT
ATOM      1  C   UNL A   1      34.934  32.061  27.969  1.00  0.00     0.023 C 
ENDROOT
BRANCH   1   2
ATOM      2  C   UNL A   1      34.774  30.639  27.439  1.00  0.00     0.116 C 
BRANCH   2   3
ATOM      3  N   UNL A   1      33.619  29.918  27.931  1.00  0.00    -0.353 N 
ATOM      4  C   UNL A   1      32.600  29.405  27.177  1.00  0.00     0.257 C 
ATOM      5  O   UNL A   1      32.016  28.401  27.588  1.00  0.00    -0.271 OA
ATOM      6  H   UNL A   1      33.560  29.784  28.904  1.00  0.00     0.163 HD
BRANCH   4   7
ATOM      7  C   UNL A   1      32.215  30.034  25.836  1.00  0.00     0.329 C 
BRANCH   7   8
ATOM      8  O   UNL A   1      32.163  29.179  24.714  1.00  0.00    -0.483 OA
BRANCH   8   9
ATOM      9  C   UNL A   1      31.022  28.578  24.268  1.00  0.00     0.127 A 
ATOM     10  C   UNL A   1      30.543  27.266  24.430  1.00  0.00     0.017 A 
ATOM     11  C   UNL A   1      29.289  26.924  23.882  1.00  0.00     0.012 A 
ATOM     12  C   UNL A   1      28.521  27.858  23.185  1.00  0.00     0.001 A 
ATOM     13  C   UNL A   1      30.232  29.500  23.557  1.00  0.00     0.047 A 
ATOM     14  C   UNL A   1      28.997  29.149  23.018  1.00  0.00     0.004 A 
BRANCH  10  15
ATOM     15  C   UNL A   1      31.245  26.181  25.113  1.00  0.00     0.027 C 
ATOM     16  C   UNL A   1      32.418  26.021  22.075  1.00  0.00     0.069 C 
ATOM     17  C   UNL A   1      32.573  25.056  23.198  1.00  0.00     0.071 C 
ATOM     18  N   UNL A   1      33.163  23.896  23.076  1.00  0.00    -0.169 NA
ATOM     19  C   UNL A   1      32.074  25.286  24.561  1.00  0.00     0.066 C 
ATOM     20  N   UNL A   1      33.082  23.288  24.332  1.00  0.00    -0.196 N 
ATOM     21  C   UNL A   1      32.527  24.102  25.332  1.00  0.00     0.280 C 
ATOM     22  O   UNL A   1      32.385  23.947  26.529  1.00  0.00    -0.267 OA
BRANCH  20  23
ATOM     23  C   UNL A   1      33.373  21.907  24.437  1.00  0.00     0.069 A 
ATOM     24  C   UNL A   1      32.408  20.941  24.114  1.00  0.00     0.030 A 
ATOM     25  C   UNL A   1      34.657  21.472  24.796  1.00  0.00     0.030 A 
ATOM     26  C   UNL A   1      32.714  19.577  24.149  1.00  0.00     0.023 A 
ATOM     27  C   UNL A   1      34.959  20.105  24.856  1.00  0.00     0.023 A 
ATOM     28  C   UNL A   1      33.987  19.165  24.529  1.00  0.00     0.041 A 
ATOM     29  Cl  UNL A   1      34.357  17.485  24.585  1.00  0.00    -0.084 Cl
ENDBRANCH  20  23
ENDBRANCH  10  15
ENDBRANCH   8   9
ENDBRANCH   7   8
ENDBRANCH   4   7
ENDBRANCH   2   3
ENDBRANCH   1   2
BRANCH   1  30
ATOM     30  C   UNL A   1      33.684  32.944  28.025  1.00  0.00     0.023 C 
BRANCH  30  31
ATOM     31  C   UNL A   1      33.886  34.439  28.224  1.00  0.00     0.116 C 
BRANCH  31  32
ATOM     32  N   UNL A   1      33.242  34.939  29.423  1.00  0.00    -0.352 N 
ATOM     33  C   UNL A   1      33.549  34.729  30.745  1.00  0.00     0.251 C 
ATOM     34  H   UNL A   1      32.463  35.518  29.264  1.00  0.00     0.163 HD
ATOM     35  O   UNL A   1      32.760  35.128  31.600  1.00  0.00    -0.269 OA
BRANCH  33  36
ATOM     36  C   UNL A   1      34.785  34.015  31.154  1.00  0.00     0.039 A 
ATOM     37  C   UNL A   1      34.653  32.826  31.878  1.00  0.00     0.014 A 
ATOM     38  C   UNL A   1      36.061  34.518  30.885  1.00  0.00     0.014 A 
ATOM     39  C   UNL A   1      35.791  32.126  32.293  1.00  0.00     0.010 A 
ATOM     40  C   UNL A   1      37.196  33.780  31.238  1.00  0.00     0.010 A 
ATOM     41  C   UNL A   1      37.076  32.582  31.957  1.00  0.00    -0.014 A 
BRANCH  41  42
ATOM     42  C   UNL A   1      38.289  31.820  32.370  1.00  0.00     0.031 A 
ATOM     43  C   UNL A   1      38.969  32.122  33.683  1.00  0.00     0.074 A 
ATOM     44  C   UNL A   1      38.800  30.878  31.550  1.00  0.00     0.049 A 
ATOM     45  N   UNL A   1      40.044  31.583  34.201  1.00  0.00    -0.248 NA
ATOM     46  C   UNL A   1      38.377  33.185  34.509  1.00  0.00     0.031 C 
ATOM     47  C   UNL A   1      38.260  30.523  30.235  1.00  0.00     0.029 A 
ATOM     48  N   UNL A   1      39.886  30.050  31.692  1.00  0.00    -0.354 N 
ATOM     49  C   UNL A   1      40.270  32.255  35.399  1.00  0.00     0.074 A 
ATOM     50  C   UNL A   1      39.244  33.271  35.509  1.00  0.00     0.031 C 
ATOM     51  C   UNL A   1      39.001  29.536  29.705  1.00  0.00     0.029 A 
ATOM     52  C   UNL A   1      40.094  29.214  30.617  1.00  0.00     0.049 A 
ATOM     53  H   UNL A   1      40.463  30.053  32.490  1.00  0.00     0.167 HD
ATOM     54  C   UNL A   1      41.234  32.037  36.328  1.00  0.00     0.034 A 
ATOM     55  C   UNL A   1      41.060  28.300  30.386  1.00  0.00     0.034 A 
ATOM     56  C   UNL A   1      42.232  31.000  36.221  1.00  0.00     0.049 A 
ATOM     57  C   UNL A   1      42.111  28.069  31.446  1.00  0.00     0.074 A 
ATOM     58  C   UNL A   1      43.203  30.644  37.143  1.00  0.00     0.029 A 
ATOM     59  N   UNL A   1      42.399  30.160  35.129  1.00  0.00    -0.354 N 
ATOM     60  N   UNL A   1      42.259  28.664  32.608  1.00  0.00    -0.248 NA
ATOM     61  C   UNL A   1      43.110  27.030  31.172  1.00  0.00     0.031 C 
ATOM     62  C   UNL A   1      44.001  29.643  36.579  1.00  0.00     0.029 A 
ATOM     63  C   UNL A   1      43.475  29.310  35.341  1.00  0.00     0.049 A 
ATOM     64  H   UNL A   1      41.835  30.166  34.322  1.00  0.00     0.167 HD
ATOM     65  C   UNL A   1      43.343  28.035  33.219  1.00  0.00     0.074 A 
ATOM     66  C   UNL A   1      43.791  27.005  32.307  1.00  0.00     0.031 C 
ATOM     67  C   UNL A   1      43.914  28.284  34.425  1.00  0.00     0.034 A 
BRANCH  54  68
ATOM     68  C   UNL A   1      41.280  32.951  37.531  1.00  0.00     0.023 A 
ATOM     69  C   UNL A   1      40.612  32.646  38.728  1.00  0.00     0.031 A 
ATOM     70  C   UNL A   1      42.029  34.142  37.479  1.00  0.00     0.131 A 
ATOM     71  C   UNL A   1      40.662  33.544  39.807  1.00  0.00     0.055 A 
ATOM     72  C   UNL A   1      42.135  34.995  38.580  1.00  0.00     0.041 A 
ATOM     73  F   UNL A   1      42.673  34.496  36.355  1.00  0.00    -0.206 F 
ATOM     74  C   UNL A   1      41.441  34.703  39.750  1.00  0.00     0.022 A 
BRANCH  71  75
ATOM     75  S   UNL A   1      39.610  33.232  41.250  1.00  0.00     0.124 S 
ATOM     76  O   UNL A   1      38.296  33.630  40.749  1.00  0.00    -0.237 OA
ATOM     77  O   UNL A   1      39.800  31.804  41.478  1.00  0.00    -0.237 OA
ATOM     78  O   UNL A   1      40.168  34.108  42.278  1.00  0.00    -0.744 OA
ENDBRANCH  71  75
ENDBRANCH  54  68
BRANCH  55  79
ATOM     79  C   UNL A   1      41.103  27.535  29.104  1.00  0.00     0.023 A 
ATOM     80  C   UNL A   1      42.110  27.766  28.153  1.00  0.00     0.031 A 
ATOM     81  C   UNL A   1      40.084  26.623  28.770  1.00  0.00     0.131 A 
ATOM     82  C   UNL A   1      42.038  27.155  26.891  1.00  0.00     0.055 A 
ATOM     83  C   UNL A   1      40.055  25.966  27.538  1.00  0.00     0.041 A 
ATOM     84  F   UNL A   1      39.095  26.360  29.640  1.00  0.00    -0.206 F 
ATOM     85  C   UNL A   1      41.024  26.246  26.582  1.00  0.00     0.022 A 
BRANCH  82  86
ATOM     86  S   UNL A   1      43.215  27.671  25.609  1.00  0.00     0.124 S 
ATOM     87  O   UNL A   1      43.998  26.456  25.419  1.00  0.00    -0.237 OA
ATOM     88  O   UNL A   1      42.325  28.039  24.514  1.00  0.00    -0.237 OA
ATOM     89  O   UNL A   1      43.928  28.785  26.232  1.00  0.00    -0.744 OA
ENDBRANCH  82  86
ENDBRANCH  55  79
BRANCH  67  90
ATOM     90  C   UNL A   1      45.047  27.377  34.848  1.00  0.00     0.023 A 
ATOM     91  C   UNL A   1      44.818  26.156  35.508  1.00  0.00     0.031 A 
ATOM     92  C   UNL A   1      46.381  27.763  34.622  1.00  0.00     0.131 A 
ATOM     93  C   UNL A   1      45.902  25.407  35.989  1.00  0.00     0.055 A 
ATOM     94  C   UNL A   1      47.455  26.975  35.036  1.00  0.00     0.041 A 
ATOM     95  F   UNL A   1      46.662  28.918  33.998  1.00  0.00    -0.206 F 
ATOM     96  C   UNL A   1      47.219  25.799  35.741  1.00  0.00     0.022 A 
BRANCH  93  97
ATOM     97  S   UNL A   1      45.566  23.979  37.057  1.00  0.00     0.124 S 
ATOM     98  O   UNL A   1      46.910  23.573  37.453  1.00  0.00    -0.237 OA
ATOM     99  O   UNL A   1      44.742  24.565  38.109  1.00  0.00    -0.237 OA
ATOM    100  O   UNL A   1      44.871  23.045  36.173  1.00  0.00    -0.744 OA
ENDBRANCH  93  97
ENDBRANCH  67  90
ENDBRANCH  41  42
ENDBRANCH  33  36
ENDBRANCH  31  32
ENDBRANCH  30  31
ENDBRANCH   1  30
TORSDOF 18
ENDMDL
MODEL 2
REMARK VINA RESULT:     -12.1      2.132      7.972
REMARK SMILES CC1=NN(c2ccc(Cl)cc2)C(=O)/C1=C/c1ccccc1OCC(=O)NCCCCNC(=O)c1ccc(-c2c3nc(c(-c4cc(S(=O)(=O)[O-])ccc4F)c4ccc([nH]4)c(-c4cc(S(=O)(=O)[O-])ccc4F)c4nc(c(-c5cc(S(=O)(=O)[O-])ccc5F)c5ccc2[nH]5)C=C4)C=C3)cc1
REMARK SMILES IDX 28 1 27 2 26 3 24 4 25 5 23 7 22 8 21 9 16 10 17 11 18 12
REMARK SMILES IDX 20 13 19 14 15 15 1 16 2 17 3 18 14 19 4 20 12 21 13 22 5 23
REMARK SMILES IDX 6 24 11 25 7 26 10 27 8 28 9 29 29 30 30 31 31 32 32 33
REMARK SMILES IDX 33 35 34 36 35 37 96 38 36 39 95 40 37 41 38 42 39 43 89 44
REMARK SMILES IDX 40 45 94 46 88 47 90 48 41 49 93 50 87 51 86 52 42 54 74 55
REMARK SMILES IDX 54 56 73 57 55 58 58 59 72 60 91 61 56 62 57 63 71 65 92 66
REMARK SMILES IDX 59 67 43 68 44 69 52 70 45 71 51 72 53 73 50 74 46 75 47 76
REMARK SMILES IDX 48 77 49 78 75 79 76 80 84 81 77 82 83 83 85 84 82 85 78 86
REMARK SMILES IDX 79 87 80 88 81 89 60 90 61 91 69 92 62 93 68 94 70 95 67 96
REMARK SMILES IDX 63 97 64 98 65 99 66 100
REMARK H PARENT 26 6 31 34 90 53 58 64
REMARK Flexibility Score: inf
ROOT
ATOM      1  C   UNL A   1      31.587  30.676  26.741  1.00  0.00     0.023 C 
ENDROOT
BRANCH   1   2
ATOM      2  C   UNL A   1      31.580  30.029  25.358  1.00  0.00     0.116 C 
BRANCH   2   3
ATOM      3  N   UNL A   1      32.884  29.722  24.809  1.00  0.00    -0.353 N 
ATOM      4  C   UNL A   1      33.464  28.486  24.734  1.00  0.00     0.257 C 
ATOM      5  O   UNL A   1      34.251  28.263  23.812  1.00  0.00    -0.271 OA
ATOM      6  H   UNL A   1      33.405  30.478  24.455  1.00  0.00     0.163 HD
BRANCH   4   7
ATOM      7  C   UNL A   1      33.119  27.389  25.744  1.00  0.00     0.329 C 
BRANCH   7   8
ATOM      8  O   UNL A   1      33.395  26.057  25.369  1.00  0.00    -0.483 OA
BRANCH   8   9
ATOM      9  C   UNL A   1      32.582  25.306  24.572  1.00  0.00     0.127 A 
ATOM     10  C   UNL A   1      32.868  24.239  23.702  1.00  0.00     0.017 A 
ATOM     11  C   UNL A   1      31.807  23.611  23.018  1.00  0.00     0.012 A 
ATOM     12  C   UNL A   1      30.485  24.027  23.188  1.00  0.00     0.001 A 
ATOM     13  C   UNL A   1      31.243  25.711  24.723  1.00  0.00     0.047 A 
ATOM     14  C   UNL A   1      30.203  25.085  24.040  1.00  0.00     0.004 A 
BRANCH  10  15
ATOM     15  C   UNL A   1      34.201  23.713  23.408  1.00  0.00     0.027 C 
ATOM     16  C   UNL A   1      33.048  21.609  25.617  1.00  0.00     0.069 C 
ATOM     17  C   UNL A   1      34.430  21.752  25.080  1.00  0.00     0.071 C 
ATOM     18  N   UNL A   1      35.450  21.064  25.523  1.00  0.00    -0.169 NA
ATOM     19  C   UNL A   1      34.809  22.683  24.008  1.00  0.00     0.066 C 
ATOM     20  N   UNL A   1      36.557  21.501  24.790  1.00  0.00    -0.196 N 
ATOM     21  C   UNL A   1      36.248  22.413  23.767  1.00  0.00     0.280 C 
ATOM     22  O   UNL A   1      36.922  22.923  22.894  1.00  0.00    -0.267 OA
BRANCH  20  23
ATOM     23  C   UNL A   1      37.851  21.153  25.243  1.00  0.00     0.069 A 
ATOM     24  C   UNL A   1      38.670  22.097  25.880  1.00  0.00     0.030 A 
ATOM     25  C   UNL A   1      38.318  19.834  25.131  1.00  0.00     0.030 A 
ATOM     26  C   UNL A   1      39.921  21.738  26.391  1.00  0.00     0.023 A 
ATOM     27  C   UNL A   1      39.581  19.477  25.619  1.00  0.00     0.023 A 
ATOM     28  C   UNL A   1      40.375  20.430  26.251  1.00  0.00     0.041 A 
ATOM     29  Cl  UNL A   1      41.920  19.995  26.868  1.00  0.00    -0.084 Cl
ENDBRANCH  20  23
ENDBRANCH  10  15
ENDBRANCH   8   9
ENDBRANCH   7   8
ENDBRANCH   4   7
ENDBRANCH   2   3
ENDBRANCH   1   2
BRANCH   1  30
ATOM     30  C   UNL A   1      31.566  32.205  26.810  1.00  0.00     0.023 C 
BRANCH  30  31
ATOM     31  C   UNL A   1      32.894  32.918  27.026  1.00  0.00     0.116 C 
BRANCH  31  32
ATOM     32  N   UNL A   1      32.738  34.225  27.633  1.00  0.00    -0.352 N 
ATOM     33  C   UNL A   1      33.346  34.763  28.741  1.00  0.00     0.251 C 
ATOM     34  H   UNL A   1      32.098  34.819  27.180  1.00  0.00     0.163 HD
ATOM     35  O   UNL A   1      32.937  35.842  29.167  1.00  0.00    -0.269 OA
BRANCH  33  36
ATOM     36  C   UNL A   1      34.452  34.062  29.441  1.00  0.00     0.039 A 
ATOM     37  C   UNL A   1      35.759  34.515  29.234  1.00  0.00     0.014 A 
ATOM     38  C   UNL A   1      34.233  32.941  30.247  1.00  0.00     0.014 A 
ATOM     39  C   UNL A   1      36.832  33.877  29.864  1.00  0.00     0.010 A 
ATOM     40  C   UNL A   1      35.300  32.350  30.933  1.00  0.00     0.010 A 
ATOM     41  C   UNL A   1      36.613  32.802  30.740  1.00  0.00    -0.014 A 
BRANCH  41  42
ATOM     42  C   UNL A   1      37.753  32.141  31.437  1.00  0.00     0.031 A 
ATOM     43  C   UNL A   1      38.538  31.050  30.751  1.00  0.00     0.074 A 
ATOM     44  C   UNL A   1      38.063  32.499  32.701  1.00  0.00     0.049 A 
ATOM     45  N   UNL A   1      39.544  30.344  31.204  1.00  0.00    -0.248 NA
ATOM     46  C   UNL A   1      38.122  30.687  29.388  1.00  0.00     0.031 C 
ATOM     47  C   UNL A   1      37.354  33.510  33.489  1.00  0.00     0.029 A 
ATOM     48  N   UNL A   1      39.048  32.054  33.549  1.00  0.00    -0.354 N 
ATOM     49  C   UNL A   1      39.865  29.442  30.193  1.00  0.00     0.074 A 
ATOM     50  C   UNL A   1      38.918  29.661  29.121  1.00  0.00     0.031 C 
ATOM     51  C   UNL A   1      37.940  33.624  34.692  1.00  0.00     0.029 A 
ATOM     52  C   UNL A   1      39.039  32.668  34.782  1.00  0.00     0.049 A 
ATOM     53  H   UNL A   1      39.700  31.361  33.299  1.00  0.00     0.167 HD
ATOM     54  C   UNL A   1      40.865  28.526  30.157  1.00  0.00     0.034 A 
ATOM     55  C   UNL A   1      39.820  32.477  35.866  1.00  0.00     0.034 A 
ATOM     56  C   UNL A   1      41.822  28.339  31.221  1.00  0.00     0.049 A 
ATOM     57  C   UNL A   1      40.934  31.461  35.790  1.00  0.00     0.074 A 
ATOM     58  C   UNL A   1      42.920  27.495  31.250  1.00  0.00     0.029 A 
ATOM     59  N   UNL A   1      41.795  28.994  32.445  1.00  0.00    -0.354 N 
ATOM     60  N   UNL A   1      41.269  30.673  34.793  1.00  0.00    -0.248 NA
ATOM     61  C   UNL A   1      41.789  31.325  36.975  1.00  0.00     0.031 C 
ATOM     62  C   UNL A   1      43.510  27.584  32.515  1.00  0.00     0.029 A 
ATOM     63  C   UNL A   1      42.837  28.548  33.247  1.00  0.00     0.049 A 
ATOM     64  H   UNL A   1      41.134  29.674  32.706  1.00  0.00     0.167 HD
ATOM     65  C   UNL A   1      42.401  29.982  35.222  1.00  0.00     0.074 A 
ATOM     66  C   UNL A   1      42.701  30.464  36.552  1.00  0.00     0.031 C 
ATOM     67  C   UNL A   1      43.128  29.036  34.573  1.00  0.00     0.034 A 
BRANCH  54  68
ATOM     68  C   UNL A   1      40.964  27.632  28.943  1.00  0.00     0.023 A 
ATOM     69  C   UNL A   1      41.968  27.795  27.973  1.00  0.00     0.031 A 
ATOM     70  C   UNL A   1      40.043  26.582  28.767  1.00  0.00     0.131 A 
ATOM     71  C   UNL A   1      41.998  26.956  26.848  1.00  0.00     0.055 A 
ATOM     72  C   UNL A   1      40.123  25.704  27.683  1.00  0.00     0.041 A 
ATOM     73  F   UNL A   1      39.050  26.389  29.650  1.00  0.00    -0.206 F 
ATOM     74  C   UNL A   1      41.099  25.895  26.710  1.00  0.00     0.022 A 
BRANCH  71  75
ATOM     75  S   UNL A   1      43.162  27.335  25.510  1.00  0.00     0.124 S 
ATOM     76  O   UNL A   1      42.314  28.080  24.583  1.00  0.00    -0.237 OA
ATOM     77  O   UNL A   1      44.192  28.107  26.195  1.00  0.00    -0.237 OA
ATOM     78  O   UNL A   1      43.582  26.017  25.037  1.00  0.00    -0.744 OA
ENDBRANCH  71  75
ENDBRANCH  54  68
BRANCH  55  79
ATOM     79  C   UNL A   1      39.586  33.244  37.127  1.00  0.00     0.023 A 
ATOM     80  C   UNL A   1      38.889  32.675  38.205  1.00  0.00     0.031 A 
ATOM     81  C   UNL A   1      39.978  34.591  37.238  1.00  0.00     0.131 A 
ATOM     82  C   UNL A   1      38.540  33.466  39.311  1.00  0.00     0.055 A 
ATOM     83  C   UNL A   1      39.687  35.355  38.371  1.00  0.00     0.041 A 
ATOM     84  F   UNL A   1      40.649  35.189  36.240  1.00  0.00    -0.206 F 
ATOM     85  C   UNL A   1      38.946  34.798  39.407  1.00  0.00     0.022 A 
BRANCH  82  86
ATOM     86  S   UNL A   1      37.429  32.764  40.563  1.00  0.00     0.124 S 
ATOM     87  O   UNL A   1      36.120  33.000  39.964  1.00  0.00    -0.237 OA
ATOM     88  O   UNL A   1      37.871  31.375  40.613  1.00  0.00    -0.237 OA
ATOM     89  O   UNL A   1      37.722  33.554  41.758  1.00  0.00    -0.744 OA
ENDBRANCH  82  86
ENDBRANCH  55  79
BRANCH  67  90
ATOM     90  C   UNL A   1      44.360  28.514  35.278  1.00  0.00     0.023 A 
ATOM     91  C   UNL A   1      44.296  27.460  36.207  1.00  0.00     0.031 A 
ATOM     92  C   UNL A   1      45.612  29.111  35.044  1.00  0.00     0.131 A 
ATOM     93  C   UNL A   1      45.442  27.092  36.926  1.00  0.00     0.055 A 
ATOM     94  C   UNL A   1      46.764  28.688  35.707  1.00  0.00     0.041 A 
ATOM     95  F   UNL A   1      45.735  30.122  34.169  1.00  0.00    -0.206 F 
ATOM     96  C   UNL A   1      46.680  27.686  36.669  1.00  0.00     0.022 A 
BRANCH  93  97
ATOM     97  S   UNL A   1      45.269  25.914  38.296  1.00  0.00     0.124 S 
ATOM     98  O   UNL A   1      46.660  25.619  38.621  1.00  0.00    -0.237 OA
ATOM     99  O   UNL A   1      44.535  26.695  39.286  1.00  0.00    -0.237 OA
ATOM    100  O   UNL A   1      44.521  24.807  37.703  1.00  0.00    -0.744 OA
ENDBRANCH  93  97
ENDBRANCH  67  90
ENDBRANCH  41  42
ENDBRANCH  33  36
ENDBRANCH  31  32
ENDBRANCH  30  31
ENDBRANCH   1  30
TORSDOF 18
ENDMDL
MODEL 3
REMARK VINA RESULT:     -12.0      2.657      8.467
REMARK SMILES CC1=NN(c2ccc(Cl)cc2)C(=O)/C1=C/c1ccccc1OCC(=O)NCCCCNC(=O)c1ccc(-c2c3nc(c(-c4cc(S(=O)(=O)[O-])ccc4F)c4ccc([nH]4)c(-c4cc(S(=O)(=O)[O-])ccc4F)c4nc(c(-c5cc(S(=O)(=O)[O-])ccc5F)c5ccc2[nH]5)C=C4)C=C3)cc1
REMARK SMILES IDX 28 1 27 2 26 3 24 4 25 5 23 7 22 8 21 9 16 10 17 11 18 12
REMARK SMILES IDX 20 13 19 14 15 15 1 16 2 17 3 18 14 19 4 20 12 21 13 22 5 23
REMARK SMILES IDX 6 24 11 25 7 26 10 27 8 28 9 29 29 30 30 31 31 32 32 33
REMARK SMILES IDX 33 35 34 36 35 37 96 38 36 39 95 40 37 41 38 42 39 43 89 44
REMARK SMILES IDX 40 45 94 46 88 47 90 48 41 49 93 50 87 51 86 52 42 54 74 55
REMARK SMILES IDX 54 56 73 57 55 58 58 59 72 60 91 61 56 62 57 63 71 65 92 66
REMARK SMILES IDX 59 67 43 68 44 69 52 70 45 71 51 72 53 73 50 74 46 75 47 76
REMARK SMILES IDX 48 77 49 78 75 79 76 80 84 81 77 82 83 83 85 84 82 85 78 86
REMARK SMILES IDX 79 87 80 88 81 89 60 90 61 91 69 92 62 93 68 94 70 95 67 96
REMARK SMILES IDX 63 97 64 98 65 99 66 100
REMARK H PARENT 26 6 31 34 90 53 58 64
REMARK Flexibility Score: inf
ROOT
ATOM      1  C   UNL A   1      31.863  29.933  27.259  1.00  0.00     0.023 C 
ENDROOT
BRANCH   1   2
ATOM      2  C   UNL A   1      31.907  28.870  26.165  1.00  0.00     0.116 C 
BRANCH   2   3
ATOM      3  N   UNL A   1      33.039  28.949  25.265  1.00  0.00    -0.353 N 
ATOM      4  C   UNL A   1      33.661  27.899  24.648  1.00  0.00     0.257 C 
ATOM      5  O   UNL A   1      34.191  28.095  23.553  1.00  0.00    -0.271 OA
ATOM      6  H   UNL A   1      33.396  29.846  25.080  1.00  0.00     0.163 HD
BRANCH   4   7
ATOM      7  C   UNL A   1      33.667  26.504  25.276  1.00  0.00     0.329 C 
BRANCH   7   8
ATOM      8  O   UNL A   1      34.207  25.452  24.506  1.00  0.00    -0.483 OA
BRANCH   8   9
ATOM      9  C   UNL A   1      33.597  24.244  24.334  1.00  0.00     0.127 A 
ATOM     10  C   UNL A   1      32.241  23.905  24.180  1.00  0.00     0.017 A 
ATOM     11  C   UNL A   1      31.893  22.554  23.976  1.00  0.00     0.012 A 
ATOM     12  C   UNL A   1      32.864  21.552  23.927  1.00  0.00     0.001 A 
ATOM     13  C   UNL A   1      34.557  23.216  24.286  1.00  0.00     0.047 A 
ATOM     14  C   UNL A   1      34.201  21.884  24.088  1.00  0.00     0.004 A 
BRANCH  10  15
ATOM     15  C   UNL A   1      31.118  24.840  24.232  1.00  0.00     0.027 C 
ATOM     16  C   UNL A   1      32.559  25.578  21.402  1.00  0.00     0.069 C 
ATOM     17  C   UNL A   1      31.490  26.310  22.135  1.00  0.00     0.071 C 
ATOM     18  N   UNL A   1      31.024  27.473  21.760  1.00  0.00    -0.169 NA
ATOM     19  C   UNL A   1      30.849  25.824  23.365  1.00  0.00     0.066 C 
ATOM     20  N   UNL A   1      30.066  27.829  22.712  1.00  0.00    -0.196 N 
ATOM     21  C   UNL A   1      29.812  26.839  23.675  1.00  0.00     0.280 C 
ATOM     22  O   UNL A   1      29.002  26.763  24.577  1.00  0.00    -0.267 OA
BRANCH  20  23
ATOM     23  C   UNL A   1      29.598  29.164  22.736  1.00  0.00     0.069 A 
ATOM     24  C   UNL A   1      29.860  30.000  23.833  1.00  0.00     0.030 A 
ATOM     25  C   UNL A   1      28.924  29.707  21.632  1.00  0.00     0.030 A 
ATOM     26  C   UNL A   1      29.461  31.340  23.830  1.00  0.00     0.023 A 
ATOM     27  C   UNL A   1      28.501  31.042  21.636  1.00  0.00     0.023 A 
ATOM     28  C   UNL A   1      28.774  31.853  22.734  1.00  0.00     0.041 A 
ATOM     29  Cl  UNL A   1      28.271  33.498  22.738  1.00  0.00    -0.084 Cl
ENDBRANCH  20  23
ENDBRANCH  10  15
ENDBRANCH   8   9
ENDBRANCH   7   8
ENDBRANCH   4   7
ENDBRANCH   2   3
ENDBRANCH   1   2
BRANCH   1  30
ATOM     30  C   UNL A   1      31.611  31.382  26.833  1.00  0.00     0.023 C 
BRANCH  30  31
ATOM     31  C   UNL A   1      32.812  32.314  26.758  1.00  0.00     0.116 C 
BRANCH  31  32
ATOM     32  N   UNL A   1      32.537  33.630  27.299  1.00  0.00    -0.352 N 
ATOM     33  C   UNL A   1      33.092  34.277  28.376  1.00  0.00     0.251 C 
ATOM     34  H   UNL A   1      31.845  34.139  26.819  1.00  0.00     0.163 HD
ATOM     35  O   UNL A   1      32.586  35.334  28.749  1.00  0.00    -0.269 OA
BRANCH  33  36
ATOM     36  C   UNL A   1      34.258  33.716  29.105  1.00  0.00     0.039 A 
ATOM     37  C   UNL A   1      34.027  32.699  30.038  1.00  0.00     0.014 A 
ATOM     38  C   UNL A   1      35.555  34.205  28.929  1.00  0.00     0.014 A 
ATOM     39  C   UNL A   1      35.094  32.149  30.756  1.00  0.00     0.010 A 
ATOM     40  C   UNL A   1      36.629  33.604  29.594  1.00  0.00     0.010 A 
ATOM     41  C   UNL A   1      36.411  32.578  30.525  1.00  0.00    -0.014 A 
BRANCH  41  42
ATOM     42  C   UNL A   1      37.553  31.970  31.265  1.00  0.00     0.031 A 
ATOM     43  C   UNL A   1      38.395  30.896  30.621  1.00  0.00     0.074 A 
ATOM     44  C   UNL A   1      37.815  32.361  32.531  1.00  0.00     0.049 A 
ATOM     45  N   UNL A   1      39.412  30.234  31.114  1.00  0.00    -0.248 NA
ATOM     46  C   UNL A   1      38.031  30.496  29.254  1.00  0.00     0.031 C 
ATOM     47  C   UNL A   1      37.048  33.359  33.280  1.00  0.00     0.029 A 
ATOM     48  N   UNL A   1      38.790  31.966  33.414  1.00  0.00    -0.354 N 
ATOM     49  C   UNL A   1      39.793  29.327  30.130  1.00  0.00     0.074 A 
ATOM     50  C   UNL A   1      38.869  29.494  29.028  1.00  0.00     0.031 C 
ATOM     51  C   UNL A   1      37.596  33.514  34.497  1.00  0.00     0.029 A 
ATOM     52  C   UNL A   1      38.724  32.600  34.635  1.00  0.00     0.049 A 
ATOM     53  H   UNL A   1      39.473  31.292  33.194  1.00  0.00     0.167 HD
ATOM     54  C   UNL A   1      40.825  28.447  30.138  1.00  0.00     0.034 A 
ATOM     55  C   UNL A   1      39.481  32.455  35.743  1.00  0.00     0.034 A 
ATOM     56  C   UNL A   1      41.757  28.312  31.231  1.00  0.00     0.049 A 
ATOM     57  C   UNL A   1      40.632  31.478  35.716  1.00  0.00     0.074 A 
ATOM     58  C   UNL A   1      42.883  27.508  31.306  1.00  0.00     0.029 A 
ATOM     59  N   UNL A   1      41.673  28.986  32.442  1.00  0.00    -0.354 N 
ATOM     60  N   UNL A   1      41.022  30.686  34.744  1.00  0.00    -0.248 NA
ATOM     61  C   UNL A   1      41.456  31.393  36.927  1.00  0.00     0.031 C 
ATOM     62  C   UNL A   1      43.434  27.639  32.585  1.00  0.00     0.029 A 
ATOM     63  C   UNL A   1      42.706  28.591  33.280  1.00  0.00     0.049 A 
ATOM     64  H   UNL A   1      40.981  29.647  32.672  1.00  0.00     0.167 HD
ATOM     65  C   UNL A   1      42.165  30.043  35.216  1.00  0.00     0.074 A 
ATOM     66  C   UNL A   1      42.410  30.558  36.546  1.00  0.00     0.031 C 
ATOM     67  C   UNL A   1      42.943  29.113  34.605  1.00  0.00     0.034 A 
BRANCH  54  68
ATOM     68  C   UNL A   1      40.989  27.536  28.943  1.00  0.00     0.023 A 
ATOM     69  C   UNL A   1      41.966  27.762  27.959  1.00  0.00     0.031 A 
ATOM     70  C   UNL A   1      40.161  26.406  28.802  1.00  0.00     0.131 A 
ATOM     71  C   UNL A   1      42.058  26.902  26.853  1.00  0.00     0.055 A 
ATOM     72  C   UNL A   1      40.307  25.514  27.738  1.00  0.00     0.041 A 
ATOM     73  F   UNL A   1      39.197  26.150  29.700  1.00  0.00    -0.206 F 
ATOM     74  C   UNL A   1      41.253  25.765  26.749  1.00  0.00     0.022 A 
BRANCH  71  75
ATOM     75  S   UNL A   1      43.172  27.348  25.493  1.00  0.00     0.124 S 
ATOM     76  O   UNL A   1      43.557  26.035  24.983  1.00  0.00    -0.237 OA
ATOM     77  O   UNL A   1      42.311  28.144  24.626  1.00  0.00    -0.237 OA
ATOM     78  O   UNL A   1      44.244  28.089  26.157  1.00  0.00    -0.744 OA
ENDBRANCH  71  75
ENDBRANCH  54  68
BRANCH  55  79
ATOM     79  C   UNL A   1      39.184  33.235  36.983  1.00  0.00     0.023 A 
ATOM     80  C   UNL A   1      39.803  34.472  37.229  1.00  0.00     0.031 A 
ATOM     81  C   UNL A   1      38.342  32.714  37.982  1.00  0.00     0.131 A 
ATOM     82  C   UNL A   1      39.634  35.107  38.470  1.00  0.00     0.055 A 
ATOM     83  C   UNL A   1      38.124  33.383  39.188  1.00  0.00     0.041 A 
ATOM     84  F   UNL A   1      37.721  31.537  37.802  1.00  0.00    -0.206 F 
ATOM     85  C   UNL A   1      38.788  34.577  39.446  1.00  0.00     0.022 A 
BRANCH  82  86
ATOM     86  S   UNL A   1      40.646  36.567  38.841  1.00  0.00     0.124 S 
ATOM     87  O   UNL A   1      41.226  36.207  40.129  1.00  0.00    -0.237 OA
ATOM     88  O   UNL A   1      41.563  36.594  37.708  1.00  0.00    -0.237 OA
ATOM     89  O   UNL A   1      39.670  37.655  38.877  1.00  0.00    -0.744 OA
ENDBRANCH  82  86
ENDBRANCH  55  79
BRANCH  67  90
ATOM     90  C   UNL A   1      44.171  28.647  35.353  1.00  0.00     0.023 A 
ATOM     91  C   UNL A   1      44.124  27.585  36.275  1.00  0.00     0.031 A 
ATOM     92  C   UNL A   1      45.401  29.305  35.169  1.00  0.00     0.131 A 
ATOM     93  C   UNL A   1      45.260  27.268  37.034  1.00  0.00     0.055 A 
ATOM     94  C   UNL A   1      46.547  28.934  35.873  1.00  0.00     0.041 A 
ATOM     95  F   UNL A   1      45.507  30.326  34.304  1.00  0.00    -0.206 F 
ATOM     96  C   UNL A   1      46.476  27.924  36.827  1.00  0.00     0.022 A 
BRANCH  93  97
ATOM     97  S   UNL A   1      45.093  26.075  38.392  1.00  0.00     0.124 S 
ATOM     98  O   UNL A   1      44.631  24.882  37.692  1.00  0.00    -0.237 OA
ATOM     99  O   UNL A   1      46.450  26.017  38.923  1.00  0.00    -0.237 OA
ATOM    100  O   UNL A   1      44.108  26.697  39.275  1.00  0.00    -0.744 OA
ENDBRANCH  93  97
ENDBRANCH  67  90
ENDBRANCH  41  42
ENDBRANCH  33  36
ENDBRANCH  31  32
ENDBRANCH  30  31
ENDBRANCH   1  30
TORSDOF 18
ENDMDL
