MODEL 1
REMARK VINA RESULT:     -13.8      0.000      0.000
REMARK SMILES COc1cc2ccccc2cc1C(=O)Nc1cc(C(=O)NCCCCNC(=O)c2ccc(-c3c4nc(c(-c5cc(S(=O)(=O)[O-])ccc5F)c5ccc([nH]5)c(-c5cc(S(=O)(=O)[O-])ccc5F)c5nc(c(-c6cc(S(=O)(=O)[O-])ccc6F)c6ccc3[nH]6)C=C5)C=C4)cc2)ccc1C
REMARK SMILES IDX 23 1 22 2 21 3 19 4 20 5 18 7 16 8 17 9 94 10 93 11 95 12
REMARK SMILES IDX 92 13 15 14 13 15 14 16 12 18 3 19 4 20 5 21 11 22 6 23
REMARK SMILES IDX 10 24 7 25 9 26 8 27 2 28 1 29 24 30 25 31 26 32 27 33 28 35
REMARK SMILES IDX 29 36 30 37 91 38 31 39 90 40 32 41 33 42 34 43 84 44 35 45
REMARK SMILES IDX 89 46 83 47 85 48 36 49 88 50 82 51 81 52 37 54 69 55 49 56
REMARK SMILES IDX 68 57 50 58 53 59 67 60 86 61 51 62 52 63 66 65 87 66 54 67
REMARK SMILES IDX 38 68 39 69 47 70 40 71 46 72 48 73 45 74 41 75 42 76 43 77
REMARK SMILES IDX 44 78 70 79 71 80 79 81 72 82 78 83 80 84 77 85 73 86 74 87
REMARK SMILES IDX 75 88 76 89 55 90 56 91 64 92 57 93 63 94 65 95 62 96 58 97
REMARK SMILES IDX 59 98 60 99 61 100
REMARK H PARENT 21 6 15 17 26 34 85 53 53 64
REMARK Flexibility Score: inf
ROOT
ATOM      1  C   UNL A   1      36.267  22.105  24.820  1.00  0.00     0.023 C 
ENDROOT
BRANCH   1   2
ATOM      2  C   UNL A   1      35.555  21.009  25.628  1.00  0.00     0.116 C 
BRANCH   2   3
ATOM      3  N   UNL A   1      35.014  21.519  26.876  1.00  0.00    -0.352 N 
ATOM      4  C   UNL A   1      33.997  22.386  27.186  1.00  0.00     0.251 C 
ATOM      5  O   UNL A   1      33.819  22.613  28.387  1.00  0.00    -0.269 OA
ATOM      6  H   UNL A   1      35.477  21.167  27.670  1.00  0.00     0.163 HD
BRANCH   4   7
ATOM      7  C   UNL A   1      33.083  23.037  26.195  1.00  0.00     0.041 A 
ATOM      8  C   UNL A   1      32.591  24.302  24.174  1.00  0.00     0.045 A 
ATOM      9  C   UNL A   1      33.471  23.924  25.196  1.00  0.00     0.040 A 
ATOM     10  C   UNL A   1      31.225  23.999  24.257  1.00  0.00    -0.027 A 
ATOM     11  C   UNL A   1      30.811  23.150  25.290  1.00  0.00     0.006 A 
ATOM     12  C   UNL A   1      30.240  24.353  23.180  1.00  0.00     0.046 C 
ATOM     13  C   UNL A   1      31.732  22.650  26.221  1.00  0.00     0.014 A 
BRANCH   8  14
ATOM     14  N   UNL A   1      33.119  24.834  22.984  1.00  0.00    -0.322 N 
ATOM     15  C   UNL A   1      33.228  26.177  22.648  1.00  0.00     0.259 C 
ATOM     16  O   UNL A   1      33.772  26.486  21.588  1.00  0.00    -0.269 OA
ATOM     17  H   UNL A   1      33.446  24.186  22.319  1.00  0.00     0.170 HD
BRANCH  15  18
ATOM     18  C   UNL A   1      32.824  27.256  23.594  1.00  0.00     0.082 A 
ATOM     19  C   UNL A   1      31.623  27.973  23.472  1.00  0.00     0.132 A 
ATOM     20  C   UNL A   1      31.366  29.085  24.273  1.00  0.00     0.056 A 
ATOM     21  C   UNL A   1      32.248  29.439  25.289  1.00  0.00    -0.015 A 
ATOM     22  C   UNL A   1      33.691  27.569  24.647  1.00  0.00     0.026 A 
ATOM     23  C   UNL A   1      31.979  30.549  26.106  1.00  0.00     0.009 A 
ATOM     24  C   UNL A   1      33.412  28.661  25.493  1.00  0.00    -0.017 A 
ATOM     25  C   UNL A   1      32.850  30.894  27.127  1.00  0.00     0.001 A 
ATOM     26  C   UNL A   1      34.281  29.029  26.520  1.00  0.00     0.009 A 
ATOM     27  C   UNL A   1      34.000  30.143  27.317  1.00  0.00     0.001 A 
BRANCH  19  28
ATOM     28  O   UNL A   1      30.647  27.691  22.552  1.00  0.00    -0.496 OA
ATOM     29  C   UNL A   1      29.361  27.957  23.099  1.00  0.00     0.278 C 
ENDBRANCH  19  28
ENDBRANCH  15  18
ENDBRANCH   8  14
ENDBRANCH   4   7
ENDBRANCH   2   3
ENDBRANCH   1   2
BRANCH   1  30
ATOM     30  C   UNL A   1      37.791  22.047  24.954  1.00  0.00     0.023 C 
BRANCH  30  31
ATOM     31  C   UNL A   1      38.320  23.127  25.889  1.00  0.00     0.116 C 
BRANCH  31  32
ATOM     32  N   UNL A   1      39.595  22.844  26.516  1.00  0.00    -0.352 N 
ATOM     33  C   UNL A   1      40.509  23.715  27.093  1.00  0.00     0.251 C 
ATOM     34  H   UNL A   1      39.851  21.893  26.537  1.00  0.00     0.163 HD
ATOM     35  O   UNL A   1      41.614  23.306  27.405  1.00  0.00    -0.269 OA
BRANCH  33  36
ATOM     36  C   UNL A   1      40.127  25.122  27.419  1.00  0.00     0.039 A 
ATOM     37  C   UNL A   1      40.512  26.133  26.521  1.00  0.00     0.014 A 
ATOM     38  C   UNL A   1      39.530  25.477  28.621  1.00  0.00     0.014 A 
ATOM     39  C   UNL A   1      40.468  27.474  26.909  1.00  0.00     0.010 A 
ATOM     40  C   UNL A   1      39.599  26.780  29.058  1.00  0.00     0.010 A 
ATOM     41  C   UNL A   1      40.093  27.775  28.215  1.00  0.00    -0.014 A 
BRANCH  41  42
ATOM     42  C   UNL A   1      40.244  29.076  28.846  1.00  0.00     0.031 A 
ATOM     43  C   UNL A   1      39.116  30.022  28.873  1.00  0.00     0.074 A 
ATOM     44  C   UNL A   1      41.315  29.265  29.646  1.00  0.00     0.049 A 
ATOM     45  N   UNL A   1      39.214  31.250  29.235  1.00  0.00    -0.248 NA
ATOM     46  C   UNL A   1      37.758  29.643  28.498  1.00  0.00     0.031 C 
ATOM     47  C   UNL A   1      41.504  30.273  30.690  1.00  0.00     0.029 A 
ATOM     48  N   UNL A   1      42.529  28.597  29.619  1.00  0.00    -0.354 N 
ATOM     49  C   UNL A   1      37.945  31.733  29.437  1.00  0.00     0.074 A 
ATOM     50  C   UNL A   1      37.070  30.712  28.910  1.00  0.00     0.031 C 
ATOM     51  C   UNL A   1      42.808  30.332  31.009  1.00  0.00     0.029 A 
ATOM     52  C   UNL A   1      43.503  29.509  30.036  1.00  0.00     0.049 A 
ATOM     53  H   UNL A   1      42.677  27.660  29.357  1.00  0.00     0.167 HD
ATOM     54  C   UNL A   1      37.782  32.885  30.149  1.00  0.00     0.034 A 
ATOM     55  C   UNL A   1      44.480  29.954  29.193  1.00  0.00     0.034 A 
ATOM     56  C   UNL A   1      39.078  33.421  30.582  1.00  0.00     0.049 A 
ATOM     57  C   UNL A   1      44.314  31.451  28.991  1.00  0.00     0.074 A 
ATOM     58  C   UNL A   1      39.742  33.416  31.799  1.00  0.00     0.029 A 
ATOM     59  N   UNL A   1      40.026  33.783  29.624  1.00  0.00    -0.354 N 
ATOM     60  N   UNL A   1      43.166  32.079  29.074  1.00  0.00    -0.248 NA
ATOM     61  C   UNL A   1      45.439  32.361  28.825  1.00  0.00     0.031 C 
ATOM     62  C   UNL A   1      41.115  33.690  31.548  1.00  0.00     0.029 A 
ATOM     63  C   UNL A   1      41.282  33.899  30.187  1.00  0.00     0.049 A 
ATOM     64  H   UNL A   1      39.825  33.936  28.672  1.00  0.00     0.167 HD
ATOM     65  C   UNL A   1      43.392  33.432  29.118  1.00  0.00     0.074 A 
ATOM     66  C   UNL A   1      44.827  33.556  28.904  1.00  0.00     0.031 C 
ATOM     67  C   UNL A   1      42.424  34.358  29.405  1.00  0.00     0.034 A 
BRANCH  54  68
ATOM     68  C   UNL A   1      36.448  33.366  30.678  1.00  0.00     0.023 A 
ATOM     69  C   UNL A   1      35.588  34.116  29.848  1.00  0.00     0.031 A 
ATOM     70  C   UNL A   1      35.968  33.129  31.982  1.00  0.00     0.131 A 
ATOM     71  C   UNL A   1      34.384  34.662  30.337  1.00  0.00     0.055 A 
ATOM     72  C   UNL A   1      34.806  33.726  32.490  1.00  0.00     0.041 A 
ATOM     73  F   UNL A   1      36.571  32.260  32.805  1.00  0.00    -0.206 F 
ATOM     74  C   UNL A   1      34.010  34.506  31.668  1.00  0.00     0.022 A 
BRANCH  71  75
ATOM     75  S   UNL A   1      33.289  35.557  29.200  1.00  0.00     0.124 S 
ATOM     76  O   UNL A   1      32.574  34.470  28.539  1.00  0.00    -0.237 OA
ATOM     77  O   UNL A   1      32.506  36.385  30.111  1.00  0.00    -0.237 OA
ATOM     78  O   UNL A   1      34.217  36.295  28.343  1.00  0.00    -0.744 OA
ENDBRANCH  71  75
ENDBRANCH  54  68
BRANCH  55  79
ATOM     79  C   UNL A   1      44.889  28.918  28.194  1.00  0.00     0.023 A 
ATOM     80  C   UNL A   1      45.724  27.881  28.683  1.00  0.00     0.031 A 
ATOM     81  C   UNL A   1      44.137  28.653  27.040  1.00  0.00     0.131 A 
ATOM     82  C   UNL A   1      45.632  26.584  28.155  1.00  0.00     0.055 A 
ATOM     83  C   UNL A   1      44.114  27.371  26.467  1.00  0.00     0.041 A 
ATOM     84  F   UNL A   1      43.293  29.570  26.548  1.00  0.00    -0.206 F 
ATOM     85  C   UNL A   1      44.824  26.318  27.050  1.00  0.00     0.022 A 
BRANCH  82  86
ATOM     86  S   UNL A   1      46.376  25.216  29.101  1.00  0.00     0.124 S 
ATOM     87  O   UNL A   1      47.464  24.799  28.225  1.00  0.00    -0.237 OA
ATOM     88  O   UNL A   1      46.766  25.881  30.342  1.00  0.00    -0.237 OA
ATOM     89  O   UNL A   1      45.283  24.257  29.241  1.00  0.00    -0.744 OA
ENDBRANCH  82  86
ENDBRANCH  55  79
BRANCH  67  90
ATOM     90  C   UNL A   1      42.526  35.838  29.097  1.00  0.00     0.023 A 
ATOM     91  C   UNL A   1      43.301  36.717  29.863  1.00  0.00     0.031 A 
ATOM     92  C   UNL A   1      41.946  36.395  27.928  1.00  0.00     0.131 A 
ATOM     93  C   UNL A   1      43.407  38.077  29.528  1.00  0.00     0.055 A 
ATOM     94  C   UNL A   1      42.127  37.727  27.548  1.00  0.00     0.041 A 
ATOM     95  F   UNL A   1      41.200  35.668  27.084  1.00  0.00    -0.206 F 
ATOM     96  C   UNL A   1      42.849  38.585  28.359  1.00  0.00     0.022 A 
BRANCH  93  97
ATOM     97  S   UNL A   1      44.251  39.171  30.695  1.00  0.00     0.124 S 
ATOM     98  O   UNL A   1      45.654  38.916  30.378  1.00  0.00    -0.237 OA
ATOM     99  O   UNL A   1      43.746  40.487  30.314  1.00  0.00    -0.237 OA
ATOM    100  O   UNL A   1      43.809  38.688  32.001  1.00  0.00    -0.744 OA
ENDBRANCH  93  97
ENDBRANCH  67  90
ENDBRANCH  41  42
ENDBRANCH  33  36
ENDBRANCH  31  32
ENDBRANCH  30  31
ENDBRANCH   1  30
TORSDOF 17
ENDMDL
MODEL 2
REMARK VINA RESULT:     -13.5      1.700      2.070
REMARK SMILES COc1cc2ccccc2cc1C(=O)Nc1cc(C(=O)NCCCCNC(=O)c2ccc(-c3c4nc(c(-c5cc(S(=O)(=O)[O-])ccc5F)c5ccc([nH]5)c(-c5cc(S(=O)(=O)[O-])ccc5F)c5nc(c(-c6cc(S(=O)(=O)[O-])ccc6F)c6ccc3[nH]6)C=C5)C=C4)cc2)ccc1C
REMARK SMILES IDX 23 1 22 2 21 3 19 4 20 5 18 7 16 8 17 9 94 10 93 11 95 12
REMARK SMILES IDX 92 13 15 14 13 15 14 16 12 18 3 19 4 20 5 21 11 22 6 23
REMARK SMILES IDX 10 24 7 25 9 26 8 27 2 28 1 29 24 30 25 31 26 32 27 33 28 35
REMARK SMILES IDX 29 36 30 37 91 38 31 39 90 40 32 41 33 42 34 43 84 44 35 45
REMARK SMILES IDX 89 46 83 47 85 48 36 49 88 50 82 51 81 52 37 54 69 55 49 56
REMARK SMILES IDX 68 57 50 58 53 59 67 60 86 61 51 62 52 63 66 65 87 66 54 67
REMARK SMILES IDX 38 68 39 69 47 70 40 71 46 72 48 73 45 74 41 75 42 76 43 77
REMARK SMILES IDX 44 78 70 79 71 80 79 81 72 82 78 83 80 84 77 85 73 86 74 87
REMARK SMILES IDX 75 88 76 89 55 90 56 91 64 92 57 93 63 94 65 95 62 96 58 97
REMARK SMILES IDX 59 98 60 99 61 100
REMARK H PARENT 21 6 15 17 26 34 85 53 53 64
REMARK Flexibility Score: inf
ROOT
ATOM      1  C   UNL A   1      36.357  21.460  24.580  1.00  0.00     0.023 C 
ENDROOT
BRANCH   1   2
ATOM      2  C   UNL A   1      35.275  20.636  25.294  1.00  0.00     0.116 C 
BRANCH   2   3
ATOM      3  N   UNL A   1      34.900  21.221  26.570  1.00  0.00    -0.352 N 
ATOM      4  C   UNL A   1      34.020  22.207  26.941  1.00  0.00     0.251 C 
ATOM      5  O   UNL A   1      33.969  22.468  28.148  1.00  0.00    -0.269 OA
ATOM      6  H   UNL A   1      35.382  20.826  27.333  1.00  0.00     0.163 HD
BRANCH   4   7
ATOM      7  C   UNL A   1      33.112  22.950  26.012  1.00  0.00     0.041 A 
ATOM      8  C   UNL A   1      32.625  24.332  24.067  1.00  0.00     0.045 A 
ATOM      9  C   UNL A   1      33.516  23.861  25.042  1.00  0.00     0.040 A 
ATOM     10  C   UNL A   1      31.249  24.097  24.183  1.00  0.00    -0.027 A 
ATOM     11  C   UNL A   1      30.822  23.223  25.191  1.00  0.00     0.006 A 
ATOM     12  C   UNL A   1      30.251  24.551  23.157  1.00  0.00     0.046 C 
ATOM     13  C   UNL A   1      31.744  22.633  26.067  1.00  0.00     0.014 A 
BRANCH   8  14
ATOM     14  N   UNL A   1      33.143  24.890  22.886  1.00  0.00    -0.322 N 
ATOM     15  C   UNL A   1      33.254  26.241  22.581  1.00  0.00     0.259 C 
ATOM     16  O   UNL A   1      33.788  26.573  21.523  1.00  0.00    -0.269 OA
ATOM     17  H   UNL A   1      33.462  24.257  22.202  1.00  0.00     0.170 HD
BRANCH  15  18
ATOM     18  C   UNL A   1      32.864  27.298  23.556  1.00  0.00     0.082 A 
ATOM     19  C   UNL A   1      31.684  28.050  23.442  1.00  0.00     0.132 A 
ATOM     20  C   UNL A   1      31.443  29.141  24.276  1.00  0.00     0.056 A 
ATOM     21  C   UNL A   1      32.318  29.439  25.315  1.00  0.00    -0.015 A 
ATOM     22  C   UNL A   1      33.723  27.554  24.631  1.00  0.00     0.026 A 
ATOM     23  C   UNL A   1      32.065  30.527  26.165  1.00  0.00     0.009 A 
ATOM     24  C   UNL A   1      33.459  28.624  25.509  1.00  0.00    -0.017 A 
ATOM     25  C   UNL A   1      32.930  30.816  27.209  1.00  0.00     0.001 A 
ATOM     26  C   UNL A   1      34.322  28.936  26.561  1.00  0.00     0.009 A 
ATOM     27  C   UNL A   1      34.058  30.029  27.390  1.00  0.00     0.001 A 
BRANCH  19  28
ATOM     28  O   UNL A   1      30.714  27.823  22.499  1.00  0.00    -0.496 OA
ATOM     29  C   UNL A   1      29.553  28.594  22.789  1.00  0.00     0.278 C 
ENDBRANCH  19  28
ENDBRANCH  15  18
ENDBRANCH   8  14
ENDBRANCH   4   7
ENDBRANCH   2   3
ENDBRANCH   1   2
BRANCH   1  30
ATOM     30  C   UNL A   1      37.775  21.096  25.031  1.00  0.00     0.023 C 
BRANCH  30  31
ATOM     31  C   UNL A   1      38.482  22.275  25.687  1.00  0.00     0.116 C 
BRANCH  31  32
ATOM     32  N   UNL A   1      39.899  22.097  25.937  1.00  0.00    -0.352 N 
ATOM     33  C   UNL A   1      40.856  23.033  26.304  1.00  0.00     0.251 C 
ATOM     34  H   UNL A   1      40.231  21.176  25.831  1.00  0.00     0.163 HD
ATOM     35  O   UNL A   1      42.035  22.724  26.288  1.00  0.00    -0.269 OA
BRANCH  33  36
ATOM     36  C   UNL A   1      40.456  24.382  26.805  1.00  0.00     0.039 A 
ATOM     37  C   UNL A   1      40.958  25.510  26.131  1.00  0.00     0.014 A 
ATOM     38  C   UNL A   1      39.724  24.563  27.971  1.00  0.00     0.014 A 
ATOM     39  C   UNL A   1      40.886  26.774  26.722  1.00  0.00     0.010 A 
ATOM     40  C   UNL A   1      39.758  25.778  28.616  1.00  0.00     0.010 A 
ATOM     41  C   UNL A   1      40.363  26.877  28.006  1.00  0.00    -0.014 A 
BRANCH  41  42
ATOM     42  C   UNL A   1      40.454  28.057  28.851  1.00  0.00     0.031 A 
ATOM     43  C   UNL A   1      39.426  29.108  28.769  1.00  0.00     0.074 A 
ATOM     44  C   UNL A   1      41.312  28.018  29.892  1.00  0.00     0.049 A 
ATOM     45  N   UNL A   1      39.526  30.258  29.332  1.00  0.00    -0.248 NA
ATOM     46  C   UNL A   1      38.174  28.935  28.041  1.00  0.00     0.031 C 
ATOM     47  C   UNL A   1      41.319  28.849  31.097  1.00  0.00     0.029 A 
ATOM     48  N   UNL A   1      42.444  27.231  30.038  1.00  0.00    -0.354 N 
ATOM     49  C   UNL A   1      38.286  30.846  29.314  1.00  0.00     0.074 A 
ATOM     50  C   UNL A   1      37.489  30.007  28.449  1.00  0.00     0.031 C 
ATOM     51  C   UNL A   1      42.509  28.722  31.708  1.00  0.00     0.029 A 
ATOM     52  C   UNL A   1      43.354  27.966  30.802  1.00  0.00     0.049 A 
ATOM     53  H   UNL A   1      42.580  26.327  29.672  1.00  0.00     0.167 HD
ATOM     54  C   UNL A   1      38.043  31.903  30.142  1.00  0.00     0.034 A 
ATOM     55  C   UNL A   1      44.535  28.411  30.283  1.00  0.00     0.034 A 
ATOM     56  C   UNL A   1      39.233  32.229  30.936  1.00  0.00     0.049 A 
ATOM     57  C   UNL A   1      44.535  29.930  30.285  1.00  0.00     0.074 A 
ATOM     58  C   UNL A   1      39.582  31.989  32.255  1.00  0.00     0.029 A 
ATOM     59  N   UNL A   1      40.407  32.612  30.286  1.00  0.00    -0.354 N 
ATOM     60  N   UNL A   1      43.451  30.663  30.202  1.00  0.00    -0.248 NA
ATOM     61  C   UNL A   1      45.732  30.725  30.523  1.00  0.00     0.031 C 
ATOM     62  C   UNL A   1      40.992  32.142  32.369  1.00  0.00     0.029 A 
ATOM     63  C   UNL A   1      41.497  32.512  31.131  1.00  0.00     0.049 A 
ATOM     64  H   UNL A   1      40.454  32.912  29.349  1.00  0.00     0.167 HD
ATOM     65  C   UNL A   1      43.761  31.965  30.508  1.00  0.00     0.074 A 
ATOM     66  C   UNL A   1      45.211  31.959  30.647  1.00  0.00     0.031 C 
ATOM     67  C   UNL A   1      42.824  32.945  30.709  1.00  0.00     0.034 A 
BRANCH  54  68
ATOM     68  C   UNL A   1      36.660  32.451  30.423  1.00  0.00     0.023 A 
ATOM     69  C   UNL A   1      36.005  33.243  29.456  1.00  0.00     0.031 A 
ATOM     70  C   UNL A   1      35.940  32.240  31.615  1.00  0.00     0.131 A 
ATOM     71  C   UNL A   1      34.761  33.850  29.723  1.00  0.00     0.055 A 
ATOM     72  C   UNL A   1      34.735  32.896  31.908  1.00  0.00     0.041 A 
ATOM     73  F   UNL A   1      36.338  31.342  32.527  1.00  0.00    -0.206 F 
ATOM     74  C   UNL A   1      34.143  33.715  30.962  1.00  0.00     0.022 A 
BRANCH  71  75
ATOM     75  S   UNL A   1      33.938  34.799  28.413  1.00  0.00     0.124 S 
ATOM     76  O   UNL A   1      34.822  34.583  27.272  1.00  0.00    -0.237 OA
ATOM     77  O   UNL A   1      32.628  34.162  28.345  1.00  0.00    -0.237 OA
ATOM     78  O   UNL A   1      33.930  36.165  28.936  1.00  0.00    -0.744 OA
ENDBRANCH  71  75
ENDBRANCH  54  68
BRANCH  55  79
ATOM     79  C   UNL A   1      45.094  27.480  29.253  1.00  0.00     0.023 A 
ATOM     80  C   UNL A   1      45.191  27.998  27.936  1.00  0.00     0.031 A 
ATOM     81  C   UNL A   1      45.932  26.408  29.589  1.00  0.00     0.131 A 
ATOM     82  C   UNL A   1      46.233  27.593  27.087  1.00  0.00     0.055 A 
ATOM     83  C   UNL A   1      46.920  25.951  28.701  1.00  0.00     0.041 A 
ATOM     84  F   UNL A   1      45.925  25.896  30.828  1.00  0.00    -0.206 F 
ATOM     85  C   UNL A   1      47.106  26.574  27.464  1.00  0.00     0.022 A 
BRANCH  82  86
ATOM     86  S   UNL A   1      46.579  28.601  25.609  1.00  0.00     0.124 S 
ATOM     87  O   UNL A   1      45.645  29.709  25.774  1.00  0.00    -0.237 OA
ATOM     88  O   UNL A   1      47.994  28.920  25.783  1.00  0.00    -0.237 OA
ATOM     89  O   UNL A   1      46.289  27.699  24.499  1.00  0.00    -0.744 OA
ENDBRANCH  82  86
ENDBRANCH  55  79
BRANCH  67  90
ATOM     90  C   UNL A   1      43.107  34.432  30.669  1.00  0.00     0.023 A 
ATOM     91  C   UNL A   1      43.362  35.185  31.821  1.00  0.00     0.031 A 
ATOM     92  C   UNL A   1      43.265  35.124  29.440  1.00  0.00     0.131 A 
ATOM     93  C   UNL A   1      43.662  36.555  31.747  1.00  0.00     0.055 A 
ATOM     94  C   UNL A   1      43.651  36.466  29.365  1.00  0.00     0.041 A 
ATOM     95  F   UNL A   1      43.080  34.527  28.254  1.00  0.00    -0.206 F 
ATOM     96  C   UNL A   1      43.837  37.197  30.525  1.00  0.00     0.022 A 
BRANCH  93  97
ATOM     97  S   UNL A   1      43.762  37.484  33.296  1.00  0.00     0.124 S 
ATOM     98  O   UNL A   1      43.063  36.594  34.219  1.00  0.00    -0.237 OA
ATOM     99  O   UNL A   1      45.202  37.602  33.500  1.00  0.00    -0.237 OA
ATOM    100  O   UNL A   1      43.071  38.735  32.992  1.00  0.00    -0.744 OA
ENDBRANCH  93  97
ENDBRANCH  67  90
ENDBRANCH  41  42
ENDBRANCH  33  36
ENDBRANCH  31  32
ENDBRANCH  30  31
ENDBRANCH   1  30
TORSDOF 17
ENDMDL
MODEL 3
REMARK VINA RESULT:     -13.2      2.281      3.288
REMARK SMILES COc1cc2ccccc2cc1C(=O)Nc1cc(C(=O)NCCCCNC(=O)c2ccc(-c3c4nc(c(-c5cc(S(=O)(=O)[O-])ccc5F)c5ccc([nH]5)c(-c5cc(S(=O)(=O)[O-])ccc5F)c5nc(c(-c6cc(S(=O)(=O)[O-])ccc6F)c6ccc3[nH]6)C=C5)C=C4)cc2)ccc1C
REMARK SMILES IDX 23 1 22 2 21 3 19 4 20 5 18 7 16 8 17 9 94 10 93 11 95 12
REMARK SMILES IDX 92 13 15 14 13 15 14 16 12 18 3 19 4 20 5 21 11 22 6 23
REMARK SMILES IDX 10 24 7 25 9 26 8 27 2 28 1 29 24 30 25 31 26 32 27 33 28 35
REMARK SMILES IDX 29 36 30 37 91 38 31 39 90 40 32 41 33 42 34 43 84 44 35 45
REMARK SMILES IDX 89 46 83 47 85 48 36 49 88 50 82 51 81 52 37 54 69 55 49 56
REMARK SMILES IDX 68 57 50 58 53 59 67 60 86 61 51 62 52 63 66 65 87 66 54 67
REMARK SMILES IDX 38 68 39 69 47 70 40 71 46 72 48 73 45 74 41 75 42 76 43 77
REMARK SMILES IDX 44 78 70 79 71 80 79 81 72 82 78 83 80 84 77 85 73 86 74 87
REMARK SMILES IDX 75 88 76 89 55 90 56 91 64 92 57 93 63 94 65 95 62 96 58 97
REMARK SMILES IDX 59 98 60 99 61 100
REMARK H PARENT 21 6 15 17 26 34 85 53 53 64
REMARK Flexibility Score: inf
ROOT
ATOM      1  C   UNL A   1      37.399  20.740  24.994  1.00  0.00     0.023 C 
ENDROOT
BRANCH   1   2
ATOM      2  C   UNL A   1      35.870  20.825  25.123  1.00  0.00     0.116 C 
BRANCH   2   3
ATOM      3  N   UNL A   1      35.462  21.344  26.417  1.00  0.00    -0.352 N 
ATOM      4  C   UNL A   1      34.495  22.229  26.823  1.00  0.00     0.251 C 
ATOM      5  O   UNL A   1      34.440  22.459  28.036  1.00  0.00    -0.269 OA
ATOM      6  H   UNL A   1      35.994  20.984  27.163  1.00  0.00     0.163 HD
BRANCH   4   7
ATOM      7  C   UNL A   1      33.501  22.897  25.924  1.00  0.00     0.041 A 
ATOM      8  C   UNL A   1      32.843  24.230  23.997  1.00  0.00     0.045 A 
ATOM      9  C   UNL A   1      33.800  23.833  24.941  1.00  0.00     0.040 A 
ATOM     10  C   UNL A   1      31.493  23.889  24.159  1.00  0.00    -0.027 A 
ATOM     11  C   UNL A   1      31.171  22.988  25.182  1.00  0.00     0.006 A 
ATOM     12  C   UNL A   1      30.429  24.261  23.168  1.00  0.00     0.046 C 
ATOM     13  C   UNL A   1      32.165  22.474  26.026  1.00  0.00     0.014 A 
BRANCH   8  14
ATOM     14  N   UNL A   1      33.276  24.823  22.798  1.00  0.00    -0.322 N 
ATOM     15  C   UNL A   1      33.329  26.181  22.512  1.00  0.00     0.259 C 
ATOM     16  O   UNL A   1      33.792  26.547  21.432  1.00  0.00    -0.269 OA
ATOM     17  H   UNL A   1      33.573  24.211  22.086  1.00  0.00     0.170 HD
BRANCH  15  18
ATOM     18  C   UNL A   1      32.964  27.210  23.527  1.00  0.00     0.082 A 
ATOM     19  C   UNL A   1      31.807  27.999  23.438  1.00  0.00     0.132 A 
ATOM     20  C   UNL A   1      31.593  29.063  24.313  1.00  0.00     0.056 A 
ATOM     21  C   UNL A   1      32.472  29.294  25.367  1.00  0.00    -0.015 A 
ATOM     22  C   UNL A   1      33.825  27.398  24.614  1.00  0.00     0.026 A 
ATOM     23  C   UNL A   1      32.246  30.355  26.258  1.00  0.00     0.009 A 
ATOM     24  C   UNL A   1      33.588  28.440  25.532  1.00  0.00    -0.017 A 
ATOM     25  C   UNL A   1      33.114  30.578  27.316  1.00  0.00     0.001 A 
ATOM     26  C   UNL A   1      34.454  28.686  26.598  1.00  0.00     0.009 A 
ATOM     27  C   UNL A   1      34.218  29.753  27.469  1.00  0.00     0.001 A 
BRANCH  19  28
ATOM     28  O   UNL A   1      30.835  27.838  22.483  1.00  0.00    -0.496 OA
ATOM     29  C   UNL A   1      29.547  27.818  23.088  1.00  0.00     0.278 C 
ENDBRANCH  19  28
ENDBRANCH  15  18
ENDBRANCH   8  14
ENDBRANCH   4   7
ENDBRANCH   2   3
ENDBRANCH   1   2
BRANCH   1  30
ATOM     30  C   UNL A   1      38.096  22.070  25.294  1.00  0.00     0.023 C 
BRANCH  30  31
ATOM     31  C   UNL A   1      39.167  21.920  26.366  1.00  0.00     0.116 C 
BRANCH  31  32
ATOM     32  N   UNL A   1      40.244  21.002  26.054  1.00  0.00    -0.352 N 
ATOM     33  C   UNL A   1      41.616  21.206  26.085  1.00  0.00     0.251 C 
ATOM     34  H   UNL A   1      39.960  20.100  25.780  1.00  0.00     0.163 HD
ATOM     35  O   UNL A   1      42.359  20.365  25.609  1.00  0.00    -0.269 OA
BRANCH  33  36
ATOM     36  C   UNL A   1      42.199  22.397  26.773  1.00  0.00     0.039 A 
ATOM     37  C   UNL A   1      42.158  22.431  28.179  1.00  0.00     0.014 A 
ATOM     38  C   UNL A   1      42.653  23.514  26.083  1.00  0.00     0.014 A 
ATOM     39  C   UNL A   1      42.390  23.628  28.861  1.00  0.00     0.010 A 
ATOM     40  C   UNL A   1      42.761  24.721  26.735  1.00  0.00     0.010 A 
ATOM     41  C   UNL A   1      42.602  24.785  28.119  1.00  0.00    -0.014 A 
BRANCH  41  42
ATOM     42  C   UNL A   1      42.599  26.135  28.660  1.00  0.00     0.031 A 
ATOM     43  C   UNL A   1      41.402  26.982  28.530  1.00  0.00     0.074 A 
ATOM     44  C   UNL A   1      43.583  26.467  29.522  1.00  0.00     0.049 A 
ATOM     45  N   UNL A   1      41.375  28.236  28.805  1.00  0.00    -0.248 NA
ATOM     46  C   UNL A   1      40.113  26.467  28.083  1.00  0.00     0.031 C 
ATOM     47  C   UNL A   1      43.607  27.557  30.499  1.00  0.00     0.029 A 
ATOM     48  N   UNL A   1      44.844  25.903  29.638  1.00  0.00    -0.354 N 
ATOM     49  C   UNL A   1      40.060  28.625  28.874  1.00  0.00     0.074 A 
ATOM     50  C   UNL A   1      39.313  27.500  28.361  1.00  0.00     0.031 C 
ATOM     51  C   UNL A   1      44.872  27.746  30.909  1.00  0.00     0.029 A 
ATOM     52  C   UNL A   1      45.707  26.919  30.057  1.00  0.00     0.049 A 
ATOM     53  H   UNL A   1      45.085  24.965  29.459  1.00  0.00     0.167 HD
ATOM     54  C   UNL A   1      39.750  29.806  29.483  1.00  0.00     0.034 A 
ATOM     55  C   UNL A   1      46.711  27.385  29.259  1.00  0.00     0.034 A 
ATOM     56  C   UNL A   1      40.961  30.476  29.971  1.00  0.00     0.049 A 
ATOM     57  C   UNL A   1      46.446  28.845  28.933  1.00  0.00     0.074 A 
ATOM     58  C   UNL A   1      41.522  30.611  31.232  1.00  0.00     0.029 A 
ATOM     59  N   UNL A   1      41.952  30.849  29.062  1.00  0.00    -0.354 N 
ATOM     60  N   UNL A   1      45.250  29.379  28.881  1.00  0.00    -0.248 NA
ATOM     61  C   UNL A   1      47.507  29.832  28.784  1.00  0.00     0.031 C 
ATOM     62  C   UNL A   1      42.886  30.981  31.065  1.00  0.00     0.029 A 
ATOM     63  C   UNL A   1      43.146  31.108  29.709  1.00  0.00     0.049 A 
ATOM     64  H   UNL A   1      41.819  30.919  28.089  1.00  0.00     0.167 HD
ATOM     65  C   UNL A   1      45.365  30.746  28.840  1.00  0.00     0.074 A 
ATOM     66  C   UNL A   1      46.800  30.975  28.726  1.00  0.00     0.031 C 
ATOM     67  C   UNL A   1      44.308  31.606  28.982  1.00  0.00     0.034 A 
BRANCH  54  68
ATOM     68  C   UNL A   1      38.344  30.208  29.872  1.00  0.00     0.023 A 
ATOM     69  C   UNL A   1      37.772  31.383  29.338  1.00  0.00     0.031 A 
ATOM     70  C   UNL A   1      37.520  29.491  30.762  1.00  0.00     0.131 A 
ATOM     71  C   UNL A   1      36.505  31.839  29.753  1.00  0.00     0.055 A 
ATOM     72  C   UNL A   1      36.290  29.977  31.227  1.00  0.00     0.041 A 
ATOM     73  F   UNL A   1      37.841  28.258  31.178  1.00  0.00    -0.206 F 
ATOM     74  C   UNL A   1      35.779  31.164  30.728  1.00  0.00     0.022 A 
BRANCH  71  75
ATOM     75  S   UNL A   1      35.796  33.319  28.976  1.00  0.00     0.124 S 
ATOM     76  O   UNL A   1      34.536  33.472  29.694  1.00  0.00    -0.237 OA
ATOM     77  O   UNL A   1      36.818  34.326  29.239  1.00  0.00    -0.237 OA
ATOM     78  O   UNL A   1      35.662  32.933  27.571  1.00  0.00    -0.744 OA
ENDBRANCH  71  75
ENDBRANCH  54  68
BRANCH  55  79
ATOM     79  C   UNL A   1      47.279  26.320  28.374  1.00  0.00     0.023 A 
ATOM     80  C   UNL A   1      47.018  26.461  26.987  1.00  0.00     0.031 A 
ATOM     81  C   UNL A   1      48.391  25.551  28.747  1.00  0.00     0.131 A 
ATOM     82  C   UNL A   1      47.957  26.028  26.039  1.00  0.00     0.055 A 
ATOM     83  C   UNL A   1      49.284  25.050  27.786  1.00  0.00     0.041 A 
ATOM     84  F   UNL A   1      48.724  25.412  30.039  1.00  0.00    -0.206 F 
ATOM     85  C   UNL A   1      49.097  25.327  26.429  1.00  0.00     0.022 A 
BRANCH  82  86
ATOM     86  S   UNL A   1      47.790  26.632  24.327  1.00  0.00     0.124 S 
ATOM     87  O   UNL A   1      46.409  27.103  24.306  1.00  0.00    -0.237 OA
ATOM     88  O   UNL A   1      48.823  27.662  24.266  1.00  0.00    -0.237 OA
ATOM     89  O   UNL A   1      48.059  25.448  23.515  1.00  0.00    -0.744 OA
ENDBRANCH  82  86
ENDBRANCH  55  79
BRANCH  67  90
ATOM     90  C   UNL A   1      44.319  33.065  28.573  1.00  0.00     0.023 A 
ATOM     91  C   UNL A   1      44.553  34.103  29.482  1.00  0.00     0.031 A 
ATOM     92  C   UNL A   1      44.228  33.454  27.212  1.00  0.00     0.131 A 
ATOM     93  C   UNL A   1      44.597  35.443  29.065  1.00  0.00     0.055 A 
ATOM     94  C   UNL A   1      44.362  34.779  26.787  1.00  0.00     0.041 A 
ATOM     95  F   UNL A   1      44.033  32.567  26.226  1.00  0.00    -0.206 F 
ATOM     96  C   UNL A   1      44.532  35.788  27.718  1.00  0.00     0.022 A 
BRANCH  93  97
ATOM     97  S   UNL A   1      44.687  36.724  30.338  1.00  0.00     0.124 S 
ATOM     98  O   UNL A   1      46.071  36.597  30.787  1.00  0.00    -0.237 OA
ATOM     99  O   UNL A   1      44.374  37.936  29.589  1.00  0.00    -0.237 OA
ATOM    100  O   UNL A   1      43.677  36.313  31.311  1.00  0.00    -0.744 OA
ENDBRANCH  93  97
ENDBRANCH  67  90
ENDBRANCH  41  42
ENDBRANCH  33  36
ENDBRANCH  31  32
ENDBRANCH  30  31
ENDBRANCH   1  30
TORSDOF 17
ENDMDL
