MODEL 1
REMARK VINA RESULT:     -12.6      0.000      0.000
REMARK SMILES Cc1ccc([C@H](CC2CCCC2)C(=O)NCCCCNC(=O)c2ccc(-c3c4nc(c(-c5cc(S(=O)(=O)[O-])ccc5F)c5ccc([nH]5)c(-c5cc(S(=O)(=O)[O-])ccc5F)c5nc(c(-c6cc(S(=O)(=O)[O-])ccc6F)c6ccc3[nH]6)C=C5)C=C4)cc2)cc1
REMARK SMILES IDX 18 1 17 2 16 3 15 4 13 5 14 6 6 8 5 9 1 10 2 11 3 12 87 13
REMARK SMILES IDX 4 14 86 15 7 16 8 17 9 18 12 19 10 20 11 21 19 22 20 23
REMARK SMILES IDX 21 24 22 26 23 27 24 28 85 29 25 30 84 31 26 32 27 33 28 34
REMARK SMILES IDX 78 35 29 36 83 37 77 38 79 39 30 40 82 41 76 42 75 43 31 45
REMARK SMILES IDX 63 46 43 47 62 48 44 49 47 50 61 51 80 52 45 53 46 54 60 56
REMARK SMILES IDX 81 57 48 58 32 59 33 60 41 61 34 62 40 63 42 64 39 65 35 66
REMARK SMILES IDX 36 67 37 68 38 69 64 70 65 71 73 72 66 73 72 74 74 75 71 76
REMARK SMILES IDX 67 77 68 78 69 79 70 80 49 81 50 82 58 83 51 84 57 85 59 86
REMARK SMILES IDX 56 87 52 88 53 89 54 90 55 91
REMARK H PARENT 15 7 20 25 79 44 47 55
REMARK Flexibility Score: inf
ROOT
ATOM      1  C   UNL A   1      32.802  30.548  26.991  1.00  0.00     0.023 C 
ENDROOT
BRANCH   1   2
ATOM      2  C   UNL A   1      31.784  29.419  26.818  1.00  0.00     0.023 C 
BRANCH   2   3
ATOM      3  C   UNL A   1      32.376  28.011  26.694  1.00  0.00     0.116 C 
BRANCH   3   4
ATOM      4  N   UNL A   1      31.381  26.962  26.907  1.00  0.00    -0.356 N 
ATOM      5  C   UNL A   1      30.767  26.116  26.031  1.00  0.00     0.227 C 
ATOM      6  O   UNL A   1      30.052  25.232  26.523  1.00  0.00    -0.274 OA
ATOM      7  H   UNL A   1      31.105  26.846  27.846  1.00  0.00     0.163 HD
BRANCH   5   8
ATOM      8  C   UNL A   1      30.882  26.252  24.509  1.00  0.00     0.109 C 
BRANCH   8   9
ATOM      9  C   UNL A   1      30.089  27.397  23.869  1.00  0.00    -0.036 A 
ATOM     10  C   UNL A   1      28.103  30.385  21.447  1.00  0.00     0.044 C 
ATOM     11  C   UNL A   1      28.787  29.394  22.338  1.00  0.00    -0.051 A 
ATOM     12  C   UNL A   1      30.155  29.486  22.597  1.00  0.00     0.004 A 
ATOM     13  C   UNL A   1      28.057  28.368  22.942  1.00  0.00     0.004 A 
ATOM     14  C   UNL A   1      30.796  28.500  23.352  1.00  0.00     0.005 A 
ATOM     15  C   UNL A   1      28.698  27.398  23.718  1.00  0.00     0.005 A 
ENDBRANCH   8   9
BRANCH   8  16
ATOM     16  C   UNL A   1      30.646  24.908  23.770  1.00  0.00     0.022 C 
BRANCH  16  17
ATOM     17  C   UNL A   1      31.904  24.281  23.154  1.00  0.00    -0.010 C 
ATOM     18  C   UNL A   1      33.221  24.962  23.521  1.00  0.00     0.003 C 
ATOM     19  C   UNL A   1      32.124  22.863  23.692  1.00  0.00     0.003 C 
ATOM     20  C   UNL A   1      34.280  23.900  23.235  1.00  0.00     0.000 C 
ATOM     21  C   UNL A   1      33.581  22.551  23.377  1.00  0.00     0.000 C 
ENDBRANCH  16  17
ENDBRANCH   8  16
ENDBRANCH   5   8
ENDBRANCH   3   4
ENDBRANCH   2   3
ENDBRANCH   1   2
BRANCH   1  22
ATOM     22  C   UNL A   1      34.116  30.127  27.636  1.00  0.00     0.116 C 
BRANCH  22  23
ATOM     23  N   UNL A   1      34.791  31.150  28.415  1.00  0.00    -0.352 N 
ATOM     24  C   UNL A   1      35.957  31.063  29.171  1.00  0.00     0.251 C 
ATOM     25  H   UNL A   1      34.361  32.036  28.406  1.00  0.00     0.163 HD
ATOM     26  O   UNL A   1      36.278  31.964  29.913  1.00  0.00    -0.269 OA
BRANCH  24  27
ATOM     27  C   UNL A   1      36.867  29.894  28.983  1.00  0.00     0.039 A 
ATOM     28  C   UNL A   1      37.053  29.031  30.072  1.00  0.00     0.014 A 
ATOM     29  C   UNL A   1      37.661  29.753  27.851  1.00  0.00     0.014 A 
ATOM     30  C   UNL A   1      38.176  28.201  30.114  1.00  0.00     0.010 A 
ATOM     31  C   UNL A   1      38.830  29.028  27.938  1.00  0.00     0.010 A 
ATOM     32  C   UNL A   1      39.115  28.291  29.090  1.00  0.00    -0.014 A 
BRANCH  32  33
ATOM     33  C   UNL A   1      40.470  27.761  29.170  1.00  0.00     0.031 A 
ATOM     34  C   UNL A   1      40.785  26.399  28.698  1.00  0.00     0.074 A 
ATOM     35  C   UNL A   1      41.480  28.576  29.551  1.00  0.00     0.049 A 
ATOM     36  N   UNL A   1      41.827  25.734  29.063  1.00  0.00    -0.248 NA
ATOM     37  C   UNL A   1      39.924  25.661  27.781  1.00  0.00     0.031 C 
ATOM     38  C   UNL A   1      42.913  28.351  29.393  1.00  0.00     0.029 A 
ATOM     39  N   UNL A   1      41.395  29.684  30.388  1.00  0.00    -0.354 N 
ATOM     40  C   UNL A   1      41.937  24.644  28.234  1.00  0.00     0.074 A 
ATOM     41  C   UNL A   1      40.695  24.607  27.495  1.00  0.00     0.031 C 
ATOM     42  C   UNL A   1      43.571  29.098  30.291  1.00  0.00     0.029 A 
ATOM     43  C   UNL A   1      42.579  29.712  31.153  1.00  0.00     0.049 A 
ATOM     44  H   UNL A   1      40.650  30.327  30.437  1.00  0.00     0.167 HD
ATOM     45  C   UNL A   1      43.116  23.965  28.164  1.00  0.00     0.034 A 
ATOM     46  C   UNL A   1      42.521  29.594  32.514  1.00  0.00     0.034 A 
ATOM     47  C   UNL A   1      44.123  24.516  29.068  1.00  0.00     0.049 A 
ATOM     48  C   UNL A   1      43.211  28.357  33.059  1.00  0.00     0.074 A 
ATOM     49  C   UNL A   1      45.232  25.331  28.909  1.00  0.00     0.029 A 
ATOM     50  N   UNL A   1      43.900  24.444  30.429  1.00  0.00    -0.354 N 
ATOM     51  N   UNL A   1      43.792  27.449  32.322  1.00  0.00    -0.248 NA
ATOM     52  C   UNL A   1      43.228  28.001  34.479  1.00  0.00     0.031 C 
ATOM     53  C   UNL A   1      45.659  25.757  30.203  1.00  0.00     0.029 A 
ATOM     54  C   UNL A   1      44.822  25.184  31.141  1.00  0.00     0.049 A 
ATOM     55  H   UNL A   1      43.171  23.927  30.842  1.00  0.00     0.167 HD
ATOM     56  C   UNL A   1      44.168  26.390  33.106  1.00  0.00     0.074 A 
ATOM     57  C   UNL A   1      43.808  26.789  34.454  1.00  0.00     0.031 C 
ATOM     58  C   UNL A   1      44.697  25.242  32.589  1.00  0.00     0.034 A 
BRANCH  45  59
ATOM     59  C   UNL A   1      43.432  22.949  27.096  1.00  0.00     0.023 A 
ATOM     60  C   UNL A   1      42.817  21.684  27.150  1.00  0.00     0.031 A 
ATOM     61  C   UNL A   1      44.323  23.148  26.025  1.00  0.00     0.131 A 
ATOM     62  C   UNL A   1      43.165  20.662  26.251  1.00  0.00     0.055 A 
ATOM     63  C   UNL A   1      44.720  22.113  25.168  1.00  0.00     0.041 A 
ATOM     64  F   UNL A   1      44.808  24.364  25.731  1.00  0.00    -0.206 F 
ATOM     65  C   UNL A   1      44.149  20.854  25.288  1.00  0.00     0.022 A 
BRANCH  62  66
ATOM     66  S   UNL A   1      42.292  19.076  26.354  1.00  0.00     0.124 S 
ATOM     67  O   UNL A   1      42.300  18.809  27.788  1.00  0.00    -0.237 OA
ATOM     68  O   UNL A   1      40.998  19.401  25.763  1.00  0.00    -0.237 OA
ATOM     69  O   UNL A   1      43.127  18.180  25.555  1.00  0.00    -0.744 OA
ENDBRANCH  62  66
ENDBRANCH  45  59
BRANCH  46  70
ATOM     70  C   UNL A   1      41.297  30.245  33.075  1.00  0.00     0.023 A 
ATOM     71  C   UNL A   1      41.309  31.656  33.148  1.00  0.00     0.031 A 
ATOM     72  C   UNL A   1      40.053  29.599  33.095  1.00  0.00     0.131 A 
ATOM     73  C   UNL A   1      40.114  32.378  33.027  1.00  0.00     0.055 A 
ATOM     74  C   UNL A   1      38.857  30.329  33.076  1.00  0.00     0.041 A 
ATOM     75  F   UNL A   1      39.971  28.265  32.992  1.00  0.00    -0.206 F 
ATOM     76  C   UNL A   1      38.884  31.722  32.987  1.00  0.00     0.022 A 
BRANCH  73  77
ATOM     77  S   UNL A   1      40.224  34.142  32.591  1.00  0.00     0.124 S 
ATOM     78  O   UNL A   1      41.074  34.109  31.406  1.00  0.00    -0.237 OA
ATOM     79  O   UNL A   1      38.824  34.499  32.369  1.00  0.00    -0.237 OA
ATOM     80  O   UNL A   1      40.817  34.757  33.776  1.00  0.00    -0.744 OA
ENDBRANCH  73  77
ENDBRANCH  46  70
BRANCH  58  81
ATOM     81  C   UNL A   1      45.117  24.058  33.423  1.00  0.00     0.023 A 
ATOM     82  C   UNL A   1      46.456  23.833  33.774  1.00  0.00     0.031 A 
ATOM     83  C   UNL A   1      44.192  23.064  33.819  1.00  0.00     0.131 A 
ATOM     84  C   UNL A   1      46.819  22.706  34.533  1.00  0.00     0.055 A 
ATOM     85  C   UNL A   1      44.569  21.901  34.496  1.00  0.00     0.041 A 
ATOM     86  F   UNL A   1      42.875  23.198  33.606  1.00  0.00    -0.206 F 
ATOM     87  C   UNL A   1      45.891  21.722  34.869  1.00  0.00     0.022 A 
BRANCH  84  88
ATOM     88  S   UNL A   1      48.519  22.586  35.147  1.00  0.00     0.124 S 
ATOM     89  O   UNL A   1      49.006  21.373  34.502  1.00  0.00    -0.237 OA
ATOM     90  O   UNL A   1      49.095  23.838  34.664  1.00  0.00    -0.237 OA
ATOM     91  O   UNL A   1      48.357  22.500  36.597  1.00  0.00    -0.744 OA
ENDBRANCH  84  88
ENDBRANCH  58  81
ENDBRANCH  32  33
ENDBRANCH  24  27
ENDBRANCH  22  23
ENDBRANCH   1  22
TORSDOF 17
ENDMDL
MODEL 2
REMARK VINA RESULT:     -12.4      2.599      3.806
REMARK SMILES Cc1ccc([C@H](CC2CCCC2)C(=O)NCCCCNC(=O)c2ccc(-c3c4nc(c(-c5cc(S(=O)(=O)[O-])ccc5F)c5ccc([nH]5)c(-c5cc(S(=O)(=O)[O-])ccc5F)c5nc(c(-c6cc(S(=O)(=O)[O-])ccc6F)c6ccc3[nH]6)C=C5)C=C4)cc2)cc1
REMARK SMILES IDX 18 1 17 2 16 3 15 4 13 5 14 6 6 8 5 9 1 10 2 11 3 12 87 13
REMARK SMILES IDX 4 14 86 15 7 16 8 17 9 18 12 19 10 20 11 21 19 22 20 23
REMARK SMILES IDX 21 24 22 26 23 27 24 28 85 29 25 30 84 31 26 32 27 33 28 34
REMARK SMILES IDX 78 35 29 36 83 37 77 38 79 39 30 40 82 41 76 42 75 43 31 45
REMARK SMILES IDX 63 46 43 47 62 48 44 49 47 50 61 51 80 52 45 53 46 54 60 56
REMARK SMILES IDX 81 57 48 58 32 59 33 60 41 61 34 62 40 63 42 64 39 65 35 66
REMARK SMILES IDX 36 67 37 68 38 69 64 70 65 71 73 72 66 73 72 74 74 75 71 76
REMARK SMILES IDX 67 77 68 78 69 79 70 80 49 81 50 82 58 83 51 84 57 85 59 86
REMARK SMILES IDX 56 87 52 88 53 89 54 90 55 91
REMARK H PARENT 15 7 20 25 79 44 47 55
REMARK Flexibility Score: inf
ROOT
ATOM      1  C   UNL A   1      33.388  29.083  27.393  1.00  0.00     0.023 C 
ENDROOT
BRANCH   1   2
ATOM      2  C   UNL A   1      34.026  28.018  26.498  1.00  0.00     0.023 C 
BRANCH   2   3
ATOM      3  C   UNL A   1      33.060  27.269  25.574  1.00  0.00     0.116 C 
BRANCH   3   4
ATOM      4  N   UNL A   1      33.534  27.212  24.192  1.00  0.00    -0.356 N 
ATOM      5  C   UNL A   1      33.759  26.152  23.363  1.00  0.00     0.227 C 
ATOM      6  O   UNL A   1      34.042  26.419  22.188  1.00  0.00    -0.274 OA
ATOM      7  H   UNL A   1      33.725  28.091  23.790  1.00  0.00     0.163 HD
BRANCH   5   8
ATOM      8  C   UNL A   1      33.732  24.694  23.835  1.00  0.00     0.109 C 
BRANCH   8   9
ATOM      9  C   UNL A   1      35.081  24.086  24.236  1.00  0.00    -0.036 A 
ATOM     10  C   UNL A   1      38.506  21.923  25.761  1.00  0.00     0.044 C 
ATOM     11  C   UNL A   1      37.362  22.724  25.222  1.00  0.00    -0.051 A 
ATOM     12  C   UNL A   1      36.691  23.647  26.025  1.00  0.00     0.004 A 
ATOM     13  C   UNL A   1      36.959  22.574  23.893  1.00  0.00     0.004 A 
ATOM     14  C   UNL A   1      35.566  24.318  25.537  1.00  0.00     0.005 A 
ATOM     15  C   UNL A   1      35.849  23.266  23.401  1.00  0.00     0.005 A 
ENDBRANCH   8   9
BRANCH   8  16
ATOM     16  C   UNL A   1      32.951  23.768  22.867  1.00  0.00     0.022 C 
BRANCH  16  17
ATOM     17  C   UNL A   1      32.129  22.666  23.549  1.00  0.00    -0.010 C 
ATOM     18  C   UNL A   1      32.878  21.363  23.817  1.00  0.00     0.003 C 
ATOM     19  C   UNL A   1      31.721  23.089  24.964  1.00  0.00     0.003 C 
ATOM     20  C   UNL A   1      32.055  20.678  24.905  1.00  0.00     0.000 C 
ATOM     21  C   UNL A   1      31.336  21.792  25.661  1.00  0.00     0.000 C 
ENDBRANCH  16  17
ENDBRANCH   8  16
ENDBRANCH   5   8
ENDBRANCH   3   4
ENDBRANCH   2   3
ENDBRANCH   1   2
BRANCH   1  22
ATOM     22  C   UNL A   1      33.672  30.520  26.974  1.00  0.00     0.116 C 
BRANCH  22  23
ATOM     23  N   UNL A   1      34.144  31.401  28.028  1.00  0.00    -0.352 N 
ATOM     24  C   UNL A   1      35.163  31.206  28.956  1.00  0.00     0.251 C 
ATOM     25  H   UNL A   1      33.673  32.264  28.094  1.00  0.00     0.163 HD
ATOM     26  O   UNL A   1      35.300  31.967  29.888  1.00  0.00    -0.269 OA
BRANCH  24  27
ATOM     27  C   UNL A   1      36.155  30.113  28.736  1.00  0.00     0.039 A 
ATOM     28  C   UNL A   1      36.548  29.357  29.850  1.00  0.00     0.014 A 
ATOM     29  C   UNL A   1      36.825  29.956  27.528  1.00  0.00     0.014 A 
ATOM     30  C   UNL A   1      37.745  28.636  29.810  1.00  0.00     0.010 A 
ATOM     31  C   UNL A   1      38.062  29.347  27.521  1.00  0.00     0.010 A 
ATOM     32  C   UNL A   1      38.548  28.731  28.676  1.00  0.00    -0.014 A 
BRANCH  32  33
ATOM     33  C   UNL A   1      39.948  28.332  28.626  1.00  0.00     0.031 A 
ATOM     34  C   UNL A   1      40.333  26.936  28.339  1.00  0.00     0.074 A 
ATOM     35  C   UNL A   1      40.911  29.277  28.705  1.00  0.00     0.049 A 
ATOM     36  N   UNL A   1      41.481  26.430  28.637  1.00  0.00    -0.248 NA
ATOM     37  C   UNL A   1      39.433  25.982  27.702  1.00  0.00     0.031 C 
ATOM     38  C   UNL A   1      42.322  29.142  28.360  1.00  0.00     0.029 A 
ATOM     39  N   UNL A   1      40.830  30.506  29.353  1.00  0.00    -0.354 N 
ATOM     40  C   UNL A   1      41.585  25.223  27.990  1.00  0.00     0.074 A 
ATOM     41  C   UNL A   1      40.262  24.959  27.473  1.00  0.00     0.031 C 
ATOM     42  C   UNL A   1      43.020  30.086  29.010  1.00  0.00     0.029 A 
ATOM     43  C   UNL A   1      42.101  30.763  29.905  1.00  0.00     0.049 A 
ATOM     44  H   UNL A   1      40.037  31.087  29.413  1.00  0.00     0.167 HD
ATOM     45  C   UNL A   1      42.807  24.638  27.847  1.00  0.00     0.034 A 
ATOM     46  C   UNL A   1      42.250  30.883  31.259  1.00  0.00     0.034 A 
ATOM     47  C   UNL A   1      43.870  25.418  28.478  1.00  0.00     0.049 A 
ATOM     48  C   UNL A   1      43.137  29.820  31.883  1.00  0.00     0.074 A 
ATOM     49  C   UNL A   1      44.853  26.277  28.015  1.00  0.00     0.029 A 
ATOM     50  N   UNL A   1      43.851  25.570  29.850  1.00  0.00    -0.354 N 
ATOM     51  N   UNL A   1      43.699  28.845  31.221  1.00  0.00    -0.248 NA
ATOM     52  C   UNL A   1      43.392  29.723  33.322  1.00  0.00     0.031 C 
ATOM     53  C   UNL A   1      45.412  26.957  29.138  1.00  0.00     0.029 A 
ATOM     54  C   UNL A   1      44.782  26.495  30.278  1.00  0.00     0.049 A 
ATOM     55  H   UNL A   1      43.246  25.078  30.452  1.00  0.00     0.167 HD
ATOM     56  C   UNL A   1      44.292  27.974  32.098  1.00  0.00     0.074 A 
ATOM     57  C   UNL A   1      44.087  28.576  33.403  1.00  0.00     0.031 C 
ATOM     58  C   UNL A   1      44.859  26.798  31.698  1.00  0.00     0.034 A 
BRANCH  45  59
ATOM     59  C   UNL A   1      43.073  23.478  26.922  1.00  0.00     0.023 A 
ATOM     60  C   UNL A   1      42.426  22.250  27.159  1.00  0.00     0.031 A 
ATOM     61  C   UNL A   1      43.944  23.503  25.818  1.00  0.00     0.131 A 
ATOM     62  C   UNL A   1      42.727  21.105  26.402  1.00  0.00     0.055 A 
ATOM     63  C   UNL A   1      44.296  22.350  25.103  1.00  0.00     0.041 A 
ATOM     64  F   UNL A   1      44.455  24.653  25.352  1.00  0.00    -0.206 F 
ATOM     65  C   UNL A   1      43.694  21.136  25.404  1.00  0.00     0.022 A 
BRANCH  62  66
ATOM     66  S   UNL A   1      41.815  19.574  26.737  1.00  0.00     0.124 S 
ATOM     67  O   UNL A   1      40.857  19.998  27.751  1.00  0.00    -0.237 OA
ATOM     68  O   UNL A   1      41.267  19.252  25.424  1.00  0.00    -0.237 OA
ATOM     69  O   UNL A   1      42.854  18.661  27.212  1.00  0.00    -0.744 OA
ENDBRANCH  62  66
ENDBRANCH  45  59
BRANCH  46  70
ATOM     70  C   UNL A   1      41.057  31.524  31.894  1.00  0.00     0.023 A 
ATOM     71  C   UNL A   1      40.419  30.792  32.921  1.00  0.00     0.031 A 
ATOM     72  C   UNL A   1      40.840  32.908  31.846  1.00  0.00     0.131 A 
ATOM     73  C   UNL A   1      39.774  31.462  33.968  1.00  0.00     0.055 A 
ATOM     74  C   UNL A   1      40.107  33.562  32.844  1.00  0.00     0.041 A 
ATOM     75  F   UNL A   1      41.446  33.665  30.920  1.00  0.00    -0.206 F 
ATOM     76  C   UNL A   1      39.616  32.848  33.939  1.00  0.00     0.022 A 
BRANCH  73  77
ATOM     77  S   UNL A   1      39.450  30.537  35.501  1.00  0.00     0.124 S 
ATOM     78  O   UNL A   1      37.994  30.464  35.511  1.00  0.00    -0.237 OA
ATOM     79  O   UNL A   1      40.156  29.279  35.265  1.00  0.00    -0.237 OA
ATOM     80  O   UNL A   1      40.047  31.370  36.543  1.00  0.00    -0.744 OA
ENDBRANCH  73  77
ENDBRANCH  46  70
BRANCH  58  81
ATOM     81  C   UNL A   1      45.515  25.818  32.637  1.00  0.00     0.023 A 
ATOM     82  C   UNL A   1      44.769  25.014  33.512  1.00  0.00     0.031 A 
ATOM     83  C   UNL A   1      46.922  25.724  32.747  1.00  0.00     0.131 A 
ATOM     84  C   UNL A   1      45.412  24.127  34.394  1.00  0.00     0.055 A 
ATOM     85  C   UNL A   1      47.557  24.907  33.686  1.00  0.00     0.041 A 
ATOM     86  F   UNL A   1      47.742  26.387  31.920  1.00  0.00    -0.206 F 
ATOM     87  C   UNL A   1      46.801  24.091  34.510  1.00  0.00     0.022 A 
BRANCH  84  88
ATOM     88  S   UNL A   1      44.400  22.955  35.334  1.00  0.00     0.124 S 
ATOM     89  O   UNL A   1      44.973  23.042  36.673  1.00  0.00    -0.237 OA
ATOM     90  O   UNL A   1      43.066  23.528  35.178  1.00  0.00    -0.237 OA
ATOM     91  O   UNL A   1      44.612  21.684  34.646  1.00  0.00    -0.744 OA
ENDBRANCH  84  88
ENDBRANCH  58  81
ENDBRANCH  32  33
ENDBRANCH  24  27
ENDBRANCH  22  23
ENDBRANCH   1  22
TORSDOF 17
ENDMDL
MODEL 3
REMARK VINA RESULT:     -12.3      1.162      2.895
REMARK SMILES Cc1ccc([C@H](CC2CCCC2)C(=O)NCCCCNC(=O)c2ccc(-c3c4nc(c(-c5cc(S(=O)(=O)[O-])ccc5F)c5ccc([nH]5)c(-c5cc(S(=O)(=O)[O-])ccc5F)c5nc(c(-c6cc(S(=O)(=O)[O-])ccc6F)c6ccc3[nH]6)C=C5)C=C4)cc2)cc1
REMARK SMILES IDX 18 1 17 2 16 3 15 4 13 5 14 6 6 8 5 9 1 10 2 11 3 12 87 13
REMARK SMILES IDX 4 14 86 15 7 16 8 17 9 18 12 19 10 20 11 21 19 22 20 23
REMARK SMILES IDX 21 24 22 26 23 27 24 28 85 29 25 30 84 31 26 32 27 33 28 34
REMARK SMILES IDX 78 35 29 36 83 37 77 38 79 39 30 40 82 41 76 42 75 43 31 45
REMARK SMILES IDX 63 46 43 47 62 48 44 49 47 50 61 51 80 52 45 53 46 54 60 56
REMARK SMILES IDX 81 57 48 58 32 59 33 60 41 61 34 62 40 63 42 64 39 65 35 66
REMARK SMILES IDX 36 67 37 68 38 69 64 70 65 71 73 72 66 73 72 74 74 75 71 76
REMARK SMILES IDX 67 77 68 78 69 79 70 80 49 81 50 82 58 83 51 84 57 85 59 86
REMARK SMILES IDX 56 87 52 88 53 89 54 90 55 91
REMARK H PARENT 15 7 20 25 79 44 47 55
REMARK Flexibility Score: inf
ROOT
ATOM      1  C   UNL A   1      33.925  29.704  27.527  1.00  0.00     0.023 C 
ENDROOT
BRANCH   1   2
ATOM      2  C   UNL A   1      32.405  29.656  27.349  1.00  0.00     0.023 C 
BRANCH   2   3
ATOM      3  C   UNL A   1      31.867  30.346  26.092  1.00  0.00     0.116 C 
BRANCH   3   4
ATOM      4  N   UNL A   1      32.498  29.856  24.867  1.00  0.00    -0.356 N 
ATOM      5  C   UNL A   1      31.999  29.119  23.834  1.00  0.00     0.227 C 
ATOM      6  O   UNL A   1      32.744  28.959  22.858  1.00  0.00    -0.274 OA
ATOM      7  H   UNL A   1      33.448  30.099  24.772  1.00  0.00     0.163 HD
BRANCH   5   8
ATOM      8  C   UNL A   1      30.618  28.455  23.863  1.00  0.00     0.109 C 
BRANCH   8   9
ATOM      9  C   UNL A   1      30.574  27.001  24.347  1.00  0.00    -0.036 A 
ATOM     10  C   UNL A   1      31.058  22.820  25.359  1.00  0.00     0.044 C 
ATOM     11  C   UNL A   1      30.824  24.260  25.019  1.00  0.00    -0.051 A 
ATOM     12  C   UNL A   1      30.396  24.636  23.746  1.00  0.00     0.004 A 
ATOM     13  C   UNL A   1      31.013  25.252  25.984  1.00  0.00     0.004 A 
ATOM     14  C   UNL A   1      30.273  25.988  23.415  1.00  0.00     0.005 A 
ATOM     15  C   UNL A   1      30.864  26.603  25.657  1.00  0.00     0.005 A 
ENDBRANCH   8   9
BRANCH   8  16
ATOM     16  C   UNL A   1      29.839  28.641  22.534  1.00  0.00     0.022 C 
BRANCH  16  17
ATOM     17  C   UNL A   1      28.747  29.719  22.571  1.00  0.00    -0.010 C 
ATOM     18  C   UNL A   1      28.949  30.817  23.612  1.00  0.00     0.003 C 
ATOM     19  C   UNL A   1      28.732  30.522  21.267  1.00  0.00     0.003 C 
ATOM     20  C   UNL A   1      28.074  31.965  23.115  1.00  0.00     0.000 C 
ATOM     21  C   UNL A   1      27.962  31.792  21.603  1.00  0.00     0.000 C 
ENDBRANCH  16  17
ENDBRANCH   8  16
ENDBRANCH   5   8
ENDBRANCH   3   4
ENDBRANCH   2   3
ENDBRANCH   1   2
BRANCH   1  22
ATOM     22  C   UNL A   1      34.541  31.087  27.362  1.00  0.00     0.116 C 
BRANCH  22  23
ATOM     23  N   UNL A   1      34.955  31.742  28.590  1.00  0.00    -0.352 N 
ATOM     24  C   UNL A   1      35.844  31.307  29.570  1.00  0.00     0.251 C 
ATOM     25  H   UNL A   1      34.549  32.624  28.753  1.00  0.00     0.163 HD
ATOM     26  O   UNL A   1      35.931  31.894  30.626  1.00  0.00    -0.269 OA
BRANCH  24  27
ATOM     27  C   UNL A   1      36.768  30.173  29.271  1.00  0.00     0.039 A 
ATOM     28  C   UNL A   1      36.921  29.182  30.251  1.00  0.00     0.014 A 
ATOM     29  C   UNL A   1      37.602  30.175  28.159  1.00  0.00     0.014 A 
ATOM     30  C   UNL A   1      38.047  28.356  30.229  1.00  0.00     0.010 A 
ATOM     31  C   UNL A   1      38.772  29.447  28.198  1.00  0.00     0.010 A 
ATOM     32  C   UNL A   1      39.022  28.574  29.259  1.00  0.00    -0.014 A 
BRANCH  32  33
ATOM     33  C   UNL A   1      40.376  28.041  29.321  1.00  0.00     0.031 A 
ATOM     34  C   UNL A   1      40.688  26.691  28.814  1.00  0.00     0.074 A 
ATOM     35  C   UNL A   1      41.388  28.845  29.718  1.00  0.00     0.049 A 
ATOM     36  N   UNL A   1      41.731  26.016  29.159  1.00  0.00    -0.248 NA
ATOM     37  C   UNL A   1      39.823  25.976  27.883  1.00  0.00     0.031 C 
ATOM     38  C   UNL A   1      42.820  28.623  29.548  1.00  0.00     0.029 A 
ATOM     39  N   UNL A   1      41.308  29.933  30.582  1.00  0.00    -0.354 N 
ATOM     40  C   UNL A   1      41.837  24.947  28.303  1.00  0.00     0.074 A 
ATOM     41  C   UNL A   1      40.592  24.929  27.568  1.00  0.00     0.031 C 
ATOM     42  C   UNL A   1      43.483  29.348  30.463  1.00  0.00     0.029 A 
ATOM     43  C   UNL A   1      42.494  29.942  31.343  1.00  0.00     0.049 A 
ATOM     44  H   UNL A   1      40.563  30.575  30.649  1.00  0.00     0.167 HD
ATOM     45  C   UNL A   1      43.015  24.269  28.212  1.00  0.00     0.034 A 
ATOM     46  C   UNL A   1      42.441  29.791  32.700  1.00  0.00     0.034 A 
ATOM     47  C   UNL A   1      44.027  24.797  29.126  1.00  0.00     0.049 A 
ATOM     48  C   UNL A   1      43.133  28.540  33.213  1.00  0.00     0.074 A 
ATOM     49  C   UNL A   1      45.135  25.615  28.982  1.00  0.00     0.029 A 
ATOM     50  N   UNL A   1      43.808  24.692  30.485  1.00  0.00    -0.354 N 
ATOM     51  N   UNL A   1      43.710  27.650  32.451  1.00  0.00    -0.248 NA
ATOM     52  C   UNL A   1      43.154  28.149  34.624  1.00  0.00     0.031 C 
ATOM     53  C   UNL A   1      45.567  26.009  30.284  1.00  0.00     0.029 A 
ATOM     54  C   UNL A   1      44.733  25.413  31.212  1.00  0.00     0.049 A 
ATOM     55  H   UNL A   1      43.080  24.165  30.888  1.00  0.00     0.167 HD
ATOM     56  C   UNL A   1      44.088  26.571  33.208  1.00  0.00     0.074 A 
ATOM     57  C   UNL A   1      43.733  26.937  34.567  1.00  0.00     0.031 C 
ATOM     58  C   UNL A   1      44.614  25.436  32.661  1.00  0.00     0.034 A 
BRANCH  45  59
ATOM     59  C   UNL A   1      43.327  23.280  27.118  1.00  0.00     0.023 A 
ATOM     60  C   UNL A   1      42.782  21.984  27.191  1.00  0.00     0.031 A 
ATOM     61  C   UNL A   1      44.147  23.533  26.004  1.00  0.00     0.131 A 
ATOM     62  C   UNL A   1      43.134  20.988  26.264  1.00  0.00     0.055 A 
ATOM     63  C   UNL A   1      44.552  22.527  25.116  1.00  0.00     0.041 A 
ATOM     64  F   UNL A   1      44.552  24.776  25.698  1.00  0.00    -0.206 F 
ATOM     65  C   UNL A   1      44.055  21.239  25.253  1.00  0.00     0.022 A 
BRANCH  62  66
ATOM     66  S   UNL A   1      42.353  19.357  26.397  1.00  0.00     0.124 S 
ATOM     67  O   UNL A   1      41.428  19.363  25.269  1.00  0.00    -0.237 OA
ATOM     68  O   UNL A   1      43.498  18.460  26.290  1.00  0.00    -0.237 OA
ATOM     69  O   UNL A   1      41.719  19.393  27.715  1.00  0.00    -0.744 OA
ENDBRANCH  62  66
ENDBRANCH  45  59
BRANCH  46  70
ATOM     70  C   UNL A   1      41.220  30.428  33.282  1.00  0.00     0.023 A 
ATOM     71  C   UNL A   1      41.233  31.837  33.390  1.00  0.00     0.031 A 
ATOM     72  C   UNL A   1      39.975  29.783  33.291  1.00  0.00     0.131 A 
ATOM     73  C   UNL A   1      40.039  32.563  33.291  1.00  0.00     0.055 A 
ATOM     74  C   UNL A   1      38.780  30.514  33.294  1.00  0.00     0.041 A 
ATOM     75  F   UNL A   1      39.891  28.452  33.155  1.00  0.00    -0.206 F 
ATOM     76  C   UNL A   1      38.807  31.909  33.239  1.00  0.00     0.022 A 
BRANCH  73  77
ATOM     77  S   UNL A   1      40.149  34.336  32.898  1.00  0.00     0.124 S 
ATOM     78  O   UNL A   1      39.527  34.395  31.581  1.00  0.00    -0.237 OA
ATOM     79  O   UNL A   1      39.397  34.948  33.993  1.00  0.00    -0.237 OA
ATOM     80  O   UNL A   1      41.583  34.612  32.932  1.00  0.00    -0.744 OA
ENDBRANCH  73  77
ENDBRANCH  46  70
BRANCH  58  81
ATOM     81  C   UNL A   1      45.036  24.232  33.465  1.00  0.00     0.023 A 
ATOM     82  C   UNL A   1      46.378  23.991  33.795  1.00  0.00     0.031 A 
ATOM     83  C   UNL A   1      44.109  23.235  33.849  1.00  0.00     0.131 A 
ATOM     84  C   UNL A   1      46.742  22.846  34.524  1.00  0.00     0.055 A 
ATOM     85  C   UNL A   1      44.487  22.056  34.496  1.00  0.00     0.041 A 
ATOM     86  F   UNL A   1      42.791  23.381  33.655  1.00  0.00    -0.206 F 
ATOM     87  C   UNL A   1      45.812  21.860  34.850  1.00  0.00     0.022 A 
BRANCH  84  88
ATOM     88  S   UNL A   1      48.448  22.703  35.117  1.00  0.00     0.124 S 
ATOM     89  O   UNL A   1      48.270  22.460  36.544  1.00  0.00    -0.237 OA
ATOM     90  O   UNL A   1      48.936  21.569  34.336  1.00  0.00    -0.237 OA
ATOM     91  O   UNL A   1      49.044  23.992  34.773  1.00  0.00    -0.744 OA
ENDBRANCH  84  88
ENDBRANCH  58  81
ENDBRANCH  32  33
ENDBRANCH  24  27
ENDBRANCH  22  23
ENDBRANCH   1  22
TORSDOF 17
ENDMDL
