MODEL 1
REMARK VINA RESULT:     -11.5      0.000      0.000
REMARK SMILES COc1ncnc(N2CCSC[C@@H]2CC(=O)NCCCCNC(=O)c2ccc(-c3c4nc(c(-c5cc(S(=O)(=O)[O-])ccc5F)c5ccc([nH]5)c(-c5cc(S(=O)(=O)[O-])ccc5F)c5nc(c(-c6cc(S(=O)(=O)[O-])ccc6F)c6ccc3[nH]6)C=C5)C=C4)cc2)c1[N+](=O)[O-]
REMARK SMILES IDX 19 1 18 2 17 3 15 4 16 5 14 7 13 8 8 9 9 10 10 11 12 12
REMARK SMILES IDX 11 13 7 14 3 15 4 16 88 17 5 18 6 19 2 20 1 21 89 22 90 23
REMARK SMILES IDX 91 24 20 25 21 26 22 27 23 28 24 30 25 31 26 32 87 33 27 34
REMARK SMILES IDX 86 35 28 36 29 37 30 38 80 39 31 40 85 41 79 42 81 43 32 44
REMARK SMILES IDX 84 45 78 46 77 47 33 49 65 50 45 51 64 52 46 53 49 54 63 55
REMARK SMILES IDX 82 56 47 57 48 58 62 60 83 61 50 62 34 63 35 64 43 65 36 66
REMARK SMILES IDX 42 67 44 68 41 69 37 70 38 71 39 72 40 73 66 74 67 75 75 76
REMARK SMILES IDX 68 77 74 78 76 79 73 80 69 81 70 82 71 83 72 84 51 85 52 86
REMARK SMILES IDX 60 87 53 88 59 89 61 90 58 91 54 92 55 93 56 94 57 95
REMARK H PARENT 17 6 22 29 81 48 49 59
REMARK Flexibility Score: inf
ROOT
ATOM      1  C   UNL A   1      31.937  29.362  27.227  1.00  0.00     0.023 C 
ENDROOT
BRANCH   1   2
ATOM      2  C   UNL A   1      32.432  27.984  26.789  1.00  0.00     0.116 C 
BRANCH   2   3
ATOM      3  N   UNL A   1      31.439  26.972  27.083  1.00  0.00    -0.356 N 
ATOM      4  C   UNL A   1      30.584  26.332  26.238  1.00  0.00     0.222 C 
ATOM      5  O   UNL A   1      29.714  25.607  26.721  1.00  0.00    -0.275 OA
ATOM      6  H   UNL A   1      31.372  26.708  28.029  1.00  0.00     0.163 HD
BRANCH   4   7
ATOM      7  C   UNL A   1      30.710  26.512  24.739  1.00  0.00     0.126 C 
BRANCH   7   8
ATOM      8  C   UNL A   1      31.328  25.273  24.061  1.00  0.00     0.103 C 
ATOM      9  N   UNL A   1      32.763  25.163  24.431  1.00  0.00    -0.345 N 
ATOM     10  C   UNL A   1      33.714  26.157  23.912  1.00  0.00     0.129 C 
ATOM     11  C   UNL A   1      33.726  26.234  22.383  1.00  0.00     0.091 C 
ATOM     12  C   UNL A   1      31.195  25.250  22.523  1.00  0.00     0.095 C 
ATOM     13  S   UNL A   1      32.091  26.599  21.682  1.00  0.00    -0.158 SA
BRANCH   9  14
ATOM     14  C   UNL A   1      33.173  24.007  25.063  1.00  0.00     0.215 A 
ATOM     15  C   UNL A   1      34.095  21.825  25.182  1.00  0.00     0.299 A 
ATOM     16  N   UNL A   1      34.014  21.802  26.523  1.00  0.00    -0.196 NA
ATOM     17  C   UNL A   1      33.664  22.887  24.421  1.00  0.00     0.372 A 
ATOM     18  C   UNL A   1      33.522  22.914  27.079  1.00  0.00     0.228 A 
ATOM     19  N   UNL A   1      33.106  24.009  26.415  1.00  0.00    -0.212 NA
BRANCH  15  20
ATOM     20  O   UNL A   1      34.583  20.678  24.609  1.00  0.00    -0.476 OA
ATOM     21  C   UNL A   1      33.799  19.557  25.022  1.00  0.00     0.280 C 
ENDBRANCH  15  20
BRANCH  17  22
ATOM     22  N   UNL A   1      33.845  22.840  23.011  1.00  0.00     0.072 N 
ATOM     23  O   UNL A   1      34.944  23.189  22.562  1.00  0.00    -0.258 OA
ATOM     24  O   UNL A   1      32.887  22.444  22.330  1.00  0.00    -0.258 OA
ENDBRANCH  17  22
ENDBRANCH   9  14
ENDBRANCH   7   8
ENDBRANCH   4   7
ENDBRANCH   2   3
ENDBRANCH   1   2
BRANCH   1  25
ATOM     25  C   UNL A   1      32.635  30.534  26.541  1.00  0.00     0.023 C 
BRANCH  25  26
ATOM     26  C   UNL A   1      33.420  31.446  27.475  1.00  0.00     0.116 C 
BRANCH  26  27
ATOM     27  N   UNL A   1      32.888  32.801  27.541  1.00  0.00    -0.352 N 
ATOM     28  C   UNL A   1      33.307  33.839  28.342  1.00  0.00     0.251 C 
ATOM     29  H   UNL A   1      32.135  32.999  26.938  1.00  0.00     0.163 HD
ATOM     30  O   UNL A   1      32.697  34.900  28.358  1.00  0.00    -0.269 OA
BRANCH  28  31
ATOM     31  C   UNL A   1      34.478  33.622  29.215  1.00  0.00     0.039 A 
ATOM     32  C   UNL A   1      34.309  32.915  30.406  1.00  0.00     0.014 A 
ATOM     33  C   UNL A   1      35.747  34.025  28.794  1.00  0.00     0.014 A 
ATOM     34  C   UNL A   1      35.434  32.523  31.134  1.00  0.00     0.010 A 
ATOM     35  C   UNL A   1      36.867  33.579  29.485  1.00  0.00     0.010 A 
ATOM     36  C   UNL A   1      36.720  32.806  30.648  1.00  0.00    -0.014 A 
BRANCH  36  37
ATOM     37  C   UNL A   1      37.937  32.272  31.310  1.00  0.00     0.031 A 
ATOM     38  C   UNL A   1      38.692  31.138  30.682  1.00  0.00     0.074 A 
ATOM     39  C   UNL A   1      38.289  32.740  32.524  1.00  0.00     0.049 A 
ATOM     40  N   UNL A   1      39.680  30.433  31.167  1.00  0.00    -0.248 NA
ATOM     41  C   UNL A   1      38.252  30.722  29.342  1.00  0.00     0.031 C 
ATOM     42  C   UNL A   1      37.606  33.815  33.249  1.00  0.00     0.029 A 
ATOM     43  N   UNL A   1      39.294  32.357  33.376  1.00  0.00    -0.354 N 
ATOM     44  C   UNL A   1      39.972  29.478  30.200  1.00  0.00     0.074 A 
ATOM     45  C   UNL A   1      39.018  29.664  29.126  1.00  0.00     0.031 C 
ATOM     46  C   UNL A   1      38.215  34.007  34.430  1.00  0.00     0.029 A 
ATOM     47  C   UNL A   1      39.299  33.040  34.570  1.00  0.00     0.049 A 
ATOM     48  H   UNL A   1      39.951  31.657  33.153  1.00  0.00     0.167 HD
ATOM     49  C   UNL A   1      40.955  28.545  30.203  1.00  0.00     0.034 A 
ATOM     50  C   UNL A   1      40.069  32.886  35.663  1.00  0.00     0.034 A 
ATOM     51  C   UNL A   1      41.904  28.386  31.277  1.00  0.00     0.049 A 
ATOM     52  C   UNL A   1      41.129  31.815  35.661  1.00  0.00     0.074 A 
ATOM     53  C   UNL A   1      42.988  27.530  31.351  1.00  0.00     0.029 A 
ATOM     54  N   UNL A   1      41.873  29.091  32.474  1.00  0.00    -0.354 N 
ATOM     55  N   UNL A   1      41.426  30.952  34.718  1.00  0.00    -0.248 NA
ATOM     56  C   UNL A   1      41.954  31.695  36.871  1.00  0.00     0.031 C 
ATOM     57  C   UNL A   1      43.575  27.672  32.615  1.00  0.00     0.029 A 
ATOM     58  C   UNL A   1      42.895  28.663  33.306  1.00  0.00     0.049 A 
ATOM     59  H   UNL A   1      41.221  29.793  32.698  1.00  0.00     0.167 HD
ATOM     60  C   UNL A   1      42.487  30.200  35.213  1.00  0.00     0.074 A 
ATOM     61  C   UNL A   1      42.783  30.718  36.534  1.00  0.00     0.031 C 
ATOM     62  C   UNL A   1      43.160  29.176  34.629  1.00  0.00     0.034 A 
BRANCH  49  63
ATOM     63  C   UNL A   1      41.031  27.616  29.017  1.00  0.00     0.023 A 
ATOM     64  C   UNL A   1      42.023  27.759  28.033  1.00  0.00     0.031 A 
ATOM     65  C   UNL A   1      40.078  26.597  28.849  1.00  0.00     0.131 A 
ATOM     66  C   UNL A   1      41.995  26.949  26.887  1.00  0.00     0.055 A 
ATOM     67  C   UNL A   1      40.102  25.742  27.746  1.00  0.00     0.041 A 
ATOM     68  F   UNL A   1      39.094  26.427  29.748  1.00  0.00    -0.206 F 
ATOM     69  C   UNL A   1      41.055  25.927  26.748  1.00  0.00     0.022 A 
BRANCH  66  70
ATOM     70  S   UNL A   1      43.118  27.346  25.519  1.00  0.00     0.124 S 
ATOM     71  O   UNL A   1      44.182  28.069  26.212  1.00  0.00    -0.237 OA
ATOM     72  O   UNL A   1      43.470  26.027  25.007  1.00  0.00    -0.237 OA
ATOM     73  O   UNL A   1      42.297  28.165  24.629  1.00  0.00    -0.744 OA
ENDBRANCH  66  70
ENDBRANCH  49  63
BRANCH  50  74
ATOM     74  C   UNL A   1      39.852  33.738  36.866  1.00  0.00     0.023 A 
ATOM     75  C   UNL A   1      39.173  33.242  37.989  1.00  0.00     0.031 A 
ATOM     76  C   UNL A   1      40.295  35.073  36.897  1.00  0.00     0.131 A 
ATOM     77  C   UNL A   1      38.920  34.085  39.082  1.00  0.00     0.055 A 
ATOM     78  C   UNL A   1      40.081  35.895  38.004  1.00  0.00     0.041 A 
ATOM     79  F   UNL A   1      40.956  35.593  35.851  1.00  0.00    -0.206 F 
ATOM     80  C   UNL A   1      39.380  35.405  39.103  1.00  0.00     0.022 A 
BRANCH  77  81
ATOM     81  S   UNL A   1      37.923  33.450  40.457  1.00  0.00     0.124 S 
ATOM     82  O   UNL A   1      37.661  34.664  41.220  1.00  0.00    -0.237 OA
ATOM     83  O   UNL A   1      36.780  32.870  39.759  1.00  0.00    -0.237 OA
ATOM     84  O   UNL A   1      38.809  32.485  41.103  1.00  0.00    -0.744 OA
ENDBRANCH  77  81
ENDBRANCH  50  74
BRANCH  62  85
ATOM     85  C   UNL A   1      44.299  28.576  35.411  1.00  0.00     0.023 A 
ATOM     86  C   UNL A   1      44.084  27.555  36.352  1.00  0.00     0.031 A 
ATOM     87  C   UNL A   1      45.612  29.033  35.209  1.00  0.00     0.131 A 
ATOM     88  C   UNL A   1      45.167  27.049  37.088  1.00  0.00     0.055 A 
ATOM     89  C   UNL A   1      46.691  28.490  35.908  1.00  0.00     0.041 A 
ATOM     90  F   UNL A   1      45.868  30.007  34.321  1.00  0.00    -0.206 F 
ATOM     91  C   UNL A   1      46.470  27.499  36.860  1.00  0.00     0.022 A 
BRANCH  88  92
ATOM     92  S   UNL A   1      44.842  25.829  38.390  1.00  0.00     0.124 S 
ATOM     93  O   UNL A   1      43.845  26.516  39.205  1.00  0.00    -0.237 OA
ATOM     94  O   UNL A   1      44.361  24.679  37.631  1.00  0.00    -0.237 OA
ATOM     95  O   UNL A   1      46.146  25.649  39.024  1.00  0.00    -0.744 OA
ENDBRANCH  88  92
ENDBRANCH  62  85
ENDBRANCH  36  37
ENDBRANCH  28  31
ENDBRANCH  26  27
ENDBRANCH  25  26
ENDBRANCH   1  25
TORSDOF 18
ENDMDL
MODEL 2
REMARK VINA RESULT:     -11.4      2.403      3.252
REMARK SMILES COc1ncnc(N2CCSC[C@@H]2CC(=O)NCCCCNC(=O)c2ccc(-c3c4nc(c(-c5cc(S(=O)(=O)[O-])ccc5F)c5ccc([nH]5)c(-c5cc(S(=O)(=O)[O-])ccc5F)c5nc(c(-c6cc(S(=O)(=O)[O-])ccc6F)c6ccc3[nH]6)C=C5)C=C4)cc2)c1[N+](=O)[O-]
REMARK SMILES IDX 19 1 18 2 17 3 15 4 16 5 14 7 13 8 8 9 9 10 10 11 12 12
REMARK SMILES IDX 11 13 7 14 3 15 4 16 88 17 5 18 6 19 2 20 1 21 89 22 90 23
REMARK SMILES IDX 91 24 20 25 21 26 22 27 23 28 24 30 25 31 26 32 87 33 27 34
REMARK SMILES IDX 86 35 28 36 29 37 30 38 80 39 31 40 85 41 79 42 81 43 32 44
REMARK SMILES IDX 84 45 78 46 77 47 33 49 65 50 45 51 64 52 46 53 49 54 63 55
REMARK SMILES IDX 82 56 47 57 48 58 62 60 83 61 50 62 34 63 35 64 43 65 36 66
REMARK SMILES IDX 42 67 44 68 41 69 37 70 38 71 39 72 40 73 66 74 67 75 75 76
REMARK SMILES IDX 68 77 74 78 76 79 73 80 69 81 70 82 71 83 72 84 51 85 52 86
REMARK SMILES IDX 60 87 53 88 59 89 61 90 58 91 54 92 55 93 56 94 57 95
REMARK H PARENT 17 6 22 29 81 48 49 59
REMARK Flexibility Score: inf
ROOT
ATOM      1  C   UNL A   1      32.493  29.293  24.219  1.00  0.00     0.023 C 
ENDROOT
BRANCH   1   2
ATOM      2  C   UNL A   1      31.734  28.753  23.006  1.00  0.00     0.116 C 
BRANCH   2   3
ATOM      3  N   UNL A   1      32.610  27.955  22.175  1.00  0.00    -0.356 N 
ATOM      4  C   UNL A   1      32.839  26.614  22.203  1.00  0.00     0.222 C 
ATOM      5  O   UNL A   1      33.740  26.156  21.498  1.00  0.00    -0.275 OA
ATOM      6  H   UNL A   1      33.112  28.454  21.490  1.00  0.00     0.163 HD
BRANCH   4   7
ATOM      7  C   UNL A   1      31.999  25.711  23.082  1.00  0.00     0.126 C 
BRANCH   7   8
ATOM      8  C   UNL A   1      32.807  25.152  24.271  1.00  0.00     0.103 C 
ATOM      9  N   UNL A   1      33.028  23.695  24.084  1.00  0.00    -0.345 N 
ATOM     10  C   UNL A   1      31.884  22.778  24.185  1.00  0.00     0.129 C 
ATOM     11  C   UNL A   1      31.153  22.877  25.527  1.00  0.00     0.091 C 
ATOM     12  C   UNL A   1      32.165  25.397  25.654  1.00  0.00     0.095 C 
ATOM     13  S   UNL A   1      30.564  24.556  25.887  1.00  0.00    -0.158 SA
BRANCH   9  14
ATOM     14  C   UNL A   1      34.333  23.247  24.045  1.00  0.00     0.215 A 
ATOM     15  C   UNL A   1      36.265  22.157  24.883  1.00  0.00     0.299 A 
ATOM     16  N   UNL A   1      36.944  22.358  23.741  1.00  0.00    -0.196 NA
ATOM     17  C   UNL A   1      34.980  22.606  25.083  1.00  0.00     0.372 A 
ATOM     18  C   UNL A   1      36.262  22.992  22.782  1.00  0.00     0.228 A 
ATOM     19  N   UNL A   1      34.996  23.437  22.879  1.00  0.00    -0.212 NA
BRANCH  15  20
ATOM     20  O   UNL A   1      36.970  21.523  25.875  1.00  0.00    -0.476 OA
ATOM     21  C   UNL A   1      38.286  21.211  25.414  1.00  0.00     0.280 C 
ENDBRANCH  15  20
BRANCH  17  22
ATOM     22  N   UNL A   1      34.325  22.293  26.306  1.00  0.00     0.072 N 
ATOM     23  O   UNL A   1      33.880  21.147  26.442  1.00  0.00    -0.258 OA
ATOM     24  O   UNL A   1      34.254  23.194  27.156  1.00  0.00    -0.258 OA
ENDBRANCH  17  22
ENDBRANCH   9  14
ENDBRANCH   7   8
ENDBRANCH   4   7
ENDBRANCH   2   3
ENDBRANCH   1   2
BRANCH   1  25
ATOM     25  C   UNL A   1      31.751  29.153  25.545  1.00  0.00     0.023 C 
BRANCH  25  26
ATOM     26  C   UNL A   1      32.458  29.776  26.743  1.00  0.00     0.116 C 
BRANCH  26  27
ATOM     27  N   UNL A   1      32.217  31.207  26.876  1.00  0.00    -0.352 N 
ATOM     28  C   UNL A   1      33.068  32.169  27.372  1.00  0.00     0.251 C 
ATOM     29  H   UNL A   1      31.336  31.526  26.573  1.00  0.00     0.163 HD
ATOM     30  O   UNL A   1      32.690  33.323  27.513  1.00  0.00    -0.269 OA
BRANCH  28  31
ATOM     31  C   UNL A   1      34.429  31.759  27.774  1.00  0.00     0.039 A 
ATOM     32  C   UNL A   1      35.417  32.736  27.899  1.00  0.00     0.014 A 
ATOM     33  C   UNL A   1      34.683  30.431  28.126  1.00  0.00     0.014 A 
ATOM     34  C   UNL A   1      36.643  32.398  28.476  1.00  0.00     0.010 A 
ATOM     35  C   UNL A   1      35.879  30.112  28.758  1.00  0.00     0.010 A 
ATOM     36  C   UNL A   1      36.859  31.097  28.958  1.00  0.00    -0.014 A 
BRANCH  36  37
ATOM     37  C   UNL A   1      38.086  30.741  29.714  1.00  0.00     0.031 A 
ATOM     38  C   UNL A   1      39.045  29.735  29.149  1.00  0.00     0.074 A 
ATOM     39  C   UNL A   1      38.271  31.244  30.951  1.00  0.00     0.049 A 
ATOM     40  N   UNL A   1      40.086  29.178  29.711  1.00  0.00    -0.248 NA
ATOM     41  C   UNL A   1      38.776  29.272  27.779  1.00  0.00     0.031 C 
ATOM     42  C   UNL A   1      37.384  32.201  31.618  1.00  0.00     0.029 A 
ATOM     43  N   UNL A   1      39.253  31.004  31.879  1.00  0.00    -0.354 N 
ATOM     44  C   UNL A   1      40.589  28.285  28.771  1.00  0.00     0.074 A 
ATOM     45  C   UNL A   1      39.704  28.340  27.626  1.00  0.00     0.031 C 
ATOM     46  C   UNL A   1      37.865  32.469  32.842  1.00  0.00     0.029 A 
ATOM     47  C   UNL A   1      39.065  31.669  33.068  1.00  0.00     0.049 A 
ATOM     48  H   UNL A   1      40.020  30.410  31.709  1.00  0.00     0.167 HD
ATOM     49  C   UNL A   1      41.695  27.507  28.853  1.00  0.00     0.034 A 
ATOM     50  C   UNL A   1      39.763  31.619  34.219  1.00  0.00     0.034 A 
ATOM     51  C   UNL A   1      42.570  27.478  29.998  1.00  0.00     0.049 A 
ATOM     52  C   UNL A   1      40.964  30.715  34.301  1.00  0.00     0.074 A 
ATOM     53  C   UNL A   1      43.759  26.789  30.158  1.00  0.00     0.029 A 
ATOM     54  N   UNL A   1      42.344  28.159  31.187  1.00  0.00    -0.354 N 
ATOM     55  N   UNL A   1      41.458  29.913  33.386  1.00  0.00    -0.248 NA
ATOM     56  C   UNL A   1      41.702  30.705  35.572  1.00  0.00     0.031 C 
ATOM     57  C   UNL A   1      44.219  27.003  31.463  1.00  0.00     0.029 A 
ATOM     58  C   UNL A   1      43.351  27.877  32.098  1.00  0.00     0.049 A 
ATOM     59  H   UNL A   1      41.581  28.756  31.358  1.00  0.00     0.167 HD
ATOM     60  C   UNL A   1      42.575  29.320  33.964  1.00  0.00     0.074 A 
ATOM     61  C   UNL A   1      42.689  29.863  35.302  1.00  0.00     0.031 C 
ATOM     62  C   UNL A   1      43.434  28.412  33.436  1.00  0.00     0.034 A 
BRANCH  49  63
ATOM     63  C   UNL A   1      41.997  26.610  27.679  1.00  0.00     0.023 A 
ATOM     64  C   UNL A   1      41.719  25.233  27.713  1.00  0.00     0.031 A 
ATOM     65  C   UNL A   1      42.604  27.130  26.523  1.00  0.00     0.131 A 
ATOM     66  C   UNL A   1      42.116  24.410  26.649  1.00  0.00     0.055 A 
ATOM     67  C   UNL A   1      42.926  26.320  25.433  1.00  0.00     0.041 A 
ATOM     68  F   UNL A   1      42.912  28.434  26.441  1.00  0.00    -0.206 F 
ATOM     69  C   UNL A   1      42.698  24.948  25.498  1.00  0.00     0.022 A 
BRANCH  66  70
ATOM     70  S   UNL A   1      41.991  22.613  26.850  1.00  0.00     0.124 S 
ATOM     71  O   UNL A   1      42.079  22.154  25.466  1.00  0.00    -0.237 OA
ATOM     72  O   UNL A   1      43.139  22.309  27.697  1.00  0.00    -0.237 OA
ATOM     73  O   UNL A   1      40.685  22.428  27.478  1.00  0.00    -0.744 OA
ENDBRANCH  66  70
ENDBRANCH  49  63
BRANCH  50  74
ATOM     74  C   UNL A   1      39.331  32.419  35.400  1.00  0.00     0.023 A 
ATOM     75  C   UNL A   1      39.790  33.732  35.587  1.00  0.00     0.031 A 
ATOM     76  C   UNL A   1      38.477  31.871  36.373  1.00  0.00     0.131 A 
ATOM     77  C   UNL A   1      39.423  34.441  36.742  1.00  0.00     0.055 A 
ATOM     78  C   UNL A   1      38.079  32.596  37.497  1.00  0.00     0.041 A 
ATOM     79  F   UNL A   1      38.005  30.622  36.235  1.00  0.00    -0.206 F 
ATOM     80  C   UNL A   1      38.562  33.887  37.692  1.00  0.00     0.022 A 
BRANCH  77  81
ATOM     81  S   UNL A   1      40.143  36.083  37.017  1.00  0.00     0.124 S 
ATOM     82  O   UNL A   1      39.380  36.553  38.168  1.00  0.00    -0.237 OA
ATOM     83  O   UNL A   1      41.545  35.761  37.264  1.00  0.00    -0.237 OA
ATOM     84  O   UNL A   1      39.878  36.785  35.763  1.00  0.00    -0.744 OA
ENDBRANCH  77  81
ENDBRANCH  50  74
BRANCH  62  85
ATOM     85  C   UNL A   1      44.585  27.977  34.305  1.00  0.00     0.023 A 
ATOM     86  C   UNL A   1      44.505  26.826  35.106  1.00  0.00     0.031 A 
ATOM     87  C   UNL A   1      45.774  28.726  34.330  1.00  0.00     0.131 A 
ATOM     88  C   UNL A   1      45.585  26.475  35.931  1.00  0.00     0.055 A 
ATOM     89  C   UNL A   1      46.862  28.345  35.115  1.00  0.00     0.041 A 
ATOM     90  F   UNL A   1      45.898  29.834  33.583  1.00  0.00    -0.206 F 
ATOM     91  C   UNL A   1      46.767  27.219  35.929  1.00  0.00     0.022 A 
BRANCH  88  92
ATOM     92  S   UNL A   1      45.402  25.062  37.054  1.00  0.00     0.124 S 
ATOM     93  O   UNL A   1      45.707  25.664  38.348  1.00  0.00    -0.237 OA
ATOM     94  O   UNL A   1      44.012  24.672  36.845  1.00  0.00    -0.237 OA
ATOM     95  O   UNL A   1      46.393  24.106  36.564  1.00  0.00    -0.744 OA
ENDBRANCH  88  92
ENDBRANCH  62  85
ENDBRANCH  36  37
ENDBRANCH  28  31
ENDBRANCH  26  27
ENDBRANCH  25  26
ENDBRANCH   1  25
TORSDOF 18
ENDMDL
MODEL 3
REMARK VINA RESULT:     -11.3      5.466     10.036
REMARK SMILES COc1ncnc(N2CCSC[C@@H]2CC(=O)NCCCCNC(=O)c2ccc(-c3c4nc(c(-c5cc(S(=O)(=O)[O-])ccc5F)c5ccc([nH]5)c(-c5cc(S(=O)(=O)[O-])ccc5F)c5nc(c(-c6cc(S(=O)(=O)[O-])ccc6F)c6ccc3[nH]6)C=C5)C=C4)cc2)c1[N+](=O)[O-]
REMARK SMILES IDX 19 1 18 2 17 3 15 4 16 5 14 7 13 8 8 9 9 10 10 11 12 12
REMARK SMILES IDX 11 13 7 14 3 15 4 16 88 17 5 18 6 19 2 20 1 21 89 22 90 23
REMARK SMILES IDX 91 24 20 25 21 26 22 27 23 28 24 30 25 31 26 32 87 33 27 34
REMARK SMILES IDX 86 35 28 36 29 37 30 38 80 39 31 40 85 41 79 42 81 43 32 44
REMARK SMILES IDX 84 45 78 46 77 47 33 49 65 50 45 51 64 52 46 53 49 54 63 55
REMARK SMILES IDX 82 56 47 57 48 58 62 60 83 61 50 62 34 63 35 64 43 65 36 66
REMARK SMILES IDX 42 67 44 68 41 69 37 70 38 71 39 72 40 73 66 74 67 75 75 76
REMARK SMILES IDX 68 77 74 78 76 79 73 80 69 81 70 82 71 83 72 84 51 85 52 86
REMARK SMILES IDX 60 87 53 88 59 89 61 90 58 91 54 92 55 93 56 94 57 95
REMARK H PARENT 17 6 22 29 81 48 49 59
REMARK Flexibility Score: inf
ROOT
ATOM      1  C   UNL A   1      34.661  22.658  26.512  1.00  0.00     0.023 C 
ENDROOT
BRANCH   1   2
ATOM      2  C   UNL A   1      33.595  22.207  27.512  1.00  0.00     0.116 C 
BRANCH   2   3
ATOM      3  N   UNL A   1      32.332  21.989  26.840  1.00  0.00    -0.356 N 
ATOM      4  C   UNL A   1      31.314  22.864  26.612  1.00  0.00     0.222 C 
ATOM      5  O   UNL A   1      30.259  22.430  26.148  1.00  0.00    -0.275 OA
ATOM      6  H   UNL A   1      32.187  21.076  26.498  1.00  0.00     0.163 HD
BRANCH   4   7
ATOM      7  C   UNL A   1      31.486  24.337  26.923  1.00  0.00     0.126 C 
BRANCH   7   8
ATOM      8  C   UNL A   1      31.401  25.207  25.653  1.00  0.00     0.103 C 
ATOM      9  N   UNL A   1      32.753  25.358  25.059  1.00  0.00    -0.345 N 
ATOM     10  C   UNL A   1      33.763  26.157  25.768  1.00  0.00     0.129 C 
ATOM     11  C   UNL A   1      33.308  27.595  26.037  1.00  0.00     0.091 C 
ATOM     12  C   UNL A   1      30.782  26.604  25.873  1.00  0.00     0.095 C 
ATOM     13  S   UNL A   1      31.756  27.681  26.976  1.00  0.00    -0.158 SA
BRANCH   9  14
ATOM     14  C   UNL A   1      32.933  24.926  23.760  1.00  0.00     0.215 A 
ATOM     15  C   UNL A   1      33.164  25.183  21.414  1.00  0.00     0.299 A 
ATOM     16  N   UNL A   1      33.387  23.870  21.234  1.00  0.00    -0.196 NA
ATOM     17  C   UNL A   1      32.908  25.741  22.646  1.00  0.00     0.372 A 
ATOM     18  C   UNL A   1      33.389  23.139  22.354  1.00  0.00     0.228 A 
ATOM     19  N   UNL A   1      33.179  23.604  23.599  1.00  0.00    -0.212 NA
BRANCH  15  20
ATOM     20  O   UNL A   1      33.144  25.932  20.265  1.00  0.00    -0.476 OA
ATOM     21  C   UNL A   1      32.288  25.318  19.299  1.00  0.00     0.280 C 
ENDBRANCH  15  20
BRANCH  17  22
ATOM     22  N   UNL A   1      32.741  27.150  22.741  1.00  0.00     0.072 N 
ATOM     23  O   UNL A   1      33.762  27.848  22.761  1.00  0.00    -0.258 OA
ATOM     24  O   UNL A   1      31.578  27.580  22.789  1.00  0.00    -0.258 OA
ENDBRANCH  17  22
ENDBRANCH   9  14
ENDBRANCH   7   8
ENDBRANCH   4   7
ENDBRANCH   2   3
ENDBRANCH   1   2
BRANCH   1  25
ATOM     25  C   UNL A   1      35.462  21.521  25.883  1.00  0.00     0.023 C 
BRANCH  25  26
ATOM     26  C   UNL A   1      36.832  21.923  25.350  1.00  0.00     0.116 C 
BRANCH  26  27
ATOM     27  N   UNL A   1      37.807  20.840  25.390  1.00  0.00    -0.352 N 
ATOM     28  C   UNL A   1      39.085  20.868  25.901  1.00  0.00     0.251 C 
ATOM     29  H   UNL A   1      37.515  19.983  25.004  1.00  0.00     0.163 HD
ATOM     30  O   UNL A   1      39.827  19.904  25.775  1.00  0.00    -0.269 OA
BRANCH  28  31
ATOM     31  C   UNL A   1      39.550  22.107  26.557  1.00  0.00     0.039 A 
ATOM     32  C   UNL A   1      40.515  22.016  27.560  1.00  0.00     0.014 A 
ATOM     33  C   UNL A   1      39.106  23.349  26.098  1.00  0.00     0.014 A 
ATOM     34  C   UNL A   1      41.113  23.182  28.041  1.00  0.00     0.010 A 
ATOM     35  C   UNL A   1      39.748  24.503  26.532  1.00  0.00     0.010 A 
ATOM     36  C   UNL A   1      40.771  24.427  27.490  1.00  0.00    -0.014 A 
BRANCH  36  37
ATOM     37  C   UNL A   1      41.494  25.669  27.864  1.00  0.00     0.031 A 
ATOM     38  C   UNL A   1      40.760  26.780  28.555  1.00  0.00     0.074 A 
ATOM     39  C   UNL A   1      42.776  25.829  27.481  1.00  0.00     0.049 A 
ATOM     40  N   UNL A   1      41.163  27.993  28.829  1.00  0.00    -0.248 NA
ATOM     41  C   UNL A   1      39.376  26.495  28.963  1.00  0.00     0.031 C 
ATOM     42  C   UNL A   1      43.579  24.832  26.768  1.00  0.00     0.029 A 
ATOM     43  N   UNL A   1      43.624  26.900  27.613  1.00  0.00    -0.354 N 
ATOM     44  C   UNL A   1      40.078  28.625  29.427  1.00  0.00     0.074 A 
ATOM     45  C   UNL A   1      38.986  27.673  29.425  1.00  0.00     0.031 C 
ATOM     46  C   UNL A   1      44.802  25.335  26.534  1.00  0.00     0.029 A 
ATOM     47  C   UNL A   1      44.856  26.706  27.032  1.00  0.00     0.049 A 
ATOM     48  H   UNL A   1      43.374  27.731  28.080  1.00  0.00     0.167 HD
ATOM     49  C   UNL A   1      40.009  29.876  29.943  1.00  0.00     0.034 A 
ATOM     50  C   UNL A   1      45.900  27.545  26.892  1.00  0.00     0.034 A 
ATOM     51  C   UNL A   1      41.114  30.802  29.947  1.00  0.00     0.049 A 
ATOM     52  C   UNL A   1      45.785  28.945  27.437  1.00  0.00     0.074 A 
ATOM     53  C   UNL A   1      41.179  32.063  30.512  1.00  0.00     0.029 A 
ATOM     54  N   UNL A   1      42.343  30.574  29.343  1.00  0.00    -0.354 N 
ATOM     55  N   UNL A   1      44.770  29.512  28.046  1.00  0.00    -0.248 NA
ATOM     56  C   UNL A   1      46.955  29.819  27.273  1.00  0.00     0.031 C 
ATOM     57  C   UNL A   1      42.425  32.621  30.198  1.00  0.00     0.029 A 
ATOM     58  C   UNL A   1      43.161  31.683  29.490  1.00  0.00     0.049 A 
ATOM     59  H   UNL A   1      42.598  29.744  28.879  1.00  0.00     0.167 HD
ATOM     60  C   UNL A   1      45.186  30.803  28.355  1.00  0.00     0.074 A 
ATOM     61  C   UNL A   1      46.548  30.926  27.876  1.00  0.00     0.031 C 
ATOM     62  C   UNL A   1      44.508  31.796  28.984  1.00  0.00     0.034 A 
BRANCH  49  63
ATOM     63  C   UNL A   1      38.686  30.312  30.521  1.00  0.00     0.023 A 
ATOM     64  C   UNL A   1      37.757  31.044  29.762  1.00  0.00     0.031 A 
ATOM     65  C   UNL A   1      38.364  30.025  31.858  1.00  0.00     0.131 A 
ATOM     66  C   UNL A   1      36.587  31.530  30.365  1.00  0.00     0.055 A 
ATOM     67  C   UNL A   1      37.162  30.443  32.431  1.00  0.00     0.041 A 
ATOM     68  F   UNL A   1      39.222  29.347  32.637  1.00  0.00    -0.206 F 
ATOM     69  C   UNL A   1      36.272  31.215  31.689  1.00  0.00     0.022 A 
BRANCH  66  70
ATOM     70  S   UNL A   1      35.555  32.697  29.436  1.00  0.00     0.124 S 
ATOM     71  O   UNL A   1      35.608  32.129  28.091  1.00  0.00    -0.237 OA
ATOM     72  O   UNL A   1      34.272  32.598  30.122  1.00  0.00    -0.237 OA
ATOM     73  O   UNL A   1      36.252  33.971  29.594  1.00  0.00    -0.744 OA
ENDBRANCH  66  70
ENDBRANCH  49  63
BRANCH  50  74
ATOM     74  C   UNL A   1      47.133  27.105  26.180  1.00  0.00     0.023 A 
ATOM     75  C   UNL A   1      48.164  26.444  26.865  1.00  0.00     0.031 A 
ATOM     76  C   UNL A   1      47.309  27.366  24.810  1.00  0.00     0.131 A 
ATOM     77  C   UNL A   1      49.344  26.101  26.187  1.00  0.00     0.055 A 
ATOM     78  C   UNL A   1      48.466  26.983  24.130  1.00  0.00     0.041 A 
ATOM     79  F   UNL A   1      46.349  27.989  24.108  1.00  0.00    -0.206 F 
ATOM     80  C   UNL A   1      49.498  26.355  24.822  1.00  0.00     0.022 A 
BRANCH  77  81
ATOM     81  S   UNL A   1      50.708  25.371  27.134  1.00  0.00     0.124 S 
ATOM     82  O   UNL A   1      51.102  26.482  27.992  1.00  0.00    -0.237 OA
ATOM     83  O   UNL A   1      50.050  24.250  27.797  1.00  0.00    -0.237 OA
ATOM     84  O   UNL A   1      51.677  25.002  26.105  1.00  0.00    -0.744 OA
ENDBRANCH  77  81
ENDBRANCH  50  74
BRANCH  62  85
ATOM     85  C   UNL A   1      45.247  33.089  29.210  1.00  0.00     0.023 A 
ATOM     86  C   UNL A   1      45.966  33.325  30.393  1.00  0.00     0.031 A 
ATOM     87  C   UNL A   1      45.231  34.092  28.226  1.00  0.00     0.131 A 
ATOM     88  C   UNL A   1      46.610  34.558  30.581  1.00  0.00     0.055 A 
ATOM     89  C   UNL A   1      45.914  35.296  28.398  1.00  0.00     0.041 A 
ATOM     90  F   UNL A   1      44.557  33.913  27.079  1.00  0.00    -0.206 F 
ATOM     91  C   UNL A   1      46.601  35.538  29.585  1.00  0.00     0.022 A 
BRANCH  88  92
ATOM     92  S   UNL A   1      47.416  34.888  32.172  1.00  0.00     0.124 S 
ATOM     93  O   UNL A   1      48.166  36.106  31.884  1.00  0.00    -0.237 OA
ATOM     94  O   UNL A   1      46.280  35.037  33.075  1.00  0.00    -0.237 OA
ATOM     95  O   UNL A   1      48.232  33.696  32.396  1.00  0.00    -0.744 OA
ENDBRANCH  88  92
ENDBRANCH  62  85
ENDBRANCH  36  37
ENDBRANCH  28  31
ENDBRANCH  26  27
ENDBRANCH  25  26
ENDBRANCH   1  25
TORSDOF 18
ENDMDL
