MODEL 1
REMARK VINA RESULT:     -12.0      0.000      0.000
REMARK SMILES C[C@@H](c1ccccc1)[C@@H]1[NH2+][C@@H](C(=O)NCCCCNC(=O)c2ccc(-c3c4nc(c(-c5cc(S(=O)(=O)[O-])ccc5F)c5ccc([nH]5)c(-c5cc(S(=O)(=O)[O-])ccc5F)c5nc(c(-c6cc(S(=O)(=O)[O-])ccc6F)c6ccc3[nH]6)C=C5)C=C4)cc2)CS1
REMARK SMILES IDX 17 1 16 2 15 3 14 4 12 5 13 6 11 8 9 9 10 10 86 11 85 14
REMARK SMILES IDX 2 15 1 16 3 17 4 18 8 19 5 20 7 21 6 22 18 23 19 24 20 25
REMARK SMILES IDX 21 27 22 28 23 29 84 30 24 31 83 32 25 33 26 34 27 35 77 36
REMARK SMILES IDX 28 37 82 38 76 39 78 40 29 41 81 42 75 43 74 44 30 46 62 47
REMARK SMILES IDX 42 48 61 49 43 50 46 51 60 52 79 53 44 54 45 55 59 57 80 58
REMARK SMILES IDX 47 59 31 60 32 61 40 62 33 63 39 64 41 65 38 66 34 67 35 68
REMARK SMILES IDX 36 69 37 70 63 71 64 72 72 73 65 74 71 75 73 76 70 77 66 78
REMARK SMILES IDX 67 79 68 80 69 81 48 82 49 83 57 84 50 85 56 86 58 87 55 88
REMARK SMILES IDX 51 89 52 90 53 91 54 92
REMARK H PARENT 14 7 10 12 10 13 19 26 78 45 46 56
REMARK Flexibility Score: inf
ROOT
ATOM      1  C   UNL A   1      35.791  21.224  25.449  1.00  0.00     0.023 C 
ENDROOT
BRANCH   1   2
ATOM      2  C   UNL A   1      35.031  19.995  24.947  1.00  0.00     0.023 C 
BRANCH   2   3
ATOM      3  C   UNL A   1      33.522  20.047  25.182  1.00  0.00     0.116 C 
BRANCH   3   4
ATOM      4  N   UNL A   1      32.791  20.229  23.939  1.00  0.00    -0.351 N 
ATOM      5  C   UNL A   1      32.482  21.386  23.279  1.00  0.00     0.279 C 
ATOM      6  O   UNL A   1      31.834  21.325  22.234  1.00  0.00    -0.268 OA
ATOM      7  H   UNL A   1      32.475  19.401  23.511  1.00  0.00     0.163 HD
BRANCH   5   8
ATOM      8  C   UNL A   1      33.016  22.710  23.832  1.00  0.00     0.283 C 
ATOM      9  C   UNL A   1      32.467  24.987  24.207  1.00  0.00     0.249 C 
ATOM     10  N   UNL A   1      31.905  23.631  24.170  1.00  0.00    -0.324 N 
ATOM     11  S   UNL A   1      33.505  25.088  22.718  1.00  0.00    -0.092 SA
ATOM     12  H   UNL A   1      31.174  23.575  23.460  1.00  0.00     0.347 HD
ATOM     13  H   UNL A   1      31.488  23.385  25.068  1.00  0.00     0.347 HD
ATOM     14  C   UNL A   1      33.949  23.332  22.790  1.00  0.00     0.151 C 
BRANCH   9  15
ATOM     15  C   UNL A   1      33.168  25.421  25.555  1.00  0.00     0.085 C 
ATOM     16  C   UNL A   1      34.679  25.141  25.530  1.00  0.00     0.020 C 
BRANCH  15  17
ATOM     17  C   UNL A   1      32.843  26.812  26.104  1.00  0.00    -0.038 A 
ATOM     18  C   UNL A   1      31.698  27.093  26.863  1.00  0.00     0.004 A 
ATOM     19  C   UNL A   1      33.760  27.857  25.887  1.00  0.00     0.004 A 
ATOM     20  C   UNL A   1      31.527  28.341  27.469  1.00  0.00     0.000 A 
ATOM     21  C   UNL A   1      33.572  29.114  26.466  1.00  0.00     0.000 A 
ATOM     22  C   UNL A   1      32.468  29.348  27.278  1.00  0.00     0.000 A 
ENDBRANCH  15  17
ENDBRANCH   9  15
ENDBRANCH   5   8
ENDBRANCH   3   4
ENDBRANCH   2   3
ENDBRANCH   1   2
BRANCH   1  23
ATOM     23  C   UNL A   1      37.187  21.404  24.863  1.00  0.00     0.116 C 
BRANCH  23  24
ATOM     24  N   UNL A   1      38.117  20.380  25.309  1.00  0.00    -0.352 N 
ATOM     25  C   UNL A   1      39.328  20.527  25.948  1.00  0.00     0.251 C 
ATOM     26  H   UNL A   1      37.843  19.451  25.131  1.00  0.00     0.163 HD
ATOM     27  O   UNL A   1      40.053  19.553  26.099  1.00  0.00    -0.269 OA
BRANCH  25  28
ATOM     28  C   UNL A   1      39.759  21.867  26.411  1.00  0.00     0.039 A 
ATOM     29  C   UNL A   1      40.847  21.959  27.281  1.00  0.00     0.014 A 
ATOM     30  C   UNL A   1      39.110  23.026  25.978  1.00  0.00     0.014 A 
ATOM     31  C   UNL A   1      41.326  23.215  27.659  1.00  0.00     0.010 A 
ATOM     32  C   UNL A   1      39.637  24.278  26.294  1.00  0.00     0.010 A 
ATOM     33  C   UNL A   1      40.755  24.387  27.135  1.00  0.00    -0.014 A 
BRANCH  33  34
ATOM     34  C   UNL A   1      41.327  25.726  27.446  1.00  0.00     0.031 A 
ATOM     35  C   UNL A   1      42.704  26.097  26.962  1.00  0.00     0.074 A 
ATOM     36  C   UNL A   1      40.619  26.593  28.198  1.00  0.00     0.049 A 
ATOM     37  N   UNL A   1      43.387  27.193  27.175  1.00  0.00    -0.248 NA
ATOM     38  C   UNL A   1      43.415  25.097  26.152  1.00  0.00     0.031 C 
ATOM     39  C   UNL A   1      39.288  26.338  28.755  1.00  0.00     0.029 A 
ATOM     40  N   UNL A   1      40.915  27.864  28.628  1.00  0.00    -0.354 N 
ATOM     41  C   UNL A   1      44.603  27.017  26.526  1.00  0.00     0.074 A 
ATOM     42  C   UNL A   1      44.590  25.681  25.968  1.00  0.00     0.031 C 
ATOM     43  C   UNL A   1      38.873  27.425  29.425  1.00  0.00     0.029 A 
ATOM     44  C   UNL A   1      39.925  28.437  29.395  1.00  0.00     0.049 A 
ATOM     45  H   UNL A   1      41.758  28.323  28.409  1.00  0.00     0.167 HD
ATOM     46  C   UNL A   1      45.626  27.897  26.383  1.00  0.00     0.034 A 
ATOM     47  C   UNL A   1      39.874  29.633  30.017  1.00  0.00     0.034 A 
ATOM     48  C   UNL A   1      45.627  29.227  26.940  1.00  0.00     0.049 A 
ATOM     49  C   UNL A   1      41.049  30.572  29.883  1.00  0.00     0.074 A 
ATOM     50  C   UNL A   1      46.599  30.207  26.827  1.00  0.00     0.029 A 
ATOM     51  N   UNL A   1      44.613  29.767  27.721  1.00  0.00    -0.354 N 
ATOM     52  N   UNL A   1      42.171  30.403  29.221  1.00  0.00    -0.248 NA
ATOM     53  C   UNL A   1      40.945  31.867  30.567  1.00  0.00     0.031 C 
ATOM     54  C   UNL A   1      46.207  31.308  27.595  1.00  0.00     0.029 A 
ATOM     55  C   UNL A   1      44.951  31.052  28.118  1.00  0.00     0.049 A 
ATOM     56  H   UNL A   1      43.776  29.304  27.958  1.00  0.00     0.167 HD
ATOM     57  C   UNL A   1      42.886  31.588  29.382  1.00  0.00     0.074 A 
ATOM     58  C   UNL A   1      42.059  32.468  30.179  1.00  0.00     0.031 C 
ATOM     59  C   UNL A   1      44.118  31.919  28.915  1.00  0.00     0.034 A 
BRANCH  46  60
ATOM     60  C   UNL A   1      46.835  27.444  25.600  1.00  0.00     0.023 A 
ATOM     61  C   UNL A   1      47.056  27.866  24.277  1.00  0.00     0.031 A 
ATOM     62  C   UNL A   1      47.788  26.592  26.187  1.00  0.00     0.131 A 
ATOM     63  C   UNL A   1      48.169  27.394  23.568  1.00  0.00     0.055 A 
ATOM     64  C   UNL A   1      48.935  26.188  25.502  1.00  0.00     0.041 A 
ATOM     65  F   UNL A   1      47.619  26.138  27.439  1.00  0.00    -0.206 F 
ATOM     66  C   UNL A   1      49.126  26.580  24.179  1.00  0.00     0.022 A 
BRANCH  63  67
ATOM     67  S   UNL A   1      48.290  27.765  21.796  1.00  0.00     0.124 S 
ATOM     68  O   UNL A   1      46.982  28.360  21.532  1.00  0.00    -0.237 OA
ATOM     69  O   UNL A   1      49.429  28.672  21.740  1.00  0.00    -0.237 OA
ATOM     70  O   UNL A   1      48.504  26.454  21.186  1.00  0.00    -0.744 OA
ENDBRANCH  63  67
ENDBRANCH  46  60
BRANCH  47  71
ATOM     71  C   UNL A   1      38.692  30.017  30.846  1.00  0.00     0.023 A 
ATOM     72  C   UNL A   1      37.633  30.760  30.297  1.00  0.00     0.031 A 
ATOM     73  C   UNL A   1      38.645  29.728  32.222  1.00  0.00     0.131 A 
ATOM     74  C   UNL A   1      36.617  31.252  31.130  1.00  0.00     0.055 A 
ATOM     75  C   UNL A   1      37.592  30.157  33.032  1.00  0.00     0.041 A 
ATOM     76  F   UNL A   1      39.628  29.022  32.802  1.00  0.00    -0.206 F 
ATOM     77  C   UNL A   1      36.580  30.943  32.491  1.00  0.00     0.022 A 
BRANCH  74  78
ATOM     78  S   UNL A   1      35.418  32.423  30.433  1.00  0.00     0.124 S 
ATOM     79  O   UNL A   1      35.014  31.737  29.211  1.00  0.00    -0.237 OA
ATOM     80  O   UNL A   1      34.417  32.496  31.490  1.00  0.00    -0.237 OA
ATOM     81  O   UNL A   1      36.206  33.637  30.235  1.00  0.00    -0.744 OA
ENDBRANCH  74  78
ENDBRANCH  47  71
BRANCH  59  82
ATOM     82  C   UNL A   1      44.612  33.316  29.213  1.00  0.00     0.023 A 
ATOM     83  C   UNL A   1      44.316  34.403  28.372  1.00  0.00     0.031 A 
ATOM     84  C   UNL A   1      45.411  33.557  30.346  1.00  0.00     0.131 A 
ATOM     85  C   UNL A   1      44.870  35.663  28.637  1.00  0.00     0.055 A 
ATOM     86  C   UNL A   1      45.900  34.829  30.643  1.00  0.00     0.041 A 
ATOM     87  F   UNL A   1      45.729  32.557  31.183  1.00  0.00    -0.206 F 
ATOM     88  C   UNL A   1      45.645  35.889  29.778  1.00  0.00     0.022 A 
BRANCH  85  89
ATOM     89  S   UNL A   1      44.658  36.983  27.410  1.00  0.00     0.124 S 
ATOM     90  O   UNL A   1      43.448  36.558  26.714  1.00  0.00    -0.237 OA
ATOM     91  O   UNL A   1      44.528  38.170  28.248  1.00  0.00    -0.237 OA
ATOM     92  O   UNL A   1      45.886  36.916  26.619  1.00  0.00    -0.744 OA
ENDBRANCH  85  89
ENDBRANCH  59  82
ENDBRANCH  33  34
ENDBRANCH  25  28
ENDBRANCH  23  24
ENDBRANCH   1  23
TORSDOF 16
ENDMDL
MODEL 2
REMARK VINA RESULT:     -12.0      1.651      1.876
REMARK SMILES C[C@@H](c1ccccc1)[C@@H]1[NH2+][C@@H](C(=O)NCCCCNC(=O)c2ccc(-c3c4nc(c(-c5cc(S(=O)(=O)[O-])ccc5F)c5ccc([nH]5)c(-c5cc(S(=O)(=O)[O-])ccc5F)c5nc(c(-c6cc(S(=O)(=O)[O-])ccc6F)c6ccc3[nH]6)C=C5)C=C4)cc2)CS1
REMARK SMILES IDX 17 1 16 2 15 3 14 4 12 5 13 6 11 8 9 9 10 10 86 11 85 14
REMARK SMILES IDX 2 15 1 16 3 17 4 18 8 19 5 20 7 21 6 22 18 23 19 24 20 25
REMARK SMILES IDX 21 27 22 28 23 29 84 30 24 31 83 32 25 33 26 34 27 35 77 36
REMARK SMILES IDX 28 37 82 38 76 39 78 40 29 41 81 42 75 43 74 44 30 46 62 47
REMARK SMILES IDX 42 48 61 49 43 50 46 51 60 52 79 53 44 54 45 55 59 57 80 58
REMARK SMILES IDX 47 59 31 60 32 61 40 62 33 63 39 64 41 65 38 66 34 67 35 68
REMARK SMILES IDX 36 69 37 70 63 71 64 72 72 73 65 74 71 75 73 76 70 77 66 78
REMARK SMILES IDX 67 79 68 80 69 81 48 82 49 83 57 84 50 85 56 86 58 87 55 88
REMARK SMILES IDX 51 89 52 90 53 91 54 92
REMARK H PARENT 14 7 10 12 10 13 19 26 78 45 46 56
REMARK Flexibility Score: inf
ROOT
ATOM      1  C   UNL A   1      35.610  21.422  25.817  1.00  0.00     0.023 C 
ENDROOT
BRANCH   1   2
ATOM      2  C   UNL A   1      34.364  21.135  24.977  1.00  0.00     0.023 C 
BRANCH   2   3
ATOM      3  C   UNL A   1      33.644  22.384  24.472  1.00  0.00     0.116 C 
BRANCH   3   4
ATOM      4  N   UNL A   1      33.720  22.499  23.025  1.00  0.00    -0.351 N 
ATOM      5  C   UNL A   1      33.281  23.509  22.214  1.00  0.00     0.279 C 
ATOM      6  O   UNL A   1      33.428  23.406  20.996  1.00  0.00    -0.268 OA
ATOM      7  H   UNL A   1      34.149  21.743  22.564  1.00  0.00     0.163 HD
BRANCH   5   8
ATOM      8  C   UNL A   1      32.683  24.761  22.861  1.00  0.00     0.283 C 
ATOM      9  C   UNL A   1      31.614  26.828  22.400  1.00  0.00     0.249 C 
ATOM     10  N   UNL A   1      31.746  25.442  21.935  1.00  0.00    -0.324 N 
ATOM     11  S   UNL A   1      33.319  27.353  22.749  1.00  0.00    -0.092 SA
ATOM     12  H   UNL A   1      32.117  25.425  20.985  1.00  0.00     0.347 HD
ATOM     13  H   UNL A   1      30.840  24.973  21.925  1.00  0.00     0.347 HD
ATOM     14  C   UNL A   1      33.827  25.692  23.268  1.00  0.00     0.151 C 
BRANCH   9  15
ATOM     15  C   UNL A   1      30.573  27.084  23.560  1.00  0.00     0.085 C 
ATOM     16  C   UNL A   1      31.268  27.323  24.911  1.00  0.00     0.020 C 
BRANCH  15  17
ATOM     17  C   UNL A   1      29.454  28.095  23.296  1.00  0.00    -0.038 A 
ATOM     18  C   UNL A   1      28.092  27.766  23.336  1.00  0.00     0.004 A 
ATOM     19  C   UNL A   1      29.798  29.438  23.050  1.00  0.00     0.004 A 
ATOM     20  C   UNL A   1      27.111  28.757  23.239  1.00  0.00     0.000 A 
ATOM     21  C   UNL A   1      28.817  30.422  22.920  1.00  0.00     0.000 A 
ATOM     22  C   UNL A   1      27.473  30.085  23.040  1.00  0.00     0.000 A 
ENDBRANCH  15  17
ENDBRANCH   9  15
ENDBRANCH   5   8
ENDBRANCH   3   4
ENDBRANCH   2   3
ENDBRANCH   1   2
BRANCH   1  23
ATOM     23  C   UNL A   1      36.908  21.548  25.026  1.00  0.00     0.116 C 
BRANCH  23  24
ATOM     24  N   UNL A   1      37.875  20.519  25.369  1.00  0.00    -0.352 N 
ATOM     25  C   UNL A   1      39.131  20.657  25.915  1.00  0.00     0.251 C 
ATOM     26  H   UNL A   1      37.593  19.593  25.185  1.00  0.00     0.163 HD
ATOM     27  O   UNL A   1      39.871  19.684  25.982  1.00  0.00    -0.269 OA
BRANCH  25  28
ATOM     28  C   UNL A   1      39.590  21.986  26.383  1.00  0.00     0.039 A 
ATOM     29  C   UNL A   1      40.704  22.055  27.221  1.00  0.00     0.014 A 
ATOM     30  C   UNL A   1      38.939  23.158  25.986  1.00  0.00     0.014 A 
ATOM     31  C   UNL A   1      41.208  23.302  27.600  1.00  0.00     0.010 A 
ATOM     32  C   UNL A   1      39.489  24.399  26.302  1.00  0.00     0.010 A 
ATOM     33  C   UNL A   1      40.633  24.486  27.109  1.00  0.00    -0.014 A 
BRANCH  33  34
ATOM     34  C   UNL A   1      41.228  25.815  27.420  1.00  0.00     0.031 A 
ATOM     35  C   UNL A   1      42.606  26.168  26.925  1.00  0.00     0.074 A 
ATOM     36  C   UNL A   1      40.540  26.689  28.183  1.00  0.00     0.049 A 
ATOM     37  N   UNL A   1      43.307  27.253  27.135  1.00  0.00    -0.248 NA
ATOM     38  C   UNL A   1      43.293  25.161  26.103  1.00  0.00     0.031 C 
ATOM     39  C   UNL A   1      39.211  26.451  28.753  1.00  0.00     0.029 A 
ATOM     40  N   UNL A   1      40.860  27.953  28.616  1.00  0.00    -0.354 N 
ATOM     41  C   UNL A   1      44.513  27.062  26.473  1.00  0.00     0.074 A 
ATOM     42  C   UNL A   1      44.475  25.728  25.909  1.00  0.00     0.031 C 
ATOM     43  C   UNL A   1      38.820  27.542  29.431  1.00  0.00     0.029 A 
ATOM     44  C   UNL A   1      39.886  28.538  29.396  1.00  0.00     0.049 A 
ATOM     45  H   UNL A   1      41.707  28.401  28.390  1.00  0.00     0.167 HD
ATOM     46  C   UNL A   1      45.547  27.927  26.323  1.00  0.00     0.034 A 
ATOM     47  C   UNL A   1      39.859  29.732  30.023  1.00  0.00     0.034 A 
ATOM     48  C   UNL A   1      45.574  29.255  26.886  1.00  0.00     0.049 A 
ATOM     49  C   UNL A   1      41.046  30.653  29.881  1.00  0.00     0.074 A 
ATOM     50  C   UNL A   1      46.559  30.220  26.767  1.00  0.00     0.029 A 
ATOM     51  N   UNL A   1      44.576  29.805  27.680  1.00  0.00    -0.354 N 
ATOM     52  N   UNL A   1      42.159  30.471  29.208  1.00  0.00    -0.248 NA
ATOM     53  C   UNL A   1      40.968  31.947  30.572  1.00  0.00     0.031 C 
ATOM     54  C   UNL A   1      46.191  31.323  27.544  1.00  0.00     0.029 A 
ATOM     55  C   UNL A   1      44.937  31.084  28.079  1.00  0.00     0.049 A 
ATOM     56  H   UNL A   1      43.735  29.354  27.923  1.00  0.00     0.167 HD
ATOM     57  C   UNL A   1      42.893  31.644  29.366  1.00  0.00     0.074 A 
ATOM     58  C   UNL A   1      42.087  32.533  30.175  1.00  0.00     0.031 C 
ATOM     59  C   UNL A   1      44.125  31.960  28.888  1.00  0.00     0.034 A 
BRANCH  46  60
ATOM     60  C   UNL A   1      46.742  27.460  25.526  1.00  0.00     0.023 A 
ATOM     61  C   UNL A   1      46.966  27.899  24.210  1.00  0.00     0.031 A 
ATOM     62  C   UNL A   1      47.678  26.576  26.093  1.00  0.00     0.131 A 
ATOM     63  C   UNL A   1      48.065  27.414  23.486  1.00  0.00     0.055 A 
ATOM     64  C   UNL A   1      48.811  26.157  25.395  1.00  0.00     0.041 A 
ATOM     65  F   UNL A   1      47.504  26.103  27.338  1.00  0.00    -0.206 F 
ATOM     66  C   UNL A   1      49.005  26.567  24.079  1.00  0.00     0.022 A 
BRANCH  63  67
ATOM     67  S   UNL A   1      48.185  27.813  21.721  1.00  0.00     0.124 S 
ATOM     68  O   UNL A   1      48.469  26.501  21.143  1.00  0.00    -0.237 OA
ATOM     69  O   UNL A   1      46.870  28.369  21.432  1.00  0.00    -0.237 OA
ATOM     70  O   UNL A   1      49.293  28.765  21.660  1.00  0.00    -0.744 OA
ENDBRANCH  63  67
ENDBRANCH  46  60
BRANCH  47  71
ATOM     71  C   UNL A   1      38.691  30.130  30.865  1.00  0.00     0.023 A 
ATOM     72  C   UNL A   1      37.631  30.877  30.327  1.00  0.00     0.031 A 
ATOM     73  C   UNL A   1      38.660  29.848  32.243  1.00  0.00     0.131 A 
ATOM     74  C   UNL A   1      36.630  31.382  31.171  1.00  0.00     0.055 A 
ATOM     75  C   UNL A   1      37.621  30.290  33.065  1.00  0.00     0.041 A 
ATOM     76  F   UNL A   1      39.646  29.137  32.815  1.00  0.00    -0.206 F 
ATOM     77  C   UNL A   1      36.609  31.081  32.533  1.00  0.00     0.022 A 
BRANCH  74  78
ATOM     78  S   UNL A   1      35.431  32.558  30.483  1.00  0.00     0.124 S 
ATOM     79  O   UNL A   1      35.050  31.897  29.240  1.00  0.00    -0.237 OA
ATOM     80  O   UNL A   1      34.414  32.598  31.527  1.00  0.00    -0.237 OA
ATOM     81  O   UNL A   1      36.211  33.784  30.324  1.00  0.00    -0.744 OA
ENDBRANCH  74  78
ENDBRANCH  47  71
BRANCH  59  82
ATOM     82  C   UNL A   1      44.643  33.348  29.187  1.00  0.00     0.023 A 
ATOM     83  C   UNL A   1      44.331  34.448  28.370  1.00  0.00     0.031 A 
ATOM     84  C   UNL A   1      45.480  33.567  30.296  1.00  0.00     0.131 A 
ATOM     85  C   UNL A   1      44.906  35.699  28.632  1.00  0.00     0.055 A 
ATOM     86  C   UNL A   1      45.992  34.829  30.593  1.00  0.00     0.041 A 
ATOM     87  F   UNL A   1      45.815  32.552  31.111  1.00  0.00    -0.206 F 
ATOM     88  C   UNL A   1      45.719  35.903  29.750  1.00  0.00     0.022 A 
BRANCH  85  89
ATOM     89  S   UNL A   1      44.668  37.037  27.429  1.00  0.00     0.124 S 
ATOM     90  O   UNL A   1      43.517  36.558  26.669  1.00  0.00    -0.237 OA
ATOM     91  O   UNL A   1      44.429  38.191  28.289  1.00  0.00    -0.237 OA
ATOM     92  O   UNL A   1      45.931  37.064  26.693  1.00  0.00    -0.744 OA
ENDBRANCH  85  89
ENDBRANCH  59  82
ENDBRANCH  33  34
ENDBRANCH  25  28
ENDBRANCH  23  24
ENDBRANCH   1  23
TORSDOF 16
ENDMDL
MODEL 3
REMARK VINA RESULT:     -12.0      4.981     10.530
REMARK SMILES C[C@@H](c1ccccc1)[C@@H]1[NH2+][C@@H](C(=O)NCCCCNC(=O)c2ccc(-c3c4nc(c(-c5cc(S(=O)(=O)[O-])ccc5F)c5ccc([nH]5)c(-c5cc(S(=O)(=O)[O-])ccc5F)c5nc(c(-c6cc(S(=O)(=O)[O-])ccc6F)c6ccc3[nH]6)C=C5)C=C4)cc2)CS1
REMARK SMILES IDX 17 1 16 2 15 3 14 4 12 5 13 6 11 8 9 9 10 10 86 11 85 14
REMARK SMILES IDX 2 15 1 16 3 17 4 18 8 19 5 20 7 21 6 22 18 23 19 24 20 25
REMARK SMILES IDX 21 27 22 28 23 29 84 30 24 31 83 32 25 33 26 34 27 35 77 36
REMARK SMILES IDX 28 37 82 38 76 39 78 40 29 41 81 42 75 43 74 44 30 46 62 47
REMARK SMILES IDX 42 48 61 49 43 50 46 51 60 52 79 53 44 54 45 55 59 57 80 58
REMARK SMILES IDX 47 59 31 60 32 61 40 62 33 63 39 64 41 65 38 66 34 67 35 68
REMARK SMILES IDX 36 69 37 70 63 71 64 72 72 73 65 74 71 75 73 76 70 77 66 78
REMARK SMILES IDX 67 79 68 80 69 81 48 82 49 83 57 84 50 85 56 86 58 87 55 88
REMARK SMILES IDX 51 89 52 90 53 91 54 92
REMARK H PARENT 14 7 10 12 10 13 19 26 78 45 46 56
REMARK Flexibility Score: inf
ROOT
ATOM      1  C   UNL A   1      31.406  28.518  25.351  1.00  0.00     0.023 C 
ENDROOT
BRANCH   1   2
ATOM      2  C   UNL A   1      31.302  27.235  26.177  1.00  0.00     0.023 C 
BRANCH   2   3
ATOM      3  C   UNL A   1      30.582  26.087  25.471  1.00  0.00     0.116 C 
BRANCH   3   4
ATOM      4  N   UNL A   1      29.935  25.195  26.419  1.00  0.00    -0.351 N 
ATOM      5  C   UNL A   1      30.256  23.908  26.751  1.00  0.00     0.279 C 
ATOM      6  O   UNL A   1      29.563  23.312  27.577  1.00  0.00    -0.268 OA
ATOM      7  H   UNL A   1      29.158  25.572  26.890  1.00  0.00     0.163 HD
BRANCH   5   8
ATOM      8  C   UNL A   1      31.505  23.280  26.129  1.00  0.00     0.283 C 
ATOM      9  C   UNL A   1      32.859  21.331  26.106  1.00  0.00     0.249 C 
ATOM     10  N   UNL A   1      31.476  21.803  26.253  1.00  0.00    -0.324 N 
ATOM     11  S   UNL A   1      33.834  22.457  27.149  1.00  0.00    -0.092 SA
ATOM     12  H   UNL A   1      31.109  21.534  27.166  1.00  0.00     0.347 HD
ATOM     13  H   UNL A   1      30.874  21.390  25.540  1.00  0.00     0.347 HD
ATOM     14  C   UNL A   1      32.739  23.865  26.821  1.00  0.00     0.151 C 
BRANCH   9  15
ATOM     15  C   UNL A   1      33.386  21.146  24.629  1.00  0.00     0.085 C 
ATOM     16  C   UNL A   1      34.669  21.954  24.373  1.00  0.00     0.020 C 
BRANCH  15  17
ATOM     17  C   UNL A   1      33.480  19.718  24.086  1.00  0.00    -0.038 A 
ATOM     18  C   UNL A   1      34.464  18.804  24.488  1.00  0.00     0.004 A 
ATOM     19  C   UNL A   1      32.504  19.273  23.176  1.00  0.00     0.004 A 
ATOM     20  C   UNL A   1      34.414  17.468  24.079  1.00  0.00     0.000 A 
ATOM     21  C   UNL A   1      32.473  17.947  22.740  1.00  0.00     0.000 A 
ATOM     22  C   UNL A   1      33.414  17.038  23.213  1.00  0.00     0.000 A 
ENDBRANCH  15  17
ENDBRANCH   9  15
ENDBRANCH   5   8
ENDBRANCH   3   4
ENDBRANCH   2   3
ENDBRANCH   1   2
BRANCH   1  23
ATOM     23  C   UNL A   1      32.623  29.386  25.656  1.00  0.00     0.116 C 
BRANCH  23  24
ATOM     24  N   UNL A   1      32.261  30.719  26.107  1.00  0.00    -0.352 N 
ATOM     25  C   UNL A   1      32.891  31.523  27.030  1.00  0.00     0.251 C 
ATOM     26  H   UNL A   1      31.452  31.101  25.696  1.00  0.00     0.163 HD
ATOM     27  O   UNL A   1      32.347  32.552  27.407  1.00  0.00    -0.269 OA
BRANCH  25  28
ATOM     28  C   UNL A   1      34.203  31.117  27.587  1.00  0.00     0.039 A 
ATOM     29  C   UNL A   1      35.133  32.109  27.904  1.00  0.00     0.014 A 
ATOM     30  C   UNL A   1      34.511  29.773  27.812  1.00  0.00     0.014 A 
ATOM     31  C   UNL A   1      36.340  31.757  28.513  1.00  0.00     0.010 A 
ATOM     32  C   UNL A   1      35.680  29.430  28.489  1.00  0.00     0.010 A 
ATOM     33  C   UNL A   1      36.607  30.419  28.852  1.00  0.00    -0.014 A 
BRANCH  33  34
ATOM     34  C   UNL A   1      37.841  30.048  29.597  1.00  0.00     0.031 A 
ATOM     35  C   UNL A   1      38.072  30.563  30.993  1.00  0.00     0.074 A 
ATOM     36  C   UNL A   1      38.773  29.276  29.000  1.00  0.00     0.049 A 
ATOM     37  N   UNL A   1      39.105  30.389  31.778  1.00  0.00    -0.248 NA
ATOM     38  C   UNL A   1      37.014  31.402  31.575  1.00  0.00     0.031 C 
ATOM     39  C   UNL A   1      38.681  28.744  27.638  1.00  0.00     0.029 A 
ATOM     40  N   UNL A   1      39.981  28.806  29.455  1.00  0.00    -0.354 N 
ATOM     41  C   UNL A   1      38.821  31.090  32.944  1.00  0.00     0.074 A 
ATOM     42  C   UNL A   1      37.548  31.749  32.736  1.00  0.00     0.031 C 
ATOM     43  C   UNL A   1      39.769  27.998  27.381  1.00  0.00     0.029 A 
ATOM     44  C   UNL A   1      40.662  28.040  28.534  1.00  0.00     0.049 A 
ATOM     45  H   UNL A   1      40.328  28.998  30.356  1.00  0.00     0.167 HD
ATOM     46  C   UNL A   1      39.541  31.158  34.092  1.00  0.00     0.034 A 
ATOM     47  C   UNL A   1      41.874  27.452  28.604  1.00  0.00     0.034 A 
ATOM     48  C   UNL A   1      40.806  30.495  34.289  1.00  0.00     0.049 A 
ATOM     49  C   UNL A   1      42.676  27.588  29.876  1.00  0.00     0.074 A 
ATOM     50  C   UNL A   1      41.599  30.475  35.424  1.00  0.00     0.029 A 
ATOM     51  N   UNL A   1      41.471  29.741  33.330  1.00  0.00    -0.354 N 
ATOM     52  N   UNL A   1      42.365  28.218  30.986  1.00  0.00    -0.248 NA
ATOM     53  C   UNL A   1      43.984  26.922  29.910  1.00  0.00     0.031 C 
ATOM     54  C   UNL A   1      42.771  29.771  35.130  1.00  0.00     0.029 A 
ATOM     55  C   UNL A   1      42.674  29.277  33.840  1.00  0.00     0.049 A 
ATOM     56  H   UNL A   1      41.135  29.561  32.422  1.00  0.00     0.167 HD
ATOM     57  C   UNL A   1      43.426  27.989  31.860  1.00  0.00     0.074 A 
ATOM     58  C   UNL A   1      44.368  27.145  31.157  1.00  0.00     0.031 C 
ATOM     59  C   UNL A   1      43.607  28.437  33.129  1.00  0.00     0.034 A 
BRANCH  46  60
ATOM     60  C   UNL A   1      38.980  31.988  35.222  1.00  0.00     0.023 A 
ATOM     61  C   UNL A   1      38.456  31.392  36.383  1.00  0.00     0.031 A 
ATOM     62  C   UNL A   1      38.980  33.392  35.147  1.00  0.00     0.131 A 
ATOM     63  C   UNL A   1      37.908  32.192  37.395  1.00  0.00     0.055 A 
ATOM     64  C   UNL A   1      38.504  34.186  36.191  1.00  0.00     0.041 A 
ATOM     65  F   UNL A   1      39.446  34.017  34.053  1.00  0.00    -0.206 F 
ATOM     66  C   UNL A   1      37.953  33.586  37.321  1.00  0.00     0.022 A 
BRANCH  63  67
ATOM     67  S   UNL A   1      37.028  31.383  38.759  1.00  0.00     0.124 S 
ATOM     68  O   UNL A   1      37.995  31.510  39.847  1.00  0.00    -0.237 OA
ATOM     69  O   UNL A   1      35.820  32.190  38.880  1.00  0.00    -0.237 OA
ATOM     70  O   UNL A   1      36.823  30.019  38.274  1.00  0.00    -0.744 OA
ENDBRANCH  63  67
ENDBRANCH  46  60
BRANCH  47  71
ATOM     71  C   UNL A   1      42.431  26.702  27.438  1.00  0.00     0.023 A 
ATOM     72  C   UNL A   1      42.091  25.358  27.212  1.00  0.00     0.031 A 
ATOM     73  C   UNL A   1      43.382  27.289  26.583  1.00  0.00     0.131 A 
ATOM     74  C   UNL A   1      42.752  24.626  26.214  1.00  0.00     0.055 A 
ATOM     75  C   UNL A   1      43.982  26.576  25.543  1.00  0.00     0.041 A 
ATOM     76  F   UNL A   1      43.747  28.571  26.750  1.00  0.00    -0.206 F 
ATOM     77  C   UNL A   1      43.683  25.229  25.367  1.00  0.00     0.022 A 
BRANCH  74  78
ATOM     78  S   UNL A   1      42.476  22.834  26.130  1.00  0.00     0.124 S 
ATOM     79  O   UNL A   1      42.860  22.541  24.753  1.00  0.00    -0.237 OA
ATOM     80  O   UNL A   1      43.375  22.341  27.167  1.00  0.00    -0.237 OA
ATOM     81  O   UNL A   1      41.051  22.696  26.423  1.00  0.00    -0.744 OA
ENDBRANCH  74  78
ENDBRANCH  47  71
BRANCH  59  82
ATOM     82  C   UNL A   1      44.850  27.972  33.851  1.00  0.00     0.023 A 
ATOM     83  C   UNL A   1      44.880  26.768  34.575  1.00  0.00     0.031 A 
ATOM     84  C   UNL A   1      46.017  28.758  33.831  1.00  0.00     0.131 A 
ATOM     85  C   UNL A   1      46.025  26.418  35.305  1.00  0.00     0.055 A 
ATOM     86  C   UNL A   1      47.177  28.370  34.500  1.00  0.00     0.041 A 
ATOM     87  F   UNL A   1      46.046  29.920  33.158  1.00  0.00    -0.206 F 
ATOM     88  C   UNL A   1      47.181  27.201  35.257  1.00  0.00     0.022 A 
BRANCH  85  89
ATOM     89  S   UNL A   1      45.948  24.981  36.411  1.00  0.00     0.124 S 
ATOM     90  O   UNL A   1      44.784  25.294  37.232  1.00  0.00    -0.237 OA
ATOM     91  O   UNL A   1      45.788  23.875  35.473  1.00  0.00    -0.237 OA
ATOM     92  O   UNL A   1      47.231  25.019  37.111  1.00  0.00    -0.744 OA
ENDBRANCH  85  89
ENDBRANCH  59  82
ENDBRANCH  33  34
ENDBRANCH  25  28
ENDBRANCH  23  24
ENDBRANCH   1  23
TORSDOF 16
ENDMDL
