MODEL 1
REMARK VINA RESULT:     -12.7      0.000      0.000
REMARK SMILES CC1(C)[C@H](C(=O)NCCCCNC(=O)c2ccc(-c3c4nc(c(-c5cc(S(=O)(=O)[O-])ccc5F)c5ccc([nH]5)c(-c5cc(S(=O)(=O)[O-])ccc5F)c5nc(c(-c6cc(S(=O)(=O)[O-])ccc6F)c6ccc3[nH]6)C=C5)C=C4)cc2)[C@@H]1c1nc2ccc(F)cc2s1
REMARK SMILES IDX 10 1 9 2 8 3 7 4 5 5 6 6 4 8 1 9 2 10 3 11 78 12 79 13 80 14
REMARK SMILES IDX 88 15 81 16 87 17 82 18 86 19 83 20 84 21 85 22 11 23 12 24
REMARK SMILES IDX 13 25 14 27 15 28 16 29 77 30 17 31 76 32 18 33 19 34 20 35
REMARK SMILES IDX 70 36 21 37 75 38 69 39 71 40 22 41 74 42 68 43 67 44 23 46
REMARK SMILES IDX 55 47 35 48 54 49 36 50 39 51 53 52 72 53 37 54 38 55 52 57
REMARK SMILES IDX 73 58 40 59 24 60 25 61 33 62 26 63 32 64 34 65 31 66 27 67
REMARK SMILES IDX 28 68 29 69 30 70 56 71 57 72 65 73 58 74 64 75 66 76 63 77
REMARK SMILES IDX 59 78 60 79 61 80 62 81 41 82 42 83 50 84 43 85 49 86 51 87
REMARK SMILES IDX 48 88 44 89 45 90 46 91 47 92
REMARK H PARENT 7 7 12 26 71 45 39 56
REMARK Flexibility Score: inf
ROOT
ATOM      1  C   UNL A   1      32.635  29.339  25.048  1.00  0.00     0.023 C 
ENDROOT
BRANCH   1   2
ATOM      2  C   UNL A   1      33.654  28.247  24.737  1.00  0.00     0.023 C 
BRANCH   2   3
ATOM      3  C   UNL A   1      33.171  27.173  23.769  1.00  0.00     0.116 C 
BRANCH   3   4
ATOM      4  N   UNL A   1      33.951  25.967  23.824  1.00  0.00    -0.356 N 
ATOM      5  C   UNL A   1      33.810  24.786  24.494  1.00  0.00     0.224 C 
ATOM      6  O   UNL A   1      34.697  23.955  24.283  1.00  0.00    -0.275 OA
ATOM      7  H   UNL A   1      34.757  26.000  23.258  1.00  0.00     0.163 HD
BRANCH   5   8
ATOM      8  C   UNL A   1      32.745  24.372  25.451  1.00  0.00     0.095 C 
ATOM      9  C   UNL A   1      30.307  24.853  26.123  1.00  0.00     0.013 C 
ATOM     10  C   UNL A   1      31.251  24.137  25.176  1.00  0.00    -0.013 C 
ATOM     11  C   UNL A   1      30.726  24.145  23.765  1.00  0.00     0.013 C 
ATOM     12  C   UNL A   1      32.130  23.050  25.774  1.00  0.00     0.068 C 
BRANCH  12  13
ATOM     13  C   UNL A   1      32.644  21.731  25.230  1.00  0.00     0.098 A 
ATOM     14  N   UNL A   1      32.082  21.242  24.148  1.00  0.00    -0.241 NA
ATOM     15  S   UNL A   1      34.030  20.885  25.777  1.00  0.00    -0.118 S 
ATOM     16  C   UNL A   1      32.602  19.993  23.873  1.00  0.00     0.082 A 
ATOM     17  C   UNL A   1      33.639  19.581  24.716  1.00  0.00     0.057 A 
ATOM     18  C   UNL A   1      32.157  19.121  22.857  1.00  0.00     0.033 A 
ATOM     19  C   UNL A   1      34.206  18.301  24.620  1.00  0.00     0.060 A 
ATOM     20  C   UNL A   1      32.719  17.847  22.747  1.00  0.00     0.041 A 
ATOM     21  C   UNL A   1      33.715  17.451  23.629  1.00  0.00     0.124 A 
ATOM     22  F   UNL A   1      34.224  16.217  23.520  1.00  0.00    -0.207 F 
ENDBRANCH  12  13
ENDBRANCH   5   8
ENDBRANCH   3   4
ENDBRANCH   2   3
ENDBRANCH   1   2
BRANCH   1  23
ATOM     23  C   UNL A   1      32.428  29.641  26.530  1.00  0.00     0.116 C 
BRANCH  23  24
ATOM     24  N   UNL A   1      32.219  31.055  26.821  1.00  0.00    -0.352 N 
ATOM     25  C   UNL A   1      33.095  31.959  27.382  1.00  0.00     0.251 C 
ATOM     26  H   UNL A   1      31.332  31.412  26.584  1.00  0.00     0.163 HD
ATOM     27  O   UNL A   1      32.734  33.103  27.626  1.00  0.00    -0.269 OA
BRANCH  25  28
ATOM     28  C   UNL A   1      34.457  31.502  27.728  1.00  0.00     0.039 A 
ATOM     29  C   UNL A   1      35.494  32.435  27.762  1.00  0.00     0.014 A 
ATOM     30  C   UNL A   1      34.670  30.182  28.132  1.00  0.00     0.014 A 
ATOM     31  C   UNL A   1      36.724  32.073  28.317  1.00  0.00     0.010 A 
ATOM     32  C   UNL A   1      35.871  29.844  28.746  1.00  0.00     0.010 A 
ATOM     33  C   UNL A   1      36.897  30.795  28.873  1.00  0.00    -0.014 A 
BRANCH  33  34
ATOM     34  C   UNL A   1      38.114  30.437  29.646  1.00  0.00     0.031 A 
ATOM     35  C   UNL A   1      39.089  29.439  29.093  1.00  0.00     0.074 A 
ATOM     36  C   UNL A   1      38.275  30.924  30.894  1.00  0.00     0.049 A 
ATOM     37  N   UNL A   1      40.116  28.874  29.673  1.00  0.00    -0.248 NA
ATOM     38  C   UNL A   1      38.853  28.993  27.712  1.00  0.00     0.031 C 
ATOM     39  C   UNL A   1      37.373  31.869  31.558  1.00  0.00     0.029 A 
ATOM     40  N   UNL A   1      39.240  30.672  31.836  1.00  0.00    -0.354 N 
ATOM     41  C   UNL A   1      40.640  27.991  28.736  1.00  0.00     0.074 A 
ATOM     42  C   UNL A   1      39.783  28.061  27.570  1.00  0.00     0.031 C 
ATOM     43  C   UNL A   1      37.833  32.123  32.793  1.00  0.00     0.029 A 
ATOM     44  C   UNL A   1      39.031  31.323  33.030  1.00  0.00     0.049 A 
ATOM     45  H   UNL A   1      40.011  30.081  31.674  1.00  0.00     0.167 HD
ATOM     46  C   UNL A   1      41.745  27.210  28.833  1.00  0.00     0.034 A 
ATOM     47  C   UNL A   1      39.708  31.262  34.194  1.00  0.00     0.034 A 
ATOM     48  C   UNL A   1      42.596  27.165  29.996  1.00  0.00     0.049 A 
ATOM     49  C   UNL A   1      40.905  30.355  34.295  1.00  0.00     0.074 A 
ATOM     50  C   UNL A   1      43.783  26.475  30.172  1.00  0.00     0.029 A 
ATOM     51  N   UNL A   1      42.344  27.829  31.190  1.00  0.00    -0.354 N 
ATOM     52  N   UNL A   1      41.417  29.560  33.383  1.00  0.00    -0.248 NA
ATOM     53  C   UNL A   1      41.612  30.331  35.582  1.00  0.00     0.031 C 
ATOM     54  C   UNL A   1      44.216  26.674  31.488  1.00  0.00     0.029 A 
ATOM     55  C   UNL A   1      43.332  27.534  32.117  1.00  0.00     0.049 A 
ATOM     56  H   UNL A   1      41.575  28.422  31.355  1.00  0.00     0.167 HD
ATOM     57  C   UNL A   1      42.516  28.956  33.983  1.00  0.00     0.074 A 
ATOM     58  C   UNL A   1      42.599  29.483  35.330  1.00  0.00     0.031 C 
ATOM     59  C   UNL A   1      43.384  28.049  33.464  1.00  0.00     0.034 A 
BRANCH  46  60
ATOM     60  C   UNL A   1      42.069  26.328  27.654  1.00  0.00     0.023 A 
ATOM     61  C   UNL A   1      41.605  25.003  27.577  1.00  0.00     0.031 A 
ATOM     62  C   UNL A   1      42.887  26.801  26.614  1.00  0.00     0.131 A 
ATOM     63  C   UNL A   1      42.029  24.173  26.530  1.00  0.00     0.055 A 
ATOM     64  C   UNL A   1      43.242  25.993  25.532  1.00  0.00     0.041 A 
ATOM     65  F   UNL A   1      43.375  28.052  26.643  1.00  0.00    -0.206 F 
ATOM     66  C   UNL A   1      42.827  24.666  25.494  1.00  0.00     0.022 A 
BRANCH  63  67
ATOM     67  S   UNL A   1      41.645  22.403  26.621  1.00  0.00     0.124 S 
ATOM     68  O   UNL A   1      40.185  22.421  26.692  1.00  0.00    -0.237 OA
ATOM     69  O   UNL A   1      42.218  21.892  25.382  1.00  0.00    -0.237 OA
ATOM     70  O   UNL A   1      42.315  21.969  27.845  1.00  0.00    -0.744 OA
ENDBRANCH  63  67
ENDBRANCH  46  60
BRANCH  47  71
ATOM     71  C   UNL A   1      39.256  32.054  35.371  1.00  0.00     0.023 A 
ATOM     72  C   UNL A   1      38.568  31.441  36.429  1.00  0.00     0.031 A 
ATOM     73  C   UNL A   1      39.480  33.441  35.440  1.00  0.00     0.131 A 
ATOM     74  C   UNL A   1      38.097  32.219  37.499  1.00  0.00     0.055 A 
ATOM     75  C   UNL A   1      39.046  34.203  36.526  1.00  0.00     0.041 A 
ATOM     76  F   UNL A   1      40.140  34.071  34.456  1.00  0.00    -0.206 F 
ATOM     77  C   UNL A   1      38.341  33.593  37.560  1.00  0.00     0.022 A 
BRANCH  74  78
ATOM     78  S   UNL A   1      37.111  31.413  38.790  1.00  0.00     0.124 S 
ATOM     79  O   UNL A   1      37.961  31.582  39.963  1.00  0.00    -0.237 OA
ATOM     80  O   UNL A   1      35.882  32.198  38.768  1.00  0.00    -0.237 OA
ATOM     81  O   UNL A   1      36.977  30.039  38.308  1.00  0.00    -0.744 OA
ENDBRANCH  74  78
ENDBRANCH  47  71
BRANCH  59  82
ATOM     82  C   UNL A   1      44.508  27.599  34.358  1.00  0.00     0.023 A 
ATOM     83  C   UNL A   1      44.388  26.460  35.172  1.00  0.00     0.031 A 
ATOM     84  C   UNL A   1      45.713  28.324  34.399  1.00  0.00     0.131 A 
ATOM     85  C   UNL A   1      45.443  26.100  36.024  1.00  0.00     0.055 A 
ATOM     86  C   UNL A   1      46.775  27.933  35.213  1.00  0.00     0.041 A 
ATOM     87  F   UNL A   1      45.875  29.420  33.641  1.00  0.00    -0.206 F 
ATOM     88  C   UNL A   1      46.641  26.819  36.038  1.00  0.00     0.022 A 
BRANCH  85  89
ATOM     89  S   UNL A   1      45.212  24.702  37.157  1.00  0.00     0.124 S 
ATOM     90  O   UNL A   1      44.046  25.127  37.927  1.00  0.00    -0.237 OA
ATOM     91  O   UNL A   1      44.998  23.586  36.242  1.00  0.00    -0.237 OA
ATOM     92  O   UNL A   1      46.466  24.656  37.907  1.00  0.00    -0.744 OA
ENDBRANCH  85  89
ENDBRANCH  59  82
ENDBRANCH  33  34
ENDBRANCH  25  28
ENDBRANCH  23  24
ENDBRANCH   1  23
TORSDOF 15
ENDMDL
MODEL 2
REMARK VINA RESULT:     -12.7      1.696      2.073
REMARK SMILES CC1(C)[C@H](C(=O)NCCCCNC(=O)c2ccc(-c3c4nc(c(-c5cc(S(=O)(=O)[O-])ccc5F)c5ccc([nH]5)c(-c5cc(S(=O)(=O)[O-])ccc5F)c5nc(c(-c6cc(S(=O)(=O)[O-])ccc6F)c6ccc3[nH]6)C=C5)C=C4)cc2)[C@@H]1c1nc2ccc(F)cc2s1
REMARK SMILES IDX 10 1 9 2 8 3 7 4 5 5 6 6 4 8 1 9 2 10 3 11 78 12 79 13 80 14
REMARK SMILES IDX 88 15 81 16 87 17 82 18 86 19 83 20 84 21 85 22 11 23 12 24
REMARK SMILES IDX 13 25 14 27 15 28 16 29 77 30 17 31 76 32 18 33 19 34 20 35
REMARK SMILES IDX 70 36 21 37 75 38 69 39 71 40 22 41 74 42 68 43 67 44 23 46
REMARK SMILES IDX 55 47 35 48 54 49 36 50 39 51 53 52 72 53 37 54 38 55 52 57
REMARK SMILES IDX 73 58 40 59 24 60 25 61 33 62 26 63 32 64 34 65 31 66 27 67
REMARK SMILES IDX 28 68 29 69 30 70 56 71 57 72 65 73 58 74 64 75 66 76 63 77
REMARK SMILES IDX 59 78 60 79 61 80 62 81 41 82 42 83 50 84 43 85 49 86 51 87
REMARK SMILES IDX 48 88 44 89 45 90 46 91 47 92
REMARK H PARENT 7 7 12 26 71 45 39 56
REMARK Flexibility Score: inf
ROOT
ATOM      1  C   UNL A   1      31.588  30.253  25.323  1.00  0.00     0.023 C 
ENDROOT
BRANCH   1   2
ATOM      2  C   UNL A   1      32.577  29.584  24.375  1.00  0.00     0.023 C 
BRANCH   2   3
ATOM      3  C   UNL A   1      31.943  28.791  23.238  1.00  0.00     0.116 C 
BRANCH   3   4
ATOM      4  N   UNL A   1      32.643  27.572  22.937  1.00  0.00    -0.356 N 
ATOM      5  C   UNL A   1      33.199  26.592  23.709  1.00  0.00     0.224 C 
ATOM      6  O   UNL A   1      33.723  25.667  23.083  1.00  0.00    -0.275 OA
ATOM      7  H   UNL A   1      32.742  27.409  21.970  1.00  0.00     0.163 HD
BRANCH   5   8
ATOM      8  C   UNL A   1      33.271  26.496  25.194  1.00  0.00     0.095 C 
ATOM      9  C   UNL A   1      32.027  27.170  27.345  1.00  0.00     0.013 C 
ATOM     10  C   UNL A   1      32.139  26.194  26.188  1.00  0.00    -0.013 C 
ATOM     11  C   UNL A   1      30.782  25.771  25.693  1.00  0.00     0.013 C 
ATOM     12  C   UNL A   1      33.395  25.339  26.130  1.00  0.00     0.068 C 
BRANCH  12  13
ATOM     13  C   UNL A   1      33.647  23.915  25.674  1.00  0.00     0.098 A 
ATOM     14  N   UNL A   1      32.617  23.189  25.303  1.00  0.00    -0.241 NA
ATOM     15  S   UNL A   1      35.180  23.197  25.408  1.00  0.00    -0.118 S 
ATOM     16  C   UNL A   1      33.026  21.897  25.033  1.00  0.00     0.082 A 
ATOM     17  C   UNL A   1      34.405  21.681  25.116  1.00  0.00     0.057 A 
ATOM     18  C   UNL A   1      32.180  20.814  24.719  1.00  0.00     0.033 A 
ATOM     19  C   UNL A   1      34.964  20.404  24.959  1.00  0.00     0.060 A 
ATOM     20  C   UNL A   1      32.726  19.539  24.553  1.00  0.00     0.041 A 
ATOM     21  C   UNL A   1      34.094  19.348  24.688  1.00  0.00     0.124 A 
ATOM     22  F   UNL A   1      34.593  18.113  24.547  1.00  0.00    -0.207 F 
ENDBRANCH  12  13
ENDBRANCH   5   8
ENDBRANCH   3   4
ENDBRANCH   2   3
ENDBRANCH   1   2
BRANCH   1  23
ATOM     23  C   UNL A   1      32.143  30.628  26.695  1.00  0.00     0.116 C 
BRANCH  23  24
ATOM     24  N   UNL A   1      32.021  32.046  27.014  1.00  0.00    -0.352 N 
ATOM     25  C   UNL A   1      32.956  32.886  27.579  1.00  0.00     0.251 C 
ATOM     26  H   UNL A   1      31.154  32.459  26.796  1.00  0.00     0.163 HD
ATOM     27  O   UNL A   1      32.666  34.044  27.849  1.00  0.00    -0.269 OA
BRANCH  25  28
ATOM     28  C   UNL A   1      34.293  32.343  27.898  1.00  0.00     0.039 A 
ATOM     29  C   UNL A   1      35.386  33.212  27.926  1.00  0.00     0.014 A 
ATOM     30  C   UNL A   1      34.432  31.008  28.284  1.00  0.00     0.014 A 
ATOM     31  C   UNL A   1      36.599  32.769  28.456  1.00  0.00     0.010 A 
ATOM     32  C   UNL A   1      35.619  30.591  28.875  1.00  0.00     0.010 A 
ATOM     33  C   UNL A   1      36.703  31.476  28.995  1.00  0.00    -0.014 A 
BRANCH  33  34
ATOM     34  C   UNL A   1      37.908  31.036  29.745  1.00  0.00     0.031 A 
ATOM     35  C   UNL A   1      38.822  30.002  29.157  1.00  0.00     0.074 A 
ATOM     36  C   UNL A   1      38.109  31.486  31.001  1.00  0.00     0.049 A 
ATOM     37  N   UNL A   1      39.823  29.369  29.712  1.00  0.00    -0.248 NA
ATOM     38  C   UNL A   1      38.547  29.601  27.769  1.00  0.00     0.031 C 
ATOM     39  C   UNL A   1      37.267  32.461  31.698  1.00  0.00     0.029 A 
ATOM     40  N   UNL A   1      39.070  31.161  31.926  1.00  0.00    -0.354 N 
ATOM     41  C   UNL A   1      40.289  28.482  28.748  1.00  0.00     0.074 A 
ATOM     42  C   UNL A   1      39.423  28.624  27.595  1.00  0.00     0.031 C 
ATOM     43  C   UNL A   1      37.753  32.662  32.933  1.00  0.00     0.029 A 
ATOM     44  C   UNL A   1      38.909  31.794  33.137  1.00  0.00     0.049 A 
ATOM     45  H   UNL A   1      39.806  30.533  31.740  1.00  0.00     0.167 HD
ATOM     46  C   UNL A   1      41.351  27.641  28.814  1.00  0.00     0.034 A 
ATOM     47  C   UNL A   1      39.595  31.670  34.290  1.00  0.00     0.034 A 
ATOM     48  C   UNL A   1      42.212  27.524  29.965  1.00  0.00     0.049 A 
ATOM     49  C   UNL A   1      40.744  30.698  34.355  1.00  0.00     0.074 A 
ATOM     50  C   UNL A   1      43.362  26.767  30.109  1.00  0.00     0.029 A 
ATOM     51  N   UNL A   1      42.009  28.172  31.176  1.00  0.00    -0.354 N 
ATOM     52  N   UNL A   1      41.201  29.899  33.419  1.00  0.00    -0.248 NA
ATOM     53  C   UNL A   1      41.462  30.607  35.633  1.00  0.00     0.031 C 
ATOM     54  C   UNL A   1      43.821  26.913  31.424  1.00  0.00     0.029 A 
ATOM     55  C   UNL A   1      42.991  27.804  32.084  1.00  0.00     0.049 A 
ATOM     56  H   UNL A   1      41.276  28.802  31.364  1.00  0.00     0.167 HD
ATOM     57  C   UNL A   1      42.273  29.223  33.991  1.00  0.00     0.074 A 
ATOM     58  C   UNL A   1      42.400  29.714  35.349  1.00  0.00     0.031 C 
ATOM     59  C   UNL A   1      43.085  28.284  33.441  1.00  0.00     0.034 A 
BRANCH  46  60
ATOM     60  C   UNL A   1      41.614  26.770  27.611  1.00  0.00     0.023 A 
ATOM     61  C   UNL A   1      41.191  25.431  27.566  1.00  0.00     0.031 A 
ATOM     62  C   UNL A   1      42.335  27.271  26.513  1.00  0.00     0.131 A 
ATOM     63  C   UNL A   1      41.562  24.615  26.487  1.00  0.00     0.055 A 
ATOM     64  C   UNL A   1      42.634  26.476  25.405  1.00  0.00     0.041 A 
ATOM     65  F   UNL A   1      42.782  28.538  26.509  1.00  0.00    -0.206 F 
ATOM     66  C   UNL A   1      42.262  25.135  25.395  1.00  0.00     0.022 A 
BRANCH  63  67
ATOM     67  S   UNL A   1      41.245  22.834  26.602  1.00  0.00     0.124 S 
ATOM     68  O   UNL A   1      42.042  22.320  25.490  1.00  0.00    -0.237 OA
ATOM     69  O   UNL A   1      41.733  22.513  27.939  1.00  0.00    -0.237 OA
ATOM     70  O   UNL A   1      39.799  22.730  26.423  1.00  0.00    -0.744 OA
ENDBRANCH  63  67
ENDBRANCH  46  60
BRANCH  47  71
ATOM     71  C   UNL A   1      39.199  32.457  35.490  1.00  0.00     0.023 A 
ATOM     72  C   UNL A   1      39.676  33.763  35.684  1.00  0.00     0.031 A 
ATOM     73  C   UNL A   1      38.362  31.904  36.475  1.00  0.00     0.131 A 
ATOM     74  C   UNL A   1      39.339  34.463  36.853  1.00  0.00     0.055 A 
ATOM     75  C   UNL A   1      37.997  32.619  37.616  1.00  0.00     0.041 A 
ATOM     76  F   UNL A   1      37.874  30.663  36.331  1.00  0.00    -0.206 F 
ATOM     77  C   UNL A   1      38.494  33.904  37.815  1.00  0.00     0.022 A 
BRANCH  74  78
ATOM     78  S   UNL A   1      40.068  36.101  37.125  1.00  0.00     0.124 S 
ATOM     79  O   UNL A   1      39.236  36.621  38.204  1.00  0.00    -0.237 OA
ATOM     80  O   UNL A   1      41.443  35.766  37.478  1.00  0.00    -0.237 OA
ATOM     81  O   UNL A   1      39.904  36.765  35.833  1.00  0.00    -0.744 OA
ENDBRANCH  74  78
ENDBRANCH  47  71
BRANCH  59  82
ATOM     82  C   UNL A   1      44.195  27.754  34.311  1.00  0.00     0.023 A 
ATOM     83  C   UNL A   1      44.059  26.548  35.020  1.00  0.00     0.031 A 
ATOM     84  C   UNL A   1      45.399  28.468  34.434  1.00  0.00     0.131 A 
ATOM     85  C   UNL A   1      45.099  26.112  35.855  1.00  0.00     0.055 A 
ATOM     86  C   UNL A   1      46.448  28.004  35.228  1.00  0.00     0.041 A 
ATOM     87  F   UNL A   1      45.576  29.626  33.777  1.00  0.00    -0.206 F 
ATOM     88  C   UNL A   1      46.298  26.824  35.951  1.00  0.00     0.022 A 
BRANCH  85  89
ATOM     89  S   UNL A   1      44.847  24.622  36.857  1.00  0.00     0.124 S 
ATOM     90  O   UNL A   1      43.782  23.941  36.125  1.00  0.00    -0.237 OA
ATOM     91  O   UNL A   1      46.159  23.984  36.812  1.00  0.00    -0.237 OA
ATOM     92  O   UNL A   1      44.461  25.149  38.165  1.00  0.00    -0.744 OA
ENDBRANCH  85  89
ENDBRANCH  59  82
ENDBRANCH  33  34
ENDBRANCH  25  28
ENDBRANCH  23  24
ENDBRANCH   1  23
TORSDOF 15
ENDMDL
MODEL 3
REMARK VINA RESULT:     -12.4      2.345      3.136
REMARK SMILES CC1(C)[C@H](C(=O)NCCCCNC(=O)c2ccc(-c3c4nc(c(-c5cc(S(=O)(=O)[O-])ccc5F)c5ccc([nH]5)c(-c5cc(S(=O)(=O)[O-])ccc5F)c5nc(c(-c6cc(S(=O)(=O)[O-])ccc6F)c6ccc3[nH]6)C=C5)C=C4)cc2)[C@@H]1c1nc2ccc(F)cc2s1
REMARK SMILES IDX 10 1 9 2 8 3 7 4 5 5 6 6 4 8 1 9 2 10 3 11 78 12 79 13 80 14
REMARK SMILES IDX 88 15 81 16 87 17 82 18 86 19 83 20 84 21 85 22 11 23 12 24
REMARK SMILES IDX 13 25 14 27 15 28 16 29 77 30 17 31 76 32 18 33 19 34 20 35
REMARK SMILES IDX 70 36 21 37 75 38 69 39 71 40 22 41 74 42 68 43 67 44 23 46
REMARK SMILES IDX 55 47 35 48 54 49 36 50 39 51 53 52 72 53 37 54 38 55 52 57
REMARK SMILES IDX 73 58 40 59 24 60 25 61 33 62 26 63 32 64 34 65 31 66 27 67
REMARK SMILES IDX 28 68 29 69 30 70 56 71 57 72 65 73 58 74 64 75 66 76 63 77
REMARK SMILES IDX 59 78 60 79 61 80 62 81 41 82 42 83 50 84 43 85 49 86 51 87
REMARK SMILES IDX 48 88 44 89 45 90 46 91 47 92
REMARK H PARENT 7 7 12 26 71 45 39 56
REMARK Flexibility Score: inf
ROOT
ATOM      1  C   UNL A   1      32.711  30.798  26.665  1.00  0.00     0.023 C 
ENDROOT
BRANCH   1   2
ATOM      2  C   UNL A   1      32.738  29.344  27.122  1.00  0.00     0.023 C 
BRANCH   2   3
ATOM      3  C   UNL A   1      31.389  28.634  27.090  1.00  0.00     0.116 C 
BRANCH   3   4
ATOM      4  N   UNL A   1      31.494  27.209  27.248  1.00  0.00    -0.356 N 
ATOM      5  C   UNL A   1      31.338  26.155  26.394  1.00  0.00     0.224 C 
ATOM      6  O   UNL A   1      31.520  25.043  26.897  1.00  0.00    -0.275 OA
ATOM      7  H   UNL A   1      31.729  26.936  28.165  1.00  0.00     0.163 HD
BRANCH   5   8
ATOM      8  C   UNL A   1      30.966  26.163  24.951  1.00  0.00     0.095 C 
ATOM      9  C   UNL A   1      30.778  27.711  22.902  1.00  0.00     0.013 C 
ATOM     10  C   UNL A   1      31.678  26.866  23.785  1.00  0.00    -0.013 C 
ATOM     11  C   UNL A   1      33.017  27.522  23.993  1.00  0.00     0.013 C 
ATOM     12  C   UNL A   1      31.433  25.365  23.779  1.00  0.00     0.068 C 
BRANCH  12  13
ATOM     13  C   UNL A   1      32.363  24.173  23.893  1.00  0.00     0.098 A 
ATOM     14  N   UNL A   1      31.831  22.976  23.989  1.00  0.00    -0.241 NA
ATOM     15  S   UNL A   1      34.068  24.202  23.719  1.00  0.00    -0.118 S 
ATOM     16  C   UNL A   1      32.823  22.037  24.197  1.00  0.00     0.082 A 
ATOM     17  C   UNL A   1      34.130  22.535  24.164  1.00  0.00     0.057 A 
ATOM     18  C   UNL A   1      32.618  20.667  24.461  1.00  0.00     0.033 A 
ATOM     19  C   UNL A   1      35.238  21.723  24.448  1.00  0.00     0.060 A 
ATOM     20  C   UNL A   1      33.715  19.847  24.738  1.00  0.00     0.041 A 
ATOM     21  C   UNL A   1      34.996  20.381  24.743  1.00  0.00     0.124 A 
ATOM     22  F   UNL A   1      36.030  19.582  25.033  1.00  0.00    -0.207 F 
ENDBRANCH  12  13
ENDBRANCH   5   8
ENDBRANCH   3   4
ENDBRANCH   2   3
ENDBRANCH   1   2
BRANCH   1  23
ATOM     23  C   UNL A   1      33.506  31.774  27.528  1.00  0.00     0.116 C 
BRANCH  23  24
ATOM     24  N   UNL A   1      32.895  33.093  27.646  1.00  0.00    -0.352 N 
ATOM     25  C   UNL A   1      33.228  34.125  28.497  1.00  0.00     0.251 C 
ATOM     26  H   UNL A   1      32.144  33.271  27.035  1.00  0.00     0.163 HD
ATOM     27  O   UNL A   1      32.562  35.151  28.517  1.00  0.00    -0.269 OA
BRANCH  25  28
ATOM     28  C   UNL A   1      34.371  33.941  29.417  1.00  0.00     0.039 A 
ATOM     29  C   UNL A   1      34.196  33.167  30.565  1.00  0.00     0.014 A 
ATOM     30  C   UNL A   1      35.631  34.434  29.073  1.00  0.00     0.014 A 
ATOM     31  C   UNL A   1      35.313  32.785  31.310  1.00  0.00     0.010 A 
ATOM     32  C   UNL A   1      36.748  33.996  29.776  1.00  0.00     0.010 A 
ATOM     33  C   UNL A   1      36.602  33.143  30.882  1.00  0.00    -0.014 A 
BRANCH  33  34
ATOM     34  C   UNL A   1      37.821  32.594  31.529  1.00  0.00     0.031 A 
ATOM     35  C   UNL A   1      38.554  31.446  30.898  1.00  0.00     0.074 A 
ATOM     36  C   UNL A   1      38.196  33.055  32.740  1.00  0.00     0.049 A 
ATOM     37  N   UNL A   1      39.532  30.722  31.380  1.00  0.00    -0.248 NA
ATOM     38  C   UNL A   1      38.099  31.037  29.562  1.00  0.00     0.031 C 
ATOM     39  C   UNL A   1      37.538  34.140  33.474  1.00  0.00     0.029 A 
ATOM     40  N   UNL A   1      39.203  32.653  33.580  1.00  0.00    -0.354 N 
ATOM     41  C   UNL A   1      39.799  29.759  30.413  1.00  0.00     0.074 A 
ATOM     42  C   UNL A   1      38.843  29.963  29.344  1.00  0.00     0.031 C 
ATOM     43  C   UNL A   1      38.165  34.322  34.647  1.00  0.00     0.029 A 
ATOM     44  C   UNL A   1      39.235  33.336  34.774  1.00  0.00     0.049 A 
ATOM     45  H   UNL A   1      39.844  31.942  33.351  1.00  0.00     0.167 HD
ATOM     46  C   UNL A   1      40.766  28.807  30.411  1.00  0.00     0.034 A 
ATOM     47  C   UNL A   1      40.015  33.171  35.860  1.00  0.00     0.034 A 
ATOM     48  C   UNL A   1      41.720  28.629  31.477  1.00  0.00     0.049 A 
ATOM     49  C   UNL A   1      41.052  32.079  35.854  1.00  0.00     0.074 A 
ATOM     50  C   UNL A   1      42.790  27.753  31.541  1.00  0.00     0.029 A 
ATOM     51  N   UNL A   1      41.711  29.333  32.675  1.00  0.00    -0.354 N 
ATOM     52  N   UNL A   1      41.324  31.206  34.912  1.00  0.00    -0.248 NA
ATOM     53  C   UNL A   1      41.881  31.947  37.059  1.00  0.00     0.031 C 
ATOM     54  C   UNL A   1      43.391  27.886  32.798  1.00  0.00     0.029 A 
ATOM     55  C   UNL A   1      42.733  28.884  33.498  1.00  0.00     0.049 A 
ATOM     56  H   UNL A   1      41.072  30.046  32.906  1.00  0.00     0.167 HD
ATOM     57  C   UNL A   1      42.368  30.432  35.406  1.00  0.00     0.074 A 
ATOM     58  C   UNL A   1      42.683  30.946  36.723  1.00  0.00     0.031 C 
ATOM     59  C   UNL A   1      43.015  29.392  34.819  1.00  0.00     0.034 A 
BRANCH  46  60
ATOM     60  C   UNL A   1      40.810  27.877  29.224  1.00  0.00     0.023 A 
ATOM     61  C   UNL A   1      41.737  28.057  28.183  1.00  0.00     0.031 A 
ATOM     62  C   UNL A   1      39.888  26.823  29.111  1.00  0.00     0.131 A 
ATOM     63  C   UNL A   1      41.668  27.251  27.037  1.00  0.00     0.055 A 
ATOM     64  C   UNL A   1      39.875  25.973  28.003  1.00  0.00     0.041 A 
ATOM     65  F   UNL A   1      38.967  26.614  30.066  1.00  0.00    -0.206 F 
ATOM     66  C   UNL A   1      40.757  26.195  26.950  1.00  0.00     0.022 A 
BRANCH  63  67
ATOM     67  S   UNL A   1      42.686  27.699  25.605  1.00  0.00     0.124 S 
ATOM     68  O   UNL A   1      41.964  28.856  25.080  1.00  0.00    -0.237 OA
ATOM     69  O   UNL A   1      43.982  27.976  26.213  1.00  0.00    -0.237 OA
ATOM     70  O   UNL A   1      42.633  26.507  24.761  1.00  0.00    -0.744 OA
ENDBRANCH  63  67
ENDBRANCH  46  60
BRANCH  47  71
ATOM     71  C   UNL A   1      39.830  34.034  37.059  1.00  0.00     0.023 A 
ATOM     72  C   UNL A   1      39.150  33.557  38.190  1.00  0.00     0.031 A 
ATOM     73  C   UNL A   1      40.305  35.357  37.080  1.00  0.00     0.131 A 
ATOM     74  C   UNL A   1      38.933  34.408  39.285  1.00  0.00     0.055 A 
ATOM     75  C   UNL A   1      40.122  36.187  38.187  1.00  0.00     0.041 A 
ATOM     76  F   UNL A   1      40.968  35.856  36.026  1.00  0.00    -0.206 F 
ATOM     77  C   UNL A   1      39.424  35.717  39.296  1.00  0.00     0.022 A 
BRANCH  74  78
ATOM     78  S   UNL A   1      37.949  33.796  40.680  1.00  0.00     0.124 S 
ATOM     79  O   UNL A   1      37.594  35.036  41.361  1.00  0.00    -0.237 OA
ATOM     80  O   UNL A   1      36.861  33.102  40.002  1.00  0.00    -0.237 OA
ATOM     81  O   UNL A   1      38.882  32.932  41.401  1.00  0.00    -0.744 OA
ENDBRANCH  74  78
ENDBRANCH  47  71
BRANCH  59  82
ATOM     82  C   UNL A   1      44.142  28.767  35.598  1.00  0.00     0.023 A 
ATOM     83  C   UNL A   1      43.925  27.672  36.452  1.00  0.00     0.031 A 
ATOM     84  C   UNL A   1      45.446  29.279  35.488  1.00  0.00     0.131 A 
ATOM     85  C   UNL A   1      44.994  27.148  37.195  1.00  0.00     0.055 A 
ATOM     86  C   UNL A   1      46.513  28.723  36.193  1.00  0.00     0.041 A 
ATOM     87  F   UNL A   1      45.703  30.325  34.686  1.00  0.00    -0.206 F 
ATOM     88  C   UNL A   1      46.289  27.656  37.059  1.00  0.00     0.022 A 
BRANCH  85  89
ATOM     89  S   UNL A   1      44.661  25.821  38.386  1.00  0.00     0.124 S 
ATOM     90  O   UNL A   1      44.122  26.562  39.522  1.00  0.00    -0.237 OA
ATOM     91  O   UNL A   1      43.710  24.981  37.665  1.00  0.00    -0.237 OA
ATOM     92  O   UNL A   1      45.975  25.218  38.605  1.00  0.00    -0.744 OA
ENDBRANCH  85  89
ENDBRANCH  59  82
ENDBRANCH  33  34
ENDBRANCH  25  28
ENDBRANCH  23  24
ENDBRANCH   1  23
TORSDOF 15
ENDMDL
