MODEL 1
REMARK VINA RESULT:     -11.2      0.000      0.000
REMARK SMILES CC(C)CN(C)c1ccc([N+](=O)[O-])cc1C(=O)NCCCCNC(=O)c1ccc(-c2c3nc(c(-c4cc(S(=O)(=O)[O-])ccc4F)c4ccc([nH]4)c(-c4cc(S(=O)(=O)[O-])ccc4F)c4nc(c(-c5cc(S(=O)(=O)[O-])ccc5F)c5ccc2[nH]5)C=C4)C=C3)cc1
REMARK SMILES IDX 20 1 19 2 18 3 16 4 17 5 15 7 7 8 8 9 9 10 14 11 10 12 5 13
REMARK SMILES IDX 6 14 4 15 2 16 1 17 3 18 11 19 12 20 13 21 21 22 22 23 23 24
REMARK SMILES IDX 24 25 25 27 26 28 27 29 88 30 28 31 87 32 29 33 30 34 31 35
REMARK SMILES IDX 81 36 32 37 86 38 80 39 82 40 33 41 85 42 79 43 78 44 34 46
REMARK SMILES IDX 66 47 46 48 65 49 47 50 50 51 64 52 83 53 48 54 49 55 63 57
REMARK SMILES IDX 84 58 51 59 35 60 36 61 44 62 37 63 43 64 45 65 42 66 38 67
REMARK SMILES IDX 39 68 40 69 41 70 67 71 68 72 76 73 69 74 75 75 77 76 74 77
REMARK SMILES IDX 70 78 71 79 72 80 73 81 52 82 53 83 61 84 54 85 60 86 62 87
REMARK SMILES IDX 59 88 55 89 56 90 57 91 58 92
REMARK H PARENT 18 6 23 26 82 45 50 56
REMARK Flexibility Score: inf
ROOT
ATOM      1  C   UNL A   1      31.686  26.946  26.543  1.00  0.00     0.023 C 
ENDROOT
BRANCH   1   2
ATOM      2  C   UNL A   1      30.436  26.068  26.494  1.00  0.00     0.116 C 
BRANCH   2   3
ATOM      3  N   UNL A   1      30.307  25.160  25.378  1.00  0.00    -0.352 N 
ATOM      4  C   UNL A   1      30.323  25.427  24.020  1.00  0.00     0.253 C 
ATOM      5  O   UNL A   1      30.221  24.453  23.266  1.00  0.00    -0.269 OA
ATOM      6  H   UNL A   1      30.191  24.213  25.619  1.00  0.00     0.163 HD
BRANCH   4   7
ATOM      7  C   UNL A   1      30.394  26.798  23.387  1.00  0.00     0.069 A 
ATOM      8  C   UNL A   1      31.515  27.434  22.791  1.00  0.00     0.050 A 
ATOM      9  C   UNL A   1      31.376  28.787  22.388  1.00  0.00     0.034 A 
ATOM     10  C   UNL A   1      30.160  29.464  22.434  1.00  0.00     0.088 A 
ATOM     11  C   UNL A   1      29.143  27.471  23.354  1.00  0.00     0.101 A 
ATOM     12  C   UNL A   1      29.032  28.776  22.861  1.00  0.00     0.270 A 
BRANCH   8  13
ATOM     13  N   UNL A   1      32.731  26.806  22.512  1.00  0.00    -0.374 N 
ATOM     14  C   UNL A   1      32.728  25.868  21.379  1.00  0.00     0.143 C 
BRANCH  13  15
ATOM     15  C   UNL A   1      33.686  26.498  23.611  1.00  0.00     0.119 C 
BRANCH  15  16
ATOM     16  C   UNL A   1      33.694  25.029  24.088  1.00  0.00     0.002 C 
ATOM     17  C   UNL A   1      34.496  24.128  23.145  1.00  0.00     0.009 C 
ATOM     18  C   UNL A   1      34.259  24.869  25.504  1.00  0.00     0.009 C 
ENDBRANCH  15  16
ENDBRANCH  13  15
ENDBRANCH   8  13
BRANCH  12  19
ATOM     19  N   UNL A   1      27.722  29.423  22.755  1.00  0.00     0.062 N 
ATOM     20  O   UNL A   1      27.639  30.435  22.042  1.00  0.00    -0.258 OA
ATOM     21  O   UNL A   1      26.773  28.909  23.362  1.00  0.00    -0.258 OA
ENDBRANCH  12  19
ENDBRANCH   4   7
ENDBRANCH   2   3
ENDBRANCH   1   2
BRANCH   1  22
ATOM     22  C   UNL A   1      31.450  28.437  26.848  1.00  0.00     0.023 C 
BRANCH  22  23
ATOM     23  C   UNL A   1      32.347  29.464  26.145  1.00  0.00     0.116 C 
BRANCH  23  24
ATOM     24  N   UNL A   1      32.196  30.843  26.579  1.00  0.00    -0.352 N 
ATOM     25  C   UNL A   1      33.073  31.690  27.225  1.00  0.00     0.251 C 
ATOM     26  H   UNL A   1      31.319  31.240  26.377  1.00  0.00     0.163 HD
ATOM     27  O   UNL A   1      32.735  32.850  27.428  1.00  0.00    -0.269 OA
BRANCH  25  28
ATOM     28  C   UNL A   1      34.379  31.208  27.744  1.00  0.00     0.039 A 
ATOM     29  C   UNL A   1      35.412  32.143  27.870  1.00  0.00     0.014 A 
ATOM     30  C   UNL A   1      34.614  29.877  28.093  1.00  0.00     0.014 A 
ATOM     31  C   UNL A   1      36.634  31.772  28.442  1.00  0.00     0.010 A 
ATOM     32  C   UNL A   1      35.814  29.520  28.724  1.00  0.00     0.010 A 
ATOM     33  C   UNL A   1      36.828  30.469  28.930  1.00  0.00    -0.014 A 
BRANCH  33  34
ATOM     34  C   UNL A   1      38.055  30.126  29.707  1.00  0.00     0.031 A 
ATOM     35  C   UNL A   1      39.063  29.141  29.183  1.00  0.00     0.074 A 
ATOM     36  C   UNL A   1      38.241  30.678  30.925  1.00  0.00     0.049 A 
ATOM     37  N   UNL A   1      40.168  28.709  29.741  1.00  0.00    -0.248 NA
ATOM     38  C   UNL A   1      38.779  28.545  27.871  1.00  0.00     0.031 C 
ATOM     39  C   UNL A   1      37.322  31.618  31.572  1.00  0.00     0.029 A 
ATOM     40  N   UNL A   1      39.256  30.528  31.841  1.00  0.00    -0.354 N 
ATOM     41  C   UNL A   1      40.710  27.786  28.853  1.00  0.00     0.074 A 
ATOM     42  C   UNL A   1      39.776  27.681  27.749  1.00  0.00     0.031 C 
ATOM     43  C   UNL A   1      37.825  31.978  32.762  1.00  0.00     0.029 A 
ATOM     44  C   UNL A   1      39.074  31.259  32.993  1.00  0.00     0.049 A 
ATOM     45  H   UNL A   1      40.039  29.952  31.687  1.00  0.00     0.167 HD
ATOM     46  C   UNL A   1      41.881  27.105  28.940  1.00  0.00     0.034 A 
ATOM     47  C   UNL A   1      39.814  31.336  34.119  1.00  0.00     0.034 A 
ATOM     48  C   UNL A   1      42.800  27.213  30.052  1.00  0.00     0.049 A 
ATOM     49  C   UNL A   1      41.091  30.541  34.214  1.00  0.00     0.074 A 
ATOM     50  C   UNL A   1      44.039  26.614  30.208  1.00  0.00     0.029 A 
ATOM     51  N   UNL A   1      42.573  27.949  31.209  1.00  0.00    -0.354 N 
ATOM     52  N   UNL A   1      41.621  29.721  33.336  1.00  0.00    -0.248 NA
ATOM     53  C   UNL A   1      41.873  30.691  35.448  1.00  0.00     0.031 C 
ATOM     54  C   UNL A   1      44.518  26.914  31.489  1.00  0.00     0.029 A 
ATOM     55  C   UNL A   1      43.627  27.782  32.100  1.00  0.00     0.049 A 
ATOM     56  H   UNL A   1      41.780  28.509  31.375  1.00  0.00     0.167 HD
ATOM     57  C   UNL A   1      42.814  29.279  33.902  1.00  0.00     0.074 A 
ATOM     58  C   UNL A   1      42.930  29.933  35.189  1.00  0.00     0.031 C 
ATOM     59  C   UNL A   1      43.733  28.415  33.395  1.00  0.00     0.034 A 
BRANCH  46  60
ATOM     60  C   UNL A   1      42.212  26.147  27.815  1.00  0.00     0.023 A 
ATOM     61  C   UNL A   1      41.697  24.838  27.781  1.00  0.00     0.031 A 
ATOM     62  C   UNL A   1      43.086  26.530  26.782  1.00  0.00     0.131 A 
ATOM     63  C   UNL A   1      42.135  23.935  26.801  1.00  0.00     0.055 A 
ATOM     64  C   UNL A   1      43.443  25.655  25.753  1.00  0.00     0.041 A 
ATOM     65  F   UNL A   1      43.627  27.759  26.764  1.00  0.00    -0.206 F 
ATOM     66  C   UNL A   1      42.984  24.342  25.771  1.00  0.00     0.022 A 
BRANCH  63  67
ATOM     67  S   UNL A   1      41.728  22.179  27.002  1.00  0.00     0.124 S 
ATOM     68  O   UNL A   1      40.369  22.249  27.535  1.00  0.00    -0.237 OA
ATOM     69  O   UNL A   1      41.856  21.667  25.643  1.00  0.00    -0.237 OA
ATOM     70  O   UNL A   1      42.734  21.700  27.948  1.00  0.00    -0.744 OA
ENDBRANCH  63  67
ENDBRANCH  46  60
BRANCH  47  71
ATOM     71  C   UNL A   1      39.353  32.182  35.257  1.00  0.00     0.023 A 
ATOM     72  C   UNL A   1      39.781  33.511  35.400  1.00  0.00     0.031 A 
ATOM     73  C   UNL A   1      38.479  31.661  36.230  1.00  0.00     0.131 A 
ATOM     74  C   UNL A   1      39.361  34.265  36.508  1.00  0.00     0.055 A 
ATOM     75  C   UNL A   1      38.023  32.431  37.301  1.00  0.00     0.041 A 
ATOM     76  F   UNL A   1      38.037  30.397  36.137  1.00  0.00    -0.206 F 
ATOM     77  C   UNL A   1      38.472  33.739  37.449  1.00  0.00     0.022 A 
BRANCH  74  78
ATOM     78  S   UNL A   1      40.040  35.931  36.738  1.00  0.00     0.124 S 
ATOM     79  O   UNL A   1      41.457  35.649  36.932  1.00  0.00    -0.237 OA
ATOM     80  O   UNL A   1      39.681  36.581  35.482  1.00  0.00    -0.237 OA
ATOM     81  O   UNL A   1      39.335  36.426  37.917  1.00  0.00    -0.744 OA
ENDBRANCH  74  78
ENDBRANCH  47  71
BRANCH  59  82
ATOM     82  C   UNL A   1      44.973  28.160  34.223  1.00  0.00     0.023 A 
ATOM     83  C   UNL A   1      45.047  27.106  35.150  1.00  0.00     0.031 A 
ATOM     84  C   UNL A   1      46.097  28.996  34.085  1.00  0.00     0.131 A 
ATOM     85  C   UNL A   1      46.197  26.949  35.942  1.00  0.00     0.055 A 
ATOM     86  C   UNL A   1      47.261  28.794  34.827  1.00  0.00     0.041 A 
ATOM     87  F   UNL A   1      46.083  30.024  33.223  1.00  0.00    -0.206 F 
ATOM     88  C   UNL A   1      47.312  27.773  35.771  1.00  0.00     0.022 A 
BRANCH  85  89
ATOM     89  S   UNL A   1      46.182  25.713  37.270  1.00  0.00     0.124 S 
ATOM     90  O   UNL A   1      46.917  26.397  38.329  1.00  0.00    -0.237 OA
ATOM     91  O   UNL A   1      44.754  25.523  37.505  1.00  0.00    -0.237 OA
ATOM     92  O   UNL A   1      46.871  24.566  36.680  1.00  0.00    -0.744 OA
ENDBRANCH  85  89
ENDBRANCH  59  82
ENDBRANCH  33  34
ENDBRANCH  25  28
ENDBRANCH  23  24
ENDBRANCH  22  23
ENDBRANCH   1  22
TORSDOF 18
ENDMDL
MODEL 2
REMARK VINA RESULT:     -11.2      2.477      3.255
REMARK SMILES CC(C)CN(C)c1ccc([N+](=O)[O-])cc1C(=O)NCCCCNC(=O)c1ccc(-c2c3nc(c(-c4cc(S(=O)(=O)[O-])ccc4F)c4ccc([nH]4)c(-c4cc(S(=O)(=O)[O-])ccc4F)c4nc(c(-c5cc(S(=O)(=O)[O-])ccc5F)c5ccc2[nH]5)C=C4)C=C3)cc1
REMARK SMILES IDX 20 1 19 2 18 3 16 4 17 5 15 7 7 8 8 9 9 10 14 11 10 12 5 13
REMARK SMILES IDX 6 14 4 15 2 16 1 17 3 18 11 19 12 20 13 21 21 22 22 23 23 24
REMARK SMILES IDX 24 25 25 27 26 28 27 29 88 30 28 31 87 32 29 33 30 34 31 35
REMARK SMILES IDX 81 36 32 37 86 38 80 39 82 40 33 41 85 42 79 43 78 44 34 46
REMARK SMILES IDX 66 47 46 48 65 49 47 50 50 51 64 52 83 53 48 54 49 55 63 57
REMARK SMILES IDX 84 58 51 59 35 60 36 61 44 62 37 63 43 64 45 65 42 66 38 67
REMARK SMILES IDX 39 68 40 69 41 70 67 71 68 72 76 73 69 74 75 75 77 76 74 77
REMARK SMILES IDX 70 78 71 79 72 80 73 81 52 82 53 83 61 84 54 85 60 86 62 87
REMARK SMILES IDX 59 88 55 89 56 90 57 91 58 92
REMARK H PARENT 18 6 23 26 82 45 50 56
REMARK Flexibility Score: inf
ROOT
ATOM      1  C   UNL A   1      31.866  29.733  27.187  1.00  0.00     0.023 C 
ENDROOT
BRANCH   1   2
ATOM      2  C   UNL A   1      32.625  28.610  26.481  1.00  0.00     0.116 C 
BRANCH   2   3
ATOM      3  N   UNL A   1      33.106  28.874  25.145  1.00  0.00    -0.352 N 
ATOM      4  C   UNL A   1      32.414  28.888  23.947  1.00  0.00     0.253 C 
ATOM      5  O   UNL A   1      33.066  29.175  22.937  1.00  0.00    -0.269 OA
ATOM      6  H   UNL A   1      34.067  29.073  25.077  1.00  0.00     0.163 HD
BRANCH   4   7
ATOM      7  C   UNL A   1      30.957  28.529  23.761  1.00  0.00     0.069 A 
ATOM      8  C   UNL A   1      30.341  27.257  23.897  1.00  0.00     0.050 A 
ATOM      9  C   UNL A   1      28.975  27.137  23.534  1.00  0.00     0.034 A 
ATOM     10  C   UNL A   1      28.192  28.232  23.179  1.00  0.00     0.088 A 
ATOM     11  C   UNL A   1      30.131  29.650  23.478  1.00  0.00     0.101 A 
ATOM     12  C   UNL A   1      28.764  29.498  23.214  1.00  0.00     0.270 A 
BRANCH   8  13
ATOM     13  N   UNL A   1      30.964  26.124  24.425  1.00  0.00    -0.374 N 
ATOM     14  C   UNL A   1      30.823  25.926  25.876  1.00  0.00     0.143 C 
BRANCH  13  15
ATOM     15  C   UNL A   1      32.217  25.603  23.814  1.00  0.00     0.119 C 
BRANCH  15  16
ATOM     16  C   UNL A   1      32.034  24.419  22.839  1.00  0.00     0.002 C 
ATOM     17  C   UNL A   1      33.298  23.561  22.740  1.00  0.00     0.009 C 
ATOM     18  C   UNL A   1      30.863  23.508  23.227  1.00  0.00     0.009 C 
ENDBRANCH  15  16
ENDBRANCH  13  15
ENDBRANCH   8  13
BRANCH  12  19
ATOM     19  N   UNL A   1      27.911  30.670  23.008  1.00  0.00     0.062 N 
ATOM     20  O   UNL A   1      27.082  30.938  23.892  1.00  0.00    -0.258 OA
ATOM     21  O   UNL A   1      28.083  31.336  21.979  1.00  0.00    -0.258 OA
ENDBRANCH  12  19
ENDBRANCH   4   7
ENDBRANCH   2   3
ENDBRANCH   1   2
BRANCH   1  22
ATOM     22  C   UNL A   1      32.028  31.140  26.581  1.00  0.00     0.023 C 
BRANCH  22  23
ATOM     23  C   UNL A   1      33.124  32.047  27.155  1.00  0.00     0.116 C 
BRANCH  23  24
ATOM     24  N   UNL A   1      32.691  33.352  27.625  1.00  0.00    -0.352 N 
ATOM     25  C   UNL A   1      33.258  34.224  28.531  1.00  0.00     0.251 C 
ATOM     26  H   UNL A   1      31.848  33.668  27.227  1.00  0.00     0.163 HD
ATOM     27  O   UNL A   1      32.731  35.314  28.714  1.00  0.00    -0.269 OA
BRANCH  25  28
ATOM     28  C   UNL A   1      34.444  33.840  29.340  1.00  0.00     0.039 A 
ATOM     29  C   UNL A   1      34.233  33.013  30.448  1.00  0.00     0.014 A 
ATOM     30  C   UNL A   1      35.738  34.277  29.047  1.00  0.00     0.014 A 
ATOM     31  C   UNL A   1      35.320  32.539  31.191  1.00  0.00     0.010 A 
ATOM     32  C   UNL A   1      36.830  33.752  29.751  1.00  0.00     0.010 A 
ATOM     33  C   UNL A   1      36.636  32.856  30.815  1.00  0.00    -0.014 A 
BRANCH  33  34
ATOM     34  C   UNL A   1      37.795  32.201  31.489  1.00  0.00     0.031 A 
ATOM     35  C   UNL A   1      38.539  31.066  30.840  1.00  0.00     0.074 A 
ATOM     36  C   UNL A   1      38.153  32.605  32.726  1.00  0.00     0.049 A 
ATOM     37  N   UNL A   1      39.549  30.367  31.298  1.00  0.00    -0.248 NA
ATOM     38  C   UNL A   1      38.071  30.647  29.513  1.00  0.00     0.031 C 
ATOM     39  C   UNL A   1      37.493  33.667  33.489  1.00  0.00     0.029 A 
ATOM     40  N   UNL A   1      39.154  32.172  33.564  1.00  0.00    -0.354 N 
ATOM     41  C   UNL A   1      39.835  29.421  30.320  1.00  0.00     0.074 A 
ATOM     42  C   UNL A   1      38.850  29.603  29.273  1.00  0.00     0.031 C 
ATOM     43  C   UNL A   1      38.117  33.818  34.665  1.00  0.00     0.029 A 
ATOM     44  C   UNL A   1      39.190  32.834  34.771  1.00  0.00     0.049 A 
ATOM     45  H   UNL A   1      39.785  31.456  33.325  1.00  0.00     0.167 HD
ATOM     46  C   UNL A   1      40.834  28.501  30.289  1.00  0.00     0.034 A 
ATOM     47  C   UNL A   1      39.982  32.665  35.850  1.00  0.00     0.034 A 
ATOM     48  C   UNL A   1      41.806  28.326  31.346  1.00  0.00     0.049 A 
ATOM     49  C   UNL A   1      41.059  31.611  35.813  1.00  0.00     0.074 A 
ATOM     50  C   UNL A   1      42.891  27.466  31.384  1.00  0.00     0.029 A 
ATOM     51  N   UNL A   1      41.799  29.002  32.560  1.00  0.00    -0.354 N 
ATOM     52  N   UNL A   1      41.356  30.767  34.853  1.00  0.00    -0.248 NA
ATOM     53  C   UNL A   1      41.913  31.496  37.003  1.00  0.00     0.031 C 
ATOM     54  C   UNL A   1      43.484  27.558  32.649  1.00  0.00     0.029 A 
ATOM     55  C   UNL A   1      42.832  28.546  33.370  1.00  0.00     0.049 A 
ATOM     56  H   UNL A   1      41.155  29.704  32.811  1.00  0.00     0.167 HD
ATOM     57  C   UNL A   1      42.450  30.039  35.313  1.00  0.00     0.074 A 
ATOM     58  C   UNL A   1      42.766  30.553  36.629  1.00  0.00     0.031 C 
ATOM     59  C   UNL A   1      43.134  29.041  34.695  1.00  0.00     0.034 A 
BRANCH  46  60
ATOM     60  C   UNL A   1      40.895  27.584  29.086  1.00  0.00     0.023 A 
ATOM     61  C   UNL A   1      41.842  27.769  28.061  1.00  0.00     0.031 A 
ATOM     62  C   UNL A   1      39.971  26.534  28.938  1.00  0.00     0.131 A 
ATOM     63  C   UNL A   1      41.779  26.988  26.898  1.00  0.00     0.055 A 
ATOM     64  C   UNL A   1      39.976  25.697  27.819  1.00  0.00     0.041 A 
ATOM     65  F   UNL A   1      39.030  26.314  29.870  1.00  0.00    -0.206 F 
ATOM     66  C   UNL A   1      40.870  25.936  26.780  1.00  0.00     0.022 A 
BRANCH  63  67
ATOM     67  S   UNL A   1      42.777  27.490  25.468  1.00  0.00     0.124 S 
ATOM     68  O   UNL A   1      41.954  28.551  24.891  1.00  0.00    -0.237 OA
ATOM     69  O   UNL A   1      44.026  27.915  26.088  1.00  0.00    -0.237 OA
ATOM     70  O   UNL A   1      42.861  26.272  24.663  1.00  0.00    -0.744 OA
ENDBRANCH  63  67
ENDBRANCH  46  60
BRANCH  47  71
ATOM     71  C   UNL A   1      39.770  33.500  37.067  1.00  0.00     0.023 A 
ATOM     72  C   UNL A   1      39.233  32.954  38.245  1.00  0.00     0.031 A 
ATOM     73  C   UNL A   1      40.094  34.869  37.063  1.00  0.00     0.131 A 
ATOM     74  C   UNL A   1      39.007  33.780  39.358  1.00  0.00     0.055 A 
ATOM     75  C   UNL A   1      39.916  35.675  38.190  1.00  0.00     0.041 A 
ATOM     76  F   UNL A   1      40.613  35.440  35.964  1.00  0.00    -0.206 F 
ATOM     77  C   UNL A   1      39.360  35.131  39.343  1.00  0.00     0.022 A 
BRANCH  74  78
ATOM     78  S   UNL A   1      38.186  33.075  40.814  1.00  0.00     0.124 S 
ATOM     79  O   UNL A   1      39.143  33.381  41.871  1.00  0.00    -0.237 OA
ATOM     80  O   UNL A   1      36.933  33.823  40.846  1.00  0.00    -0.237 OA
ATOM     81  O   UNL A   1      38.056  31.660  40.479  1.00  0.00    -0.744 OA
ENDBRANCH  74  78
ENDBRANCH  47  71
BRANCH  59  82
ATOM     82  C   UNL A   1      44.328  28.465  35.424  1.00  0.00     0.023 A 
ATOM     83  C   UNL A   1      44.191  27.470  36.407  1.00  0.00     0.031 A 
ATOM     84  C   UNL A   1      45.624  28.930  35.134  1.00  0.00     0.131 A 
ATOM     85  C   UNL A   1      45.323  27.012  37.103  1.00  0.00     0.055 A 
ATOM     86  C   UNL A   1      46.751  28.424  35.782  1.00  0.00     0.041 A 
ATOM     87  F   UNL A   1      45.817  29.886  34.211  1.00  0.00    -0.206 F 
ATOM     88  C   UNL A   1      46.604  27.468  36.782  1.00  0.00     0.022 A 
BRANCH  85  89
ATOM     89  S   UNL A   1      45.090  25.884  38.504  1.00  0.00     0.124 S 
ATOM     90  O   UNL A   1      46.432  25.832  39.078  1.00  0.00    -0.237 OA
ATOM     91  O   UNL A   1      44.083  26.577  39.301  1.00  0.00    -0.237 OA
ATOM     92  O   UNL A   1      44.638  24.644  37.877  1.00  0.00    -0.744 OA
ENDBRANCH  85  89
ENDBRANCH  59  82
ENDBRANCH  33  34
ENDBRANCH  25  28
ENDBRANCH  23  24
ENDBRANCH  22  23
ENDBRANCH   1  22
TORSDOF 18
ENDMDL
MODEL 3
REMARK VINA RESULT:     -11.2      2.373      7.966
REMARK SMILES CC(C)CN(C)c1ccc([N+](=O)[O-])cc1C(=O)NCCCCNC(=O)c1ccc(-c2c3nc(c(-c4cc(S(=O)(=O)[O-])ccc4F)c4ccc([nH]4)c(-c4cc(S(=O)(=O)[O-])ccc4F)c4nc(c(-c5cc(S(=O)(=O)[O-])ccc5F)c5ccc2[nH]5)C=C4)C=C3)cc1
REMARK SMILES IDX 20 1 19 2 18 3 16 4 17 5 15 7 7 8 8 9 9 10 14 11 10 12 5 13
REMARK SMILES IDX 6 14 4 15 2 16 1 17 3 18 11 19 12 20 13 21 21 22 22 23 23 24
REMARK SMILES IDX 24 25 25 27 26 28 27 29 88 30 28 31 87 32 29 33 30 34 31 35
REMARK SMILES IDX 81 36 32 37 86 38 80 39 82 40 33 41 85 42 79 43 78 44 34 46
REMARK SMILES IDX 66 47 46 48 65 49 47 50 50 51 64 52 83 53 48 54 49 55 63 57
REMARK SMILES IDX 84 58 51 59 35 60 36 61 44 62 37 63 43 64 45 65 42 66 38 67
REMARK SMILES IDX 39 68 40 69 41 70 67 71 68 72 76 73 69 74 75 75 77 76 74 77
REMARK SMILES IDX 70 78 71 79 72 80 73 81 52 82 53 83 61 84 54 85 60 86 62 87
REMARK SMILES IDX 59 88 55 89 56 90 57 91 58 92
REMARK H PARENT 18 6 23 26 82 45 50 56
REMARK Flexibility Score: inf
ROOT
ATOM      1  C   UNL A   1      31.824  30.120  26.474  1.00  0.00     0.023 C 
ENDROOT
BRANCH   1   2
ATOM      2  C   UNL A   1      33.193  29.522  26.153  1.00  0.00     0.116 C 
BRANCH   2   3
ATOM      3  N   UNL A   1      33.566  29.430  24.761  1.00  0.00    -0.352 N 
ATOM      4  C   UNL A   1      32.869  28.884  23.697  1.00  0.00     0.253 C 
ATOM      5  O   UNL A   1      33.408  28.962  22.587  1.00  0.00    -0.269 OA
ATOM      6  H   UNL A   1      34.444  29.813  24.535  1.00  0.00     0.163 HD
BRANCH   4   7
ATOM      7  C   UNL A   1      31.547  28.155  23.784  1.00  0.00     0.069 A 
ATOM      8  C   UNL A   1      31.268  26.914  24.413  1.00  0.00     0.050 A 
ATOM      9  C   UNL A   1      29.974  26.357  24.243  1.00  0.00     0.034 A 
ATOM     10  C   UNL A   1      28.942  27.037  23.602  1.00  0.00     0.088 A 
ATOM     11  C   UNL A   1      30.467  28.874  23.204  1.00  0.00     0.101 A 
ATOM     12  C   UNL A   1      29.181  28.324  23.139  1.00  0.00     0.270 A 
BRANCH   8  13
ATOM     13  N   UNL A   1      32.155  26.225  25.245  1.00  0.00    -0.374 N 
ATOM     14  C   UNL A   1      33.363  25.691  24.599  1.00  0.00     0.143 C 
BRANCH  13  15
ATOM     15  C   UNL A   1      31.644  25.456  26.412  1.00  0.00     0.119 C 
BRANCH  15  16
ATOM     16  C   UNL A   1      31.655  23.920  26.246  1.00  0.00     0.002 C 
ATOM     17  C   UNL A   1      32.761  23.264  27.077  1.00  0.00     0.009 C 
ATOM     18  C   UNL A   1      30.318  23.274  26.628  1.00  0.00     0.009 C 
ENDBRANCH  15  16
ENDBRANCH  13  15
ENDBRANCH   8  13
BRANCH  12  19
ATOM     19  N   UNL A   1      28.062  29.111  22.615  1.00  0.00     0.062 N 
ATOM     20  O   UNL A   1      27.007  29.111  23.268  1.00  0.00    -0.258 OA
ATOM     21  O   UNL A   1      28.242  29.746  21.567  1.00  0.00    -0.258 OA
ENDBRANCH  12  19
ENDBRANCH   4   7
ENDBRANCH   2   3
ENDBRANCH   1   2
BRANCH   1  22
ATOM     22  C   UNL A   1      31.765  31.655  26.572  1.00  0.00     0.023 C 
BRANCH  22  23
ATOM     23  C   UNL A   1      32.862  32.366  27.376  1.00  0.00     0.116 C 
BRANCH  23  24
ATOM     24  N   UNL A   1      32.556  33.717  27.814  1.00  0.00    -0.352 N 
ATOM     25  C   UNL A   1      33.265  34.595  28.609  1.00  0.00     0.251 C 
ATOM     26  H   UNL A   1      31.695  34.066  27.488  1.00  0.00     0.163 HD
ATOM     27  O   UNL A   1      32.823  35.724  28.784  1.00  0.00    -0.269 OA
BRANCH  25  28
ATOM     28  C   UNL A   1      34.505  34.178  29.311  1.00  0.00     0.039 A 
ATOM     29  C   UNL A   1      34.365  33.497  30.526  1.00  0.00     0.014 A 
ATOM     30  C   UNL A   1      35.785  34.445  28.820  1.00  0.00     0.014 A 
ATOM     31  C   UNL A   1      35.491  32.994  31.187  1.00  0.00     0.010 A 
ATOM     32  C   UNL A   1      36.906  33.887  29.448  1.00  0.00     0.010 A 
ATOM     33  C   UNL A   1      36.771  33.132  30.624  1.00  0.00    -0.014 A 
BRANCH  33  34
ATOM     34  C   UNL A   1      37.943  32.434  31.230  1.00  0.00     0.031 A 
ATOM     35  C   UNL A   1      38.602  32.952  32.478  1.00  0.00     0.074 A 
ATOM     36  C   UNL A   1      38.450  31.343  30.619  1.00  0.00     0.049 A 
ATOM     37  N   UNL A   1      39.645  32.486  33.120  1.00  0.00    -0.248 NA
ATOM     38  C   UNL A   1      38.028  34.168  33.069  1.00  0.00     0.031 C 
ATOM     39  C   UNL A   1      37.933  30.756  29.380  1.00  0.00     0.029 A 
ATOM     40  N   UNL A   1      39.512  30.534  30.947  1.00  0.00    -0.354 N 
ATOM     41  C   UNL A   1      39.859  33.352  34.187  1.00  0.00     0.074 A 
ATOM     42  C   UNL A   1      38.869  34.404  34.065  1.00  0.00     0.031 C 
ATOM     43  C   UNL A   1      38.660  29.673  29.068  1.00  0.00     0.029 A 
ATOM     44  C   UNL A   1      39.727  29.511  30.050  1.00  0.00     0.049 A 
ATOM     45  H   UNL A   1      40.066  30.672  31.749  1.00  0.00     0.167 HD
ATOM     46  C   UNL A   1      40.778  33.269  35.182  1.00  0.00     0.034 A 
ATOM     47  C   UNL A   1      40.682  28.559  30.006  1.00  0.00     0.034 A 
ATOM     48  C   UNL A   1      41.766  32.217  35.287  1.00  0.00     0.049 A 
ATOM     49  C   UNL A   1      41.719  28.508  31.098  1.00  0.00     0.074 A 
ATOM     50  C   UNL A   1      42.701  32.009  36.287  1.00  0.00     0.029 A 
ATOM     51  N   UNL A   1      41.965  31.211  34.349  1.00  0.00    -0.354 N 
ATOM     52  N   UNL A   1      41.867  29.299  32.135  1.00  0.00    -0.248 NA
ATOM     53  C   UNL A   1      42.712  27.428  31.017  1.00  0.00     0.031 C 
ATOM     54  C   UNL A   1      43.518  30.936  35.913  1.00  0.00     0.029 A 
ATOM     55  C   UNL A   1      43.036  30.409  34.726  1.00  0.00     0.049 A 
ATOM     56  H   UNL A   1      41.426  31.083  33.535  1.00  0.00     0.167 HD
ATOM     57  C   UNL A   1      42.953  28.794  32.846  1.00  0.00     0.074 A 
ATOM     58  C   UNL A   1      43.412  27.625  32.125  1.00  0.00     0.031 C 
ATOM     59  C   UNL A   1      43.512  29.255  33.995  1.00  0.00     0.034 A 
BRANCH  46  60
ATOM     60  C   UNL A   1      40.784  34.376  36.216  1.00  0.00     0.023 A 
ATOM     61  C   UNL A   1      40.240  34.192  37.501  1.00  0.00     0.031 A 
ATOM     62  C   UNL A   1      41.303  35.645  35.903  1.00  0.00     0.131 A 
ATOM     63  C   UNL A   1      40.136  35.279  38.382  1.00  0.00     0.055 A 
ATOM     64  C   UNL A   1      41.284  36.698  36.822  1.00  0.00     0.041 A 
ATOM     65  F   UNL A   1      41.820  35.893  34.689  1.00  0.00    -0.206 F 
ATOM     66  C   UNL A   1      40.678  36.524  38.062  1.00  0.00     0.022 A 
BRANCH  63  67
ATOM     67  S   UNL A   1      39.117  35.087  39.870  1.00  0.00     0.124 S 
ATOM     68  O   UNL A   1      38.149  34.081  39.439  1.00  0.00    -0.237 OA
ATOM     69  O   UNL A   1      40.090  34.653  40.865  1.00  0.00    -0.237 OA
ATOM     70  O   UNL A   1      38.561  36.422  40.080  1.00  0.00    -0.744 OA
ENDBRANCH  63  67
ENDBRANCH  46  60
BRANCH  47  71
ATOM     71  C   UNL A   1      40.713  27.589  28.874  1.00  0.00     0.023 A 
ATOM     72  C   UNL A   1      41.649  27.708  27.835  1.00  0.00     0.031 A 
ATOM     73  C   UNL A   1      39.791  26.528  28.813  1.00  0.00     0.131 A 
ATOM     74  C   UNL A   1      41.622  26.801  26.762  1.00  0.00     0.055 A 
ATOM     75  C   UNL A   1      39.802  25.598  27.771  1.00  0.00     0.041 A 
ATOM     76  F   UNL A   1      38.877  26.366  29.784  1.00  0.00    -0.206 F 
ATOM     77  C   UNL A   1      40.716  25.739  26.733  1.00  0.00     0.022 A 
BRANCH  74  78
ATOM     78  S   UNL A   1      42.753  27.064  25.369  1.00  0.00     0.124 S 
ATOM     79  O   UNL A   1      44.021  27.284  26.053  1.00  0.00    -0.237 OA
ATOM     80  O   UNL A   1      42.629  25.808  24.636  1.00  0.00    -0.237 OA
ATOM     81  O   UNL A   1      42.196  28.234  24.694  1.00  0.00    -0.744 OA
ENDBRANCH  74  78
ENDBRANCH  47  71
BRANCH  59  82
ATOM     82  C   UNL A   1      44.664  28.462  34.571  1.00  0.00     0.023 A 
ATOM     83  C   UNL A   1      44.462  27.389  35.456  1.00  0.00     0.031 A 
ATOM     84  C   UNL A   1      45.989  28.796  34.234  1.00  0.00     0.131 A 
ATOM     85  C   UNL A   1      45.566  26.724  36.016  1.00  0.00     0.055 A 
ATOM     86  C   UNL A   1      47.080  28.089  34.741  1.00  0.00     0.041 A 
ATOM     87  F   UNL A   1      46.245  29.816  33.400  1.00  0.00    -0.206 F 
ATOM     88  C   UNL A   1      46.872  27.054  35.647  1.00  0.00     0.022 A 
BRANCH  85  89
ATOM     89  S   UNL A   1      45.277  25.486  37.309  1.00  0.00     0.124 S 
ATOM     90  O   UNL A   1      44.235  26.121  38.111  1.00  0.00    -0.237 OA
ATOM     91  O   UNL A   1      44.865  24.317  36.539  1.00  0.00    -0.237 OA
ATOM     92  O   UNL A   1      46.577  25.366  37.967  1.00  0.00    -0.744 OA
ENDBRANCH  85  89
ENDBRANCH  59  82
ENDBRANCH  33  34
ENDBRANCH  25  28
ENDBRANCH  23  24
ENDBRANCH  22  23
ENDBRANCH   1  22
TORSDOF 18
ENDMDL
