MODEL 1
REMARK VINA RESULT:     -11.7      0.000      0.000
REMARK SMILES C[C@H]1[C@H](C(=O)NCCCCNC(=O)c2ccc(-c3c4nc(c(-c5cc(S(=O)(=O)[O-])ccc5F)c5ccc([nH]5)c(-c5cc(S(=O)(=O)[O-])ccc5F)c5nc(c(-c6cc(S(=O)(=O)[O-])ccc6F)c6ccc3[nH]6)C=C5)C=C4)cc2)CC[N@@H+]1Cc1cscn1
REMARK SMILES IDX 9 1 8 2 7 3 6 4 4 5 5 6 3 8 1 9 2 10 79 11 77 12 78 13 80 15
REMARK SMILES IDX 81 16 82 17 85 18 83 19 84 20 10 21 11 22 12 23 13 25 14 26
REMARK SMILES IDX 15 27 76 28 16 29 75 30 17 31 18 32 19 33 69 34 20 35 74 36
REMARK SMILES IDX 68 37 70 38 21 39 73 40 67 41 66 42 22 44 54 45 34 46 53 47
REMARK SMILES IDX 35 48 38 49 52 50 71 51 36 52 37 53 51 55 72 56 39 57 23 58
REMARK SMILES IDX 24 59 32 60 25 61 31 62 33 63 30 64 26 65 27 66 28 67 29 68
REMARK SMILES IDX 55 69 56 70 64 71 57 72 63 73 65 74 62 75 58 76 59 77 60 78
REMARK SMILES IDX 61 79 40 80 41 81 49 82 42 83 48 84 50 85 47 86 43 87 44 88
REMARK SMILES IDX 45 89 46 90
REMARK H PARENT 6 7 79 14 11 24 70 43 38 54
REMARK Flexibility Score: inf
ROOT
ATOM      1  C   UNL A   1      36.619  21.837  24.071  1.00  0.00     0.023 C 
ENDROOT
BRANCH   1   2
ATOM      2  C   UNL A   1      36.428  23.291  23.638  1.00  0.00     0.023 C 
BRANCH   2   3
ATOM      3  C   UNL A   1      35.195  23.986  24.223  1.00  0.00     0.116 C 
BRANCH   3   4
ATOM      4  N   UNL A   1      34.366  24.586  23.202  1.00  0.00    -0.356 N 
ATOM      5  C   UNL A   1      33.092  24.300  22.828  1.00  0.00     0.229 C 
ATOM      6  O   UNL A   1      32.598  25.004  21.940  1.00  0.00    -0.275 OA
ATOM      7  H   UNL A   1      34.792  25.318  22.699  1.00  0.00     0.163 HD
BRANCH   5   8
ATOM      8  C   UNL A   1      32.246  23.204  23.465  1.00  0.00     0.142 C 
ATOM      9  C   UNL A   1      31.869  21.131  22.082  1.00  0.00     0.076 C 
ATOM     10  C   UNL A   1      32.673  21.746  23.233  1.00  0.00     0.194 C 
ATOM     11  N   UNL A   1      32.341  21.020  24.476  1.00  0.00    -0.327 N 
ATOM     12  C   UNL A   1      32.056  23.312  24.971  1.00  0.00     0.081 C 
ATOM     13  C   UNL A   1      31.558  21.918  25.319  1.00  0.00     0.263 C 
ATOM     14  H   UNL A   1      31.750  20.218  24.258  1.00  0.00     0.348 HD
BRANCH  11  15
ATOM     15  C   UNL A   1      33.431  20.249  25.098  1.00  0.00     0.320 C 
BRANCH  15  16
ATOM     16  C   UNL A   1      33.410  18.744  24.949  1.00  0.00     0.105 A 
ATOM     17  C   UNL A   1      34.420  17.946  24.433  1.00  0.00     0.096 A 
ATOM     18  N   UNL A   1      32.349  18.013  25.491  1.00  0.00    -0.244 NA
ATOM     19  S   UNL A   1      34.005  16.288  24.523  1.00  0.00    -0.130 S 
ATOM     20  C   UNL A   1      32.564  16.722  25.335  1.00  0.00     0.176 A 
ENDBRANCH  15  16
ENDBRANCH  11  15
ENDBRANCH   5   8
ENDBRANCH   3   4
ENDBRANCH   2   3
ENDBRANCH   1   2
BRANCH   1  21
ATOM     21  C   UNL A   1      37.183  21.633  25.475  1.00  0.00     0.116 C 
BRANCH  21  22
ATOM     22  N   UNL A   1      38.247  20.646  25.561  1.00  0.00    -0.352 N 
ATOM     23  C   UNL A   1      39.500  20.799  26.121  1.00  0.00     0.251 C 
ATOM     24  H   UNL A   1      38.052  19.762  25.173  1.00  0.00     0.163 HD
ATOM     25  O   UNL A   1      40.301  19.874  26.116  1.00  0.00    -0.269 OA
BRANCH  23  26
ATOM     26  C   UNL A   1      39.873  22.112  26.695  1.00  0.00     0.039 A 
ATOM     27  C   UNL A   1      40.823  22.154  27.717  1.00  0.00     0.014 A 
ATOM     28  C   UNL A   1      39.350  23.296  26.168  1.00  0.00     0.014 A 
ATOM     29  C   UNL A   1      41.332  23.386  28.134  1.00  0.00     0.010 A 
ATOM     30  C   UNL A   1      39.904  24.518  26.539  1.00  0.00     0.010 A 
ATOM     31  C   UNL A   1      40.921  24.572  27.504  1.00  0.00    -0.014 A 
BRANCH  31  32
ATOM     32  C   UNL A   1      41.594  25.867  27.788  1.00  0.00     0.031 A 
ATOM     33  C   UNL A   1      40.879  26.949  28.546  1.00  0.00     0.074 A 
ATOM     34  C   UNL A   1      42.820  26.096  27.276  1.00  0.00     0.049 A 
ATOM     35  N   UNL A   1      41.274  28.167  28.819  1.00  0.00    -0.248 NA
ATOM     36  C   UNL A   1      39.532  26.628  29.036  1.00  0.00     0.031 C 
ATOM     37  C   UNL A   1      43.589  25.144  26.469  1.00  0.00     0.029 A 
ATOM     38  N   UNL A   1      43.630  27.201  27.342  1.00  0.00    -0.354 N 
ATOM     39  C   UNL A   1      40.221  28.763  29.503  1.00  0.00     0.074 A 
ATOM     40  C   UNL A   1      39.151  27.787  29.551  1.00  0.00     0.031 C 
ATOM     41  C   UNL A   1      44.764  25.699  26.134  1.00  0.00     0.029 A 
ATOM     42  C   UNL A   1      44.820  27.057  26.664  1.00  0.00     0.049 A 
ATOM     43  H   UNL A   1      43.384  28.021  27.827  1.00  0.00     0.167 HD
ATOM     44  C   UNL A   1      40.161  30.001  30.057  1.00  0.00     0.034 A 
ATOM     45  C   UNL A   1      45.836  27.923  26.482  1.00  0.00     0.034 A 
ATOM     46  C   UNL A   1      41.239  30.959  30.003  1.00  0.00     0.049 A 
ATOM     47  C   UNL A   1      45.746  29.292  27.102  1.00  0.00     0.074 A 
ATOM     48  C   UNL A   1      41.307  32.216  30.579  1.00  0.00     0.029 A 
ATOM     49  N   UNL A   1      42.438  30.771  29.326  1.00  0.00    -0.354 N 
ATOM     50  N   UNL A   1      44.767  29.819  27.800  1.00  0.00    -0.248 NA
ATOM     51  C   UNL A   1      46.903  30.178  26.921  1.00  0.00     0.031 C 
ATOM     52  C   UNL A   1      42.518  32.809  30.203  1.00  0.00     0.029 A 
ATOM     53  C   UNL A   1      43.237  31.898  29.448  1.00  0.00     0.049 A 
ATOM     54  H   UNL A   1      42.684  29.956  28.832  1.00  0.00     0.167 HD
ATOM     55  C   UNL A   1      45.202  31.090  28.164  1.00  0.00     0.074 A 
ATOM     56  C   UNL A   1      46.535  31.243  27.619  1.00  0.00     0.031 C 
ATOM     57  C   UNL A   1      44.560  32.042  28.886  1.00  0.00     0.034 A 
BRANCH  44  58
ATOM     58  C   UNL A   1      38.874  30.386  30.745  1.00  0.00     0.023 A 
ATOM     59  C   UNL A   1      37.849  31.064  30.063  1.00  0.00     0.031 A 
ATOM     60  C   UNL A   1      38.681  30.105  32.109  1.00  0.00     0.131 A 
ATOM     61  C   UNL A   1      36.717  31.511  30.761  1.00  0.00     0.055 A 
ATOM     62  C   UNL A   1      37.515  30.480  32.780  1.00  0.00     0.041 A 
ATOM     63  F   UNL A   1      39.631  29.476  32.819  1.00  0.00    -0.206 F 
ATOM     64  C   UNL A   1      36.531  31.203  32.110  1.00  0.00     0.022 A 
BRANCH  61  65
ATOM     65  S   UNL A   1      35.565  32.627  29.916  1.00  0.00     0.124 S 
ATOM     66  O   UNL A   1      36.280  33.901  29.992  1.00  0.00    -0.237 OA
ATOM     67  O   UNL A   1      35.463  32.031  28.589  1.00  0.00    -0.237 OA
ATOM     68  O   UNL A   1      34.354  32.552  30.730  1.00  0.00    -0.744 OA
ENDBRANCH  61  65
ENDBRANCH  44  58
BRANCH  45  69
ATOM     69  C   UNL A   1      47.026  27.529  25.678  1.00  0.00     0.023 A 
ATOM     70  C   UNL A   1      47.130  27.879  24.323  1.00  0.00     0.031 A 
ATOM     71  C   UNL A   1      48.062  26.766  26.244  1.00  0.00     0.131 A 
ATOM     72  C   UNL A   1      48.224  27.431  23.566  1.00  0.00     0.055 A 
ATOM     73  C   UNL A   1      49.171  26.360  25.498  1.00  0.00     0.041 A 
ATOM     74  F   UNL A   1      48.016  26.412  27.539  1.00  0.00    -0.206 F 
ATOM     75  C   UNL A   1      49.249  26.682  24.148  1.00  0.00     0.022 A 
BRANCH  72  76
ATOM     76  S   UNL A   1      48.247  27.778  21.786  1.00  0.00     0.124 S 
ATOM     77  O   UNL A   1      46.956  28.427  21.592  1.00  0.00    -0.237 OA
ATOM     78  O   UNL A   1      49.421  28.635  21.662  1.00  0.00    -0.237 OA
ATOM     79  O   UNL A   1      48.379  26.454  21.183  1.00  0.00    -0.744 OA
ENDBRANCH  72  76
ENDBRANCH  45  69
BRANCH  57  80
ATOM     80  C   UNL A   1      45.319  33.316  29.159  1.00  0.00     0.023 A 
ATOM     81  C   UNL A   1      45.251  34.417  28.288  1.00  0.00     0.031 A 
ATOM     82  C   UNL A   1      46.137  33.420  30.298  1.00  0.00     0.131 A 
ATOM     83  C   UNL A   1      46.029  35.557  28.542  1.00  0.00     0.055 A 
ATOM     84  C   UNL A   1      46.867  34.577  30.574  1.00  0.00     0.041 A 
ATOM     85  F   UNL A   1      46.239  32.397  31.161  1.00  0.00    -0.206 F 
ATOM     86  C   UNL A   1      46.825  35.649  29.687  1.00  0.00     0.022 A 
BRANCH  83  87
ATOM     87  S   UNL A   1      46.051  36.890  27.312  1.00  0.00     0.124 S 
ATOM     88  O   UNL A   1      46.608  38.000  28.077  1.00  0.00    -0.237 OA
ATOM     89  O   UNL A   1      46.911  36.338  26.270  1.00  0.00    -0.237 OA
ATOM     90  O   UNL A   1      44.644  37.037  26.939  1.00  0.00    -0.744 OA
ENDBRANCH  83  87
ENDBRANCH  57  80
ENDBRANCH  31  32
ENDBRANCH  23  26
ENDBRANCH  21  22
ENDBRANCH   1  21
TORSDOF 16
ENDMDL
MODEL 2
REMARK VINA RESULT:     -11.5      2.082      3.308
REMARK SMILES C[C@H]1[C@H](C(=O)NCCCCNC(=O)c2ccc(-c3c4nc(c(-c5cc(S(=O)(=O)[O-])ccc5F)c5ccc([nH]5)c(-c5cc(S(=O)(=O)[O-])ccc5F)c5nc(c(-c6cc(S(=O)(=O)[O-])ccc6F)c6ccc3[nH]6)C=C5)C=C4)cc2)CC[N@@H+]1Cc1cscn1
REMARK SMILES IDX 9 1 8 2 7 3 6 4 4 5 5 6 3 8 1 9 2 10 79 11 77 12 78 13 80 15
REMARK SMILES IDX 81 16 82 17 85 18 83 19 84 20 10 21 11 22 12 23 13 25 14 26
REMARK SMILES IDX 15 27 76 28 16 29 75 30 17 31 18 32 19 33 69 34 20 35 74 36
REMARK SMILES IDX 68 37 70 38 21 39 73 40 67 41 66 42 22 44 54 45 34 46 53 47
REMARK SMILES IDX 35 48 38 49 52 50 71 51 36 52 37 53 51 55 72 56 39 57 23 58
REMARK SMILES IDX 24 59 32 60 25 61 31 62 33 63 30 64 26 65 27 66 28 67 29 68
REMARK SMILES IDX 55 69 56 70 64 71 57 72 63 73 65 74 62 75 58 76 59 77 60 78
REMARK SMILES IDX 61 79 40 80 41 81 49 82 42 83 48 84 50 85 47 86 43 87 44 88
REMARK SMILES IDX 45 89 46 90
REMARK H PARENT 6 7 79 14 11 24 70 43 38 54
REMARK Flexibility Score: inf
ROOT
ATOM      1  C   UNL A   1      35.351  21.263  25.010  1.00  0.00     0.023 C 
ENDROOT
BRANCH   1   2
ATOM      2  C   UNL A   1      34.328  21.102  26.135  1.00  0.00     0.023 C 
BRANCH   2   3
ATOM      3  C   UNL A   1      34.365  22.196  27.206  1.00  0.00     0.116 C 
BRANCH   3   4
ATOM      4  N   UNL A   1      33.044  22.682  27.540  1.00  0.00    -0.356 N 
ATOM      5  C   UNL A   1      32.210  23.498  26.847  1.00  0.00     0.229 C 
ATOM      6  O   UNL A   1      31.104  23.726  27.350  1.00  0.00    -0.275 OA
ATOM      7  H   UNL A   1      32.695  22.371  28.407  1.00  0.00     0.163 HD
BRANCH   5   8
ATOM      8  C   UNL A   1      32.547  24.100  25.487  1.00  0.00     0.142 C 
ATOM      9  C   UNL A   1      30.878  23.704  23.641  1.00  0.00     0.076 C 
ATOM     10  C   UNL A   1      31.397  24.712  24.673  1.00  0.00     0.194 C 
ATOM     11  N   UNL A   1      31.977  25.864  23.951  1.00  0.00    -0.327 N 
ATOM     12  C   UNL A   1      33.626  25.172  25.492  1.00  0.00     0.081 C 
ATOM     13  C   UNL A   1      33.423  25.819  24.131  1.00  0.00     0.263 C 
ATOM     14  H   UNL A   1      31.793  25.770  22.951  1.00  0.00     0.348 HD
BRANCH  11  15
ATOM     15  C   UNL A   1      31.289  27.156  24.118  1.00  0.00     0.320 C 
BRANCH  15  16
ATOM     16  C   UNL A   1      31.607  27.974  25.351  1.00  0.00     0.105 A 
ATOM     17  C   UNL A   1      32.074  29.279  25.385  1.00  0.00     0.096 A 
ATOM     18  N   UNL A   1      31.289  27.467  26.614  1.00  0.00    -0.244 NA
ATOM     19  S   UNL A   1      32.223  29.841  26.994  1.00  0.00    -0.130 S 
ATOM     20  C   UNL A   1      31.558  28.363  27.542  1.00  0.00     0.176 A 
ENDBRANCH  15  16
ENDBRANCH  11  15
ENDBRANCH   5   8
ENDBRANCH   3   4
ENDBRANCH   2   3
ENDBRANCH   1   2
BRANCH   1  21
ATOM     21  C   UNL A   1      36.731  21.759  25.434  1.00  0.00     0.116 C 
BRANCH  21  22
ATOM     22  N   UNL A   1      37.770  20.741  25.420  1.00  0.00    -0.352 N 
ATOM     23  C   UNL A   1      39.054  20.836  25.919  1.00  0.00     0.251 C 
ATOM     24  H   UNL A   1      37.529  19.881  25.005  1.00  0.00     0.163 HD
ATOM     25  O   UNL A   1      39.826  19.890  25.831  1.00  0.00    -0.269 OA
BRANCH  23  26
ATOM     26  C   UNL A   1      39.494  22.111  26.529  1.00  0.00     0.039 A 
ATOM     27  C   UNL A   1      40.545  22.089  27.448  1.00  0.00     0.014 A 
ATOM     28  C   UNL A   1      38.928  23.325  26.131  1.00  0.00     0.014 A 
ATOM     29  C   UNL A   1      41.103  23.293  27.884  1.00  0.00     0.010 A 
ATOM     30  C   UNL A   1      39.527  24.521  26.515  1.00  0.00     0.010 A 
ATOM     31  C   UNL A   1      40.638  24.516  27.371  1.00  0.00    -0.014 A 
BRANCH  31  32
ATOM     32  C   UNL A   1      41.346  25.791  27.662  1.00  0.00     0.031 A 
ATOM     33  C   UNL A   1      40.672  26.877  28.451  1.00  0.00     0.074 A 
ATOM     34  C   UNL A   1      42.567  25.999  27.129  1.00  0.00     0.049 A 
ATOM     35  N   UNL A   1      41.100  28.080  28.734  1.00  0.00    -0.248 NA
ATOM     36  C   UNL A   1      39.327  26.579  28.963  1.00  0.00     0.031 C 
ATOM     37  C   UNL A   1      43.298  25.042  26.292  1.00  0.00     0.029 A 
ATOM     38  N   UNL A   1      43.404  27.084  27.196  1.00  0.00    -0.354 N 
ATOM     39  C   UNL A   1      40.076  28.690  29.448  1.00  0.00     0.074 A 
ATOM     40  C   UNL A   1      38.983  27.739  29.503  1.00  0.00     0.031 C 
ATOM     41  C   UNL A   1      44.479  25.576  25.942  1.00  0.00     0.029 A 
ATOM     42  C   UNL A   1      44.576  26.923  26.492  1.00  0.00     0.049 A 
ATOM     43  H   UNL A   1      43.186  27.902  27.699  1.00  0.00     0.167 HD
ATOM     44  C   UNL A   1      40.055  29.920  30.022  1.00  0.00     0.034 A 
ATOM     45  C   UNL A   1      45.609  27.769  26.304  1.00  0.00     0.034 A 
ATOM     46  C   UNL A   1      41.154  30.854  29.962  1.00  0.00     0.049 A 
ATOM     47  C   UNL A   1      45.562  29.130  26.946  1.00  0.00     0.074 A 
ATOM     48  C   UNL A   1      41.262  32.100  30.556  1.00  0.00     0.029 A 
ATOM     49  N   UNL A   1      42.334  30.649  29.258  1.00  0.00    -0.354 N 
ATOM     50  N   UNL A   1      44.610  29.668  27.672  1.00  0.00    -0.248 NA
ATOM     51  C   UNL A   1      46.736  29.992  26.755  1.00  0.00     0.031 C 
ATOM     52  C   UNL A   1      42.479  32.670  30.164  1.00  0.00     0.029 A 
ATOM     53  C   UNL A   1      43.162  31.755  29.381  1.00  0.00     0.049 A 
ATOM     54  H   UNL A   1      42.552  29.836  28.747  1.00  0.00     0.167 HD
ATOM     55  C   UNL A   1      45.082  30.922  28.046  1.00  0.00     0.074 A 
ATOM     56  C   UNL A   1      46.407  31.054  27.477  1.00  0.00     0.031 C 
ATOM     57  C   UNL A   1      44.477  31.877  28.795  1.00  0.00     0.034 A 
BRANCH  44  58
ATOM     58  C   UNL A   1      38.791  30.323  30.742  1.00  0.00     0.023 A 
ATOM     59  C   UNL A   1      37.740  30.977  30.074  1.00  0.00     0.031 A 
ATOM     60  C   UNL A   1      38.646  30.085  32.120  1.00  0.00     0.131 A 
ATOM     61  C   UNL A   1      36.632  31.444  30.796  1.00  0.00     0.055 A 
ATOM     62  C   UNL A   1      37.503  30.479  32.819  1.00  0.00     0.041 A 
ATOM     63  F   UNL A   1      39.622  29.482  32.816  1.00  0.00    -0.206 F 
ATOM     64  C   UNL A   1      36.494  31.177  32.161  1.00  0.00     0.022 A 
BRANCH  61  65
ATOM     65  S   UNL A   1      35.447  32.529  29.957  1.00  0.00     0.124 S 
ATOM     66  O   UNL A   1      35.143  31.757  28.753  1.00  0.00    -0.237 OA
ATOM     67  O   UNL A   1      34.371  32.639  30.934  1.00  0.00    -0.237 OA
ATOM     68  O   UNL A   1      36.209  33.755  29.726  1.00  0.00    -0.744 OA
ENDBRANCH  61  65
ENDBRANCH  44  58
BRANCH  45  69
ATOM     69  C   UNL A   1      46.774  27.361  25.470  1.00  0.00     0.023 A 
ATOM     70  C   UNL A   1      46.930  27.844  24.161  1.00  0.00     0.031 A 
ATOM     71  C   UNL A   1      47.730  26.452  25.957  1.00  0.00     0.131 A 
ATOM     72  C   UNL A   1      47.992  27.385  23.368  1.00  0.00     0.055 A 
ATOM     73  C   UNL A   1      48.811  26.033  25.179  1.00  0.00     0.041 A 
ATOM     74  F   UNL A   1      47.631  25.967  27.206  1.00  0.00    -0.206 F 
ATOM     75  C   UNL A   1      48.940  26.491  23.872  1.00  0.00     0.022 A 
BRANCH  72  76
ATOM     76  S   UNL A   1      48.076  27.918  21.637  1.00  0.00     0.124 S 
ATOM     77  O   UNL A   1      49.153  28.900  21.678  1.00  0.00    -0.237 OA
ATOM     78  O   UNL A   1      48.374  26.666  20.949  1.00  0.00    -0.237 OA
ATOM     79  O   UNL A   1      46.743  28.462  21.385  1.00  0.00    -0.744 OA
ENDBRANCH  72  76
ENDBRANCH  45  69
BRANCH  57  80
ATOM     80  C   UNL A   1      45.270  33.129  29.072  1.00  0.00     0.023 A 
ATOM     81  C   UNL A   1      45.194  34.254  28.232  1.00  0.00     0.031 A 
ATOM     82  C   UNL A   1      46.129  33.189  30.184  1.00  0.00     0.131 A 
ATOM     83  C   UNL A   1      46.003  35.372  28.486  1.00  0.00     0.055 A 
ATOM     84  C   UNL A   1      46.892  34.323  30.462  1.00  0.00     0.041 A 
ATOM     85  F   UNL A   1      46.241  32.142  31.017  1.00  0.00    -0.206 F 
ATOM     86  C   UNL A   1      46.840  35.419  29.604  1.00  0.00     0.022 A 
BRANCH  83  87
ATOM     87  S   UNL A   1      46.008  36.734  27.289  1.00  0.00     0.124 S 
ATOM     88  O   UNL A   1      46.861  37.716  27.952  1.00  0.00    -0.237 OA
ATOM     89  O   UNL A   1      46.568  36.102  26.099  1.00  0.00    -0.237 OA
ATOM     90  O   UNL A   1      44.598  37.107  27.186  1.00  0.00    -0.744 OA
ENDBRANCH  83  87
ENDBRANCH  57  80
ENDBRANCH  31  32
ENDBRANCH  23  26
ENDBRANCH  21  22
ENDBRANCH   1  21
TORSDOF 16
ENDMDL
MODEL 3
REMARK VINA RESULT:     -11.5      5.193      7.606
REMARK SMILES C[C@H]1[C@H](C(=O)NCCCCNC(=O)c2ccc(-c3c4nc(c(-c5cc(S(=O)(=O)[O-])ccc5F)c5ccc([nH]5)c(-c5cc(S(=O)(=O)[O-])ccc5F)c5nc(c(-c6cc(S(=O)(=O)[O-])ccc6F)c6ccc3[nH]6)C=C5)C=C4)cc2)CC[N@@H+]1Cc1cscn1
REMARK SMILES IDX 9 1 8 2 7 3 6 4 4 5 5 6 3 8 1 9 2 10 79 11 77 12 78 13 80 15
REMARK SMILES IDX 81 16 82 17 85 18 83 19 84 20 10 21 11 22 12 23 13 25 14 26
REMARK SMILES IDX 15 27 76 28 16 29 75 30 17 31 18 32 19 33 69 34 20 35 74 36
REMARK SMILES IDX 68 37 70 38 21 39 73 40 67 41 66 42 22 44 54 45 34 46 53 47
REMARK SMILES IDX 35 48 38 49 52 50 71 51 36 52 37 53 51 55 72 56 39 57 23 58
REMARK SMILES IDX 24 59 32 60 25 61 31 62 33 63 30 64 26 65 27 66 28 67 29 68
REMARK SMILES IDX 55 69 56 70 64 71 57 72 63 73 65 74 62 75 58 76 59 77 60 78
REMARK SMILES IDX 61 79 40 80 41 81 49 82 42 83 48 84 50 85 47 86 43 87 44 88
REMARK SMILES IDX 45 89 46 90
REMARK H PARENT 6 7 79 14 11 24 70 43 38 54
REMARK Flexibility Score: inf
ROOT
ATOM      1  C   UNL A   1      31.729  28.962  25.871  1.00  0.00     0.023 C 
ENDROOT
BRANCH   1   2
ATOM      2  C   UNL A   1      31.816  27.823  26.887  1.00  0.00     0.023 C 
BRANCH   2   3
ATOM      3  C   UNL A   1      32.154  26.451  26.296  1.00  0.00     0.116 C 
BRANCH   3   4
ATOM      4  N   UNL A   1      31.291  25.407  26.802  1.00  0.00    -0.356 N 
ATOM      5  C   UNL A   1      31.379  24.059  26.673  1.00  0.00     0.229 C 
ATOM      6  O   UNL A   1      30.517  23.384  27.248  1.00  0.00    -0.275 OA
ATOM      7  H   UNL A   1      30.518  25.725  27.324  1.00  0.00     0.163 HD
BRANCH   5   8
ATOM      8  C   UNL A   1      32.488  23.350  25.904  1.00  0.00     0.142 C 
ATOM      9  C   UNL A   1      33.655  21.465  27.102  1.00  0.00     0.076 C 
ATOM     10  C   UNL A   1      32.597  21.825  26.052  1.00  0.00     0.194 C 
ATOM     11  N   UNL A   1      33.050  21.318  24.740  1.00  0.00    -0.327 N 
ATOM     12  C   UNL A   1      32.504  23.591  24.402  1.00  0.00     0.081 C 
ATOM     13  C   UNL A   1      33.411  22.469  23.921  1.00  0.00     0.263 C 
ATOM     14  H   UNL A   1      33.893  20.756  24.861  1.00  0.00     0.348 HD
BRANCH  11  15
ATOM     15  C   UNL A   1      32.235  20.253  24.130  1.00  0.00     0.320 C 
BRANCH  15  16
ATOM     16  C   UNL A   1      32.638  18.818  24.386  1.00  0.00     0.105 A 
ATOM     17  C   UNL A   1      33.252  17.955  23.491  1.00  0.00     0.096 A 
ATOM     18  N   UNL A   1      32.531  18.292  25.677  1.00  0.00    -0.244 NA
ATOM     19  S   UNL A   1      33.599  16.448  24.223  1.00  0.00    -0.130 S 
ATOM     20  C   UNL A   1      33.016  17.066  25.707  1.00  0.00     0.176 A 
ENDBRANCH  15  16
ENDBRANCH  11  15
ENDBRANCH   5   8
ENDBRANCH   3   4
ENDBRANCH   2   3
ENDBRANCH   1   2
BRANCH   1  21
ATOM     21  C   UNL A   1      32.899  29.942  25.872  1.00  0.00     0.116 C 
BRANCH  21  22
ATOM     22  N   UNL A   1      32.604  31.236  26.465  1.00  0.00    -0.352 N 
ATOM     23  C   UNL A   1      33.382  31.961  27.346  1.00  0.00     0.251 C 
ATOM     24  H   UNL A   1      31.745  31.645  26.208  1.00  0.00     0.163 HD
ATOM     25  O   UNL A   1      32.999  33.044  27.769  1.00  0.00    -0.269 OA
BRANCH  23  26
ATOM     26  C   UNL A   1      34.671  31.391  27.799  1.00  0.00     0.039 A 
ATOM     27  C   UNL A   1      35.762  32.247  27.970  1.00  0.00     0.014 A 
ATOM     28  C   UNL A   1      34.776  30.039  28.133  1.00  0.00     0.014 A 
ATOM     29  C   UNL A   1      36.923  31.769  28.582  1.00  0.00     0.010 A 
ATOM     30  C   UNL A   1      35.909  29.580  28.799  1.00  0.00     0.010 A 
ATOM     31  C   UNL A   1      36.981  30.448  29.057  1.00  0.00    -0.014 A 
BRANCH  31  32
ATOM     32  C   UNL A   1      38.121  29.978  29.887  1.00  0.00     0.031 A 
ATOM     33  C   UNL A   1      38.322  30.504  31.279  1.00  0.00     0.074 A 
ATOM     34  C   UNL A   1      39.028  29.143  29.341  1.00  0.00     0.049 A 
ATOM     35  N   UNL A   1      39.298  30.271  32.119  1.00  0.00    -0.248 NA
ATOM     36  C   UNL A   1      37.305  31.439  31.780  1.00  0.00     0.031 C 
ATOM     37  C   UNL A   1      38.974  28.612  27.976  1.00  0.00     0.029 A 
ATOM     38  N   UNL A   1      40.180  28.604  29.858  1.00  0.00    -0.354 N 
ATOM     39  C   UNL A   1      39.022  31.037  33.244  1.00  0.00     0.074 A 
ATOM     40  C   UNL A   1      37.814  31.785  32.954  1.00  0.00     0.031 C 
ATOM     41  C   UNL A   1      40.032  27.811  27.772  1.00  0.00     0.029 A 
ATOM     42  C   UNL A   1      40.861  27.799  28.973  1.00  0.00     0.049 A 
ATOM     43  H   UNL A   1      40.490  28.778  30.776  1.00  0.00     0.167 HD
ATOM     44  C   UNL A   1      39.699  31.096  34.419  1.00  0.00     0.034 A 
ATOM     45  C   UNL A   1      42.025  27.135  29.109  1.00  0.00     0.034 A 
ATOM     46  C   UNL A   1      40.899  30.341  34.694  1.00  0.00     0.049 A 
ATOM     47  C   UNL A   1      42.762  27.218  30.419  1.00  0.00     0.074 A 
ATOM     48  C   UNL A   1      41.631  30.281  35.867  1.00  0.00     0.029 A 
ATOM     49  N   UNL A   1      41.549  29.520  33.781  1.00  0.00    -0.354 N 
ATOM     50  N   UNL A   1      42.453  27.900  31.498  1.00  0.00    -0.248 NA
ATOM     51  C   UNL A   1      43.998  26.432  30.534  1.00  0.00     0.031 C 
ATOM     52  C   UNL A   1      42.752  29.472  35.646  1.00  0.00     0.029 A 
ATOM     53  C   UNL A   1      42.686  28.972  34.356  1.00  0.00     0.049 A 
ATOM     54  H   UNL A   1      41.246  29.351  32.860  1.00  0.00     0.167 HD
ATOM     55  C   UNL A   1      43.444  27.603  32.429  1.00  0.00     0.074 A 
ATOM     56  C   UNL A   1      44.350  26.672  31.789  1.00  0.00     0.031 C 
ATOM     57  C   UNL A   1      43.589  28.055  33.700  1.00  0.00     0.034 A 
BRANCH  44  58
ATOM     58  C   UNL A   1      39.163  32.029  35.478  1.00  0.00     0.023 A 
ATOM     59  C   UNL A   1      39.598  33.363  35.572  1.00  0.00     0.031 A 
ATOM     60  C   UNL A   1      38.234  31.572  36.429  1.00  0.00     0.131 A 
ATOM     61  C   UNL A   1      39.170  34.167  36.639  1.00  0.00     0.055 A 
ATOM     62  C   UNL A   1      37.747  32.403  37.441  1.00  0.00     0.041 A 
ATOM     63  F   UNL A   1      37.796  30.304  36.402  1.00  0.00    -0.206 F 
ATOM     64  C   UNL A   1      38.228  33.704  37.561  1.00  0.00     0.022 A 
BRANCH  61  65
ATOM     65  S   UNL A   1      39.973  35.773  36.888  1.00  0.00     0.124 S 
ATOM     66  O   UNL A   1      41.371  35.380  37.058  1.00  0.00    -0.237 OA
ATOM     67  O   UNL A   1      39.655  36.481  35.653  1.00  0.00    -0.237 OA
ATOM     68  O   UNL A   1      39.330  36.296  38.091  1.00  0.00    -0.744 OA
ENDBRANCH  61  65
ENDBRANCH  44  58
BRANCH  45  69
ATOM     69  C   UNL A   1      42.573  26.335  27.978  1.00  0.00     0.023 A 
ATOM     70  C   UNL A   1      42.275  24.969  27.848  1.00  0.00     0.031 A 
ATOM     71  C   UNL A   1      43.432  26.917  27.028  1.00  0.00     0.131 A 
ATOM     72  C   UNL A   1      42.865  24.219  26.820  1.00  0.00     0.055 A 
ATOM     73  C   UNL A   1      43.980  26.176  25.980  1.00  0.00     0.041 A 
ATOM     74  F   UNL A   1      43.740  28.222  27.102  1.00  0.00    -0.206 F 
ATOM     75  C   UNL A   1      43.707  24.816  25.879  1.00  0.00     0.022 A 
BRANCH  72  76
ATOM     76  S   UNL A   1      42.573  22.430  26.774  1.00  0.00     0.124 S 
ATOM     77  O   UNL A   1      43.931  21.904  26.857  1.00  0.00    -0.237 OA
ATOM     78  O   UNL A   1      41.736  22.231  27.952  1.00  0.00    -0.237 OA
ATOM     79  O   UNL A   1      41.901  22.228  25.493  1.00  0.00    -0.744 OA
ENDBRANCH  72  76
ENDBRANCH  45  69
BRANCH  57  80
ATOM     80  C   UNL A   1      44.752  27.509  34.488  1.00  0.00     0.023 A 
ATOM     81  C   UNL A   1      44.634  26.347  35.271  1.00  0.00     0.031 A 
ATOM     82  C   UNL A   1      45.991  28.173  34.470  1.00  0.00     0.131 A 
ATOM     83  C   UNL A   1      45.721  25.913  36.044  1.00  0.00     0.055 A 
ATOM     84  C   UNL A   1      47.085  27.707  35.199  1.00  0.00     0.041 A 
ATOM     85  F   UNL A   1      46.156  29.289  33.741  1.00  0.00    -0.206 F 
ATOM     86  C   UNL A   1      46.950  26.578  36.002  1.00  0.00     0.022 A 
BRANCH  83  87
ATOM     87  S   UNL A   1      45.485  24.513  37.173  1.00  0.00     0.124 S 
ATOM     88  O   UNL A   1      44.929  23.497  36.284  1.00  0.00    -0.237 OA
ATOM     89  O   UNL A   1      46.841  24.267  37.653  1.00  0.00    -0.237 OA
ATOM     90  O   UNL A   1      44.558  25.033  38.177  1.00  0.00    -0.744 OA
ENDBRANCH  83  87
ENDBRANCH  57  80
ENDBRANCH  31  32
ENDBRANCH  23  26
ENDBRANCH  21  22
ENDBRANCH   1  21
TORSDOF 16
ENDMDL
