MODEL 1
REMARK VINA RESULT:     -13.2      0.000      0.000
REMARK SMILES Cc1ccnc(C(=O)c2[nH]c3ccc(OC(F)(F)F)cc3c2CC(=O)NCCCCNC(=O)c2ccc(-c3c4nc(c(-c5cc(S(=O)(=O)[O-])ccc5F)c5ccc([nH]5)c(-c5cc(S(=O)(=O)[O-])ccc5F)c5nc(c(-c6cc(S(=O)(=O)[O-])ccc6F)c6ccc3[nH]6)C=C5)C=C4)cc2)c1
REMARK SMILES IDX 28 1 27 2 26 3 24 4 25 5 23 7 22 8 9 9 10 10 11 11 21 13
REMARK SMILES IDX 12 14 20 15 13 16 14 17 7 18 8 19 6 20 1 21 2 22 3 23 97 24
REMARK SMILES IDX 4 25 5 26 15 27 16 28 17 29 18 30 19 31 29 32 30 33 31 34
REMARK SMILES IDX 32 35 33 37 34 38 35 39 96 40 36 41 95 42 37 43 38 44 39 45
REMARK SMILES IDX 89 46 40 47 94 48 88 49 90 50 41 51 93 52 87 53 86 54 42 56
REMARK SMILES IDX 74 57 54 58 73 59 55 60 58 61 72 62 91 63 56 64 57 65 71 67
REMARK SMILES IDX 92 68 59 69 43 70 44 71 52 72 45 73 51 74 53 75 50 76 46 77
REMARK SMILES IDX 47 78 48 79 49 80 75 81 76 82 84 83 77 84 83 85 85 86 82 87
REMARK SMILES IDX 78 88 79 89 80 90 81 91 60 92 61 93 69 94 62 95 68 96 70 97
REMARK SMILES IDX 67 98 63 99 64 100 65 101 66 102
REMARK H PARENT 26 6 10 12 31 36 90 55 58 66
REMARK Flexibility Score: inf
ROOT
ATOM      1  C   UNL A   1      31.697  30.865  26.384  1.00  0.00     0.023 C 
ENDROOT
BRANCH   1   2
ATOM      2  C   UNL A   1      33.089  30.274  26.593  1.00  0.00     0.116 C 
BRANCH   2   3
ATOM      3  N   UNL A   1      33.604  29.609  25.413  1.00  0.00    -0.356 N 
ATOM      4  C   UNL A   1      33.484  28.302  25.034  1.00  0.00     0.224 C 
ATOM      5  O   UNL A   1      33.865  27.985  23.903  1.00  0.00    -0.275 OA
ATOM      6  H   UNL A   1      34.114  30.181  24.796  1.00  0.00     0.163 HD
BRANCH   4   7
ATOM      7  C   UNL A   1      32.781  27.287  25.925  1.00  0.00     0.138 C 
BRANCH   7   8
ATOM      8  C   UNL A   1      31.513  26.707  25.365  1.00  0.00    -0.002 A 
ATOM      9  C   UNL A   1      31.033  25.410  25.522  1.00  0.00     0.093 A 
ATOM     10  N   UNL A   1      29.784  25.362  24.944  1.00  0.00    -0.352 N 
ATOM     11  C   UNL A   1      29.500  26.542  24.301  1.00  0.00     0.046 A 
ATOM     12  H   UNL A   1      29.179  24.588  24.985  1.00  0.00     0.167 HD
ATOM     13  C   UNL A   1      30.572  27.399  24.530  1.00  0.00     0.008 A 
ATOM     14  C   UNL A   1      28.371  26.920  23.568  1.00  0.00     0.030 A 
ATOM     15  C   UNL A   1      30.513  28.696  23.979  1.00  0.00     0.057 A 
ATOM     16  C   UNL A   1      28.338  28.218  23.041  1.00  0.00     0.049 A 
ATOM     17  C   UNL A   1      29.394  29.104  23.238  1.00  0.00     0.130 A 
BRANCH   9  18
ATOM     18  C   UNL A   1      31.614  24.292  26.247  1.00  0.00     0.227 C 
ATOM     19  O   UNL A   1      31.354  24.106  27.430  1.00  0.00    -0.285 OA
BRANCH  18  20
ATOM     20  C   UNL A   1      32.519  23.339  25.499  1.00  0.00     0.113 A 
ATOM     21  C   UNL A   1      32.537  19.925  23.841  1.00  0.00     0.044 C 
ATOM     22  C   UNL A   1      32.967  21.265  24.356  1.00  0.00    -0.047 A 
ATOM     23  C   UNL A   1      34.287  21.687  24.200  1.00  0.00     0.023 A 
ATOM     24  C   UNL A   1      32.063  22.118  24.998  1.00  0.00     0.036 A 
ATOM     25  C   UNL A   1      34.654  22.922  24.707  1.00  0.00     0.112 A 
ATOM     26  N   UNL A   1      33.808  23.742  25.360  1.00  0.00    -0.253 NA
ENDBRANCH  18  20
ENDBRANCH   9  18
BRANCH  17  27
ATOM     27  O   UNL A   1      29.473  30.390  22.780  1.00  0.00    -0.406 OA
BRANCH  27  28
ATOM     28  C   UNL A   1      28.682  31.372  23.425  1.00  0.00     0.573 C 
ATOM     29  F   UNL A   1      27.553  30.830  23.931  1.00  0.00    -0.132 F 
ATOM     30  F   UNL A   1      29.367  31.987  24.411  1.00  0.00    -0.132 F 
ATOM     31  F   UNL A   1      28.322  32.305  22.515  1.00  0.00    -0.132 F 
ENDBRANCH  27  28
ENDBRANCH  17  27
ENDBRANCH   7   8
ENDBRANCH   4   7
ENDBRANCH   2   3
ENDBRANCH   1   2
BRANCH   1  32
ATOM     32  C   UNL A   1      31.522  32.317  26.832  1.00  0.00     0.023 C 
BRANCH  32  33
ATOM     33  C   UNL A   1      32.806  33.053  27.204  1.00  0.00     0.116 C 
BRANCH  33  34
ATOM     34  N   UNL A   1      32.570  34.311  27.893  1.00  0.00    -0.352 N 
ATOM     35  C   UNL A   1      33.225  34.837  28.982  1.00  0.00     0.251 C 
ATOM     36  H   UNL A   1      31.841  34.863  27.530  1.00  0.00     0.163 HD
ATOM     37  O   UNL A   1      32.817  35.878  29.488  1.00  0.00    -0.269 OA
BRANCH  35  38
ATOM     38  C   UNL A   1      34.385  34.127  29.568  1.00  0.00     0.039 A 
ATOM     39  C   UNL A   1      35.668  34.455  29.119  1.00  0.00     0.014 A 
ATOM     40  C   UNL A   1      34.218  33.149  30.553  1.00  0.00     0.014 A 
ATOM     41  C   UNL A   1      36.786  33.857  29.706  1.00  0.00     0.010 A 
ATOM     42  C   UNL A   1      35.335  32.594  31.175  1.00  0.00     0.010 A 
ATOM     43  C   UNL A   1      36.627  32.949  30.762  1.00  0.00    -0.014 A 
BRANCH  43  44
ATOM     44  C   UNL A   1      37.799  32.359  31.454  1.00  0.00     0.031 A 
ATOM     45  C   UNL A   1      38.558  31.227  30.824  1.00  0.00     0.074 A 
ATOM     46  C   UNL A   1      38.127  32.790  32.688  1.00  0.00     0.049 A 
ATOM     47  N   UNL A   1      39.545  30.518  31.309  1.00  0.00    -0.248 NA
ATOM     48  C   UNL A   1      38.125  30.823  29.479  1.00  0.00     0.031 C 
ATOM     49  C   UNL A   1      37.439  33.853  33.424  1.00  0.00     0.029 A 
ATOM     50  N   UNL A   1      39.113  32.373  33.546  1.00  0.00    -0.354 N 
ATOM     51  C   UNL A   1      39.842  29.568  30.337  1.00  0.00     0.074 A 
ATOM     52  C   UNL A   1      38.894  29.767  29.258  1.00  0.00     0.031 C 
ATOM     53  C   UNL A   1      38.033  34.012  34.619  1.00  0.00     0.029 A 
ATOM     54  C   UNL A   1      39.118  33.044  34.744  1.00  0.00     0.049 A 
ATOM     55  H   UNL A   1      39.755  31.660  33.323  1.00  0.00     0.167 HD
ATOM     56  C   UNL A   1      40.820  28.629  30.338  1.00  0.00     0.034 A 
ATOM     57  C   UNL A   1      39.901  32.889  35.827  1.00  0.00     0.034 A 
ATOM     58  C   UNL A   1      41.764  28.449  31.414  1.00  0.00     0.049 A 
ATOM     59  C   UNL A   1      40.973  31.835  35.815  1.00  0.00     0.074 A 
ATOM     60  C   UNL A   1      42.841  27.580  31.487  1.00  0.00     0.029 A 
ATOM     61  N   UNL A   1      41.738  29.148  32.614  1.00  0.00    -0.354 N 
ATOM     62  N   UNL A   1      41.267  30.969  34.874  1.00  0.00    -0.248 NA
ATOM     63  C   UNL A   1      41.818  31.742  37.011  1.00  0.00     0.031 C 
ATOM     64  C   UNL A   1      43.435  27.722  32.749  1.00  0.00     0.029 A 
ATOM     65  C   UNL A   1      42.761  28.713  33.444  1.00  0.00     0.049 A 
ATOM     66  H   UNL A   1      41.088  29.851  32.843  1.00  0.00     0.167 HD
ATOM     67  C   UNL A   1      42.346  30.238  35.358  1.00  0.00     0.074 A 
ATOM     68  C   UNL A   1      42.649  30.765  36.675  1.00  0.00     0.031 C 
ATOM     69  C   UNL A   1      43.032  29.231  34.764  1.00  0.00     0.034 A 
BRANCH  56  70
ATOM     70  C   UNL A   1      40.882  27.711  29.142  1.00  0.00     0.023 A 
ATOM     71  C   UNL A   1      41.831  27.897  28.121  1.00  0.00     0.031 A 
ATOM     72  C   UNL A   1      39.936  26.683  28.984  1.00  0.00     0.131 A 
ATOM     73  C   UNL A   1      41.754  27.133  26.947  1.00  0.00     0.055 A 
ATOM     74  C   UNL A   1      39.914  25.873  27.847  1.00  0.00     0.041 A 
ATOM     75  F   UNL A   1      38.995  26.471  29.917  1.00  0.00    -0.206 F 
ATOM     76  C   UNL A   1      40.814  26.108  26.811  1.00  0.00     0.022 A 
BRANCH  73  77
ATOM     77  S   UNL A   1      42.787  27.613  25.536  1.00  0.00     0.124 S 
ATOM     78  O   UNL A   1      42.068  28.776  25.023  1.00  0.00    -0.237 OA
ATOM     79  O   UNL A   1      44.074  27.883  26.166  1.00  0.00    -0.237 OA
ATOM     80  O   UNL A   1      42.750  26.437  24.668  1.00  0.00    -0.744 OA
ENDBRANCH  73  77
ENDBRANCH  56  70
BRANCH  57  81
ATOM     81  C   UNL A   1      39.697  33.748  37.020  1.00  0.00     0.023 A 
ATOM     82  C   UNL A   1      38.987  33.274  38.132  1.00  0.00     0.031 A 
ATOM     83  C   UNL A   1      40.207  35.056  37.059  1.00  0.00     0.131 A 
ATOM     84  C   UNL A   1      38.785  34.114  39.237  1.00  0.00     0.055 A 
ATOM     85  C   UNL A   1      40.026  35.880  38.170  1.00  0.00     0.041 A 
ATOM     86  F   UNL A   1      40.904  35.544  36.020  1.00  0.00    -0.206 F 
ATOM     87  C   UNL A   1      39.304  35.411  39.265  1.00  0.00     0.022 A 
BRANCH  84  88
ATOM     88  S   UNL A   1      37.814  33.492  40.636  1.00  0.00     0.124 S 
ATOM     89  O   UNL A   1      38.773  32.616  41.299  1.00  0.00    -0.237 OA
ATOM     90  O   UNL A   1      37.474  34.722  41.343  1.00  0.00    -0.237 OA
ATOM     91  O   UNL A   1      36.688  32.816  39.995  1.00  0.00    -0.744 OA
ENDBRANCH  84  88
ENDBRANCH  57  81
BRANCH  69  92
ATOM     92  C   UNL A   1      44.197  28.668  35.532  1.00  0.00     0.023 A 
ATOM     93  C   UNL A   1      44.032  27.626  36.459  1.00  0.00     0.031 A 
ATOM     94  C   UNL A   1      45.483  29.208  35.353  1.00  0.00     0.131 A 
ATOM     95  C   UNL A   1      45.131  27.183  37.209  1.00  0.00     0.055 A 
ATOM     96  C   UNL A   1      46.580  28.735  36.074  1.00  0.00     0.041 A 
ATOM     97  F   UNL A   1      45.688  30.208  34.482  1.00  0.00    -0.206 F 
ATOM     98  C   UNL A   1      46.405  27.724  37.015  1.00  0.00     0.022 A 
BRANCH  95  99
ATOM     99  S   UNL A   1      44.864  25.930  38.494  1.00  0.00     0.124 S 
ATOM    100  O   UNL A   1      44.015  24.964  37.804  1.00  0.00    -0.237 OA
ATOM    101  O   UNL A   1      46.223  25.489  38.789  1.00  0.00    -0.237 OA
ATOM    102  O   UNL A   1      44.209  26.675  39.569  1.00  0.00    -0.744 OA
ENDBRANCH  95  99
ENDBRANCH  69  92
ENDBRANCH  43  44
ENDBRANCH  35  38
ENDBRANCH  33  34
ENDBRANCH  32  33
ENDBRANCH   1  32
TORSDOF 19
ENDMDL
MODEL 2
REMARK VINA RESULT:     -13.0      3.538      5.353
REMARK SMILES Cc1ccnc(C(=O)c2[nH]c3ccc(OC(F)(F)F)cc3c2CC(=O)NCCCCNC(=O)c2ccc(-c3c4nc(c(-c5cc(S(=O)(=O)[O-])ccc5F)c5ccc([nH]5)c(-c5cc(S(=O)(=O)[O-])ccc5F)c5nc(c(-c6cc(S(=O)(=O)[O-])ccc6F)c6ccc3[nH]6)C=C5)C=C4)cc2)c1
REMARK SMILES IDX 28 1 27 2 26 3 24 4 25 5 23 7 22 8 9 9 10 10 11 11 21 13
REMARK SMILES IDX 12 14 20 15 13 16 14 17 7 18 8 19 6 20 1 21 2 22 3 23 97 24
REMARK SMILES IDX 4 25 5 26 15 27 16 28 17 29 18 30 19 31 29 32 30 33 31 34
REMARK SMILES IDX 32 35 33 37 34 38 35 39 96 40 36 41 95 42 37 43 38 44 39 45
REMARK SMILES IDX 89 46 40 47 94 48 88 49 90 50 41 51 93 52 87 53 86 54 42 56
REMARK SMILES IDX 74 57 54 58 73 59 55 60 58 61 72 62 91 63 56 64 57 65 71 67
REMARK SMILES IDX 92 68 59 69 43 70 44 71 52 72 45 73 51 74 53 75 50 76 46 77
REMARK SMILES IDX 47 78 48 79 49 80 75 81 76 82 84 83 77 84 83 85 85 86 82 87
REMARK SMILES IDX 78 88 79 89 80 90 81 91 60 92 61 93 69 94 62 95 68 96 70 97
REMARK SMILES IDX 67 98 63 99 64 100 65 101 66 102
REMARK H PARENT 26 6 10 12 31 36 90 55 58 66
REMARK Flexibility Score: inf
ROOT
ATOM      1  C   UNL A   1      32.106  27.705  27.227  1.00  0.00     0.023 C 
ENDROOT
BRANCH   1   2
ATOM      2  C   UNL A   1      32.308  26.514  26.292  1.00  0.00     0.116 C 
BRANCH   2   3
ATOM      3  N   UNL A   1      31.655  25.309  26.761  1.00  0.00    -0.356 N 
ATOM      4  C   UNL A   1      31.992  24.003  26.547  1.00  0.00     0.224 C 
ATOM      5  O   UNL A   1      31.387  23.132  27.179  1.00  0.00    -0.275 OA
ATOM      6  H   UNL A   1      30.854  25.452  27.314  1.00  0.00     0.163 HD
BRANCH   4   7
ATOM      7  C   UNL A   1      33.168  23.631  25.655  1.00  0.00     0.138 C 
BRANCH   7   8
ATOM      8  C   UNL A   1      32.805  23.035  24.324  1.00  0.00    -0.002 A 
ATOM      9  C   UNL A   1      32.598  23.706  23.123  1.00  0.00     0.093 A 
ATOM     10  N   UNL A   1      32.410  22.753  22.147  1.00  0.00    -0.352 N 
ATOM     11  C   UNL A   1      32.353  21.497  22.699  1.00  0.00     0.046 A 
ATOM     12  H   UNL A   1      32.328  22.946  21.186  1.00  0.00     0.167 HD
ATOM     13  C   UNL A   1      32.578  21.641  24.064  1.00  0.00     0.008 A 
ATOM     14  C   UNL A   1      32.152  20.254  22.092  1.00  0.00     0.030 A 
ATOM     15  C   UNL A   1      32.583  20.477  24.862  1.00  0.00     0.057 A 
ATOM     16  C   UNL A   1      32.172  19.115  22.908  1.00  0.00     0.049 A 
ATOM     17  C   UNL A   1      32.384  19.216  24.281  1.00  0.00     0.130 A 
BRANCH   9  18
ATOM     18  C   UNL A   1      32.670  25.130  22.837  1.00  0.00     0.227 C 
ATOM     19  O   UNL A   1      33.687  25.626  22.367  1.00  0.00    -0.285 OA
BRANCH  18  20
ATOM     20  C   UNL A   1      31.447  25.980  23.097  1.00  0.00     0.113 A 
ATOM     21  C   UNL A   1      30.211  29.563  22.906  1.00  0.00     0.044 C 
ATOM     22  C   UNL A   1      30.271  28.083  23.136  1.00  0.00    -0.047 A 
ATOM     23  C   UNL A   1      29.171  27.409  23.663  1.00  0.00     0.023 A 
ATOM     24  C   UNL A   1      31.421  27.350  22.827  1.00  0.00     0.036 A 
ATOM     25  C   UNL A   1      29.270  26.045  23.881  1.00  0.00     0.112 A 
ATOM     26  N   UNL A   1      30.380  25.326  23.624  1.00  0.00    -0.253 NA
ENDBRANCH  18  20
ENDBRANCH   9  18
BRANCH  17  27
ATOM     27  O   UNL A   1      32.430  18.182  25.175  1.00  0.00    -0.406 OA
BRANCH  27  28
ATOM     28  C   UNL A   1      33.361  17.142  24.937  1.00  0.00     0.573 C 
ATOM     29  F   UNL A   1      34.480  17.618  24.349  1.00  0.00    -0.132 F 
ATOM     30  F   UNL A   1      33.690  16.505  26.080  1.00  0.00    -0.132 F 
ATOM     31  F   UNL A   1      32.801  16.243  24.097  1.00  0.00    -0.132 F 
ENDBRANCH  27  28
ENDBRANCH  17  27
ENDBRANCH   7   8
ENDBRANCH   4   7
ENDBRANCH   2   3
ENDBRANCH   1   2
BRANCH   1  32
ATOM     32  C   UNL A   1      31.561  28.974  26.571  1.00  0.00     0.023 C 
BRANCH  32  33
ATOM     33  C   UNL A   1      32.609  29.959  26.064  1.00  0.00     0.116 C 
BRANCH  33  34
ATOM     34  N   UNL A   1      32.336  31.337  26.439  1.00  0.00    -0.352 N 
ATOM     35  C   UNL A   1      33.044  32.160  27.283  1.00  0.00     0.251 C 
ATOM     36  H   UNL A   1      31.533  31.736  26.033  1.00  0.00     0.163 HD
ATOM     37  O   UNL A   1      32.600  33.271  27.556  1.00  0.00    -0.269 OA
BRANCH  35  38
ATOM     38  C   UNL A   1      34.308  31.690  27.895  1.00  0.00     0.039 A 
ATOM     39  C   UNL A   1      35.389  32.575  27.964  1.00  0.00     0.014 A 
ATOM     40  C   UNL A   1      34.433  30.394  28.403  1.00  0.00     0.014 A 
ATOM     41  C   UNL A   1      36.568  32.186  28.604  1.00  0.00     0.010 A 
ATOM     42  C   UNL A   1      35.589  30.025  29.089  1.00  0.00     0.010 A 
ATOM     43  C   UNL A   1      36.663  30.920  29.201  1.00  0.00    -0.014 A 
BRANCH  43  44
ATOM     44  C   UNL A   1      37.874  30.512  29.953  1.00  0.00     0.031 A 
ATOM     45  C   UNL A   1      38.832  29.519  29.361  1.00  0.00     0.074 A 
ATOM     46  C   UNL A   1      38.066  30.974  31.204  1.00  0.00     0.049 A 
ATOM     47  N   UNL A   1      39.890  28.966  29.896  1.00  0.00    -0.248 NA
ATOM     48  C   UNL A   1      38.538  29.067  27.993  1.00  0.00     0.031 C 
ATOM     49  C   UNL A   1      37.183  31.910  31.905  1.00  0.00     0.029 A 
ATOM     50  N   UNL A   1      39.058  30.706  32.112  1.00  0.00    -0.354 N 
ATOM     51  C   UNL A   1      40.382  28.084  28.939  1.00  0.00     0.074 A 
ATOM     52  C   UNL A   1      39.473  28.147  27.811  1.00  0.00     0.031 C 
ATOM     53  C   UNL A   1      37.681  32.146  33.131  1.00  0.00     0.029 A 
ATOM     54  C   UNL A   1      38.895  31.356  33.311  1.00  0.00     0.049 A 
ATOM     55  H   UNL A   1      39.813  30.104  31.922  1.00  0.00     0.167 HD
ATOM     56  C   UNL A   1      41.493  27.309  28.989  1.00  0.00     0.034 A 
ATOM     57  C   UNL A   1      39.636  31.312  34.434  1.00  0.00     0.034 A 
ATOM     58  C   UNL A   1      42.395  27.266  30.114  1.00  0.00     0.049 A 
ATOM     59  C   UNL A   1      40.857  30.438  34.476  1.00  0.00     0.074 A 
ATOM     60  C   UNL A   1      43.589  26.573  30.242  1.00  0.00     0.029 A 
ATOM     61  N   UNL A   1      42.198  27.938  31.313  1.00  0.00    -0.354 N 
ATOM     62  N   UNL A   1      41.332  29.638  33.549  1.00  0.00    -0.248 NA
ATOM     63  C   UNL A   1      41.642  30.463  35.716  1.00  0.00     0.031 C 
ATOM     64  C   UNL A   1      44.087  26.791  31.535  1.00  0.00     0.029 A 
ATOM     65  C   UNL A   1      43.232  27.657  32.196  1.00  0.00     0.049 A 
ATOM     66  H   UNL A   1      41.435  28.529  31.509  1.00  0.00     0.167 HD
ATOM     67  C   UNL A   1      42.484  29.078  34.089  1.00  0.00     0.074 A 
ATOM     68  C   UNL A   1      42.632  29.631  35.421  1.00  0.00     0.031 C 
ATOM     69  C   UNL A   1      43.348  28.196  33.529  1.00  0.00     0.034 A 
BRANCH  56  70
ATOM     70  C   UNL A   1      41.759  26.425  27.796  1.00  0.00     0.023 A 
ATOM     71  C   UNL A   1      41.356  25.078  27.774  1.00  0.00     0.031 A 
ATOM     72  C   UNL A   1      42.490  26.912  26.698  1.00  0.00     0.131 A 
ATOM     73  C   UNL A   1      41.765  24.242  26.725  1.00  0.00     0.055 A 
ATOM     74  C   UNL A   1      42.827  26.094  25.618  1.00  0.00     0.041 A 
ATOM     75  F   UNL A   1      42.918  28.184  26.672  1.00  0.00    -0.206 F 
ATOM     76  C   UNL A   1      42.482  24.745  25.636  1.00  0.00     0.022 A 
BRANCH  73  77
ATOM     77  S   UNL A   1      41.496  22.456  26.890  1.00  0.00     0.124 S 
ATOM     78  O   UNL A   1      40.076  22.398  27.225  1.00  0.00    -0.237 OA
ATOM     79  O   UNL A   1      41.862  21.960  25.568  1.00  0.00    -0.237 OA
ATOM     80  O   UNL A   1      42.398  22.072  27.974  1.00  0.00    -0.744 OA
ENDBRANCH  73  77
ENDBRANCH  56  70
BRANCH  57  81
ATOM     81  C   UNL A   1      39.238  32.116  35.617  1.00  0.00     0.023 A 
ATOM     82  C   UNL A   1      39.705  33.427  35.783  1.00  0.00     0.031 A 
ATOM     83  C   UNL A   1      38.388  31.579  36.598  1.00  0.00     0.131 A 
ATOM     84  C   UNL A   1      39.336  34.157  36.921  1.00  0.00     0.055 A 
ATOM     85  C   UNL A   1      38.003  32.318  37.717  1.00  0.00     0.041 A 
ATOM     86  F   UNL A   1      37.907  30.332  36.470  1.00  0.00    -0.206 F 
ATOM     87  C   UNL A   1      38.484  33.613  37.886  1.00  0.00     0.022 A 
BRANCH  84  88
ATOM     88  S   UNL A   1      40.003  35.830  37.135  1.00  0.00     0.124 S 
ATOM     89  O   UNL A   1      39.287  36.288  38.320  1.00  0.00    -0.237 OA
ATOM     90  O   UNL A   1      41.429  35.571  37.307  1.00  0.00    -0.237 OA
ATOM     91  O   UNL A   1      39.644  36.502  35.888  1.00  0.00    -0.744 OA
ENDBRANCH  84  88
ENDBRANCH  57  81
BRANCH  69  92
ATOM     92  C   UNL A   1      44.545  27.812  34.357  1.00  0.00     0.023 A 
ATOM     93  C   UNL A   1      44.522  26.696  35.209  1.00  0.00     0.031 A 
ATOM     94  C   UNL A   1      45.711  28.597  34.313  1.00  0.00     0.131 A 
ATOM     95  C   UNL A   1      45.632  26.418  36.020  1.00  0.00     0.055 A 
ATOM     96  C   UNL A   1      46.826  28.292  35.093  1.00  0.00     0.041 A 
ATOM     97  F   UNL A   1      45.777  29.676  33.517  1.00  0.00    -0.206 F 
ATOM     98  C   UNL A   1      46.787  27.203  35.960  1.00  0.00     0.022 A 
BRANCH  95  99
ATOM     99  S   UNL A   1      45.526  25.051  37.208  1.00  0.00     0.124 S 
ATOM    100  O   UNL A   1      46.237  23.985  36.509  1.00  0.00    -0.237 OA
ATOM    101  O   UNL A   1      46.195  25.602  38.382  1.00  0.00    -0.237 OA
ATOM    102  O   UNL A   1      44.086  24.840  37.360  1.00  0.00    -0.744 OA
ENDBRANCH  95  99
ENDBRANCH  69  92
ENDBRANCH  43  44
ENDBRANCH  35  38
ENDBRANCH  33  34
ENDBRANCH  32  33
ENDBRANCH   1  32
TORSDOF 19
ENDMDL
MODEL 3
REMARK VINA RESULT:     -12.9      4.372      9.174
REMARK SMILES Cc1ccnc(C(=O)c2[nH]c3ccc(OC(F)(F)F)cc3c2CC(=O)NCCCCNC(=O)c2ccc(-c3c4nc(c(-c5cc(S(=O)(=O)[O-])ccc5F)c5ccc([nH]5)c(-c5cc(S(=O)(=O)[O-])ccc5F)c5nc(c(-c6cc(S(=O)(=O)[O-])ccc6F)c6ccc3[nH]6)C=C5)C=C4)cc2)c1
REMARK SMILES IDX 28 1 27 2 26 3 24 4 25 5 23 7 22 8 9 9 10 10 11 11 21 13
REMARK SMILES IDX 12 14 20 15 13 16 14 17 7 18 8 19 6 20 1 21 2 22 3 23 97 24
REMARK SMILES IDX 4 25 5 26 15 27 16 28 17 29 18 30 19 31 29 32 30 33 31 34
REMARK SMILES IDX 32 35 33 37 34 38 35 39 96 40 36 41 95 42 37 43 38 44 39 45
REMARK SMILES IDX 89 46 40 47 94 48 88 49 90 50 41 51 93 52 87 53 86 54 42 56
REMARK SMILES IDX 74 57 54 58 73 59 55 60 58 61 72 62 91 63 56 64 57 65 71 67
REMARK SMILES IDX 92 68 59 69 43 70 44 71 52 72 45 73 51 74 53 75 50 76 46 77
REMARK SMILES IDX 47 78 48 79 49 80 75 81 76 82 84 83 77 84 83 85 85 86 82 87
REMARK SMILES IDX 78 88 79 89 80 90 81 91 60 92 61 93 69 94 62 95 68 96 70 97
REMARK SMILES IDX 67 98 63 99 64 100 65 101 66 102
REMARK H PARENT 26 6 10 12 31 36 90 55 58 66
REMARK Flexibility Score: inf
ROOT
ATOM      1  C   UNL A   1      31.422  27.594  26.497  1.00  0.00     0.023 C 
ENDROOT
BRANCH   1   2
ATOM      2  C   UNL A   1      32.359  26.390  26.433  1.00  0.00     0.116 C 
BRANCH   2   3
ATOM      3  N   UNL A   1      31.729  25.159  26.866  1.00  0.00    -0.356 N 
ATOM      4  C   UNL A   1      32.073  23.866  26.590  1.00  0.00     0.224 C 
ATOM      5  O   UNL A   1      31.492  22.964  27.200  1.00  0.00    -0.275 OA
ATOM      6  H   UNL A   1      30.940  25.271  27.443  1.00  0.00     0.163 HD
BRANCH   4   7
ATOM      7  C   UNL A   1      33.231  23.544  25.655  1.00  0.00     0.138 C 
BRANCH   7   8
ATOM      8  C   UNL A   1      32.844  22.946  24.332  1.00  0.00    -0.002 A 
ATOM      9  C   UNL A   1      32.645  23.613  23.127  1.00  0.00     0.093 A 
ATOM     10  N   UNL A   1      32.427  22.657  22.160  1.00  0.00    -0.352 N 
ATOM     11  C   UNL A   1      32.344  21.407  22.723  1.00  0.00     0.046 A 
ATOM     12  H   UNL A   1      32.343  22.843  21.198  1.00  0.00     0.167 HD
ATOM     13  C   UNL A   1      32.581  21.556  24.085  1.00  0.00     0.008 A 
ATOM     14  C   UNL A   1      32.107  20.164  22.127  1.00  0.00     0.030 A 
ATOM     15  C   UNL A   1      32.563  20.400  24.893  1.00  0.00     0.057 A 
ATOM     16  C   UNL A   1      32.106  19.032  22.953  1.00  0.00     0.049 A 
ATOM     17  C   UNL A   1      32.329  19.139  24.324  1.00  0.00     0.130 A 
BRANCH   9  18
ATOM     18  C   UNL A   1      32.750  25.032  22.828  1.00  0.00     0.227 C 
ATOM     19  O   UNL A   1      33.801  25.513  22.421  1.00  0.00    -0.285 OA
BRANCH  18  20
ATOM     20  C   UNL A   1      31.521  25.897  22.996  1.00  0.00     0.113 A 
ATOM     21  C   UNL A   1      30.216  29.392  22.299  1.00  0.00     0.044 C 
ATOM     22  C   UNL A   1      30.310  27.966  22.751  1.00  0.00    -0.047 A 
ATOM     23  C   UNL A   1      29.238  27.366  23.413  1.00  0.00     0.023 A 
ATOM     24  C   UNL A   1      31.463  27.208  22.520  1.00  0.00     0.036 A 
ATOM     25  C   UNL A   1      29.369  26.054  23.835  1.00  0.00     0.112 A 
ATOM     26  N   UNL A   1      30.483  25.319  23.653  1.00  0.00    -0.253 NA
ENDBRANCH  18  20
ENDBRANCH   9  18
BRANCH  17  27
ATOM     27  O   UNL A   1      32.356  18.112  25.226  1.00  0.00    -0.406 OA
BRANCH  27  28
ATOM     28  C   UNL A   1      33.302  17.077  25.023  1.00  0.00     0.573 C 
ATOM     29  F   UNL A   1      33.514  16.383  26.162  1.00  0.00    -0.132 F 
ATOM     30  F   UNL A   1      32.904  16.232  24.049  1.00  0.00    -0.132 F 
ATOM     31  F   UNL A   1      34.477  17.631  24.649  1.00  0.00    -0.132 F 
ENDBRANCH  27  28
ENDBRANCH  17  27
ENDBRANCH   7   8
ENDBRANCH   4   7
ENDBRANCH   2   3
ENDBRANCH   1   2
BRANCH   1  32
ATOM     32  C   UNL A   1      32.056  28.943  26.151  1.00  0.00     0.023 C 
BRANCH  32  33
ATOM     33  C   UNL A   1      33.307  29.308  26.944  1.00  0.00     0.116 C 
BRANCH  33  34
ATOM     34  N   UNL A   1      33.396  30.725  27.259  1.00  0.00    -0.352 N 
ATOM     35  C   UNL A   1      34.386  31.400  27.934  1.00  0.00     0.251 C 
ATOM     36  H   UNL A   1      32.644  31.277  26.946  1.00  0.00     0.163 HD
ATOM     37  O   UNL A   1      34.238  32.591  28.191  1.00  0.00    -0.269 OA
BRANCH  35  38
ATOM     38  C   UNL A   1      35.600  30.683  28.389  1.00  0.00     0.039 A 
ATOM     39  C   UNL A   1      36.788  30.858  27.673  1.00  0.00     0.014 A 
ATOM     40  C   UNL A   1      35.575  29.850  29.511  1.00  0.00     0.014 A 
ATOM     41  C   UNL A   1      37.966  30.256  28.122  1.00  0.00     0.010 A 
ATOM     42  C   UNL A   1      36.761  29.294  29.989  1.00  0.00     0.010 A 
ATOM     43  C   UNL A   1      37.967  29.499  29.303  1.00  0.00    -0.014 A 
BRANCH  43  44
ATOM     44  C   UNL A   1      39.218  28.914  29.842  1.00  0.00     0.031 A 
ATOM     45  C   UNL A   1      39.879  29.521  31.045  1.00  0.00     0.074 A 
ATOM     46  C   UNL A   1      39.802  27.885  29.196  1.00  0.00     0.049 A 
ATOM     47  N   UNL A   1      41.021  29.217  31.608  1.00  0.00    -0.248 NA
ATOM     48  C   UNL A   1      39.171  30.642  31.680  1.00  0.00     0.031 C 
ATOM     49  C   UNL A   1      39.280  27.236  27.992  1.00  0.00     0.029 A 
ATOM     50  N   UNL A   1      40.972  27.218  29.456  1.00  0.00    -0.354 N 
ATOM     51  C   UNL A   1      41.181  30.120  32.653  1.00  0.00     0.074 A 
ATOM     52  C   UNL A   1      40.038  31.011  32.611  1.00  0.00     0.031 C 
ATOM     53  C   UNL A   1      40.121  26.255  27.624  1.00  0.00     0.029 A 
ATOM     54  C   UNL A   1      41.253  26.229  28.545  1.00  0.00     0.049 A 
ATOM     55  H   UNL A   1      41.554  27.428  30.221  1.00  0.00     0.167 HD
ATOM     56  C   UNL A   1      42.178  30.191  33.570  1.00  0.00     0.034 A 
ATOM     57  C   UNL A   1      42.311  25.401  28.455  1.00  0.00     0.034 A 
ATOM     58  C   UNL A   1      43.303  29.289  33.608  1.00  0.00     0.049 A 
ATOM     59  C   UNL A   1      43.412  25.501  29.472  1.00  0.00     0.074 A 
ATOM     60  C   UNL A   1      44.331  29.223  34.535  1.00  0.00     0.029 A 
ATOM     61  N   UNL A   1      43.556  28.299  32.667  1.00  0.00    -0.354 N 
ATOM     62  N   UNL A   1      43.531  26.335  30.479  1.00  0.00    -0.248 NA
ATOM     63  C   UNL A   1      44.518  24.546  29.342  1.00  0.00     0.031 C 
ATOM     64  C   UNL A   1      45.227  28.224  34.128  1.00  0.00     0.029 A 
ATOM     65  C   UNL A   1      44.734  27.634  32.976  1.00  0.00     0.049 A 
ATOM     66  H   UNL A   1      42.982  28.097  31.893  1.00  0.00     0.167 HD
ATOM     67  C   UNL A   1      44.720  25.992  31.114  1.00  0.00     0.074 A 
ATOM     68  C   UNL A   1      45.279  24.876  30.376  1.00  0.00     0.031 C 
ATOM     69  C   UNL A   1      45.291  26.542  32.214  1.00  0.00     0.034 A 
BRANCH  56  70
ATOM     70  C   UNL A   1      42.094  31.308  34.580  1.00  0.00     0.023 A 
ATOM     71  C   UNL A   1      42.701  32.555  34.350  1.00  0.00     0.031 A 
ATOM     72  C   UNL A   1      41.463  31.101  35.820  1.00  0.00     0.131 A 
ATOM     73  C   UNL A   1      42.749  33.511  35.375  1.00  0.00     0.055 A 
ATOM     74  C   UNL A   1      41.445  32.087  36.808  1.00  0.00     0.041 A 
ATOM     75  F   UNL A   1      40.883  29.925  36.104  1.00  0.00    -0.206 F 
ATOM     76  C   UNL A   1      42.107  33.293  36.597  1.00  0.00     0.022 A 
BRANCH  73  77
ATOM     77  S   UNL A   1      43.806  34.967  35.149  1.00  0.00     0.124 S 
ATOM     78  O   UNL A   1      45.114  34.448  35.538  1.00  0.00    -0.237 OA
ATOM     79  O   UNL A   1      43.631  35.265  33.733  1.00  0.00    -0.237 OA
ATOM     80  O   UNL A   1      43.237  35.950  36.070  1.00  0.00    -0.744 OA
ENDBRANCH  73  77
ENDBRANCH  56  70
BRANCH  57  81
ATOM     81  C   UNL A   1      42.384  24.408  27.354  1.00  0.00     0.023 A 
ATOM     82  C   UNL A   1      41.664  23.207  27.422  1.00  0.00     0.031 A 
ATOM     83  C   UNL A   1      43.180  24.648  26.221  1.00  0.00     0.131 A 
ATOM     84  C   UNL A   1      41.770  22.273  26.382  1.00  0.00     0.055 A 
ATOM     85  C   UNL A   1      43.263  23.728  25.177  1.00  0.00     0.041 A 
ATOM     86  F   UNL A   1      43.875  25.792  26.110  1.00  0.00    -0.206 F 
ATOM     87  C   UNL A   1      42.560  22.528  25.257  1.00  0.00     0.022 A 
BRANCH  84  88
ATOM     88  S   UNL A   1      40.872  20.705  26.526  1.00  0.00     0.124 S 
ATOM     89  O   UNL A   1      41.698  19.813  25.721  1.00  0.00    -0.237 OA
ATOM     90  O   UNL A   1      40.893  20.473  27.966  1.00  0.00    -0.237 OA
ATOM     91  O   UNL A   1      39.557  21.014  25.969  1.00  0.00    -0.744 OA
ENDBRANCH  84  88
ENDBRANCH  57  81
BRANCH  69  92
ATOM     92  C   UNL A   1      46.569  25.909  32.694  1.00  0.00     0.023 A 
ATOM     93  C   UNL A   1      46.567  24.893  33.664  1.00  0.00     0.031 A 
ATOM     94  C   UNL A   1      47.804  26.354  32.193  1.00  0.00     0.131 A 
ATOM     95  C   UNL A   1      47.784  24.384  34.139  1.00  0.00     0.055 A 
ATOM     96  C   UNL A   1      49.011  25.815  32.640  1.00  0.00     0.041 A 
ATOM     97  F   UNL A   1      47.856  27.325  31.268  1.00  0.00    -0.206 F 
ATOM     98  C   UNL A   1      49.005  24.832  33.626  1.00  0.00     0.022 A 
BRANCH  95  99
ATOM     99  S   UNL A   1      47.758  23.171  35.488  1.00  0.00     0.124 S 
ATOM    100  O   UNL A   1      48.486  22.050  34.902  1.00  0.00    -0.237 OA
ATOM    101  O   UNL A   1      48.439  23.882  36.564  1.00  0.00    -0.237 OA
ATOM    102  O   UNL A   1      46.331  22.935  35.709  1.00  0.00    -0.744 OA
ENDBRANCH  95  99
ENDBRANCH  69  92
ENDBRANCH  43  44
ENDBRANCH  35  38
ENDBRANCH  33  34
ENDBRANCH  32  33
ENDBRANCH   1  32
TORSDOF 19
ENDMDL
