MODEL 1
REMARK VINA RESULT:     -13.7      0.000      0.000
REMARK SMILES CC(C)(C)c1cc(Nc2ccccc2C(=O)NCCCCNC(=O)c2ccc(-c3c4nc(c(-c5cc(S(=O)(=O)[O-])ccc5F)c5ccc([nH]5)c(-c5cc(S(=O)(=O)[O-])ccc5F)c5nc(c(-c6cc(S(=O)(=O)[O-])ccc6F)c6ccc3[nH]6)C=C5)C=C4)cc2)cc2c1OCC2(C)C
REMARK SMILES IDX 19 1 18 2 17 3 15 4 16 5 14 7 9 8 10 9 11 10 13 11 12 12
REMARK SMILES IDX 8 13 7 15 5 16 6 17 90 18 89 19 91 20 88 21 93 22 92 23
REMARK SMILES IDX 94 24 95 25 2 26 1 27 3 28 4 29 20 30 21 31 22 32 23 33
REMARK SMILES IDX 24 35 25 36 26 37 87 38 27 39 86 40 28 41 29 42 30 43 80 44
REMARK SMILES IDX 31 45 85 46 79 47 81 48 32 49 84 50 78 51 77 52 33 54 65 55
REMARK SMILES IDX 45 56 64 57 46 58 49 59 63 60 82 61 47 62 48 63 62 65 83 66
REMARK SMILES IDX 50 67 34 68 35 69 43 70 36 71 42 72 44 73 41 74 37 75 38 76
REMARK SMILES IDX 39 77 40 78 66 79 67 80 75 81 68 82 74 83 76 84 73 85 69 86
REMARK SMILES IDX 70 87 71 88 72 89 51 90 52 91 60 92 53 93 59 94 61 95 58 96
REMARK SMILES IDX 54 97 55 98 56 99 57 100
REMARK H PARENT 17 6 8 14 22 34 81 53 49 64
REMARK Flexibility Score: inf
ROOT
ATOM      1  C   UNL A   1      34.724  22.626  26.921  1.00  0.00     0.023 C 
ENDROOT
BRANCH   1   2
ATOM      2  C   UNL A   1      33.546  21.828  27.452  1.00  0.00     0.116 C 
BRANCH   2   3
ATOM      3  N   UNL A   1      32.337  22.545  27.730  1.00  0.00    -0.352 N 
ATOM      4  C   UNL A   1      31.351  22.949  26.864  1.00  0.00     0.253 C 
ATOM      5  O   UNL A   1      30.373  23.504  27.377  1.00  0.00    -0.269 OA
ATOM      6  H   UNL A   1      32.193  22.782  28.674  1.00  0.00     0.163 HD
BRANCH   4   7
ATOM      7  C   UNL A   1      31.384  22.840  25.363  1.00  0.00     0.063 A 
ATOM      8  C   UNL A   1      30.840  23.688  24.373  1.00  0.00     0.051 A 
ATOM      9  C   UNL A   1      31.174  23.443  23.016  1.00  0.00     0.027 A 
ATOM     10  C   UNL A   1      31.935  22.346  22.620  1.00  0.00     0.002 A 
ATOM     11  C   UNL A   1      32.149  21.726  24.929  1.00  0.00     0.016 A 
ATOM     12  C   UNL A   1      32.404  21.468  23.579  1.00  0.00     0.001 A 
BRANCH   8  13
ATOM     13  N   UNL A   1      29.909  24.732  24.589  1.00  0.00    -0.355 N 
ATOM     14  H   UNL A   1      28.957  24.486  24.636  1.00  0.00     0.167 HD
BRANCH  13  15
ATOM     15  C   UNL A   1      30.236  26.108  24.746  1.00  0.00     0.039 A 
ATOM     16  C   UNL A   1      30.000  28.470  23.962  1.00  0.00     0.002 A 
ATOM     17  C   UNL A   1      29.565  27.111  24.005  1.00  0.00     0.034 A 
ATOM     18  C   UNL A   1      31.104  28.773  24.756  1.00  0.00     0.127 A 
ATOM     19  C   UNL A   1      31.746  27.816  25.523  1.00  0.00     0.006 A 
ATOM     20  O   UNL A   1      31.696  30.001  24.864  1.00  0.00    -0.492 OA
ATOM     21  C   UNL A   1      31.334  26.495  25.519  1.00  0.00     0.034 A 
ATOM     22  C   UNL A   1      32.896  28.400  26.269  1.00  0.00     0.028 C 
ATOM     23  C   UNL A   1      32.763  29.866  25.826  1.00  0.00     0.240 C 
ATOM     24  C   UNL A   1      32.705  28.243  27.781  1.00  0.00     0.020 C 
ATOM     25  C   UNL A   1      34.234  27.796  25.833  1.00  0.00     0.020 C 
BRANCH  16  26
ATOM     26  C   UNL A   1      29.300  29.486  23.034  1.00  0.00    -0.009 C 
ATOM     27  C   UNL A   1      30.129  29.648  21.744  1.00  0.00     0.016 C 
ATOM     28  C   UNL A   1      29.129  30.914  23.599  1.00  0.00     0.016 C 
ATOM     29  C   UNL A   1      27.888  28.980  22.670  1.00  0.00     0.016 C 
ENDBRANCH  16  26
ENDBRANCH  13  15
ENDBRANCH   8  13
ENDBRANCH   4   7
ENDBRANCH   2   3
ENDBRANCH   1   2
BRANCH   1  30
ATOM     30  C   UNL A   1      35.509  22.044  25.745  1.00  0.00     0.023 C 
BRANCH  30  31
ATOM     31  C   UNL A   1      36.918  22.573  25.483  1.00  0.00     0.116 C 
BRANCH  31  32
ATOM     32  N   UNL A   1      37.985  21.579  25.548  1.00  0.00    -0.352 N 
ATOM     33  C   UNL A   1      39.236  21.612  26.133  1.00  0.00     0.251 C 
ATOM     34  H   UNL A   1      37.776  20.731  25.093  1.00  0.00     0.163 HD
ATOM     35  O   UNL A   1      40.009  20.670  25.971  1.00  0.00    -0.269 OA
BRANCH  33  36
ATOM     36  C   UNL A   1      39.660  22.795  26.907  1.00  0.00     0.039 A 
ATOM     37  C   UNL A   1      39.060  24.023  26.666  1.00  0.00     0.014 A 
ATOM     38  C   UNL A   1      40.694  22.696  27.845  1.00  0.00     0.014 A 
ATOM     39  C   UNL A   1      39.671  25.178  27.127  1.00  0.00     0.010 A 
ATOM     40  C   UNL A   1      41.213  23.859  28.430  1.00  0.00     0.010 A 
ATOM     41  C   UNL A   1      40.761  25.118  28.013  1.00  0.00    -0.014 A 
BRANCH  41  42
ATOM     42  C   UNL A   1      41.381  26.402  28.451  1.00  0.00     0.031 A 
ATOM     43  C   UNL A   1      42.771  26.790  28.015  1.00  0.00     0.074 A 
ATOM     44  C   UNL A   1      40.619  27.284  29.131  1.00  0.00     0.049 A 
ATOM     45  N   UNL A   1      43.393  27.930  28.181  1.00  0.00    -0.248 NA
ATOM     46  C   UNL A   1      43.574  25.775  27.314  1.00  0.00     0.031 C 
ATOM     47  C   UNL A   1      39.261  27.010  29.606  1.00  0.00     0.029 A 
ATOM     48  N   UNL A   1      40.831  28.595  29.477  1.00  0.00    -0.354 N 
ATOM     49  C   UNL A   1      44.660  27.764  27.630  1.00  0.00     0.074 A 
ATOM     50  C   UNL A   1      44.732  26.402  27.153  1.00  0.00     0.031 C 
ATOM     51  C   UNL A   1      38.720  28.143  30.065  1.00  0.00     0.029 A 
ATOM     52  C   UNL A   1      39.720  29.206  30.017  1.00  0.00     0.049 A 
ATOM     53  H   UNL A   1      41.692  29.054  29.351  1.00  0.00     0.167 HD
ATOM     54  C   UNL A   1      45.661  28.669  27.522  1.00  0.00     0.034 A 
ATOM     55  C   UNL A   1      39.518  30.474  30.426  1.00  0.00     0.034 A 
ATOM     56  C   UNL A   1      45.560  30.033  27.976  1.00  0.00     0.049 A 
ATOM     57  C   UNL A   1      40.644  31.463  30.284  1.00  0.00     0.074 A 
ATOM     58  C   UNL A   1      46.518  31.030  27.906  1.00  0.00     0.029 A 
ATOM     59  N   UNL A   1      44.439  30.600  28.568  1.00  0.00    -0.354 N 
ATOM     60  N   UNL A   1      41.827  31.288  29.744  1.00  0.00    -0.248 NA
ATOM     61  C   UNL A   1      40.418  32.815  30.810  1.00  0.00     0.031 C 
ATOM     62  C   UNL A   1      45.998  32.180  28.503  1.00  0.00     0.029 A 
ATOM     63  C   UNL A   1      44.690  31.926  28.883  1.00  0.00     0.049 A 
ATOM     64  H   UNL A   1      43.592  30.129  28.738  1.00  0.00     0.167 HD
ATOM     65  C   UNL A   1      42.484  32.509  29.860  1.00  0.00     0.074 A 
ATOM     66  C   UNL A   1      41.551  33.424  30.486  1.00  0.00     0.031 C 
ATOM     67  C   UNL A   1      43.749  32.834  29.494  1.00  0.00     0.034 A 
BRANCH  54  68
ATOM     68  C   UNL A   1      46.963  28.243  26.884  1.00  0.00     0.023 A 
ATOM     69  C   UNL A   1      47.080  28.205  25.481  1.00  0.00     0.031 A 
ATOM     70  C   UNL A   1      48.034  27.754  27.651  1.00  0.00     0.131 A 
ATOM     71  C   UNL A   1      48.224  27.653  24.890  1.00  0.00     0.055 A 
ATOM     72  C   UNL A   1      49.190  27.243  27.058  1.00  0.00     0.041 A 
ATOM     73  F   UNL A   1      47.975  27.769  28.993  1.00  0.00    -0.206 F 
ATOM     74  C   UNL A   1      49.283  27.179  25.671  1.00  0.00     0.022 A 
BRANCH  71  75
ATOM     75  S   UNL A   1      48.356  27.469  23.090  1.00  0.00     0.124 S 
ATOM     76  O   UNL A   1      48.273  26.018  22.931  1.00  0.00    -0.237 OA
ATOM     77  O   UNL A   1      47.191  28.213  22.620  1.00  0.00    -0.237 OA
ATOM     78  O   UNL A   1      49.652  28.055  22.769  1.00  0.00    -0.744 OA
ENDBRANCH  71  75
ENDBRANCH  54  68
BRANCH  55  79
ATOM     79  C   UNL A   1      38.178  30.863  30.961  1.00  0.00     0.023 A 
ATOM     80  C   UNL A   1      37.192  31.396  30.110  1.00  0.00     0.031 A 
ATOM     81  C   UNL A   1      37.909  30.831  32.339  1.00  0.00     0.131 A 
ATOM     82  C   UNL A   1      36.032  31.965  30.653  1.00  0.00     0.055 A 
ATOM     83  C   UNL A   1      36.713  31.319  32.868  1.00  0.00     0.041 A 
ATOM     84  F   UNL A   1      38.821  30.341  33.195  1.00  0.00    -0.206 F 
ATOM     85  C   UNL A   1      35.777  31.913  32.026  1.00  0.00     0.022 A 
BRANCH  82  86
ATOM     86  S   UNL A   1      34.910  32.942  29.614  1.00  0.00     0.124 S 
ATOM     87  O   UNL A   1      34.024  33.543  30.607  1.00  0.00    -0.237 OA
ATOM     88  O   UNL A   1      35.835  33.861  28.954  1.00  0.00    -0.237 OA
ATOM     89  O   UNL A   1      34.299  31.948  28.738  1.00  0.00    -0.744 OA
ENDBRANCH  82  86
ENDBRANCH  55  79
BRANCH  67  90
ATOM     90  C   UNL A   1      44.232  34.241  29.755  1.00  0.00     0.023 A 
ATOM     91  C   UNL A   1      44.239  35.186  28.711  1.00  0.00     0.031 A 
ATOM     92  C   UNL A   1      44.820  34.596  30.981  1.00  0.00     0.131 A 
ATOM     93  C   UNL A   1      44.856  36.429  28.903  1.00  0.00     0.055 A 
ATOM     94  C   UNL A   1      45.393  35.852  31.181  1.00  0.00     0.041 A 
ATOM     95  F   UNL A   1      44.849  33.723  32.001  1.00  0.00    -0.206 F 
ATOM     96  C   UNL A   1      45.425  36.769  30.134  1.00  0.00     0.022 A 
BRANCH  93  97
ATOM     97  S   UNL A   1      45.025  37.609  27.536  1.00  0.00     0.124 S 
ATOM     98  O   UNL A   1      43.629  37.898  27.214  1.00  0.00    -0.237 OA
ATOM     99  O   UNL A   1      45.759  38.705  28.164  1.00  0.00    -0.237 OA
ATOM    100  O   UNL A   1      45.757  36.867  26.516  1.00  0.00    -0.744 OA
ENDBRANCH  93  97
ENDBRANCH  67  90
ENDBRANCH  41  42
ENDBRANCH  33  36
ENDBRANCH  31  32
ENDBRANCH  30  31
ENDBRANCH   1  30
TORSDOF 17
ENDMDL
MODEL 2
REMARK VINA RESULT:     -13.6      1.517      1.778
REMARK SMILES CC(C)(C)c1cc(Nc2ccccc2C(=O)NCCCCNC(=O)c2ccc(-c3c4nc(c(-c5cc(S(=O)(=O)[O-])ccc5F)c5ccc([nH]5)c(-c5cc(S(=O)(=O)[O-])ccc5F)c5nc(c(-c6cc(S(=O)(=O)[O-])ccc6F)c6ccc3[nH]6)C=C5)C=C4)cc2)cc2c1OCC2(C)C
REMARK SMILES IDX 19 1 18 2 17 3 15 4 16 5 14 7 9 8 10 9 11 10 13 11 12 12
REMARK SMILES IDX 8 13 7 15 5 16 6 17 90 18 89 19 91 20 88 21 93 22 92 23
REMARK SMILES IDX 94 24 95 25 2 26 1 27 3 28 4 29 20 30 21 31 22 32 23 33
REMARK SMILES IDX 24 35 25 36 26 37 87 38 27 39 86 40 28 41 29 42 30 43 80 44
REMARK SMILES IDX 31 45 85 46 79 47 81 48 32 49 84 50 78 51 77 52 33 54 65 55
REMARK SMILES IDX 45 56 64 57 46 58 49 59 63 60 82 61 47 62 48 63 62 65 83 66
REMARK SMILES IDX 50 67 34 68 35 69 43 70 36 71 42 72 44 73 41 74 37 75 38 76
REMARK SMILES IDX 39 77 40 78 66 79 67 80 75 81 68 82 74 83 76 84 73 85 69 86
REMARK SMILES IDX 70 87 71 88 72 89 51 90 52 91 60 92 53 93 59 94 61 95 58 96
REMARK SMILES IDX 54 97 55 98 56 99 57 100
REMARK H PARENT 17 6 8 14 22 34 81 53 49 64
REMARK Flexibility Score: inf
ROOT
ATOM      1  C   UNL A   1      34.254  21.827  27.354  1.00  0.00     0.023 C 
ENDROOT
BRANCH   1   2
ATOM      2  C   UNL A   1      33.235  22.949  27.257  1.00  0.00     0.116 C 
BRANCH   2   3
ATOM      3  N   UNL A   1      31.857  22.577  27.137  1.00  0.00    -0.352 N 
ATOM      4  C   UNL A   1      31.088  22.449  26.006  1.00  0.00     0.253 C 
ATOM      5  O   UNL A   1      29.931  22.052  26.179  1.00  0.00    -0.269 OA
ATOM      6  H   UNL A   1      31.394  22.387  27.985  1.00  0.00     0.163 HD
BRANCH   4   7
ATOM      7  C   UNL A   1      31.501  22.808  24.605  1.00  0.00     0.063 A 
ATOM      8  C   UNL A   1      31.140  23.912  23.800  1.00  0.00     0.051 A 
ATOM      9  C   UNL A   1      31.821  24.103  22.570  1.00  0.00     0.027 A 
ATOM     10  C   UNL A   1      32.757  23.193  22.085  1.00  0.00     0.002 A 
ATOM     11  C   UNL A   1      32.452  21.894  24.080  1.00  0.00     0.016 A 
ATOM     12  C   UNL A   1      33.056  22.069  22.832  1.00  0.00     0.001 A 
BRANCH   8  13
ATOM     13  N   UNL A   1      30.090  24.825  24.060  1.00  0.00    -0.355 N 
ATOM     14  H   UNL A   1      29.169  24.480  24.009  1.00  0.00     0.167 HD
BRANCH  13  15
ATOM     15  C   UNL A   1      30.255  26.199  24.389  1.00  0.00     0.039 A 
ATOM     16  C   UNL A   1      29.835  28.601  23.838  1.00  0.00     0.002 A 
ATOM     17  C   UNL A   1      29.544  27.210  23.698  1.00  0.00     0.034 A 
ATOM     18  C   UNL A   1      30.831  28.917  24.760  1.00  0.00     0.127 A 
ATOM     19  C   UNL A   1      31.505  27.945  25.480  1.00  0.00     0.006 A 
ATOM     20  O   UNL A   1      31.278  30.176  25.050  1.00  0.00    -0.492 OA
ATOM     21  C   UNL A   1      31.237  26.600  25.299  1.00  0.00     0.034 A 
ATOM     22  C   UNL A   1      32.520  28.549  26.387  1.00  0.00     0.028 C 
ATOM     23  C   UNL A   1      32.270  30.037  26.089  1.00  0.00     0.240 C 
ATOM     24  C   UNL A   1      32.222  28.205  27.850  1.00  0.00     0.020 C 
ATOM     25  C   UNL A   1      33.947  28.130  26.018  1.00  0.00     0.020 C 
BRANCH  16  26
ATOM     26  C   UNL A   1      29.110  29.643  22.959  1.00  0.00    -0.009 C 
ATOM     27  C   UNL A   1      29.981  29.960  21.727  1.00  0.00     0.016 C 
ATOM     28  C   UNL A   1      28.823  31.008  23.625  1.00  0.00     0.016 C 
ATOM     29  C   UNL A   1      27.752  29.082  22.490  1.00  0.00     0.016 C 
ENDBRANCH  16  26
ENDBRANCH  13  15
ENDBRANCH   8  13
ENDBRANCH   4   7
ENDBRANCH   2   3
ENDBRANCH   1   2
BRANCH   1  30
ATOM     30  C   UNL A   1      34.994  21.423  26.079  1.00  0.00     0.023 C 
BRANCH  30  31
ATOM     31  C   UNL A   1      36.338  22.084  25.783  1.00  0.00     0.116 C 
BRANCH  31  32
ATOM     32  N   UNL A   1      37.445  21.169  25.518  1.00  0.00    -0.352 N 
ATOM     33  C   UNL A   1      38.796  21.263  25.785  1.00  0.00     0.251 C 
ATOM     34  H   UNL A   1      37.180  20.335  25.067  1.00  0.00     0.163 HD
ATOM     35  O   UNL A   1      39.560  20.390  25.375  1.00  0.00    -0.269 OA
BRANCH  33  36
ATOM     36  C   UNL A   1      39.328  22.429  26.517  1.00  0.00     0.039 A 
ATOM     37  C   UNL A   1      38.852  23.699  26.221  1.00  0.00     0.014 A 
ATOM     38  C   UNL A   1      40.341  22.269  27.469  1.00  0.00     0.014 A 
ATOM     39  C   UNL A   1      39.569  24.807  26.643  1.00  0.00     0.010 A 
ATOM     40  C   UNL A   1      40.966  23.398  28.014  1.00  0.00     0.010 A 
ATOM     41  C   UNL A   1      40.641  24.677  27.542  1.00  0.00    -0.014 A 
BRANCH  41  42
ATOM     42  C   UNL A   1      41.381  25.912  27.936  1.00  0.00     0.031 A 
ATOM     43  C   UNL A   1      42.736  26.231  27.361  1.00  0.00     0.074 A 
ATOM     44  C   UNL A   1      40.749  26.817  28.712  1.00  0.00     0.049 A 
ATOM     45  N   UNL A   1      43.440  27.328  27.481  1.00  0.00    -0.248 NA
ATOM     46  C   UNL A   1      43.398  25.191  26.556  1.00  0.00     0.031 C 
ATOM     47  C   UNL A   1      39.436  26.609  29.327  1.00  0.00     0.029 A 
ATOM     48  N   UNL A   1      41.075  28.105  29.060  1.00  0.00    -0.354 N 
ATOM     49  C   UNL A   1      44.627  27.105  26.793  1.00  0.00     0.074 A 
ATOM     50  C   UNL A   1      44.568  25.755  26.283  1.00  0.00     0.031 C 
ATOM     51  C   UNL A   1      39.016  27.758  29.864  1.00  0.00     0.029 A 
ATOM     52  C   UNL A   1      40.066  28.763  29.729  1.00  0.00     0.049 A 
ATOM     53  H   UNL A   1      41.944  28.517  28.851  1.00  0.00     0.167 HD
ATOM     54  C   UNL A   1      45.664  27.954  26.595  1.00  0.00     0.034 A 
ATOM     55  C   UNL A   1      39.986  30.030  30.183  1.00  0.00     0.034 A 
ATOM     56  C   UNL A   1      45.694  29.310  27.085  1.00  0.00     0.049 A 
ATOM     57  C   UNL A   1      41.147  30.956  29.940  1.00  0.00     0.074 A 
ATOM     58  C   UNL A   1      46.696  30.252  26.931  1.00  0.00     0.029 A 
ATOM     59  N   UNL A   1      44.678  29.924  27.805  1.00  0.00    -0.354 N 
ATOM     60  N   UNL A   1      42.252  30.729  29.271  1.00  0.00    -0.248 NA
ATOM     61  C   UNL A   1      41.059  32.305  30.514  1.00  0.00     0.031 C 
ATOM     62  C   UNL A   1      46.312  31.413  27.604  1.00  0.00     0.029 A 
ATOM     63  C   UNL A   1      45.039  31.225  28.118  1.00  0.00     0.049 A 
ATOM     64  H   UNL A   1      43.828  29.498  28.057  1.00  0.00     0.167 HD
ATOM     65  C   UNL A   1      42.989  31.907  29.340  1.00  0.00     0.074 A 
ATOM     66  C   UNL A   1      42.185  32.856  30.081  1.00  0.00     0.031 C 
ATOM     67  C   UNL A   1      44.226  32.168  28.846  1.00  0.00     0.034 A 
BRANCH  54  68
ATOM     68  C   UNL A   1      46.862  27.472  25.811  1.00  0.00     0.023 A 
ATOM     69  C   UNL A   1      47.041  27.882  24.475  1.00  0.00     0.031 A 
ATOM     70  C   UNL A   1      47.747  26.514  26.334  1.00  0.00     0.131 A 
ATOM     71  C   UNL A   1      48.055  27.306  23.698  1.00  0.00     0.055 A 
ATOM     72  C   UNL A   1      48.782  25.973  25.568  1.00  0.00     0.041 A 
ATOM     73  F   UNL A   1      47.622  26.090  27.602  1.00  0.00    -0.206 F 
ATOM     74  C   UNL A   1      48.930  26.360  24.239  1.00  0.00     0.022 A 
BRANCH  71  75
ATOM     75  S   UNL A   1      48.235  27.712  21.939  1.00  0.00     0.124 S 
ATOM     76  O   UNL A   1      46.944  28.329  21.641  1.00  0.00    -0.237 OA
ATOM     77  O   UNL A   1      49.373  28.627  21.952  1.00  0.00    -0.237 OA
ATOM     78  O   UNL A   1      48.469  26.422  21.302  1.00  0.00    -0.744 OA
ENDBRANCH  71  75
ENDBRANCH  54  68
BRANCH  55  79
ATOM     79  C   UNL A   1      38.736  30.480  30.868  1.00  0.00     0.023 A 
ATOM     80  C   UNL A   1      37.659  31.002  30.127  1.00  0.00     0.031 A 
ATOM     81  C   UNL A   1      38.649  30.519  32.269  1.00  0.00     0.131 A 
ATOM     82  C   UNL A   1      36.593  31.626  30.787  1.00  0.00     0.055 A 
ATOM     83  C   UNL A   1      37.543  31.064  32.925  1.00  0.00     0.041 A 
ATOM     84  F   UNL A   1      39.654  30.042  33.022  1.00  0.00    -0.206 F 
ATOM     85  C   UNL A   1      36.519  31.645  32.183  1.00  0.00     0.022 A 
BRANCH  82  86
ATOM     86  S   UNL A   1      35.366  32.587  29.857  1.00  0.00     0.124 S 
ATOM     87  O   UNL A   1      36.116  33.793  29.521  1.00  0.00    -0.237 OA
ATOM     88  O   UNL A   1      35.071  31.694  28.738  1.00  0.00    -0.237 OA
ATOM     89  O   UNL A   1      34.274  32.764  30.809  1.00  0.00    -0.744 OA
ENDBRANCH  82  86
ENDBRANCH  55  79
BRANCH  67  90
ATOM     90  C   UNL A   1      44.816  33.538  29.081  1.00  0.00     0.023 A 
ATOM     91  C   UNL A   1      45.527  33.803  30.267  1.00  0.00     0.031 A 
ATOM     92  C   UNL A   1      44.546  34.608  28.211  1.00  0.00     0.131 A 
ATOM     93  C   UNL A   1      45.911  35.116  30.568  1.00  0.00     0.055 A 
ATOM     94  C   UNL A   1      44.972  35.906  28.495  1.00  0.00     0.041 A 
ATOM     95  F   UNL A   1      43.860  34.407  27.074  1.00  0.00    -0.206 F 
ATOM     96  C   UNL A   1      45.645  36.166  29.685  1.00  0.00     0.022 A 
BRANCH  93  97
ATOM     97  S   UNL A   1      46.687  35.521  32.157  1.00  0.00     0.124 S 
ATOM     98  O   UNL A   1      46.908  36.960  32.026  1.00  0.00    -0.237 OA
ATOM     99  O   UNL A   1      45.652  35.134  33.113  1.00  0.00    -0.237 OA
ATOM    100  O   UNL A   1      47.897  34.706  32.179  1.00  0.00    -0.744 OA
ENDBRANCH  93  97
ENDBRANCH  67  90
ENDBRANCH  41  42
ENDBRANCH  33  36
ENDBRANCH  31  32
ENDBRANCH  30  31
ENDBRANCH   1  30
TORSDOF 17
ENDMDL
MODEL 3
REMARK VINA RESULT:     -13.4      0.700      7.280
REMARK SMILES CC(C)(C)c1cc(Nc2ccccc2C(=O)NCCCCNC(=O)c2ccc(-c3c4nc(c(-c5cc(S(=O)(=O)[O-])ccc5F)c5ccc([nH]5)c(-c5cc(S(=O)(=O)[O-])ccc5F)c5nc(c(-c6cc(S(=O)(=O)[O-])ccc6F)c6ccc3[nH]6)C=C5)C=C4)cc2)cc2c1OCC2(C)C
REMARK SMILES IDX 19 1 18 2 17 3 15 4 16 5 14 7 9 8 10 9 11 10 13 11 12 12
REMARK SMILES IDX 8 13 7 15 5 16 6 17 90 18 89 19 91 20 88 21 93 22 92 23
REMARK SMILES IDX 94 24 95 25 2 26 1 27 3 28 4 29 20 30 21 31 22 32 23 33
REMARK SMILES IDX 24 35 25 36 26 37 87 38 27 39 86 40 28 41 29 42 30 43 80 44
REMARK SMILES IDX 31 45 85 46 79 47 81 48 32 49 84 50 78 51 77 52 33 54 65 55
REMARK SMILES IDX 45 56 64 57 46 58 49 59 63 60 82 61 47 62 48 63 62 65 83 66
REMARK SMILES IDX 50 67 34 68 35 69 43 70 36 71 42 72 44 73 41 74 37 75 38 76
REMARK SMILES IDX 39 77 40 78 66 79 67 80 75 81 68 82 74 83 76 84 73 85 69 86
REMARK SMILES IDX 70 87 71 88 72 89 51 90 52 91 60 92 53 93 59 94 61 95 58 96
REMARK SMILES IDX 54 97 55 98 56 99 57 100
REMARK H PARENT 17 6 8 14 22 34 81 53 49 64
REMARK Flexibility Score: inf
ROOT
ATOM      1  C   UNL A   1      34.394  21.777  27.295  1.00  0.00     0.023 C 
ENDROOT
BRANCH   1   2
ATOM      2  C   UNL A   1      33.370  22.892  27.177  1.00  0.00     0.116 C 
BRANCH   2   3
ATOM      3  N   UNL A   1      31.994  22.512  27.067  1.00  0.00    -0.352 N 
ATOM      4  C   UNL A   1      31.205  22.425  25.946  1.00  0.00     0.253 C 
ATOM      5  O   UNL A   1      30.055  22.009  26.122  1.00  0.00    -0.269 OA
ATOM      6  H   UNL A   1      31.549  22.280  27.913  1.00  0.00     0.163 HD
BRANCH   4   7
ATOM      7  C   UNL A   1      31.587  22.851  24.554  1.00  0.00     0.063 A 
ATOM      8  C   UNL A   1      31.205  23.989  23.808  1.00  0.00     0.051 A 
ATOM      9  C   UNL A   1      31.859  24.239  22.574  1.00  0.00     0.027 A 
ATOM     10  C   UNL A   1      32.790  23.358  22.030  1.00  0.00     0.002 A 
ATOM     11  C   UNL A   1      32.532  21.967  23.969  1.00  0.00     0.016 A 
ATOM     12  C   UNL A   1      33.109  22.202  22.718  1.00  0.00     0.001 A 
BRANCH   8  13
ATOM     13  N   UNL A   1      30.156  24.882  24.131  1.00  0.00    -0.355 N 
ATOM     14  H   UNL A   1      29.241  24.518  24.147  1.00  0.00     0.167 HD
BRANCH  13  15
ATOM     15  C   UNL A   1      30.314  26.264  24.433  1.00  0.00     0.039 A 
ATOM     16  C   UNL A   1      29.857  28.652  23.852  1.00  0.00     0.002 A 
ATOM     17  C   UNL A   1      29.578  27.255  23.741  1.00  0.00     0.034 A 
ATOM     18  C   UNL A   1      30.870  28.993  24.746  1.00  0.00     0.127 A 
ATOM     19  C   UNL A   1      31.570  28.040  25.467  1.00  0.00     0.006 A 
ATOM     20  O   UNL A   1      31.310  30.261  25.006  1.00  0.00    -0.492 OA
ATOM     21  C   UNL A   1      31.311  26.690  25.315  1.00  0.00     0.034 A 
ATOM     22  C   UNL A   1      32.598  28.669  26.342  1.00  0.00     0.028 C 
ATOM     23  C   UNL A   1      32.326  30.149  26.025  1.00  0.00     0.240 C 
ATOM     24  C   UNL A   1      32.336  28.346  27.816  1.00  0.00     0.020 C 
ATOM     25  C   UNL A   1      34.020  28.259  25.948  1.00  0.00     0.020 C 
BRANCH  16  26
ATOM     26  C   UNL A   1      29.103  29.671  22.972  1.00  0.00    -0.009 C 
ATOM     27  C   UNL A   1      29.946  29.980  21.719  1.00  0.00     0.016 C 
ATOM     28  C   UNL A   1      28.812  31.043  23.623  1.00  0.00     0.016 C 
ATOM     29  C   UNL A   1      27.742  29.088  22.538  1.00  0.00     0.016 C 
ENDBRANCH  16  26
ENDBRANCH  13  15
ENDBRANCH   8  13
ENDBRANCH   4   7
ENDBRANCH   2   3
ENDBRANCH   1   2
BRANCH   1  30
ATOM     30  C   UNL A   1      35.211  21.424  26.052  1.00  0.00     0.023 C 
BRANCH  30  31
ATOM     31  C   UNL A   1      36.531  22.157  25.821  1.00  0.00     0.116 C 
BRANCH  31  32
ATOM     32  N   UNL A   1      37.723  21.316  25.803  1.00  0.00    -0.352 N 
ATOM     33  C   UNL A   1      39.031  21.569  26.170  1.00  0.00     0.251 C 
ATOM     34  H   UNL A   1      37.569  20.403  25.469  1.00  0.00     0.163 HD
ATOM     35  O   UNL A   1      39.895  20.716  25.972  1.00  0.00    -0.269 OA
BRANCH  33  36
ATOM     36  C   UNL A   1      39.397  22.875  26.751  1.00  0.00     0.039 A 
ATOM     37  C   UNL A   1      38.761  24.026  26.307  1.00  0.00     0.014 A 
ATOM     38  C   UNL A   1      40.414  22.966  27.709  1.00  0.00     0.014 A 
ATOM     39  C   UNL A   1      39.322  25.261  26.586  1.00  0.00     0.010 A 
ATOM     40  C   UNL A   1      40.880  24.225  28.108  1.00  0.00     0.010 A 
ATOM     41  C   UNL A   1      40.393  25.384  27.487  1.00  0.00    -0.014 A 
BRANCH  41  42
ATOM     42  C   UNL A   1      40.960  26.744  27.724  1.00  0.00     0.031 A 
ATOM     43  C   UNL A   1      40.203  27.782  28.512  1.00  0.00     0.074 A 
ATOM     44  C   UNL A   1      42.231  26.985  27.341  1.00  0.00     0.049 A 
ATOM     45  N   UNL A   1      40.615  28.950  28.935  1.00  0.00    -0.248 NA
ATOM     46  C   UNL A   1      38.806  27.485  28.868  1.00  0.00     0.031 C 
ATOM     47  C   UNL A   1      43.054  26.052  26.568  1.00  0.00     0.029 A 
ATOM     48  N   UNL A   1      43.078  28.033  27.601  1.00  0.00    -0.354 N 
ATOM     49  C   UNL A   1      39.530  29.534  29.581  1.00  0.00     0.074 A 
ATOM     50  C   UNL A   1      38.429  28.606  29.468  1.00  0.00     0.031 C 
ATOM     51  C   UNL A   1      44.310  26.507  26.524  1.00  0.00     0.029 A 
ATOM     52  C   UNL A   1      44.370  27.813  27.173  1.00  0.00     0.049 A 
ATOM     53  H   UNL A   1      42.791  28.861  28.049  1.00  0.00     0.167 HD
ATOM     54  C   UNL A   1      39.466  30.727  30.220  1.00  0.00     0.034 A 
ATOM     55  C   UNL A   1      45.480  28.569  27.287  1.00  0.00     0.034 A 
ATOM     56  C   UNL A   1      40.584  31.627  30.349  1.00  0.00     0.049 A 
ATOM     57  C   UNL A   1      45.384  29.885  28.010  1.00  0.00     0.074 A 
ATOM     58  C   UNL A   1      40.622  32.856  30.984  1.00  0.00     0.029 A 
ATOM     59  N   UNL A   1      41.861  31.395  29.856  1.00  0.00    -0.354 N 
ATOM     60  N   UNL A   1      44.352  30.408  28.629  1.00  0.00    -0.248 NA
ATOM     61  C   UNL A   1      46.593  30.717  28.050  1.00  0.00     0.031 C 
ATOM     62  C   UNL A   1      41.902  33.391  30.826  1.00  0.00     0.029 A 
ATOM     63  C   UNL A   1      42.686  32.467  30.156  1.00  0.00     0.049 A 
ATOM     64  H   UNL A   1      42.138  30.589  29.364  1.00  0.00     0.167 HD
ATOM     65  C   UNL A   1      44.788  31.628  29.135  1.00  0.00     0.074 A 
ATOM     66  C   UNL A   1      46.188  31.745  28.784  1.00  0.00     0.031 C 
ATOM     67  C   UNL A   1      44.085  32.569  29.814  1.00  0.00     0.034 A 
BRANCH  54  68
ATOM     68  C   UNL A   1      38.157  31.150  30.844  1.00  0.00     0.023 A 
ATOM     69  C   UNL A   1      37.185  31.806  30.064  1.00  0.00     0.031 A 
ATOM     70  C   UNL A   1      37.925  31.026  32.224  1.00  0.00     0.131 A 
ATOM     71  C   UNL A   1      36.046  32.345  30.675  1.00  0.00     0.055 A 
ATOM     72  C   UNL A   1      36.768  31.529  32.823  1.00  0.00     0.041 A 
ATOM     73  F   UNL A   1      38.819  30.408  33.013  1.00  0.00    -0.206 F 
ATOM     74  C   UNL A   1      35.829  32.205  32.050  1.00  0.00     0.022 A 
BRANCH  71  75
ATOM     75  S   UNL A   1      34.836  33.308  29.726  1.00  0.00     0.124 S 
ATOM     76  O   UNL A   1      33.996  33.861  30.786  1.00  0.00    -0.237 OA
ATOM     77  O   UNL A   1      35.687  34.275  29.038  1.00  0.00    -0.237 OA
ATOM     78  O   UNL A   1      34.188  32.317  28.874  1.00  0.00    -0.744 OA
ENDBRANCH  71  75
ENDBRANCH  54  68
BRANCH  55  79
ATOM     79  C   UNL A   1      46.770  28.055  26.733  1.00  0.00     0.023 A 
ATOM     80  C   UNL A   1      47.082  28.215  25.370  1.00  0.00     0.031 A 
ATOM     81  C   UNL A   1      47.643  27.287  27.521  1.00  0.00     0.131 A 
ATOM     82  C   UNL A   1      48.175  27.536  24.818  1.00  0.00     0.055 A 
ATOM     83  C   UNL A   1      48.782  26.684  26.984  1.00  0.00     0.041 A 
ATOM     84  F   UNL A   1      47.386  27.096  28.825  1.00  0.00    -0.206 F 
ATOM     85  C   UNL A   1      49.039  26.786  25.620  1.00  0.00     0.022 A 
BRANCH  82  86
ATOM     86  S   UNL A   1      48.404  27.463  23.019  1.00  0.00     0.124 S 
ATOM     87  O   UNL A   1      48.349  26.027  22.764  1.00  0.00    -0.237 OA
ATOM     88  O   UNL A   1      47.261  28.235  22.539  1.00  0.00    -0.237 OA
ATOM     89  O   UNL A   1      49.704  28.094  22.812  1.00  0.00    -0.744 OA
ENDBRANCH  82  86
ENDBRANCH  55  79
BRANCH  67  90
ATOM     90  C   UNL A   1      44.799  33.831  30.236  1.00  0.00     0.023 A 
ATOM     91  C   UNL A   1      44.868  34.927  29.356  1.00  0.00     0.031 A 
ATOM     92  C   UNL A   1      45.532  33.889  31.434  1.00  0.00     0.131 A 
ATOM     93  C   UNL A   1      45.684  36.021  29.671  1.00  0.00     0.055 A 
ATOM     94  C   UNL A   1      46.307  35.002  31.763  1.00  0.00     0.041 A 
ATOM     95  F   UNL A   1      45.507  32.863  32.299  1.00  0.00    -0.206 F 
ATOM     96  C   UNL A   1      46.396  36.067  30.872  1.00  0.00     0.022 A 
BRANCH  93  97
ATOM     97  S   UNL A   1      45.923  37.379  28.492  1.00  0.00     0.124 S 
ATOM     98  O   UNL A   1      45.445  36.784  27.246  1.00  0.00    -0.237 OA
ATOM     99  O   UNL A   1      45.071  38.426  29.050  1.00  0.00    -0.237 OA
ATOM    100  O   UNL A   1      47.357  37.644  28.544  1.00  0.00    -0.744 OA
ENDBRANCH  93  97
ENDBRANCH  67  90
ENDBRANCH  41  42
ENDBRANCH  33  36
ENDBRANCH  31  32
ENDBRANCH  30  31
ENDBRANCH   1  30
TORSDOF 17
ENDMDL
