MODEL 1
REMARK VINA RESULT:     -13.1      0.000      0.000
REMARK SMILES C[C@H]1N=N[C@H](S/C(=C/c2ccc(-c3cccc(Cl)c3)o2)C(=O)NCCCCNC(=O)c2ccc(-c3c4nc(c(-c5cc(S(=O)(=O)[O-])ccc5F)c5ccc([nH]5)c(-c5cc(S(=O)(=O)[O-])ccc5F)c5nc(c(-c6cc(S(=O)(=O)[O-])ccc6F)c6ccc3[nH]6)C=C5)C=C4)cc2)[NH2+]1
REMARK SMILES IDX 26 1 25 2 24 3 23 4 21 5 22 6 7 8 8 9 6 10 5 11 1 12 2 13
REMARK SMILES IDX 3 14 94 15 4 16 9 19 10 20 20 21 11 22 12 23 13 24 14 25
REMARK SMILES IDX 19 26 15 27 17 28 16 29 18 30 27 31 28 32 29 33 30 35 31 36
REMARK SMILES IDX 32 37 93 38 33 39 92 40 34 41 35 42 36 43 86 44 37 45 91 46
REMARK SMILES IDX 85 47 87 48 38 49 90 50 84 51 83 52 39 54 71 55 51 56 70 57
REMARK SMILES IDX 52 58 55 59 69 60 88 61 53 62 54 63 68 65 89 66 56 67 40 68
REMARK SMILES IDX 41 69 49 70 42 71 48 72 50 73 47 74 43 75 44 76 45 77 46 78
REMARK SMILES IDX 72 79 73 80 81 81 74 82 80 83 82 84 79 85 75 86 76 87 77 88
REMARK SMILES IDX 78 89 57 90 58 91 66 92 59 93 65 94 67 95 64 96 60 97 61 98
REMARK SMILES IDX 62 99 63 100
REMARK H PARENT 23 7 94 17 94 18 28 34 87 53 55 64
REMARK Flexibility Score: inf
ROOT
ATOM      1  C   UNL A   1      36.689  21.849  23.896  1.00  0.00     0.023 C 
ENDROOT
BRANCH   1   2
ATOM      2  C   UNL A   1      36.368  23.290  23.494  1.00  0.00     0.023 C 
BRANCH   2   3
ATOM      3  C   UNL A   1      34.969  23.801  23.805  1.00  0.00     0.116 C 
BRANCH   3   4
ATOM      4  N   UNL A   1      33.873  23.056  23.240  1.00  0.00    -0.352 N 
ATOM      5  C   UNL A   1      32.824  22.456  23.878  1.00  0.00     0.258 C 
ATOM      6  O   UNL A   1      31.892  22.048  23.178  1.00  0.00    -0.269 OA
ATOM      7  H   UNL A   1      33.882  22.965  22.259  1.00  0.00     0.163 HD
BRANCH   5   8
ATOM      8  C   UNL A   1      32.799  22.200  25.374  1.00  0.00     0.084 C 
ATOM      9  C   UNL A   1      32.182  22.951  26.304  1.00  0.00     0.068 C 
BRANCH   8  10
ATOM     10  S   UNL A   1      33.615  20.679  25.754  1.00  0.00    -0.030 SA
BRANCH  10  11
ATOM     11  C   UNL A   1      32.511  19.301  25.299  1.00  0.00     0.393 C 
ATOM     12  C   UNL A   1      33.419  15.861  25.468  1.00  0.00     0.106 C 
ATOM     13  C   UNL A   1      33.602  17.354  25.256  1.00  0.00     0.324 C 
ATOM     14  N   UNL A   1      33.254  17.726  23.876  1.00  0.00    -0.126 NA
ATOM     15  N   UNL A   1      32.717  18.113  26.131  1.00  0.00    -0.293 N 
ATOM     16  N   UNL A   1      32.648  18.832  23.896  1.00  0.00    -0.115 NA
ATOM     17  H   UNL A   1      33.166  18.343  27.017  1.00  0.00     0.350 HD
ATOM     18  H   UNL A   1      31.866  17.628  26.412  1.00  0.00     0.350 HD
ENDBRANCH  10  11
ENDBRANCH   8  10
BRANCH   9  19
ATOM     19  C   UNL A   1      31.649  24.249  26.134  1.00  0.00     0.128 A 
ATOM     20  C   UNL A   1      30.410  24.693  25.700  1.00  0.00     0.051 A 
ATOM     21  O   UNL A   1      32.395  25.357  26.472  1.00  0.00    -0.457 OA
ATOM     22  C   UNL A   1      30.427  26.114  25.746  1.00  0.00     0.051 A 
ATOM     23  C   UNL A   1      31.682  26.479  26.185  1.00  0.00     0.134 A 
BRANCH  23  24
ATOM     24  C   UNL A   1      32.397  27.746  26.298  1.00  0.00     0.019 A 
ATOM     25  C   UNL A   1      33.768  27.765  26.579  1.00  0.00     0.012 A 
ATOM     26  C   UNL A   1      31.703  28.968  26.259  1.00  0.00     0.032 A 
ATOM     27  C   UNL A   1      34.426  28.969  26.852  1.00  0.00     0.002 A 
ATOM     28  C   UNL A   1      32.360  30.164  26.556  1.00  0.00     0.041 A 
ATOM     29  C   UNL A   1      33.719  30.170  26.858  1.00  0.00     0.020 A 
ATOM     30  Cl  UNL A   1      31.472  31.638  26.592  1.00  0.00    -0.084 Cl
ENDBRANCH  23  24
ENDBRANCH   9  19
ENDBRANCH   5   8
ENDBRANCH   3   4
ENDBRANCH   2   3
ENDBRANCH   1   2
BRANCH   1  31
ATOM     31  C   UNL A   1      37.088  21.569  25.346  1.00  0.00     0.116 C 
BRANCH  31  32
ATOM     32  N   UNL A   1      38.261  20.727  25.523  1.00  0.00    -0.352 N 
ATOM     33  C   UNL A   1      39.459  20.979  26.163  1.00  0.00     0.251 C 
ATOM     34  H   UNL A   1      38.188  19.831  25.123  1.00  0.00     0.163 HD
ATOM     35  O   UNL A   1      40.299  20.102  26.276  1.00  0.00    -0.269 OA
BRANCH  33  36
ATOM     36  C   UNL A   1      39.763  22.334  26.663  1.00  0.00     0.039 A 
ATOM     37  C   UNL A   1      40.790  22.475  27.601  1.00  0.00     0.014 A 
ATOM     38  C   UNL A   1      39.084  23.454  26.184  1.00  0.00     0.014 A 
ATOM     39  C   UNL A   1      41.222  23.751  27.963  1.00  0.00     0.010 A 
ATOM     40  C   UNL A   1      39.572  24.723  26.479  1.00  0.00     0.010 A 
ATOM     41  C   UNL A   1      40.664  24.882  27.349  1.00  0.00    -0.014 A 
BRANCH  41  42
ATOM     42  C   UNL A   1      41.238  26.237  27.556  1.00  0.00     0.031 A 
ATOM     43  C   UNL A   1      42.591  26.575  26.995  1.00  0.00     0.074 A 
ATOM     44  C   UNL A   1      40.583  27.117  28.342  1.00  0.00     0.049 A 
ATOM     45  N   UNL A   1      43.318  27.645  27.178  1.00  0.00    -0.248 NA
ATOM     46  C   UNL A   1      43.225  25.553  26.146  1.00  0.00     0.031 C 
ATOM     47  C   UNL A   1      39.290  26.873  28.990  1.00  0.00     0.029 A 
ATOM     48  N   UNL A   1      40.920  28.383  28.753  1.00  0.00    -0.354 N 
ATOM     49  C   UNL A   1      44.509  27.415  26.498  1.00  0.00     0.074 A 
ATOM     50  C   UNL A   1      44.420  26.085  25.934  1.00  0.00     0.031 C 
ATOM     51  C   UNL A   1      38.940  27.957  29.703  1.00  0.00     0.029 A 
ATOM     52  C   UNL A   1      40.002  28.953  29.607  1.00  0.00     0.049 A 
ATOM     53  H   UNL A   1      41.742  28.841  28.464  1.00  0.00     0.167 HD
ATOM     54  C   UNL A   1      45.571  28.244  26.350  1.00  0.00     0.034 A 
ATOM     55  C   UNL A   1      40.022  30.134  30.256  1.00  0.00     0.034 A 
ATOM     56  C   UNL A   1      45.622  29.580  26.892  1.00  0.00     0.049 A 
ATOM     57  C   UNL A   1      41.204  31.049  30.050  1.00  0.00     0.074 A 
ATOM     58  C   UNL A   1      46.604  30.540  26.725  1.00  0.00     0.029 A 
ATOM     59  N   UNL A   1      44.652  30.143  27.713  1.00  0.00    -0.354 N 
ATOM     60  N   UNL A   1      42.288  30.845  29.336  1.00  0.00    -0.248 NA
ATOM     61  C   UNL A   1      41.160  32.352  30.723  1.00  0.00     0.031 C 
ATOM     62  C   UNL A   1      46.260  31.658  27.494  1.00  0.00     0.029 A 
ATOM     63  C   UNL A   1      45.029  31.424  28.085  1.00  0.00     0.049 A 
ATOM     64  H   UNL A   1      43.820  29.696  27.992  1.00  0.00     0.167 HD
ATOM     65  C   UNL A   1      43.041  32.011  29.454  1.00  0.00     0.074 A 
ATOM     66  C   UNL A   1      42.278  32.915  30.289  1.00  0.00     0.031 C 
ATOM     67  C   UNL A   1      44.253  32.309  28.921  1.00  0.00     0.034 A 
BRANCH  54  68
ATOM     68  C   UNL A   1      46.770  27.721  25.599  1.00  0.00     0.023 A 
ATOM     69  C   UNL A   1      47.018  28.069  24.260  1.00  0.00     0.031 A 
ATOM     70  C   UNL A   1      47.675  26.849  26.231  1.00  0.00     0.131 A 
ATOM     71  C   UNL A   1      48.103  27.498  23.577  1.00  0.00     0.055 A 
ATOM     72  C   UNL A   1      48.796  26.345  25.570  1.00  0.00     0.041 A 
ATOM     73  F   UNL A   1      47.478  26.465  27.502  1.00  0.00    -0.206 F 
ATOM     74  C   UNL A   1      49.009  26.659  24.230  1.00  0.00     0.022 A 
BRANCH  71  75
ATOM     75  S   UNL A   1      48.246  27.774  21.792  1.00  0.00     0.124 S 
ATOM     76  O   UNL A   1      46.922  28.302  21.468  1.00  0.00    -0.237 OA
ATOM     77  O   UNL A   1      49.350  28.723  21.705  1.00  0.00    -0.237 OA
ATOM     78  O   UNL A   1      48.525  26.442  21.259  1.00  0.00    -0.744 OA
ENDBRANCH  71  75
ENDBRANCH  54  68
BRANCH  55  79
ATOM     79  C   UNL A   1      38.912  30.521  31.176  1.00  0.00     0.023 A 
ATOM     80  C   UNL A   1      37.801  31.243  30.708  1.00  0.00     0.031 A 
ATOM     81  C   UNL A   1      38.972  30.226  32.549  1.00  0.00     0.131 A 
ATOM     82  C   UNL A   1      36.828  31.697  31.612  1.00  0.00     0.055 A 
ATOM     83  C   UNL A   1      37.971  30.630  33.436  1.00  0.00     0.041 A 
ATOM     84  F   UNL A   1      40.006  29.533  33.051  1.00  0.00    -0.206 F 
ATOM     85  C   UNL A   1      36.900  31.386  32.972  1.00  0.00     0.022 A 
BRANCH  82  86
ATOM     86  S   UNL A   1      35.521  32.796  31.000  1.00  0.00     0.124 S 
ATOM     87  O   UNL A   1      35.523  32.495  29.573  1.00  0.00    -0.237 OA
ATOM     88  O   UNL A   1      34.360  32.332  31.753  1.00  0.00    -0.237 OA
ATOM     89  O   UNL A   1      36.002  34.129  31.357  1.00  0.00    -0.744 OA
ENDBRANCH  82  86
ENDBRANCH  55  79
BRANCH  67  90
ATOM     90  C   UNL A   1      44.796  33.688  29.192  1.00  0.00     0.023 A 
ATOM     91  C   UNL A   1      44.440  34.792  28.398  1.00  0.00     0.031 A 
ATOM     92  C   UNL A   1      45.691  33.897  30.257  1.00  0.00     0.131 A 
ATOM     93  C   UNL A   1      45.020  36.045  28.647  1.00  0.00     0.055 A 
ATOM     94  C   UNL A   1      46.219  35.157  30.536  1.00  0.00     0.041 A 
ATOM     95  F   UNL A   1      46.064  32.876  31.045  1.00  0.00    -0.206 F 
ATOM     96  C   UNL A   1      45.894  36.238  29.720  1.00  0.00     0.022 A 
BRANCH  93  97
ATOM     97  S   UNL A   1      44.685  37.403  27.493  1.00  0.00     0.124 S 
ATOM     98  O   UNL A   1      43.424  36.984  26.888  1.00  0.00    -0.237 OA
ATOM     99  O   UNL A   1      44.612  38.558  28.382  1.00  0.00    -0.237 OA
ATOM    100  O   UNL A   1      45.839  37.385  26.596  1.00  0.00    -0.744 OA
ENDBRANCH  93  97
ENDBRANCH  67  90
ENDBRANCH  41  42
ENDBRANCH  33  36
ENDBRANCH  31  32
ENDBRANCH   1  31
TORSDOF 18
ENDMDL
MODEL 2
REMARK VINA RESULT:     -12.9      1.018      7.351
REMARK SMILES C[C@H]1N=N[C@H](S/C(=C/c2ccc(-c3cccc(Cl)c3)o2)C(=O)NCCCCNC(=O)c2ccc(-c3c4nc(c(-c5cc(S(=O)(=O)[O-])ccc5F)c5ccc([nH]5)c(-c5cc(S(=O)(=O)[O-])ccc5F)c5nc(c(-c6cc(S(=O)(=O)[O-])ccc6F)c6ccc3[nH]6)C=C5)C=C4)cc2)[NH2+]1
REMARK SMILES IDX 26 1 25 2 24 3 23 4 21 5 22 6 7 8 8 9 6 10 5 11 1 12 2 13
REMARK SMILES IDX 3 14 94 15 4 16 9 19 10 20 20 21 11 22 12 23 13 24 14 25
REMARK SMILES IDX 19 26 15 27 17 28 16 29 18 30 27 31 28 32 29 33 30 35 31 36
REMARK SMILES IDX 32 37 93 38 33 39 92 40 34 41 35 42 36 43 86 44 37 45 91 46
REMARK SMILES IDX 85 47 87 48 38 49 90 50 84 51 83 52 39 54 71 55 51 56 70 57
REMARK SMILES IDX 52 58 55 59 69 60 88 61 53 62 54 63 68 65 89 66 56 67 40 68
REMARK SMILES IDX 41 69 49 70 42 71 48 72 50 73 47 74 43 75 44 76 45 77 46 78
REMARK SMILES IDX 72 79 73 80 81 81 74 82 80 83 82 84 79 85 75 86 76 87 77 88
REMARK SMILES IDX 78 89 57 90 58 91 66 92 59 93 65 94 67 95 64 96 60 97 61 98
REMARK SMILES IDX 62 99 63 100
REMARK H PARENT 23 7 94 17 94 18 28 34 87 53 55 64
REMARK Flexibility Score: inf
ROOT
ATOM      1  C   UNL A   1      36.900  21.741  23.879  1.00  0.00     0.023 C 
ENDROOT
BRANCH   1   2
ATOM      2  C   UNL A   1      36.369  23.156  23.637  1.00  0.00     0.023 C 
BRANCH   2   3
ATOM      3  C   UNL A   1      34.886  23.391  23.879  1.00  0.00     0.116 C 
BRANCH   3   4
ATOM      4  N   UNL A   1      33.975  22.692  23.009  1.00  0.00    -0.352 N 
ATOM      5  C   UNL A   1      33.027  21.761  23.329  1.00  0.00     0.258 C 
ATOM      6  O   UNL A   1      32.220  21.446  22.448  1.00  0.00    -0.269 OA
ATOM      7  H   UNL A   1      34.046  22.914  22.053  1.00  0.00     0.163 HD
BRANCH   5   8
ATOM      8  C   UNL A   1      32.980  21.050  24.669  1.00  0.00     0.084 C 
ATOM      9  C   UNL A   1      32.291  21.438  25.757  1.00  0.00     0.068 C 
BRANCH   8  10
ATOM     10  S   UNL A   1      33.886  19.534  24.596  1.00  0.00    -0.030 SA
BRANCH  10  11
ATOM     11  C   UNL A   1      32.784  18.232  23.950  1.00  0.00     0.393 C 
ATOM     12  C   UNL A   1      32.558  14.943  25.298  1.00  0.00     0.106 C 
ATOM     13  C   UNL A   1      33.209  16.255  24.893  1.00  0.00     0.324 C 
ATOM     14  N   UNL A   1      33.638  16.205  23.487  1.00  0.00    -0.126 NA
ATOM     15  N   UNL A   1      32.264  17.359  25.005  1.00  0.00    -0.293 N 
ATOM     16  N   UNL A   1      33.410  17.325  22.955  1.00  0.00    -0.115 NA
ATOM     17  H   UNL A   1      32.306  17.802  25.922  1.00  0.00     0.350 HD
ATOM     18  H   UNL A   1      31.283  17.099  24.909  1.00  0.00     0.350 HD
ENDBRANCH  10  11
ENDBRANCH   8  10
BRANCH   9  19
ATOM     19  C   UNL A   1      31.676  22.692  25.974  1.00  0.00     0.128 A 
ATOM     20  C   UNL A   1      30.397  23.041  26.377  1.00  0.00     0.051 A 
ATOM     21  O   UNL A   1      32.401  23.856  25.829  1.00  0.00    -0.457 OA
ATOM     22  C   UNL A   1      30.343  24.460  26.441  1.00  0.00     0.051 A 
ATOM     23  C   UNL A   1      31.584  24.920  26.055  1.00  0.00     0.134 A 
BRANCH  23  24
ATOM     24  C   UNL A   1      32.139  26.235  25.752  1.00  0.00     0.019 A 
ATOM     25  C   UNL A   1      33.228  26.364  24.884  1.00  0.00     0.012 A 
ATOM     26  C   UNL A   1      31.679  27.380  26.426  1.00  0.00     0.032 A 
ATOM     27  C   UNL A   1      33.869  27.596  24.717  1.00  0.00     0.002 A 
ATOM     28  C   UNL A   1      32.338  28.602  26.274  1.00  0.00     0.041 A 
ATOM     29  C   UNL A   1      33.435  28.714  25.426  1.00  0.00     0.020 A 
ATOM     30  Cl  UNL A   1      31.815  29.971  27.178  1.00  0.00    -0.084 Cl
ENDBRANCH  23  24
ENDBRANCH   9  19
ENDBRANCH   5   8
ENDBRANCH   3   4
ENDBRANCH   2   3
ENDBRANCH   1   2
BRANCH   1  31
ATOM     31  C   UNL A   1      37.284  21.341  25.304  1.00  0.00     0.116 C 
BRANCH  31  32
ATOM     32  N   UNL A   1      38.415  20.432  25.418  1.00  0.00    -0.352 N 
ATOM     33  C   UNL A   1      39.617  20.573  26.083  1.00  0.00     0.251 C 
ATOM     34  H   UNL A   1      38.304  19.576  24.944  1.00  0.00     0.163 HD
ATOM     35  O   UNL A   1      40.414  19.651  26.128  1.00  0.00    -0.269 OA
BRANCH  33  36
ATOM     36  C   UNL A   1      39.979  21.867  26.695  1.00  0.00     0.039 A 
ATOM     37  C   UNL A   1      40.921  21.867  27.728  1.00  0.00     0.014 A 
ATOM     38  C   UNL A   1      39.439  23.066  26.232  1.00  0.00     0.014 A 
ATOM     39  C   UNL A   1      41.417  23.078  28.209  1.00  0.00     0.010 A 
ATOM     40  C   UNL A   1      39.995  24.270  26.651  1.00  0.00     0.010 A 
ATOM     41  C   UNL A   1      41.011  24.286  27.623  1.00  0.00    -0.014 A 
BRANCH  41  42
ATOM     42  C   UNL A   1      41.668  25.573  27.968  1.00  0.00     0.031 A 
ATOM     43  C   UNL A   1      40.896  26.642  28.690  1.00  0.00     0.074 A 
ATOM     44  C   UNL A   1      42.923  25.810  27.532  1.00  0.00     0.049 A 
ATOM     45  N   UNL A   1      41.243  27.872  28.960  1.00  0.00    -0.248 NA
ATOM     46  C   UNL A   1      39.537  26.289  29.130  1.00  0.00     0.031 C 
ATOM     47  C   UNL A   1      43.746  24.865  26.769  1.00  0.00     0.029 A 
ATOM     48  N   UNL A   1      43.721  26.922  27.643  1.00  0.00    -0.354 N 
ATOM     49  C   UNL A   1      40.137  28.454  29.570  1.00  0.00     0.074 A 
ATOM     50  C   UNL A   1      39.094  27.450  29.592  1.00  0.00     0.031 C 
ATOM     51  C   UNL A   1      44.932  25.433  26.494  1.00  0.00     0.029 A 
ATOM     52  C   UNL A   1      44.939  26.796  27.014  1.00  0.00     0.049 A 
ATOM     53  H   UNL A   1      43.447  27.734  28.128  1.00  0.00     0.167 HD
ATOM     54  C   UNL A   1      40.012  29.705  30.076  1.00  0.00     0.034 A 
ATOM     55  C   UNL A   1      45.941  27.684  26.854  1.00  0.00     0.034 A 
ATOM     56  C   UNL A   1      41.078  30.676  30.076  1.00  0.00     0.049 A 
ATOM     57  C   UNL A   1      45.784  29.061  27.453  1.00  0.00     0.074 A 
ATOM     58  C   UNL A   1      41.093  31.938  30.644  1.00  0.00     0.029 A 
ATOM     59  N   UNL A   1      42.317  30.498  29.471  1.00  0.00    -0.354 N 
ATOM     60  N   UNL A   1      44.758  29.566  28.098  1.00  0.00    -0.248 NA
ATOM     61  C   UNL A   1      46.921  29.978  27.313  1.00  0.00     0.031 C 
ATOM     62  C   UNL A   1      42.314  32.545  30.330  1.00  0.00     0.029 A 
ATOM     63  C   UNL A   1      43.090  31.638  29.627  1.00  0.00     0.049 A 
ATOM     64  H   UNL A   1      42.602  29.682  29.000  1.00  0.00     0.167 HD
ATOM     65  C   UNL A   1      45.141  30.853  28.466  1.00  0.00     0.074 A 
ATOM     66  C   UNL A   1      46.496  31.036  27.987  1.00  0.00     0.031 C 
ATOM     67  C   UNL A   1      44.439  31.800  29.139  1.00  0.00     0.034 A 
BRANCH  54  68
ATOM     68  C   UNL A   1      38.671  30.100  30.644  1.00  0.00     0.023 A 
ATOM     69  C   UNL A   1      37.701  30.759  29.869  1.00  0.00     0.031 A 
ATOM     70  C   UNL A   1      38.363  29.822  31.989  1.00  0.00     0.131 A 
ATOM     71  C   UNL A   1      36.498  31.176  30.459  1.00  0.00     0.055 A 
ATOM     72  C   UNL A   1      37.133  30.171  32.549  1.00  0.00     0.041 A 
ATOM     73  F   UNL A   1      39.258  29.213  32.782  1.00  0.00    -0.206 F 
ATOM     74  C   UNL A   1      36.197  30.864  31.787  1.00  0.00     0.022 A 
BRANCH  71  75
ATOM     75  S   UNL A   1      35.384  32.236  29.501  1.00  0.00     0.124 S 
ATOM     76  O   UNL A   1      35.034  31.361  28.383  1.00  0.00    -0.237 OA
ATOM     77  O   UNL A   1      34.314  32.514  30.452  1.00  0.00    -0.237 OA
ATOM     78  O   UNL A   1      36.219  33.383  29.148  1.00  0.00    -0.744 OA
ENDBRANCH  71  75
ENDBRANCH  54  68
BRANCH  55  79
ATOM     79  C   UNL A   1      47.168  27.324  26.085  1.00  0.00     0.023 A 
ATOM     80  C   UNL A   1      47.328  27.723  24.748  1.00  0.00     0.031 A 
ATOM     81  C   UNL A   1      48.175  26.526  26.658  1.00  0.00     0.131 A 
ATOM     82  C   UNL A   1      48.435  27.274  24.010  1.00  0.00     0.055 A 
ATOM     83  C   UNL A   1      49.304  26.131  25.936  1.00  0.00     0.041 A 
ATOM     84  F   UNL A   1      48.078  26.121  27.934  1.00  0.00    -0.206 F 
ATOM     85  C   UNL A   1      49.429  26.490  24.598  1.00  0.00     0.022 A 
BRANCH  82  86
ATOM     86  S   UNL A   1      48.500  27.643  22.234  1.00  0.00     0.124 S 
ATOM     87  O   UNL A   1      49.685  28.488  22.149  1.00  0.00    -0.237 OA
ATOM     88  O   UNL A   1      48.619  26.309  21.654  1.00  0.00    -0.237 OA
ATOM     89  O   UNL A   1      47.230  28.320  21.981  1.00  0.00    -0.744 OA
ENDBRANCH  82  86
ENDBRANCH  55  79
BRANCH  67  90
ATOM     90  C   UNL A   1      45.150  33.095  29.433  1.00  0.00     0.023 A 
ATOM     91  C   UNL A   1      45.179  34.149  28.503  1.00  0.00     0.031 A 
ATOM     92  C   UNL A   1      45.818  33.271  30.658  1.00  0.00     0.131 A 
ATOM     93  C   UNL A   1      45.908  35.313  28.792  1.00  0.00     0.055 A 
ATOM     94  C   UNL A   1      46.491  34.454  30.964  1.00  0.00     0.041 A 
ATOM     95  F   UNL A   1      45.821  32.295  31.579  1.00  0.00    -0.206 F 
ATOM     96  C   UNL A   1      46.550  35.478  30.023  1.00  0.00     0.022 A 
BRANCH  93  97
ATOM     97  S   UNL A   1      46.080  36.574  27.501  1.00  0.00     0.124 S 
ATOM     98  O   UNL A   1      45.494  37.747  28.143  1.00  0.00    -0.237 OA
ATOM     99  O   UNL A   1      47.525  36.616  27.295  1.00  0.00    -0.237 OA
ATOM    100  O   UNL A   1      45.312  36.030  26.384  1.00  0.00    -0.744 OA
ENDBRANCH  93  97
ENDBRANCH  67  90
ENDBRANCH  41  42
ENDBRANCH  33  36
ENDBRANCH  31  32
ENDBRANCH   1  31
TORSDOF 18
ENDMDL
MODEL 3
REMARK VINA RESULT:     -12.8      2.493      8.666
REMARK SMILES C[C@H]1N=N[C@H](S/C(=C/c2ccc(-c3cccc(Cl)c3)o2)C(=O)NCCCCNC(=O)c2ccc(-c3c4nc(c(-c5cc(S(=O)(=O)[O-])ccc5F)c5ccc([nH]5)c(-c5cc(S(=O)(=O)[O-])ccc5F)c5nc(c(-c6cc(S(=O)(=O)[O-])ccc6F)c6ccc3[nH]6)C=C5)C=C4)cc2)[NH2+]1
REMARK SMILES IDX 26 1 25 2 24 3 23 4 21 5 22 6 7 8 8 9 6 10 5 11 1 12 2 13
REMARK SMILES IDX 3 14 94 15 4 16 9 19 10 20 20 21 11 22 12 23 13 24 14 25
REMARK SMILES IDX 19 26 15 27 17 28 16 29 18 30 27 31 28 32 29 33 30 35 31 36
REMARK SMILES IDX 32 37 93 38 33 39 92 40 34 41 35 42 36 43 86 44 37 45 91 46
REMARK SMILES IDX 85 47 87 48 38 49 90 50 84 51 83 52 39 54 71 55 51 56 70 57
REMARK SMILES IDX 52 58 55 59 69 60 88 61 53 62 54 63 68 65 89 66 56 67 40 68
REMARK SMILES IDX 41 69 49 70 42 71 48 72 50 73 47 74 43 75 44 76 45 77 46 78
REMARK SMILES IDX 72 79 73 80 81 81 74 82 80 83 82 84 79 85 75 86 76 87 77 88
REMARK SMILES IDX 78 89 57 90 58 91 66 92 59 93 65 94 67 95 64 96 60 97 61 98
REMARK SMILES IDX 62 99 63 100
REMARK H PARENT 23 7 94 17 94 18 28 34 87 53 55 64
REMARK Flexibility Score: inf
ROOT
ATOM      1  C   UNL A   1      35.854  22.197  24.235  1.00  0.00     0.023 C 
ENDROOT
BRANCH   1   2
ATOM      2  C   UNL A   1      35.690  23.662  23.822  1.00  0.00     0.023 C 
BRANCH   2   3
ATOM      3  C   UNL A   1      34.272  24.166  23.601  1.00  0.00     0.116 C 
BRANCH   3   4
ATOM      4  N   UNL A   1      33.763  25.098  24.574  1.00  0.00    -0.352 N 
ATOM      5  C   UNL A   1      32.538  25.122  25.180  1.00  0.00     0.258 C 
ATOM      6  O   UNL A   1      32.393  25.893  26.135  1.00  0.00    -0.269 OA
ATOM      7  H   UNL A   1      34.382  25.818  24.837  1.00  0.00     0.163 HD
BRANCH   5   8
ATOM      8  C   UNL A   1      31.350  24.320  24.683  1.00  0.00     0.084 C 
ATOM      9  C   UNL A   1      31.085  23.030  24.957  1.00  0.00     0.068 C 
BRANCH   8  10
ATOM     10  S   UNL A   1      30.253  25.350  23.756  1.00  0.00    -0.030 SA
BRANCH  10  11
ATOM     11  C   UNL A   1      31.125  26.899  23.343  1.00  0.00     0.393 C 
ATOM     12  C   UNL A   1      29.687  30.146  23.618  1.00  0.00     0.106 C 
ATOM     13  C   UNL A   1      29.741  28.649  23.360  1.00  0.00     0.324 C 
ATOM     14  N   UNL A   1      30.136  28.379  21.970  1.00  0.00    -0.126 NA
ATOM     15  N   UNL A   1      30.738  28.013  24.212  1.00  0.00    -0.293 N 
ATOM     16  N   UNL A   1      30.908  27.382  21.955  1.00  0.00    -0.115 NA
ATOM     17  H   UNL A   1      30.335  27.688  25.090  1.00  0.00     0.350 HD
ATOM     18  H   UNL A   1      31.503  28.618  24.508  1.00  0.00     0.350 HD
ENDBRANCH  10  11
ENDBRANCH   8  10
BRANCH   9  19
ATOM     19  C   UNL A   1      31.960  22.086  25.542  1.00  0.00     0.128 A 
ATOM     20  C   UNL A   1      32.835  22.172  26.613  1.00  0.00     0.051 A 
ATOM     21  O   UNL A   1      32.004  20.792  25.069  1.00  0.00    -0.457 OA
ATOM     22  C   UNL A   1      33.449  20.899  26.764  1.00  0.00     0.051 A 
ATOM     23  C   UNL A   1      32.940  20.095  25.767  1.00  0.00     0.134 A 
BRANCH  23  24
ATOM     24  C   UNL A   1      33.257  18.761  25.267  1.00  0.00     0.019 A 
ATOM     25  C   UNL A   1      34.067  18.600  24.138  1.00  0.00     0.012 A 
ATOM     26  C   UNL A   1      32.651  17.623  25.825  1.00  0.00     0.032 A 
ATOM     27  C   UNL A   1      34.241  17.340  23.555  1.00  0.00     0.002 A 
ATOM     28  C   UNL A   1      32.809  16.371  25.226  1.00  0.00     0.041 A 
ATOM     29  C   UNL A   1      33.597  16.226  24.089  1.00  0.00     0.020 A 
ATOM     30  Cl  UNL A   1      31.984  15.006  25.873  1.00  0.00    -0.084 Cl
ENDBRANCH  23  24
ENDBRANCH   9  19
ENDBRANCH   5   8
ENDBRANCH   3   4
ENDBRANCH   2   3
ENDBRANCH   1   2
BRANCH   1  31
ATOM     31  C   UNL A   1      36.594  21.887  25.537  1.00  0.00     0.116 C 
BRANCH  31  32
ATOM     32  N   UNL A   1      37.727  20.982  25.415  1.00  0.00    -0.352 N 
ATOM     33  C   UNL A   1      39.019  21.092  25.890  1.00  0.00     0.251 C 
ATOM     34  H   UNL A   1      37.541  20.156  24.912  1.00  0.00     0.163 HD
ATOM     35  O   UNL A   1      39.811  20.175  25.751  1.00  0.00    -0.269 OA
BRANCH  33  36
ATOM     36  C   UNL A   1      39.475  22.349  26.516  1.00  0.00     0.039 A 
ATOM     37  C   UNL A   1      40.452  22.271  27.513  1.00  0.00     0.014 A 
ATOM     38  C   UNL A   1      38.988  23.586  26.099  1.00  0.00     0.014 A 
ATOM     39  C   UNL A   1      41.033  23.441  28.001  1.00  0.00     0.010 A 
ATOM     40  C   UNL A   1      39.627  24.747  26.523  1.00  0.00     0.010 A 
ATOM     41  C   UNL A   1      40.675  24.683  27.457  1.00  0.00    -0.014 A 
BRANCH  41  42
ATOM     42  C   UNL A   1      41.416  25.923  27.806  1.00  0.00     0.031 A 
ATOM     43  C   UNL A   1      40.722  27.031  28.547  1.00  0.00     0.074 A 
ATOM     44  C   UNL A   1      42.679  26.084  27.357  1.00  0.00     0.049 A 
ATOM     45  N   UNL A   1      41.149  28.234  28.823  1.00  0.00    -0.248 NA
ATOM     46  C   UNL A   1      39.349  26.760  29.000  1.00  0.00     0.031 C 
ATOM     47  C   UNL A   1      43.431  25.097  26.575  1.00  0.00     0.029 A 
ATOM     48  N   UNL A   1      43.546  27.143  27.468  1.00  0.00    -0.354 N 
ATOM     49  C   UNL A   1      40.089  28.878  29.453  1.00  0.00     0.074 A 
ATOM     50  C   UNL A   1      38.985  27.942  29.478  1.00  0.00     0.031 C 
ATOM     51  C   UNL A   1      44.647  25.592  26.290  1.00  0.00     0.029 A 
ATOM     52  C   UNL A   1      44.747  26.946  26.822  1.00  0.00     0.049 A 
ATOM     53  H   UNL A   1      43.330  27.965  27.963  1.00  0.00     0.167 HD
ATOM     54  C   UNL A   1      40.049  30.129  29.972  1.00  0.00     0.034 A 
ATOM     55  C   UNL A   1      45.800  27.771  26.659  1.00  0.00     0.034 A 
ATOM     56  C   UNL A   1      41.174  31.032  29.966  1.00  0.00     0.049 A 
ATOM     57  C   UNL A   1      45.738  29.149  27.271  1.00  0.00     0.074 A 
ATOM     58  C   UNL A   1      41.275  32.285  30.546  1.00  0.00     0.029 A 
ATOM     59  N   UNL A   1      42.392  30.782  29.345  1.00  0.00    -0.354 N 
ATOM     60  N   UNL A   1      44.753  29.712  27.934  1.00  0.00    -0.248 NA
ATOM     61  C   UNL A   1      46.928  29.994  27.126  1.00  0.00     0.031 C 
ATOM     62  C   UNL A   1      42.529  32.817  30.222  1.00  0.00     0.029 A 
ATOM     63  C   UNL A   1      43.237  31.869  29.501  1.00  0.00     0.049 A 
ATOM     64  H   UNL A   1      42.620  29.954  28.864  1.00  0.00     0.167 HD
ATOM     65  C   UNL A   1      45.221  30.969  28.308  1.00  0.00     0.074 A 
ATOM     66  C   UNL A   1      46.579  31.070  27.815  1.00  0.00     0.031 C 
ATOM     67  C   UNL A   1      44.588  31.951  28.999  1.00  0.00     0.034 A 
BRANCH  54  68
ATOM     68  C   UNL A   1      38.742  30.603  30.559  1.00  0.00     0.023 A 
ATOM     69  C   UNL A   1      37.774  31.264  29.784  1.00  0.00     0.031 A 
ATOM     70  C   UNL A   1      38.466  30.398  31.924  1.00  0.00     0.131 A 
ATOM     71  C   UNL A   1      36.608  31.754  30.389  1.00  0.00     0.055 A 
ATOM     72  C   UNL A   1      37.268  30.821  32.503  1.00  0.00     0.041 A 
ATOM     73  F   UNL A   1      39.361  29.791  32.718  1.00  0.00    -0.206 F 
ATOM     74  C   UNL A   1      36.336  31.515  31.738  1.00  0.00     0.022 A 
BRANCH  71  75
ATOM     75  S   UNL A   1      35.506  32.814  29.415  1.00  0.00     0.124 S 
ATOM     76  O   UNL A   1      34.223  32.595  30.080  1.00  0.00    -0.237 OA
ATOM     77  O   UNL A   1      36.098  34.135  29.590  1.00  0.00    -0.237 OA
ATOM     78  O   UNL A   1      35.602  32.262  28.065  1.00  0.00    -0.744 OA
ENDBRANCH  71  75
ENDBRANCH  54  68
BRANCH  55  79
ATOM     79  C   UNL A   1      46.994  27.342  25.871  1.00  0.00     0.023 A 
ATOM     80  C   UNL A   1      47.178  27.768  24.546  1.00  0.00     0.031 A 
ATOM     81  C   UNL A   1      47.939  26.452  26.413  1.00  0.00     0.131 A 
ATOM     82  C   UNL A   1      48.245  27.259  23.787  1.00  0.00     0.055 A 
ATOM     83  C   UNL A   1      49.031  25.994  25.672  1.00  0.00     0.041 A 
ATOM     84  F   UNL A   1      47.816  26.017  27.676  1.00  0.00    -0.206 F 
ATOM     85  C   UNL A   1      49.178  26.384  24.345  1.00  0.00     0.022 A 
BRANCH  82  86
ATOM     86  S   UNL A   1      48.330  27.676  22.023  1.00  0.00     0.124 S 
ATOM     87  O   UNL A   1      48.511  26.363  21.416  1.00  0.00    -0.237 OA
ATOM     88  O   UNL A   1      47.037  28.315  21.801  1.00  0.00    -0.237 OA
ATOM     89  O   UNL A   1      49.486  28.566  21.940  1.00  0.00    -0.744 OA
ENDBRANCH  82  86
ENDBRANCH  55  79
BRANCH  67  90
ATOM     90  C   UNL A   1      45.383  33.196  29.295  1.00  0.00     0.023 A 
ATOM     91  C   UNL A   1      45.395  34.292  28.415  1.00  0.00     0.031 A 
ATOM     92  C   UNL A   1      46.148  33.281  30.472  1.00  0.00     0.131 A 
ATOM     93  C   UNL A   1      46.201  35.405  28.699  1.00  0.00     0.055 A 
ATOM     94  C   UNL A   1      46.900  34.414  30.779  1.00  0.00     0.041 A 
ATOM     95  F   UNL A   1      46.172  32.261  31.345  1.00  0.00    -0.206 F 
ATOM     96  C   UNL A   1      46.940  35.479  29.883  1.00  0.00     0.022 A 
BRANCH  93  97
ATOM     97  S   UNL A   1      46.339  36.719  27.458  1.00  0.00     0.124 S 
ATOM     98  O   UNL A   1      45.343  37.680  27.921  1.00  0.00    -0.237 OA
ATOM     99  O   UNL A   1      47.733  37.131  27.592  1.00  0.00    -0.237 OA
ATOM    100  O   UNL A   1      46.012  36.043  26.204  1.00  0.00    -0.744 OA
ENDBRANCH  93  97
ENDBRANCH  67  90
ENDBRANCH  41  42
ENDBRANCH  33  36
ENDBRANCH  31  32
ENDBRANCH   1  31
TORSDOF 18
ENDMDL
