MODEL 1
REMARK VINA RESULT:     -11.7      0.000      0.000
REMARK SMILES Cc1cccc(S(=O)(=O)Nc2cc(C(=O)NCCCCNC(=O)c3ccc(-c4c5nc(c(-c6cc(S(=O)(=O)[O-])ccc6F)c6ccc([nH]6)c(-c6cc(S(=O)(=O)[O-])ccc6F)c6nc(c(-c7cc(S(=O)(=O)[O-])ccc7F)c7ccc4[nH]7)C=C6)C=C5)cc3)ccc2N2CCC[C@H](C[NH+]3CCCC3)C2)c1
REMARK SMILES IDX 18 1 17 2 16 3 14 4 15 5 13 7 11 8 12 9 89 10 88 11 87 12
REMARK SMILES IDX 10 13 7 15 8 16 9 17 6 18 1 19 2 20 3 21 102 22 4 23 5 24
REMARK SMILES IDX 90 25 91 26 101 27 92 28 94 29 93 30 95 31 96 32 97 33
REMARK SMILES IDX 100 34 98 36 99 37 19 38 20 39 21 40 22 41 23 43 24 44 25 45
REMARK SMILES IDX 86 46 26 47 85 48 27 49 28 50 29 51 79 52 30 53 84 54 78 55
REMARK SMILES IDX 80 56 31 57 83 58 77 59 76 60 32 62 64 63 44 64 63 65 45 66
REMARK SMILES IDX 48 67 62 68 81 69 46 70 47 71 61 73 82 74 49 75 33 76 34 77
REMARK SMILES IDX 42 78 35 79 41 80 43 81 40 82 36 83 37 84 38 85 39 86 65 87
REMARK SMILES IDX 66 88 74 89 67 90 73 91 75 92 72 93 68 94 69 95 70 96 71 97
REMARK SMILES IDX 50 98 51 99 59 100 52 101 58 102 60 103 57 104 53 105 54 106
REMARK SMILES IDX 55 107 56 108
REMARK H PARENT 16 6 10 14 96 35 21 42 80 61 48 72
REMARK Flexibility Score: inf
ROOT
ATOM      1  C   UNL A   1      33.332  30.768  26.289  1.00  0.00     0.023 C 
ENDROOT
BRANCH   1   2
ATOM      2  C   UNL A   1      32.390  29.771  25.602  1.00  0.00     0.116 C 
BRANCH   2   3
ATOM      3  N   UNL A   1      31.503  29.143  26.577  1.00  0.00    -0.352 N 
ATOM      4  C   UNL A   1      31.376  27.853  27.018  1.00  0.00     0.251 C 
ATOM      5  O   UNL A   1      30.479  27.613  27.832  1.00  0.00    -0.269 OA
ATOM      6  H   UNL A   1      30.873  29.771  26.999  1.00  0.00     0.163 HD
BRANCH   4   7
ATOM      7  C   UNL A   1      32.308  26.753  26.639  1.00  0.00     0.042 A 
ATOM      8  C   UNL A   1      32.843  24.671  25.512  1.00  0.00     0.073 A 
ATOM      9  C   UNL A   1      31.917  25.520  26.121  1.00  0.00     0.042 A 
ATOM     10  C   UNL A   1      34.222  24.922  25.618  1.00  0.00     0.061 A 
ATOM     11  C   UNL A   1      34.620  26.107  26.249  1.00  0.00     0.029 A 
ATOM     12  C   UNL A   1      33.680  27.029  26.716  1.00  0.00     0.016 A 
BRANCH   8  13
ATOM     13  N   UNL A   1      32.310  23.602  24.716  1.00  0.00    -0.277 N 
ATOM     14  H   UNL A   1      32.297  22.683  25.068  1.00  0.00     0.180 HD
BRANCH  13  15
ATOM     15  S   UNL A   1      31.696  23.933  23.135  1.00  0.00     0.261 S 
ATOM     16  O   UNL A   1      30.338  23.467  23.148  1.00  0.00    -0.201 OA
ATOM     17  O   UNL A   1      32.601  23.318  22.172  1.00  0.00    -0.201 OA
BRANCH  15  18
ATOM     18  C   UNL A   1      31.740  25.679  22.785  1.00  0.00     0.088 A 
ATOM     19  C   UNL A   1      34.129  28.657  22.481  1.00  0.00     0.044 C 
ATOM     20  C   UNL A   1      32.894  27.810  22.468  1.00  0.00    -0.050 A 
ATOM     21  C   UNL A   1      31.665  28.455  22.406  1.00  0.00     0.003 A 
ATOM     22  C   UNL A   1      32.925  26.406  22.582  1.00  0.00     0.025 A 
ATOM     23  C   UNL A   1      30.504  27.712  22.516  1.00  0.00     0.002 A 
ATOM     24  C   UNL A   1      30.524  26.336  22.696  1.00  0.00     0.022 A 
ENDBRANCH  15  18
ENDBRANCH  13  15
ENDBRANCH   8  13
BRANCH  10  25
ATOM     25  N   UNL A   1      35.204  24.077  25.142  1.00  0.00    -0.369 N 
ATOM     26  C   UNL A   1      35.646  24.229  23.767  1.00  0.00     0.116 C 
ATOM     27  C   UNL A   1      35.996  23.264  26.051  1.00  0.00     0.126 C 
ATOM     28  C   UNL A   1      35.846  22.842  23.165  1.00  0.00     0.022 C 
ATOM     29  C   UNL A   1      36.216  21.858  25.489  1.00  0.00     0.064 C 
ATOM     30  C   UNL A   1      36.751  21.987  24.053  1.00  0.00     0.013 C 
BRANCH  29  31
ATOM     31  C   UNL A   1      34.907  21.050  25.691  1.00  0.00     0.267 C 
BRANCH  31  32
ATOM     32  N   UNL A   1      34.399  20.186  24.624  1.00  0.00    -0.335 N 
ATOM     33  C   UNL A   1      32.944  20.166  24.489  1.00  0.00     0.262 C 
ATOM     34  C   UNL A   1      34.869  18.807  24.649  1.00  0.00     0.262 C 
ATOM     35  H   UNL A   1      34.807  20.645  23.809  1.00  0.00     0.348 HD
ATOM     36  C   UNL A   1      32.504  18.891  25.177  1.00  0.00     0.067 C 
ATOM     37  C   UNL A   1      33.655  17.931  24.933  1.00  0.00     0.067 C 
ENDBRANCH  31  32
ENDBRANCH  29  31
ENDBRANCH  10  25
ENDBRANCH   4   7
ENDBRANCH   2   3
ENDBRANCH   1   2
BRANCH   1  38
ATOM     38  C   UNL A   1      34.603  30.116  26.815  1.00  0.00     0.023 C 
BRANCH  38  39
ATOM     39  C   UNL A   1      34.919  30.507  28.248  1.00  0.00     0.116 C 
BRANCH  39  40
ATOM     40  N   UNL A   1      35.983  31.484  28.407  1.00  0.00    -0.352 N 
ATOM     41  C   UNL A   1      37.295  31.273  28.801  1.00  0.00     0.251 C 
ATOM     42  H   UNL A   1      35.741  32.417  28.208  1.00  0.00     0.163 HD
ATOM     43  O   UNL A   1      38.023  32.203  29.139  1.00  0.00    -0.269 OA
BRANCH  41  44
ATOM     44  C   UNL A   1      37.901  29.930  28.602  1.00  0.00     0.039 A 
ATOM     45  C   UNL A   1      37.805  29.049  29.693  1.00  0.00     0.014 A 
ATOM     46  C   UNL A   1      38.831  29.699  27.600  1.00  0.00     0.014 A 
ATOM     47  C   UNL A   1      38.837  28.158  29.937  1.00  0.00     0.010 A 
ATOM     48  C   UNL A   1      39.931  28.949  27.914  1.00  0.00     0.010 A 
ATOM     49  C   UNL A   1      39.949  28.238  29.112  1.00  0.00    -0.014 A 
BRANCH  49  50
ATOM     50  C   UNL A   1      41.205  27.579  29.363  1.00  0.00     0.031 A 
ATOM     51  C   UNL A   1      41.305  26.182  28.937  1.00  0.00     0.074 A 
ATOM     52  C   UNL A   1      42.247  28.337  29.763  1.00  0.00     0.049 A 
ATOM     53  N   UNL A   1      42.247  25.384  29.264  1.00  0.00    -0.248 NA
ATOM     54  C   UNL A   1      40.288  25.549  28.098  1.00  0.00     0.031 C 
ATOM     55  C   UNL A   1      43.663  27.995  29.810  1.00  0.00     0.029 A 
ATOM     56  N   UNL A   1      42.199  29.565  30.408  1.00  0.00    -0.354 N 
ATOM     57  C   UNL A   1      42.175  24.298  28.420  1.00  0.00     0.074 A 
ATOM     58  C   UNL A   1      40.870  24.380  27.825  1.00  0.00     0.031 C 
ATOM     59  C   UNL A   1      44.259  28.765  30.741  1.00  0.00     0.029 A 
ATOM     60  C   UNL A   1      43.195  29.525  31.391  1.00  0.00     0.049 A 
ATOM     61  H   UNL A   1      41.588  30.311  30.215  1.00  0.00     0.167 HD
ATOM     62  C   UNL A   1      43.319  23.583  28.223  1.00  0.00     0.034 A 
ATOM     63  C   UNL A   1      42.903  29.504  32.723  1.00  0.00     0.034 A 
ATOM     64  C   UNL A   1      44.349  24.046  29.168  1.00  0.00     0.049 A 
ATOM     65  C   UNL A   1      43.411  28.177  33.276  1.00  0.00     0.074 A 
ATOM     66  C   UNL A   1      45.460  24.863  29.040  1.00  0.00     0.029 A 
ATOM     67  N   UNL A   1      44.070  23.988  30.535  1.00  0.00    -0.354 N 
ATOM     68  N   UNL A   1      43.476  27.065  32.578  1.00  0.00    -0.248 NA
ATOM     69  C   UNL A   1      44.060  28.062  34.577  1.00  0.00     0.031 C 
ATOM     70  C   UNL A   1      45.760  25.392  30.334  1.00  0.00     0.029 A 
ATOM     71  C   UNL A   1      44.848  24.881  31.248  1.00  0.00     0.049 A 
ATOM     72  H   UNL A   1      43.403  23.387  30.940  1.00  0.00     0.167 HD
ATOM     73  C   UNL A   1      44.280  26.165  33.233  1.00  0.00     0.074 A 
ATOM     74  C   UNL A   1      44.582  26.826  34.498  1.00  0.00     0.031 C 
ATOM     75  C   UNL A   1      44.721  24.979  32.700  1.00  0.00     0.034 A 
BRANCH  62  76
ATOM     76  C   UNL A   1      43.603  22.688  27.029  1.00  0.00     0.023 A 
ATOM     77  C   UNL A   1      43.028  21.399  27.006  1.00  0.00     0.031 A 
ATOM     78  C   UNL A   1      44.450  22.973  25.936  1.00  0.00     0.131 A 
ATOM     79  C   UNL A   1      43.330  20.468  25.990  1.00  0.00     0.055 A 
ATOM     80  C   UNL A   1      44.763  22.045  24.932  1.00  0.00     0.041 A 
ATOM     81  F   UNL A   1      45.010  24.169  25.745  1.00  0.00    -0.206 F 
ATOM     82  C   UNL A   1      44.206  20.781  24.957  1.00  0.00     0.022 A 
BRANCH  79  83
ATOM     83  S   UNL A   1      42.562  18.828  26.041  1.00  0.00     0.124 S 
ATOM     84  O   UNL A   1      41.178  19.128  25.690  1.00  0.00    -0.237 OA
ATOM     85  O   UNL A   1      43.339  18.093  25.049  1.00  0.00    -0.237 OA
ATOM     86  O   UNL A   1      42.769  18.400  27.423  1.00  0.00    -0.744 OA
ENDBRANCH  79  83
ENDBRANCH  62  76
BRANCH  63  87
ATOM     87  C   UNL A   1      41.635  30.243  33.047  1.00  0.00     0.023 A 
ATOM     88  C   UNL A   1      41.696  31.664  33.012  1.00  0.00     0.031 A 
ATOM     89  C   UNL A   1      40.371  29.657  32.907  1.00  0.00     0.131 A 
ATOM     90  C   UNL A   1      40.579  32.420  32.602  1.00  0.00     0.055 A 
ATOM     91  C   UNL A   1      39.240  30.430  32.595  1.00  0.00     0.041 A 
ATOM     92  F   UNL A   1      40.232  28.324  32.913  1.00  0.00    -0.206 F 
ATOM     93  C   UNL A   1      39.352  31.805  32.380  1.00  0.00     0.022 A 
BRANCH  90  94
ATOM     94  S   UNL A   1      40.827  34.148  32.063  1.00  0.00     0.124 S 
ATOM     95  O   UNL A   1      40.479  34.889  33.267  1.00  0.00    -0.237 OA
ATOM     96  O   UNL A   1      42.230  34.143  31.667  1.00  0.00    -0.237 OA
ATOM     97  O   UNL A   1      39.910  34.310  30.935  1.00  0.00    -0.744 OA
ENDBRANCH  90  94
ENDBRANCH  63  87
BRANCH  75  98
ATOM     98  C   UNL A   1      45.167  23.795  33.535  1.00  0.00     0.023 A 
ATOM     99  C   UNL A   1      46.489  23.642  33.966  1.00  0.00     0.031 A 
ATOM    100  C   UNL A   1      44.252  22.835  34.041  1.00  0.00     0.131 A 
ATOM    101  C   UNL A   1      46.885  22.542  34.737  1.00  0.00     0.055 A 
ATOM    102  C   UNL A   1      44.627  21.809  34.912  1.00  0.00     0.041 A 
ATOM    103  F   UNL A   1      42.947  22.858  33.737  1.00  0.00    -0.206 F 
ATOM    104  C   UNL A   1      45.960  21.640  35.246  1.00  0.00     0.022 A 
BRANCH 101 105
ATOM    105  S   UNL A   1      48.660  22.282  34.955  1.00  0.00     0.124 S 
ATOM    106  O   UNL A   1      48.833  22.600  36.370  1.00  0.00    -0.237 OA
ATOM    107  O   UNL A   1      48.818  20.876  34.600  1.00  0.00    -0.237 OA
ATOM    108  O   UNL A   1      49.263  23.234  34.025  1.00  0.00    -0.744 OA
ENDBRANCH 101 105
ENDBRANCH  75  98
ENDBRANCH  49  50
ENDBRANCH  41  44
ENDBRANCH  39  40
ENDBRANCH  38  39
ENDBRANCH   1  38
TORSDOF 20
ENDMDL
MODEL 2
REMARK VINA RESULT:     -11.7      3.307      4.845
REMARK SMILES Cc1cccc(S(=O)(=O)Nc2cc(C(=O)NCCCCNC(=O)c3ccc(-c4c5nc(c(-c6cc(S(=O)(=O)[O-])ccc6F)c6ccc([nH]6)c(-c6cc(S(=O)(=O)[O-])ccc6F)c6nc(c(-c7cc(S(=O)(=O)[O-])ccc7F)c7ccc4[nH]7)C=C6)C=C5)cc3)ccc2N2CCC[C@H](C[NH+]3CCCC3)C2)c1
REMARK SMILES IDX 18 1 17 2 16 3 14 4 15 5 13 7 11 8 12 9 89 10 88 11 87 12
REMARK SMILES IDX 10 13 7 15 8 16 9 17 6 18 1 19 2 20 3 21 102 22 4 23 5 24
REMARK SMILES IDX 90 25 91 26 101 27 92 28 94 29 93 30 95 31 96 32 97 33
REMARK SMILES IDX 100 34 98 36 99 37 19 38 20 39 21 40 22 41 23 43 24 44 25 45
REMARK SMILES IDX 86 46 26 47 85 48 27 49 28 50 29 51 79 52 30 53 84 54 78 55
REMARK SMILES IDX 80 56 31 57 83 58 77 59 76 60 32 62 64 63 44 64 63 65 45 66
REMARK SMILES IDX 48 67 62 68 81 69 46 70 47 71 61 73 82 74 49 75 33 76 34 77
REMARK SMILES IDX 42 78 35 79 41 80 43 81 40 82 36 83 37 84 38 85 39 86 65 87
REMARK SMILES IDX 66 88 74 89 67 90 73 91 75 92 72 93 68 94 69 95 70 96 71 97
REMARK SMILES IDX 50 98 51 99 59 100 52 101 58 102 60 103 57 104 53 105 54 106
REMARK SMILES IDX 55 107 56 108
REMARK H PARENT 16 6 10 14 96 35 21 42 80 61 48 72
REMARK Flexibility Score: inf
ROOT
ATOM      1  C   UNL A   1      34.650  31.993  28.968  1.00  0.00     0.023 C 
ENDROOT
BRANCH   1   2
ATOM      2  C   UNL A   1      34.273  30.891  27.969  1.00  0.00     0.116 C 
BRANCH   2   3
ATOM      3  N   UNL A   1      33.015  31.208  27.300  1.00  0.00    -0.352 N 
ATOM      4  C   UNL A   1      32.304  30.577  26.315  1.00  0.00     0.251 C 
ATOM      5  O   UNL A   1      31.276  31.127  25.910  1.00  0.00    -0.269 OA
ATOM      6  H   UNL A   1      32.596  32.039  27.622  1.00  0.00     0.163 HD
BRANCH   4   7
ATOM      7  C   UNL A   1      32.655  29.234  25.772  1.00  0.00     0.042 A 
ATOM      8  C   UNL A   1      32.111  26.959  25.126  1.00  0.00     0.073 A 
ATOM      9  C   UNL A   1      31.873  28.089  25.909  1.00  0.00     0.042 A 
ATOM     10  C   UNL A   1      33.284  26.854  24.358  1.00  0.00     0.061 A 
ATOM     11  C   UNL A   1      34.135  27.966  24.317  1.00  0.00     0.029 A 
ATOM     12  C   UNL A   1      33.808  29.152  24.979  1.00  0.00     0.016 A 
BRANCH   8  13
ATOM     13  N   UNL A   1      31.069  25.973  25.084  1.00  0.00    -0.277 N 
ATOM     14  H   UNL A   1      31.121  25.174  25.656  1.00  0.00     0.180 HD
BRANCH  13  15
ATOM     15  S   UNL A   1      29.722  26.191  24.022  1.00  0.00     0.261 S 
ATOM     16  O   UNL A   1      28.558  25.955  24.829  1.00  0.00    -0.201 OA
ATOM     17  O   UNL A   1      29.922  25.319  22.871  1.00  0.00    -0.201 OA
BRANCH  15  18
ATOM     18  C   UNL A   1      29.687  27.847  23.368  1.00  0.00     0.088 A 
ATOM     19  C   UNL A   1      27.613  31.067  23.356  1.00  0.00     0.044 C 
ATOM     20  C   UNL A   1      28.704  30.070  23.113  1.00  0.00    -0.050 A 
ATOM     21  C   UNL A   1      29.642  30.362  22.131  1.00  0.00     0.003 A 
ATOM     22  C   UNL A   1      28.778  28.834  23.784  1.00  0.00     0.025 A 
ATOM     23  C   UNL A   1      30.589  29.411  21.796  1.00  0.00     0.002 A 
ATOM     24  C   UNL A   1      30.630  28.165  22.404  1.00  0.00     0.022 A 
ENDBRANCH  15  18
ENDBRANCH  13  15
ENDBRANCH   8  13
BRANCH  10  25
ATOM     25  N   UNL A   1      33.648  25.730  23.645  1.00  0.00    -0.369 N 
ATOM     26  C   UNL A   1      33.371  25.689  22.220  1.00  0.00     0.116 C 
ATOM     27  C   UNL A   1      34.549  24.742  24.215  1.00  0.00     0.126 C 
ATOM     28  C   UNL A   1      32.885  24.289  21.858  1.00  0.00     0.022 C 
ATOM     29  C   UNL A   1      34.095  23.319  23.884  1.00  0.00     0.064 C 
ATOM     30  C   UNL A   1      33.859  23.227  22.367  1.00  0.00     0.013 C 
BRANCH  29  31
ATOM     31  C   UNL A   1      32.904  22.967  24.812  1.00  0.00     0.267 C 
BRANCH  31  32
ATOM     32  N   UNL A   1      32.942  21.759  25.639  1.00  0.00    -0.335 N 
ATOM     33  C   UNL A   1      34.271  21.178  25.817  1.00  0.00     0.262 C 
ATOM     34  C   UNL A   1      32.031  20.692  25.245  1.00  0.00     0.262 C 
ATOM     35  H   UNL A   1      32.619  22.138  26.530  1.00  0.00     0.348 HD
ATOM     36  C   UNL A   1      34.327  20.021  24.841  1.00  0.00     0.067 C 
ATOM     37  C   UNL A   1      32.893  19.521  24.789  1.00  0.00     0.067 C 
ENDBRANCH  31  32
ENDBRANCH  29  31
ENDBRANCH  10  25
ENDBRANCH   4   7
ENDBRANCH   2   3
ENDBRANCH   1   2
BRANCH   1  38
ATOM     38  C   UNL A   1      35.890  32.771  28.553  1.00  0.00     0.023 C 
BRANCH  38  39
ATOM     39  C   UNL A   1      35.862  34.218  29.013  1.00  0.00     0.116 C 
BRANCH  39  40
ATOM     40  N   UNL A   1      34.732  34.583  29.851  1.00  0.00    -0.352 N 
ATOM     41  C   UNL A   1      34.494  34.244  31.174  1.00  0.00     0.251 C 
ATOM     42  H   UNL A   1      34.047  35.146  29.423  1.00  0.00     0.163 HD
ATOM     43  O   UNL A   1      33.391  34.402  31.691  1.00  0.00    -0.269 OA
BRANCH  41  44
ATOM     44  C   UNL A   1      35.645  33.891  32.047  1.00  0.00     0.039 A 
ATOM     45  C   UNL A   1      36.804  34.665  31.871  1.00  0.00     0.014 A 
ATOM     46  C   UNL A   1      35.718  32.661  32.683  1.00  0.00     0.014 A 
ATOM     47  C   UNL A   1      38.046  34.071  32.026  1.00  0.00     0.010 A 
ATOM     48  C   UNL A   1      36.923  32.014  32.679  1.00  0.00     0.010 A 
ATOM     49  C   UNL A   1      38.065  32.709  32.287  1.00  0.00    -0.014 A 
BRANCH  49  50
ATOM     50  C   UNL A   1      39.243  31.880  32.229  1.00  0.00     0.031 A 
ATOM     51  C   UNL A   1      39.112  30.612  31.507  1.00  0.00     0.074 A 
ATOM     52  C   UNL A   1      40.411  32.413  32.641  1.00  0.00     0.049 A 
ATOM     53  N   UNL A   1      39.969  29.666  31.534  1.00  0.00    -0.248 NA
ATOM     54  C   UNL A   1      37.940  30.296  30.693  1.00  0.00     0.031 C 
ATOM     55  C   UNL A   1      41.767  31.921  32.431  1.00  0.00     0.029 A 
ATOM     56  N   UNL A   1      40.592  33.462  33.532  1.00  0.00    -0.354 N 
ATOM     57  C   UNL A   1      39.668  28.811  30.497  1.00  0.00     0.074 A 
ATOM     58  C   UNL A   1      38.331  29.164  30.107  1.00  0.00     0.031 C 
ATOM     59  C   UNL A   1      42.552  32.393  33.419  1.00  0.00     0.029 A 
ATOM     60  C   UNL A   1      41.670  33.096  34.346  1.00  0.00     0.049 A 
ATOM     61  H   UNL A   1      40.068  34.294  33.581  1.00  0.00     0.167 HD
ATOM     62  C   UNL A   1      40.680  28.042  30.007  1.00  0.00     0.034 A 
ATOM     63  C   UNL A   1      41.516  32.806  35.671  1.00  0.00     0.034 A 
ATOM     64  C   UNL A   1      41.855  28.167  30.887  1.00  0.00     0.049 A 
ATOM     65  C   UNL A   1      41.899  31.343  35.861  1.00  0.00     0.074 A 
ATOM     66  C   UNL A   1      43.045  28.869  30.791  1.00  0.00     0.029 A 
ATOM     67  N   UNL A   1      41.712  27.833  32.235  1.00  0.00    -0.354 N 
ATOM     68  N   UNL A   1      41.744  30.417  34.942  1.00  0.00    -0.248 NA
ATOM     69  C   UNL A   1      42.657  30.870  37.012  1.00  0.00     0.031 C 
ATOM     70  C   UNL A   1      43.543  29.059  32.118  1.00  0.00     0.029 A 
ATOM     71  C   UNL A   1      42.670  28.455  33.014  1.00  0.00     0.049 A 
ATOM     72  H   UNL A   1      41.017  27.231  32.587  1.00  0.00     0.167 HD
ATOM     73  C   UNL A   1      42.485  29.312  35.282  1.00  0.00     0.074 A 
ATOM     74  C   UNL A   1      43.000  29.634  36.608  1.00  0.00     0.031 C 
ATOM     75  C   UNL A   1      42.707  28.236  34.458  1.00  0.00     0.034 A 
BRANCH  62  76
ATOM     76  C   UNL A   1      40.719  27.413  28.625  1.00  0.00     0.023 A 
ATOM     77  C   UNL A   1      40.815  26.008  28.530  1.00  0.00     0.031 A 
ATOM     78  C   UNL A   1      40.737  28.089  27.385  1.00  0.00     0.131 A 
ATOM     79  C   UNL A   1      40.967  25.355  27.289  1.00  0.00     0.055 A 
ATOM     80  C   UNL A   1      40.902  27.442  26.151  1.00  0.00     0.041 A 
ATOM     81  F   UNL A   1      40.569  29.407  27.275  1.00  0.00    -0.206 F 
ATOM     82  C   UNL A   1      41.022  26.068  26.096  1.00  0.00     0.022 A 
BRANCH  79  83
ATOM     83  S   UNL A   1      41.098  23.548  27.253  1.00  0.00     0.124 S 
ATOM     84  O   UNL A   1      41.736  23.263  28.534  1.00  0.00    -0.237 OA
ATOM     85  O   UNL A   1      39.704  23.140  27.118  1.00  0.00    -0.237 OA
ATOM     86  O   UNL A   1      41.930  23.293  26.079  1.00  0.00    -0.744 OA
ENDBRANCH  79  83
ENDBRANCH  62  76
BRANCH  63  87
ATOM     87  C   UNL A   1      40.397  33.585  36.304  1.00  0.00     0.023 A 
ATOM     88  C   UNL A   1      39.247  32.847  36.699  1.00  0.00     0.031 A 
ATOM     89  C   UNL A   1      40.608  34.819  36.931  1.00  0.00     0.131 A 
ATOM     90  C   UNL A   1      38.508  33.225  37.838  1.00  0.00     0.055 A 
ATOM     91  C   UNL A   1      39.803  35.237  38.005  1.00  0.00     0.041 A 
ATOM     92  F   UNL A   1      41.677  35.567  36.626  1.00  0.00    -0.206 F 
ATOM     93  C   UNL A   1      38.791  34.413  38.502  1.00  0.00     0.022 A 
BRANCH  90  94
ATOM     94  S   UNL A   1      37.395  32.005  38.618  1.00  0.00     0.124 S 
ATOM     95  O   UNL A   1      38.016  31.826  39.923  1.00  0.00    -0.237 OA
ATOM     96  O   UNL A   1      36.113  32.697  38.581  1.00  0.00    -0.237 OA
ATOM     97  O   UNL A   1      37.451  30.844  37.729  1.00  0.00    -0.744 OA
ENDBRANCH  90  94
ENDBRANCH  63  87
BRANCH  75  98
ATOM     98  C   UNL A   1      43.076  26.853  34.960  1.00  0.00     0.023 A 
ATOM     99  C   UNL A   1      44.207  26.171  34.500  1.00  0.00     0.031 A 
ATOM    100  C   UNL A   1      42.376  26.218  36.017  1.00  0.00     0.131 A 
ATOM    101  C   UNL A   1      44.534  24.894  34.972  1.00  0.00     0.055 A 
ATOM    102  C   UNL A   1      42.776  25.001  36.574  1.00  0.00     0.041 A 
ATOM    103  F   UNL A   1      41.285  26.755  36.580  1.00  0.00    -0.206 F 
ATOM    104  C   UNL A   1      43.851  24.314  36.033  1.00  0.00     0.022 A 
BRANCH 101 105
ATOM    105  S   UNL A   1      45.814  23.984  34.079  1.00  0.00     0.124 S 
ATOM    106  O   UNL A   1      45.990  24.814  32.890  1.00  0.00    -0.237 OA
ATOM    107  O   UNL A   1      46.925  23.992  35.024  1.00  0.00    -0.237 OA
ATOM    108  O   UNL A   1      45.204  22.678  33.841  1.00  0.00    -0.744 OA
ENDBRANCH 101 105
ENDBRANCH  75  98
ENDBRANCH  49  50
ENDBRANCH  41  44
ENDBRANCH  39  40
ENDBRANCH  38  39
ENDBRANCH   1  38
TORSDOF 20
ENDMDL
MODEL 3
REMARK VINA RESULT:     -11.5      1.500      2.272
REMARK SMILES Cc1cccc(S(=O)(=O)Nc2cc(C(=O)NCCCCNC(=O)c3ccc(-c4c5nc(c(-c6cc(S(=O)(=O)[O-])ccc6F)c6ccc([nH]6)c(-c6cc(S(=O)(=O)[O-])ccc6F)c6nc(c(-c7cc(S(=O)(=O)[O-])ccc7F)c7ccc4[nH]7)C=C6)C=C5)cc3)ccc2N2CCC[C@H](C[NH+]3CCCC3)C2)c1
REMARK SMILES IDX 18 1 17 2 16 3 14 4 15 5 13 7 11 8 12 9 89 10 88 11 87 12
REMARK SMILES IDX 10 13 7 15 8 16 9 17 6 18 1 19 2 20 3 21 102 22 4 23 5 24
REMARK SMILES IDX 90 25 91 26 101 27 92 28 94 29 93 30 95 31 96 32 97 33
REMARK SMILES IDX 100 34 98 36 99 37 19 38 20 39 21 40 22 41 23 43 24 44 25 45
REMARK SMILES IDX 86 46 26 47 85 48 27 49 28 50 29 51 79 52 30 53 84 54 78 55
REMARK SMILES IDX 80 56 31 57 83 58 77 59 76 60 32 62 64 63 44 64 63 65 45 66
REMARK SMILES IDX 48 67 62 68 81 69 46 70 47 71 61 73 82 74 49 75 33 76 34 77
REMARK SMILES IDX 42 78 35 79 41 80 43 81 40 82 36 83 37 84 38 85 39 86 65 87
REMARK SMILES IDX 66 88 74 89 67 90 73 91 75 92 72 93 68 94 69 95 70 96 71 97
REMARK SMILES IDX 50 98 51 99 59 100 52 101 58 102 60 103 57 104 53 105 54 106
REMARK SMILES IDX 55 107 56 108
REMARK H PARENT 16 6 10 14 96 35 21 42 80 61 48 72
REMARK Flexibility Score: inf
ROOT
ATOM      1  C   UNL A   1      34.531  32.418  28.541  1.00  0.00     0.023 C 
ENDROOT
BRANCH   1   2
ATOM      2  C   UNL A   1      34.077  31.120  27.862  1.00  0.00     0.116 C 
BRANCH   2   3
ATOM      3  N   UNL A   1      32.908  31.358  27.021  1.00  0.00    -0.352 N 
ATOM      4  C   UNL A   1      32.110  30.524  26.284  1.00  0.00     0.251 C 
ATOM      5  O   UNL A   1      31.205  31.037  25.620  1.00  0.00    -0.269 OA
ATOM      6  H   UNL A   1      32.642  32.304  26.974  1.00  0.00     0.163 HD
BRANCH   4   7
ATOM      7  C   UNL A   1      32.220  29.037  26.311  1.00  0.00     0.042 A 
ATOM      8  C   UNL A   1      31.305  26.801  26.078  1.00  0.00     0.073 A 
ATOM      9  C   UNL A   1      31.140  28.158  26.362  1.00  0.00     0.042 A 
ATOM     10  C   UNL A   1      32.590  26.243  25.972  1.00  0.00     0.061 A 
ATOM     11  C   UNL A   1      33.685  27.114  26.041  1.00  0.00     0.029 A 
ATOM     12  C   UNL A   1      33.505  28.493  26.168  1.00  0.00     0.016 A 
BRANCH   8  13
ATOM     13  N   UNL A   1      30.110  26.048  25.820  1.00  0.00    -0.277 N 
ATOM     14  H   UNL A   1      29.694  25.520  26.539  1.00  0.00     0.180 HD
BRANCH  13  15
ATOM     15  S   UNL A   1      29.407  26.068  24.241  1.00  0.00     0.261 S 
ATOM     16  O   UNL A   1      27.994  25.931  24.452  1.00  0.00    -0.201 OA
ATOM     17  O   UNL A   1      30.066  25.035  23.451  1.00  0.00    -0.201 OA
BRANCH  15  18
ATOM     18  C   UNL A   1      29.754  27.602  23.407  1.00  0.00     0.088 A 
ATOM     19  C   UNL A   1      28.074  30.738  21.988  1.00  0.00     0.044 C 
ATOM     20  C   UNL A   1      29.106  29.739  22.413  1.00  0.00    -0.050 A 
ATOM     21  C   UNL A   1      30.399  29.897  21.930  1.00  0.00     0.003 A 
ATOM     22  C   UNL A   1      28.807  28.622  23.218  1.00  0.00     0.025 A 
ATOM     23  C   UNL A   1      31.346  28.925  22.202  1.00  0.00     0.002 A 
ATOM     24  C   UNL A   1      31.045  27.788  22.939  1.00  0.00     0.022 A 
ENDBRANCH  15  18
ENDBRANCH  13  15
ENDBRANCH   8  13
BRANCH  10  25
ATOM     25  N   UNL A   1      32.841  24.897  25.803  1.00  0.00    -0.369 N 
ATOM     26  C   UNL A   1      32.283  23.959  26.761  1.00  0.00     0.116 C 
ATOM     27  C   UNL A   1      33.381  24.387  24.553  1.00  0.00     0.126 C 
ATOM     28  C   UNL A   1      33.327  22.887  27.058  1.00  0.00     0.022 C 
ATOM     29  C   UNL A   1      34.440  23.312  24.802  1.00  0.00     0.064 C 
ATOM     30  C   UNL A   1      33.852  22.266  25.764  1.00  0.00     0.013 C 
BRANCH  29  31
ATOM     31  C   UNL A   1      35.750  24.021  25.236  1.00  0.00     0.267 C 
BRANCH  31  32
ATOM     32  N   UNL A   1      37.045  23.554  24.735  1.00  0.00    -0.335 N 
ATOM     33  C   UNL A   1      36.978  22.400  23.841  1.00  0.00     0.262 C 
ATOM     34  C   UNL A   1      38.055  23.282  25.749  1.00  0.00     0.262 C 
ATOM     35  H   UNL A   1      37.340  24.374  24.205  1.00  0.00     0.348 HD
ATOM     36  C   UNL A   1      37.342  21.212  24.706  1.00  0.00     0.067 C 
ATOM     37  C   UNL A   1      38.327  21.783  25.711  1.00  0.00     0.067 C 
ENDBRANCH  31  32
ENDBRANCH  29  31
ENDBRANCH  10  25
ENDBRANCH   4   7
ENDBRANCH   2   3
ENDBRANCH   1   2
BRANCH   1  38
ATOM     38  C   UNL A   1      35.849  32.946  27.991  1.00  0.00     0.023 C 
BRANCH  38  39
ATOM     39  C   UNL A   1      36.974  32.901  29.009  1.00  0.00     0.116 C 
BRANCH  39  40
ATOM     40  N   UNL A   1      36.679  32.174  30.232  1.00  0.00    -0.352 N 
ATOM     41  C   UNL A   1      36.819  30.818  30.484  1.00  0.00     0.251 C 
ATOM     42  H   UNL A   1      36.337  32.715  30.980  1.00  0.00     0.163 HD
ATOM     43  O   UNL A   1      36.303  30.289  31.465  1.00  0.00    -0.269 OA
BRANCH  41  44
ATOM     44  C   UNL A   1      37.790  30.031  29.678  1.00  0.00     0.039 A 
ATOM     45  C   UNL A   1      37.648  28.635  29.745  1.00  0.00     0.014 A 
ATOM     46  C   UNL A   1      38.977  30.590  29.230  1.00  0.00     0.014 A 
ATOM     47  C   UNL A   1      38.778  27.835  29.685  1.00  0.00     0.010 A 
ATOM     48  C   UNL A   1      40.114  29.837  29.335  1.00  0.00     0.010 A 
ATOM     49  C   UNL A   1      40.004  28.479  29.628  1.00  0.00    -0.014 A 
BRANCH  49  50
ATOM     50  C   UNL A   1      41.279  27.833  29.813  1.00  0.00     0.031 A 
ATOM     51  C   UNL A   1      41.406  26.477  29.274  1.00  0.00     0.074 A 
ATOM     52  C   UNL A   1      42.308  28.581  30.262  1.00  0.00     0.049 A 
ATOM     53  N   UNL A   1      42.371  25.679  29.527  1.00  0.00    -0.248 NA
ATOM     54  C   UNL A   1      40.395  25.889  28.398  1.00  0.00     0.031 C 
ATOM     55  C   UNL A   1      43.731  28.272  30.267  1.00  0.00     0.029 A 
ATOM     56  N   UNL A   1      42.238  29.752  31.005  1.00  0.00    -0.354 N 
ATOM     57  C   UNL A   1      42.315  24.663  28.599  1.00  0.00     0.074 A 
ATOM     58  C   UNL A   1      41.001  24.761  28.026  1.00  0.00     0.031 C 
ATOM     59  C   UNL A   1      44.320  28.978  31.252  1.00  0.00     0.029 A 
ATOM     60  C   UNL A   1      43.246  29.658  31.971  1.00  0.00     0.049 A 
ATOM     61  H   UNL A   1      41.607  30.496  30.878  1.00  0.00     0.167 HD
ATOM     62  C   UNL A   1      43.472  23.994  28.333  1.00  0.00     0.034 A 
ATOM     63  C   UNL A   1      42.970  29.522  33.300  1.00  0.00     0.034 A 
ATOM     64  C   UNL A   1      44.503  24.404  29.303  1.00  0.00     0.049 A 
ATOM     65  C   UNL A   1      43.516  28.168  33.740  1.00  0.00     0.074 A 
ATOM     66  C   UNL A   1      45.592  25.256  29.230  1.00  0.00     0.029 A 
ATOM     67  N   UNL A   1      44.240  24.230  30.663  1.00  0.00    -0.354 N 
ATOM     68  N   UNL A   1      43.598  27.118  32.954  1.00  0.00    -0.248 NA
ATOM     69  C   UNL A   1      44.182  27.965  35.020  1.00  0.00     0.031 C 
ATOM     70  C   UNL A   1      45.894  25.687  30.560  1.00  0.00     0.029 A 
ATOM     71  C   UNL A   1      45.005  25.082  31.438  1.00  0.00     0.049 A 
ATOM     72  H   UNL A   1      43.593  23.583  31.025  1.00  0.00     0.167 HD
ATOM     73  C   UNL A   1      44.431  26.188  33.526  1.00  0.00     0.074 A 
ATOM     74  C   UNL A   1      44.732  26.752  34.837  1.00  0.00     0.031 C 
ATOM     75  C   UNL A   1      44.893  25.059  32.895  1.00  0.00     0.034 A 
BRANCH  62  76
ATOM     76  C   UNL A   1      43.763  23.205  27.069  1.00  0.00     0.023 A 
ATOM     77  C   UNL A   1      43.173  21.930  26.924  1.00  0.00     0.031 A 
ATOM     78  C   UNL A   1      44.630  23.575  26.017  1.00  0.00     0.131 A 
ATOM     79  C   UNL A   1      43.480  21.090  25.834  1.00  0.00     0.055 A 
ATOM     80  C   UNL A   1      44.946  22.735  24.939  1.00  0.00     0.041 A 
ATOM     81  F   UNL A   1      45.206  24.776  25.941  1.00  0.00    -0.206 F 
ATOM     82  C   UNL A   1      44.374  21.482  24.843  1.00  0.00     0.022 A 
BRANCH  79  83
ATOM     83  S   UNL A   1      42.692  19.461  25.727  1.00  0.00     0.124 S 
ATOM     84  O   UNL A   1      41.293  19.812  25.508  1.00  0.00    -0.237 OA
ATOM     85  O   UNL A   1      43.393  18.852  24.603  1.00  0.00    -0.237 OA
ATOM     86  O   UNL A   1      42.981  18.860  27.029  1.00  0.00    -0.744 OA
ENDBRANCH  79  83
ENDBRANCH  62  76
BRANCH  63  87
ATOM     87  C   UNL A   1      41.689  30.203  33.695  1.00  0.00     0.023 A 
ATOM     88  C   UNL A   1      41.733  31.617  33.840  1.00  0.00     0.031 A 
ATOM     89  C   UNL A   1      40.435  29.626  33.462  1.00  0.00     0.131 A 
ATOM     90  C   UNL A   1      40.614  32.407  33.511  1.00  0.00     0.055 A 
ATOM     91  C   UNL A   1      39.299  30.421  33.233  1.00  0.00     0.041 A 
ATOM     92  F   UNL A   1      40.311  28.302  33.298  1.00  0.00    -0.206 F 
ATOM     93  C   UNL A   1      39.398  31.813  33.195  1.00  0.00     0.022 A 
BRANCH  90  94
ATOM     94  S   UNL A   1      40.849  34.192  33.199  1.00  0.00     0.124 S 
ATOM     95  O   UNL A   1      41.243  34.676  34.514  1.00  0.00    -0.237 OA
ATOM     96  O   UNL A   1      41.871  34.185  32.159  1.00  0.00    -0.237 OA
ATOM     97  O   UNL A   1      39.544  34.650  32.723  1.00  0.00    -0.744 OA
ENDBRANCH  90  94
ENDBRANCH  63  87
BRANCH  75  98
ATOM     98  C   UNL A   1      45.377  23.823  33.628  1.00  0.00     0.023 A 
ATOM     99  C   UNL A   1      46.679  23.714  34.127  1.00  0.00     0.031 A 
ATOM    100  C   UNL A   1      44.509  22.754  33.967  1.00  0.00     0.131 A 
ATOM    101  C   UNL A   1      47.111  22.565  34.801  1.00  0.00     0.055 A 
ATOM    102  C   UNL A   1      44.908  21.666  34.747  1.00  0.00     0.041 A 
ATOM    103  F   UNL A   1      43.225  22.722  33.581  1.00  0.00    -0.206 F 
ATOM    104  C   UNL A   1      46.228  21.552  35.149  1.00  0.00     0.022 A 
BRANCH 101 105
ATOM    105  S   UNL A   1      48.884  22.404  35.107  1.00  0.00     0.124 S 
ATOM    106  O   UNL A   1      48.908  21.418  36.185  1.00  0.00    -0.237 OA
ATOM    107  O   UNL A   1      49.386  21.941  33.818  1.00  0.00    -0.237 OA
ATOM    108  O   UNL A   1      49.291  23.754  35.488  1.00  0.00    -0.744 OA
ENDBRANCH 101 105
ENDBRANCH  75  98
ENDBRANCH  49  50
ENDBRANCH  41  44
ENDBRANCH  39  40
ENDBRANCH  38  39
ENDBRANCH   1  38
TORSDOF 20
ENDMDL
