MODEL 1
REMARK VINA RESULT:     -12.7      0.000      0.000
REMARK SMILES O=C(CNC(=O)[C@@H](CC1=c2ccccc2=NC1)N1C(=O)N=C2C=CC=C[C@H]2C1=O)NCCCCNC(=O)c1ccc(-c2c3nc(c(-c4cc(S(=O)(=O)[O-])ccc4F)c4ccc([nH]4)c(-c4cc(S(=O)(=O)[O-])ccc4F)c4nc(c(-c5cc(S(=O)(=O)[O-])ccc5F)c5ccc2[nH]5)C=C4)C=C3)cc1
REMARK SMILES IDX 32 1 31 2 30 3 1 4 2 5 3 7 4 8 5 9 6 11 7 12 8 13 9 14 10 15
REMARK SMILES IDX 17 16 11 17 15 18 16 19 12 20 14 21 13 22 18 23 19 24 28 25
REMARK SMILES IDX 21 26 20 27 27 28 29 29 22 30 26 31 23 32 25 33 24 34 33 35
REMARK SMILES IDX 34 36 35 37 36 38 37 40 38 41 39 42 100 43 40 44 99 45 41 46
REMARK SMILES IDX 42 47 43 48 93 49 44 50 98 51 92 52 94 53 45 54 97 55 91 56
REMARK SMILES IDX 90 57 46 59 78 60 58 61 77 62 59 63 62 64 76 65 95 66 60 67
REMARK SMILES IDX 61 68 75 70 96 71 63 72 47 73 48 74 56 75 49 76 55 77 57 78
REMARK SMILES IDX 54 79 50 80 51 81 52 82 53 83 79 84 80 85 88 86 81 87 87 88
REMARK SMILES IDX 89 89 86 90 82 91 83 92 84 93 85 94 64 95 65 96 73 97 66 98
REMARK SMILES IDX 72 99 74 100 71 101 67 102 68 103 69 104 70 105
REMARK H PARENT 30 6 4 10 35 39 94 58 62 69
REMARK Flexibility Score: inf
ROOT
ATOM      1  C   UNL A   1      34.854  33.218  28.616  1.00  0.00     0.023 C 
ENDROOT
BRANCH   1   2
ATOM      2  C   UNL A   1      33.596  32.569  28.016  1.00  0.00     0.116 C 
BRANCH   2   3
ATOM      3  N   UNL A   1      33.770  31.227  27.478  1.00  0.00    -0.355 N 
ATOM      4  O   UNL A   1      31.737  31.102  26.417  1.00  0.00    -0.273 OA
ATOM      5  C   UNL A   1      32.801  30.571  26.736  1.00  0.00     0.239 C 
ATOM      6  H   UNL A   1      34.620  30.759  27.651  1.00  0.00     0.163 HD
BRANCH   5   7
ATOM      7  C   UNL A   1      33.165  29.145  26.229  1.00  0.00     0.216 C 
BRANCH   7   8
ATOM      8  N   UNL A   1      32.055  28.303  25.739  1.00  0.00    -0.345 N 
ATOM      9  C   UNL A   1      31.605  27.249  26.521  1.00  0.00     0.244 C 
ATOM     10  H   UNL A   1      31.639  28.487  24.867  1.00  0.00     0.164 HD
ATOM     11  O   UNL A   1      31.544  27.401  27.745  1.00  0.00    -0.273 OA
BRANCH   9  12
ATOM     12  C   UNL A   1      31.080  25.947  25.803  1.00  0.00     0.188 C 
BRANCH  12  13
ATOM     13  C   UNL A   1      30.389  25.908  24.378  1.00  0.00     0.069 C 
BRANCH  13  14
ATOM     14  C   UNL A   1      29.395  26.927  23.886  1.00  0.00    -0.037 C 
ATOM     15  C   UNL A   1      29.506  28.033  23.144  1.00  0.00     0.001 A 
ATOM     16  C   UNL A   1      27.963  26.682  24.148  1.00  0.00     0.174 C 
ATOM     17  C   UNL A   1      30.549  28.776  22.513  1.00  0.00     0.010 A 
ATOM     18  C   UNL A   1      28.094  28.435  22.942  1.00  0.00     0.065 A 
ATOM     19  N   UNL A   1      27.170  27.674  23.429  1.00  0.00    -0.280 NA
ATOM     20  C   UNL A   1      30.225  29.888  21.824  1.00  0.00     0.001 A 
ATOM     21  C   UNL A   1      27.815  29.671  22.202  1.00  0.00     0.028 A 
ATOM     22  C   UNL A   1      28.853  30.354  21.702  1.00  0.00     0.002 A 
ENDBRANCH  13  14
ENDBRANCH  12  13
BRANCH  12  23
ATOM     23  N   UNL A   1      32.179  24.954  25.875  1.00  0.00    -0.249 N 
ATOM     24  C   UNL A   1      32.009  23.859  26.713  1.00  0.00     0.351 C 
ATOM     25  C   UNL A   1      33.317  25.178  25.115  1.00  0.00     0.244 C 
ATOM     26  N   UNL A   1      32.966  22.885  26.750  1.00  0.00    -0.197 NA
ATOM     27  O   UNL A   1      30.987  23.731  27.376  1.00  0.00    -0.246 OA
ATOM     28  C   UNL A   1      34.502  24.282  25.414  1.00  0.00     0.151 C 
ATOM     29  O   UNL A   1      33.397  26.096  24.295  1.00  0.00    -0.273 OA
ATOM     30  C   UNL A   1      34.089  23.022  26.135  1.00  0.00     0.062 C 
ATOM     31  C   UNL A   1      35.297  23.924  24.178  1.00  0.00    -0.007 C 
ATOM     32  C   UNL A   1      35.039  21.879  26.150  1.00  0.00     0.025 C 
ATOM     33  C   UNL A   1      35.945  22.753  24.066  1.00  0.00    -0.003 C 
ATOM     34  C   UNL A   1      35.913  21.787  25.140  1.00  0.00     0.002 C 
ENDBRANCH  12  23
ENDBRANCH   9  12
ENDBRANCH   7   8
ENDBRANCH   5   7
ENDBRANCH   2   3
ENDBRANCH   1   2
BRANCH   1  35
ATOM     35  C   UNL A   1      34.824  33.591  30.102  1.00  0.00     0.023 C 
BRANCH  35  36
ATOM     36  C   UNL A   1      34.604  32.450  31.087  1.00  0.00     0.116 C 
BRANCH  36  37
ATOM     37  N   UNL A   1      35.076  32.738  32.430  1.00  0.00    -0.352 N 
ATOM     38  C   UNL A   1      36.269  32.398  33.032  1.00  0.00     0.251 C 
ATOM     39  H   UNL A   1      34.452  33.251  32.993  1.00  0.00     0.163 HD
ATOM     40  O   UNL A   1      36.427  32.638  34.227  1.00  0.00    -0.269 OA
BRANCH  38  41
ATOM     41  C   UNL A   1      37.341  31.707  32.266  1.00  0.00     0.039 A 
ATOM     42  C   UNL A   1      38.088  30.670  32.826  1.00  0.00     0.014 A 
ATOM     43  C   UNL A   1      37.605  32.111  30.951  1.00  0.00     0.014 A 
ATOM     44  C   UNL A   1      39.195  30.161  32.148  1.00  0.00     0.010 A 
ATOM     45  C   UNL A   1      38.666  31.537  30.237  1.00  0.00     0.010 A 
ATOM     46  C   UNL A   1      39.506  30.594  30.848  1.00  0.00    -0.014 A 
BRANCH  46  47
ATOM     47  C   UNL A   1      40.705  30.043  30.154  1.00  0.00     0.031 A 
ATOM     48  C   UNL A   1      40.670  28.682  29.508  1.00  0.00     0.074 A 
ATOM     49  C   UNL A   1      41.821  30.794  30.061  1.00  0.00     0.049 A 
ATOM     50  N   UNL A   1      41.607  28.070  28.828  1.00  0.00    -0.248 NA
ATOM     51  C   UNL A   1      39.428  27.904  29.642  1.00  0.00     0.031 C 
ATOM     52  C   UNL A   1      41.983  32.123  30.652  1.00  0.00     0.029 A 
ATOM     53  N   UNL A   1      43.018  30.566  29.426  1.00  0.00    -0.354 N 
ATOM     54  C   UNL A   1      41.075  26.838  28.462  1.00  0.00     0.074 A 
ATOM     55  C   UNL A   1      39.746  26.771  29.029  1.00  0.00     0.031 C 
ATOM     56  C   UNL A   1      43.186  32.609  30.317  1.00  0.00     0.029 A 
ATOM     57  C   UNL A   1      43.912  31.605  29.542  1.00  0.00     0.049 A 
ATOM     58  H   UNL A   1      43.217  29.736  28.936  1.00  0.00     0.167 HD
ATOM     59  C   UNL A   1      41.635  25.862  27.707  1.00  0.00     0.034 A 
ATOM     60  C   UNL A   1      45.178  31.740  29.092  1.00  0.00     0.034 A 
ATOM     61  C   UNL A   1      42.952  25.946  27.128  1.00  0.00     0.049 A 
ATOM     62  C   UNL A   1      45.785  30.634  28.268  1.00  0.00     0.074 A 
ATOM     63  C   UNL A   1      43.590  25.017  26.323  1.00  0.00     0.029 A 
ATOM     64  N   UNL A   1      43.831  27.009  27.280  1.00  0.00    -0.354 N 
ATOM     65  N   UNL A   1      45.243  29.502  27.886  1.00  0.00    -0.248 NA
ATOM     66  C   UNL A   1      47.167  30.820  27.804  1.00  0.00     0.031 C 
ATOM     67  C   UNL A   1      44.871  25.489  26.039  1.00  0.00     0.029 A 
ATOM     68  C   UNL A   1      45.012  26.746  26.604  1.00  0.00     0.049 A 
ATOM     69  H   UNL A   1      43.643  27.828  27.792  1.00  0.00     0.167 HD
ATOM     70  C   UNL A   1      46.211  28.849  27.128  1.00  0.00     0.074 A 
ATOM     71  C   UNL A   1      47.360  29.727  27.077  1.00  0.00     0.031 C 
ATOM     72  C   UNL A   1      46.152  27.629  26.538  1.00  0.00     0.034 A 
BRANCH  59  73
ATOM     73  C   UNL A   1      40.837  24.612  27.424  1.00  0.00     0.023 A 
ATOM     74  C   UNL A   1      41.432  23.345  27.584  1.00  0.00     0.031 A 
ATOM     75  C   UNL A   1      39.557  24.679  26.848  1.00  0.00     0.131 A 
ATOM     76  C   UNL A   1      40.763  22.201  27.132  1.00  0.00     0.055 A 
ATOM     77  C   UNL A   1      38.877  23.530  26.438  1.00  0.00     0.041 A 
ATOM     78  F   UNL A   1      38.948  25.863  26.675  1.00  0.00    -0.206 F 
ATOM     79  C   UNL A   1      39.487  22.286  26.565  1.00  0.00     0.022 A 
BRANCH  76  80
ATOM     80  S   UNL A   1      41.548  20.567  27.195  1.00  0.00     0.124 S 
ATOM     81  O   UNL A   1      42.796  20.861  27.897  1.00  0.00    -0.237 OA
ATOM     82  O   UNL A   1      40.573  19.791  27.956  1.00  0.00    -0.237 OA
ATOM     83  O   UNL A   1      41.698  20.195  25.792  1.00  0.00    -0.744 OA
ENDBRANCH  76  80
ENDBRANCH  59  73
BRANCH  60  84
ATOM     84  C   UNL A   1      45.921  32.999  29.395  1.00  0.00     0.023 A 
ATOM     85  C   UNL A   1      45.898  34.081  28.495  1.00  0.00     0.031 A 
ATOM     86  C   UNL A   1      46.756  33.097  30.521  1.00  0.00     0.131 A 
ATOM     87  C   UNL A   1      46.752  35.173  28.691  1.00  0.00     0.055 A 
ATOM     88  C   UNL A   1      47.548  34.223  30.755  1.00  0.00     0.041 A 
ATOM     89  F   UNL A   1      46.823  32.088  31.402  1.00  0.00    -0.206 F 
ATOM     90  C   UNL A   1      47.565  35.259  29.826  1.00  0.00     0.022 A 
BRANCH  87  91
ATOM     91  S   UNL A   1      46.953  36.436  27.405  1.00  0.00     0.124 S 
ATOM     92  O   UNL A   1      46.730  35.668  26.185  1.00  0.00    -0.237 OA
ATOM     93  O   UNL A   1      45.900  37.387  27.754  1.00  0.00    -0.237 OA
ATOM     94  O   UNL A   1      48.314  36.920  27.608  1.00  0.00    -0.744 OA
ENDBRANCH  87  91
ENDBRANCH  60  84
BRANCH  72  95
ATOM     95  C   UNL A   1      47.355  27.131  25.770  1.00  0.00     0.023 A 
ATOM     96  C   UNL A   1      48.406  26.484  26.449  1.00  0.00     0.031 A 
ATOM     97  C   UNL A   1      47.534  27.445  24.412  1.00  0.00     0.131 A 
ATOM     98  C   UNL A   1      49.607  26.215  25.780  1.00  0.00     0.055 A 
ATOM     99  C   UNL A   1      48.714  27.130  23.737  1.00  0.00     0.041 A 
ATOM    100  F   UNL A   1      46.566  28.072  23.724  1.00  0.00    -0.206 F 
ATOM    101  C   UNL A   1      49.763  26.527  24.426  1.00  0.00     0.022 A 
BRANCH  98 102
ATOM    102  S   UNL A   1      51.040  25.538  26.662  1.00  0.00     0.124 S 
ATOM    103  O   UNL A   1      50.438  24.448  27.427  1.00  0.00    -0.237 OA
ATOM    104  O   UNL A   1      51.910  25.123  25.564  1.00  0.00    -0.237 OA
ATOM    105  O   UNL A   1      51.527  26.659  27.458  1.00  0.00    -0.744 OA
ENDBRANCH  98 102
ENDBRANCH  72  95
ENDBRANCH  46  47
ENDBRANCH  38  41
ENDBRANCH  36  37
ENDBRANCH  35  36
ENDBRANCH   1  35
TORSDOF 19
ENDMDL
MODEL 2
REMARK VINA RESULT:     -12.6      2.265      8.835
REMARK SMILES O=C(CNC(=O)[C@@H](CC1=c2ccccc2=NC1)N1C(=O)N=C2C=CC=C[C@H]2C1=O)NCCCCNC(=O)c1ccc(-c2c3nc(c(-c4cc(S(=O)(=O)[O-])ccc4F)c4ccc([nH]4)c(-c4cc(S(=O)(=O)[O-])ccc4F)c4nc(c(-c5cc(S(=O)(=O)[O-])ccc5F)c5ccc2[nH]5)C=C4)C=C3)cc1
REMARK SMILES IDX 32 1 31 2 30 3 1 4 2 5 3 7 4 8 5 9 6 11 7 12 8 13 9 14 10 15
REMARK SMILES IDX 17 16 11 17 15 18 16 19 12 20 14 21 13 22 18 23 19 24 28 25
REMARK SMILES IDX 21 26 20 27 27 28 29 29 22 30 26 31 23 32 25 33 24 34 33 35
REMARK SMILES IDX 34 36 35 37 36 38 37 40 38 41 39 42 100 43 40 44 99 45 41 46
REMARK SMILES IDX 42 47 43 48 93 49 44 50 98 51 92 52 94 53 45 54 97 55 91 56
REMARK SMILES IDX 90 57 46 59 78 60 58 61 77 62 59 63 62 64 76 65 95 66 60 67
REMARK SMILES IDX 61 68 75 70 96 71 63 72 47 73 48 74 56 75 49 76 55 77 57 78
REMARK SMILES IDX 54 79 50 80 51 81 52 82 53 83 79 84 80 85 88 86 81 87 87 88
REMARK SMILES IDX 89 89 86 90 82 91 83 92 84 93 85 94 64 95 65 96 73 97 66 98
REMARK SMILES IDX 72 99 74 100 71 101 67 102 68 103 69 104 70 105
REMARK H PARENT 30 6 4 10 35 39 94 58 62 69
REMARK Flexibility Score: inf
ROOT
ATOM      1  C   UNL A   1      34.914  22.289  26.545  1.00  0.00     0.023 C 
ENDROOT
BRANCH   1   2
ATOM      2  C   UNL A   1      33.596  22.090  27.309  1.00  0.00     0.116 C 
BRANCH   2   3
ATOM      3  N   UNL A   1      32.605  23.146  27.149  1.00  0.00    -0.355 N 
ATOM      4  O   UNL A   1      31.003  21.854  26.130  1.00  0.00    -0.273 OA
ATOM      5  C   UNL A   1      31.379  22.954  26.534  1.00  0.00     0.239 C 
ATOM      6  H   UNL A   1      32.818  24.044  27.495  1.00  0.00     0.163 HD
BRANCH   5   7
ATOM      7  C   UNL A   1      30.439  24.193  26.465  1.00  0.00     0.216 C 
BRANCH   7   8
ATOM      8  N   UNL A   1      31.078  25.511  26.281  1.00  0.00    -0.345 N 
ATOM      9  C   UNL A   1      30.675  26.323  25.230  1.00  0.00     0.244 C 
ATOM     10  H   UNL A   1      31.784  25.812  26.898  1.00  0.00     0.164 HD
ATOM     11  O   UNL A   1      29.476  26.363  24.937  1.00  0.00    -0.273 OA
BRANCH   9  12
ATOM     12  C   UNL A   1      31.747  27.246  24.535  1.00  0.00     0.188 C 
BRANCH  12  13
ATOM     13  C   UNL A   1      32.991  26.731  23.702  1.00  0.00     0.069 C 
BRANCH  13  14
ATOM     14  C   UNL A   1      33.364  25.280  23.538  1.00  0.00    -0.037 C 
ATOM     15  C   UNL A   1      32.657  24.175  23.283  1.00  0.00     0.001 A 
ATOM     16  C   UNL A   1      34.797  24.927  23.547  1.00  0.00     0.174 C 
ATOM     17  C   UNL A   1      31.288  23.824  23.085  1.00  0.00     0.010 A 
ATOM     18  C   UNL A   1      33.709  23.146  23.113  1.00  0.00     0.065 A 
ATOM     19  N   UNL A   1      34.944  23.521  23.183  1.00  0.00    -0.280 NA
ATOM     20  C   UNL A   1      30.979  22.536  22.840  1.00  0.00     0.001 A 
ATOM     21  C   UNL A   1      33.301  21.758  22.872  1.00  0.00     0.028 A 
ATOM     22  C   UNL A   1      31.992  21.494  22.770  1.00  0.00     0.002 A 
ENDBRANCH  13  14
ENDBRANCH  12  13
BRANCH  12  23
ATOM     23  N   UNL A   1      30.991  28.263  23.765  1.00  0.00    -0.249 N 
ATOM     24  C   UNL A   1      30.556  27.919  22.491  1.00  0.00     0.351 C 
ATOM     25  C   UNL A   1      30.770  29.500  24.351  1.00  0.00     0.244 C 
ATOM     26  N   UNL A   1      29.793  28.801  21.780  1.00  0.00    -0.197 NA
ATOM     27  O   UNL A   1      30.804  26.816  22.021  1.00  0.00    -0.246 OA
ATOM     28  C   UNL A   1      30.224  30.579  23.438  1.00  0.00     0.151 C 
ATOM     29  O   UNL A   1      31.066  29.741  25.524  1.00  0.00    -0.273 OA
ATOM     30  C   UNL A   1      29.582  30.000  22.201  1.00  0.00     0.062 C 
ATOM     31  C   UNL A   1      29.246  31.501  24.134  1.00  0.00    -0.007 C 
ATOM     32  C   UNL A   1      28.666  30.867  21.414  1.00  0.00     0.025 C 
ATOM     33  C   UNL A   1      28.230  32.084  23.477  1.00  0.00    -0.003 C 
ATOM     34  C   UNL A   1      28.038  31.855  22.064  1.00  0.00     0.002 C 
ENDBRANCH  12  23
ENDBRANCH   9  12
ENDBRANCH   7   8
ENDBRANCH   5   7
ENDBRANCH   2   3
ENDBRANCH   1   2
BRANCH   1  35
ATOM     35  C   UNL A   1      35.488  21.086  25.787  1.00  0.00     0.023 C 
BRANCH  35  36
ATOM     36  C   UNL A   1      36.794  21.314  25.036  1.00  0.00     0.116 C 
BRANCH  36  37
ATOM     37  N   UNL A   1      37.771  20.258  25.228  1.00  0.00    -0.352 N 
ATOM     38  C   UNL A   1      39.043  20.326  25.756  1.00  0.00     0.251 C 
ATOM     39  H   UNL A   1      37.483  19.361  24.941  1.00  0.00     0.163 HD
ATOM     40  O   UNL A   1      39.760  19.328  25.723  1.00  0.00    -0.269 OA
BRANCH  38  41
ATOM     41  C   UNL A   1      39.569  21.598  26.318  1.00  0.00     0.039 A 
ATOM     42  C   UNL A   1      38.946  22.822  26.071  1.00  0.00     0.014 A 
ATOM     43  C   UNL A   1      40.720  21.564  27.117  1.00  0.00     0.014 A 
ATOM     44  C   UNL A   1      39.558  24.010  26.466  1.00  0.00     0.010 A 
ATOM     45  C   UNL A   1      41.286  22.756  27.589  1.00  0.00     0.010 A 
ATOM     46  C   UNL A   1      40.742  23.996  27.223  1.00  0.00    -0.014 A 
BRANCH  46  47
ATOM     47  C   UNL A   1      41.381  25.283  27.619  1.00  0.00     0.031 A 
ATOM     48  C   UNL A   1      42.792  25.609  27.200  1.00  0.00     0.074 A 
ATOM     49  C   UNL A   1      40.669  26.189  28.319  1.00  0.00     0.049 A 
ATOM     50  N   UNL A   1      43.484  26.698  27.420  1.00  0.00    -0.248 NA
ATOM     51  C   UNL A   1      43.523  24.584  26.439  1.00  0.00     0.031 C 
ATOM     52  C   UNL A   1      39.299  25.988  28.790  1.00  0.00     0.029 A 
ATOM     53  N   UNL A   1      40.982  27.459  28.740  1.00  0.00    -0.354 N 
ATOM     54  C   UNL A   1      44.729  26.489  26.838  1.00  0.00     0.074 A 
ATOM     55  C   UNL A   1      44.713  25.151  26.287  1.00  0.00     0.031 C 
ATOM     56  C   UNL A   1      38.874  27.106  29.395  1.00  0.00     0.029 A 
ATOM     57  C   UNL A   1      39.960  28.084  29.416  1.00  0.00     0.049 A 
ATOM     58  H   UNL A   1      41.856  27.881  28.576  1.00  0.00     0.167 HD
ATOM     59  C   UNL A   1      45.780  27.339  26.753  1.00  0.00     0.034 A 
ATOM     60  C   UNL A   1      39.896  29.300  30.001  1.00  0.00     0.034 A 
ATOM     61  C   UNL A   1      45.780  28.678  27.286  1.00  0.00     0.049 A 
ATOM     62  C   UNL A   1      41.084  30.221  29.906  1.00  0.00     0.074 A 
ATOM     63  C   UNL A   1      46.792  29.621  27.219  1.00  0.00     0.029 A 
ATOM     64  N   UNL A   1      44.731  29.268  27.975  1.00  0.00    -0.354 N 
ATOM     65  N   UNL A   1      42.231  30.024  29.300  1.00  0.00    -0.248 NA
ATOM     66  C   UNL A   1      40.974  31.532  30.562  1.00  0.00     0.031 C 
ATOM     67  C   UNL A   1      46.379  30.757  27.916  1.00  0.00     0.029 A 
ATOM     68  C   UNL A   1      45.081  30.554  28.358  1.00  0.00     0.049 A 
ATOM     69  H   UNL A   1      43.866  28.839  28.163  1.00  0.00     0.167 HD
ATOM     70  C   UNL A   1      42.972  31.188  29.491  1.00  0.00     0.074 A 
ATOM     71  C   UNL A   1      42.131  32.096  30.239  1.00  0.00     0.031 C 
ATOM     72  C   UNL A   1      44.237  31.468  29.089  1.00  0.00     0.034 A 
BRANCH  59  73
ATOM     73  C   UNL A   1      47.030  26.883  26.038  1.00  0.00     0.023 A 
ATOM     74  C   UNL A   1      48.067  26.260  26.759  1.00  0.00     0.031 A 
ATOM     75  C   UNL A   1      47.258  27.207  24.689  1.00  0.00     0.131 A 
ATOM     76  C   UNL A   1      49.300  26.021  26.140  1.00  0.00     0.055 A 
ATOM     77  C   UNL A   1      48.475  26.927  24.064  1.00  0.00     0.041 A 
ATOM     78  F   UNL A   1      46.301  27.800  23.959  1.00  0.00    -0.206 F 
ATOM     79  C   UNL A   1      49.507  26.346  24.795  1.00  0.00     0.022 A 
BRANCH  76  80
ATOM     80  S   UNL A   1      50.703  25.346  27.068  1.00  0.00     0.124 S 
ATOM     81  O   UNL A   1      50.072  24.262  27.819  1.00  0.00    -0.237 OA
ATOM     82  O   UNL A   1      51.601  24.922  25.997  1.00  0.00    -0.237 OA
ATOM     83  O   UNL A   1      51.165  26.471  27.873  1.00  0.00    -0.744 OA
ENDBRANCH  76  80
ENDBRANCH  59  73
BRANCH  60  84
ATOM     84  C   UNL A   1      38.634  29.705  30.690  1.00  0.00     0.023 A 
ATOM     85  C   UNL A   1      37.662  30.467  30.016  1.00  0.00     0.031 A 
ATOM     86  C   UNL A   1      38.436  29.441  32.055  1.00  0.00     0.131 A 
ATOM     87  C   UNL A   1      36.582  31.007  30.726  1.00  0.00     0.055 A 
ATOM     88  C   UNL A   1      37.316  29.915  32.741  1.00  0.00     0.041 A 
ATOM     89  F   UNL A   1      39.340  28.729  32.745  1.00  0.00    -0.206 F 
ATOM     90  C   UNL A   1      36.393  30.720  32.081  1.00  0.00     0.022 A 
BRANCH  87  91
ATOM     91  S   UNL A   1      35.479  32.222  29.953  1.00  0.00     0.124 S 
ATOM     92  O   UNL A   1      34.466  32.415  30.986  1.00  0.00    -0.237 OA
ATOM     93  O   UNL A   1      36.383  33.350  29.737  1.00  0.00    -0.237 OA
ATOM     94  O   UNL A   1      35.026  31.552  28.739  1.00  0.00    -0.744 OA
ENDBRANCH  87  91
ENDBRANCH  60  84
BRANCH  72  95
ATOM     95  C   UNL A   1      44.829  32.815  29.434  1.00  0.00     0.023 A 
ATOM     96  C   UNL A   1      44.743  33.879  28.515  1.00  0.00     0.031 A 
ATOM     97  C   UNL A   1      45.618  32.992  30.584  1.00  0.00     0.131 A 
ATOM     98  C   UNL A   1      45.470  35.055  28.739  1.00  0.00     0.055 A 
ATOM     99  C   UNL A   1      46.301  34.184  30.827  1.00  0.00     0.041 A 
ATOM    100  F   UNL A   1      45.742  32.003  31.484  1.00  0.00    -0.206 F 
ATOM    101  C   UNL A   1      46.242  35.215  29.894  1.00  0.00     0.022 A 
BRANCH  98 102
ATOM    102  S   UNL A   1      45.518  36.379  27.500  1.00  0.00     0.124 S 
ATOM    103  O   UNL A   1      44.137  36.397  27.024  1.00  0.00    -0.237 OA
ATOM    104  O   UNL A   1      45.918  37.535  28.298  1.00  0.00    -0.237 OA
ATOM    105  O   UNL A   1      46.503  35.918  26.528  1.00  0.00    -0.744 OA
ENDBRANCH  98 102
ENDBRANCH  72  95
ENDBRANCH  46  47
ENDBRANCH  38  41
ENDBRANCH  36  37
ENDBRANCH  35  36
ENDBRANCH   1  35
TORSDOF 19
ENDMDL
MODEL 3
REMARK VINA RESULT:     -12.5      3.216      9.093
REMARK SMILES O=C(CNC(=O)[C@@H](CC1=c2ccccc2=NC1)N1C(=O)N=C2C=CC=C[C@H]2C1=O)NCCCCNC(=O)c1ccc(-c2c3nc(c(-c4cc(S(=O)(=O)[O-])ccc4F)c4ccc([nH]4)c(-c4cc(S(=O)(=O)[O-])ccc4F)c4nc(c(-c5cc(S(=O)(=O)[O-])ccc5F)c5ccc2[nH]5)C=C4)C=C3)cc1
REMARK SMILES IDX 32 1 31 2 30 3 1 4 2 5 3 7 4 8 5 9 6 11 7 12 8 13 9 14 10 15
REMARK SMILES IDX 17 16 11 17 15 18 16 19 12 20 14 21 13 22 18 23 19 24 28 25
REMARK SMILES IDX 21 26 20 27 27 28 29 29 22 30 26 31 23 32 25 33 24 34 33 35
REMARK SMILES IDX 34 36 35 37 36 38 37 40 38 41 39 42 100 43 40 44 99 45 41 46
REMARK SMILES IDX 42 47 43 48 93 49 44 50 98 51 92 52 94 53 45 54 97 55 91 56
REMARK SMILES IDX 90 57 46 59 78 60 58 61 77 62 59 63 62 64 76 65 95 66 60 67
REMARK SMILES IDX 61 68 75 70 96 71 63 72 47 73 48 74 56 75 49 76 55 77 57 78
REMARK SMILES IDX 54 79 50 80 51 81 52 82 53 83 79 84 80 85 88 86 81 87 87 88
REMARK SMILES IDX 89 89 86 90 82 91 83 92 84 93 85 94 64 95 65 96 73 97 66 98
REMARK SMILES IDX 72 99 74 100 71 101 67 102 68 103 69 104 70 105
REMARK H PARENT 30 6 4 10 35 39 94 58 62 69
REMARK Flexibility Score: inf
ROOT
ATOM      1  C   UNL A   1      40.484  21.234  26.966  1.00  0.00     0.023 C 
ENDROOT
BRANCH   1   2
ATOM      2  C   UNL A   1      39.578  22.219  26.212  1.00  0.00     0.116 C 
BRANCH   2   3
ATOM      3  N   UNL A   1      38.316  21.677  25.726  1.00  0.00    -0.355 N 
ATOM      4  O   UNL A   1      37.155  23.657  25.737  1.00  0.00    -0.273 OA
ATOM      5  C   UNL A   1      37.174  22.441  25.553  1.00  0.00     0.239 C 
ATOM      6  H   UNL A   1      38.272  20.716  25.509  1.00  0.00     0.163 HD
BRANCH   5   7
ATOM      7  C   UNL A   1      35.919  21.695  25.011  1.00  0.00     0.216 C 
BRANCH   7   8
ATOM      8  N   UNL A   1      35.223  22.303  23.859  1.00  0.00    -0.345 N 
ATOM      9  C   UNL A   1      34.018  22.961  24.063  1.00  0.00     0.244 C 
ATOM     10  H   UNL A   1      35.609  22.243  22.956  1.00  0.00     0.164 HD
ATOM     11  O   UNL A   1      33.880  23.646  25.081  1.00  0.00    -0.273 OA
BRANCH   9  12
ATOM     12  C   UNL A   1      32.925  22.901  22.929  1.00  0.00     0.188 C 
BRANCH  12  13
ATOM     13  C   UNL A   1      31.886  21.723  22.725  1.00  0.00     0.069 C 
BRANCH  13  14
ATOM     14  C   UNL A   1      32.229  20.259  22.824  1.00  0.00    -0.037 C 
ATOM     15  C   UNL A   1      32.525  19.454  23.849  1.00  0.00     0.001 A 
ATOM     16  C   UNL A   1      32.149  19.444  21.596  1.00  0.00     0.174 C 
ATOM     17  C   UNL A   1      32.689  19.567  25.262  1.00  0.00     0.010 A 
ATOM     18  C   UNL A   1      32.596  18.121  23.206  1.00  0.00     0.065 A 
ATOM     19  N   UNL A   1      32.328  18.038  21.945  1.00  0.00    -0.280 NA
ATOM     20  C   UNL A   1      33.001  18.462  25.967  1.00  0.00     0.001 A 
ATOM     21  C   UNL A   1      32.966  16.964  24.030  1.00  0.00     0.028 A 
ATOM     22  C   UNL A   1      33.176  17.162  25.338  1.00  0.00     0.002 A 
ENDBRANCH  13  14
ENDBRANCH  12  13
BRANCH  12  23
ATOM     23  N   UNL A   1      32.229  24.211  22.945  1.00  0.00    -0.249 N 
ATOM     24  C   UNL A   1      32.671  25.191  22.065  1.00  0.00     0.351 C 
ATOM     25  C   UNL A   1      31.187  24.390  23.843  1.00  0.00     0.244 C 
ATOM     26  N   UNL A   1      32.009  26.383  21.999  1.00  0.00    -0.197 NA
ATOM     27  O   UNL A   1      33.613  24.977  21.313  1.00  0.00    -0.246 OA
ATOM     28  C   UNL A   1      30.683  25.809  24.001  1.00  0.00     0.151 C 
ATOM     29  O   UNL A   1      30.741  23.469  24.533  1.00  0.00    -0.273 OA
ATOM     30  C   UNL A   1      31.070  26.678  22.829  1.00  0.00     0.062 C 
ATOM     31  C   UNL A   1      29.186  25.882  24.215  1.00  0.00    -0.007 C 
ATOM     32  C   UNL A   1      30.338  27.957  22.632  1.00  0.00     0.025 C 
ATOM     33  C   UNL A   1      28.459  26.927  23.788  1.00  0.00    -0.003 C 
ATOM     34  C   UNL A   1      29.089  28.035  23.108  1.00  0.00     0.002 C 
ENDBRANCH  12  23
ENDBRANCH   9  12
ENDBRANCH   7   8
ENDBRANCH   5   7
ENDBRANCH   2   3
ENDBRANCH   1   2
BRANCH   1  35
ATOM     35  C   UNL A   1      40.828  19.909  26.276  1.00  0.00     0.023 C 
BRANCH  35  36
ATOM     36  C   UNL A   1      42.153  19.264  26.662  1.00  0.00     0.116 C 
BRANCH  36  37
ATOM     37  N   UNL A   1      43.063  19.083  25.544  1.00  0.00    -0.352 N 
ATOM     38  C   UNL A   1      43.860  20.008  24.905  1.00  0.00     0.251 C 
ATOM     39  H   UNL A   1      43.118  18.165  25.192  1.00  0.00     0.163 HD
ATOM     40  O   UNL A   1      44.474  19.672  23.894  1.00  0.00    -0.269 OA
BRANCH  38  41
ATOM     41  C   UNL A   1      43.949  21.409  25.394  1.00  0.00     0.039 A 
ATOM     42  C   UNL A   1      43.436  22.476  24.656  1.00  0.00     0.014 A 
ATOM     43  C   UNL A   1      44.562  21.661  26.628  1.00  0.00     0.014 A 
ATOM     44  C   UNL A   1      43.686  23.788  25.057  1.00  0.00     0.010 A 
ATOM     45  C   UNL A   1      44.736  22.978  27.074  1.00  0.00     0.010 A 
ATOM     46  C   UNL A   1      44.348  24.059  26.267  1.00  0.00    -0.014 A 
BRANCH  46  47
ATOM     47  C   UNL A   1      44.614  25.471  26.662  1.00  0.00     0.031 A 
ATOM     48  C   UNL A   1      43.527  26.327  27.261  1.00  0.00     0.074 A 
ATOM     49  C   UNL A   1      45.858  25.974  26.528  1.00  0.00     0.049 A 
ATOM     50  N   UNL A   1      43.598  27.558  27.700  1.00  0.00    -0.248 NA
ATOM     51  C   UNL A   1      42.188  25.728  27.382  1.00  0.00     0.031 C 
ATOM     52  C   UNL A   1      46.992  25.249  25.955  1.00  0.00     0.029 A 
ATOM     53  N   UNL A   1      46.385  27.194  26.876  1.00  0.00    -0.354 N 
ATOM     54  C   UNL A   1      42.320  27.886  28.138  1.00  0.00     0.074 A 
ATOM     55  C   UNL A   1      41.481  26.736  27.877  1.00  0.00     0.031 C 
ATOM     56  C   UNL A   1      48.087  26.018  26.030  1.00  0.00     0.029 A 
ATOM     57  C   UNL A   1      47.727  27.316  26.596  1.00  0.00     0.049 A 
ATOM     58  H   UNL A   1      45.853  27.913  27.287  1.00  0.00     0.167 HD
ATOM     59  C   UNL A   1      41.890  29.030  28.722  1.00  0.00     0.034 A 
ATOM     60  C   UNL A   1      48.576  28.353  26.759  1.00  0.00     0.034 A 
ATOM     61  C   UNL A   1      42.737  30.163  28.998  1.00  0.00     0.049 A 
ATOM     62  C   UNL A   1      48.070  29.621  27.396  1.00  0.00     0.074 A 
ATOM     63  C   UNL A   1      42.393  31.354  29.615  1.00  0.00     0.029 A 
ATOM     64  N   UNL A   1      44.086  30.252  28.686  1.00  0.00    -0.354 N 
ATOM     65  N   UNL A   1      46.871  29.888  27.856  1.00  0.00    -0.248 NA
ATOM     66  C   UNL A   1      49.027  30.727  27.548  1.00  0.00     0.031 C 
ATOM     67  C   UNL A   1      43.514  32.183  29.623  1.00  0.00     0.029 A 
ATOM     68  C   UNL A   1      44.580  31.486  29.077  1.00  0.00     0.049 A 
ATOM     69  H   UNL A   1      44.614  29.544  28.252  1.00  0.00     0.167 HD
ATOM     70  C   UNL A   1      46.933  31.184  28.362  1.00  0.00     0.074 A 
ATOM     71  C   UNL A   1      48.296  31.634  28.183  1.00  0.00     0.031 C 
ATOM     72  C   UNL A   1      45.944  31.931  28.915  1.00  0.00     0.034 A 
BRANCH  59  73
ATOM     73  C   UNL A   1      40.442  29.136  29.139  1.00  0.00     0.023 A 
ATOM     74  C   UNL A   1      40.086  28.989  30.494  1.00  0.00     0.031 A 
ATOM     75  C   UNL A   1      39.413  29.220  28.185  1.00  0.00     0.131 A 
ATOM     76  C   UNL A   1      38.736  28.886  30.852  1.00  0.00     0.055 A 
ATOM     77  C   UNL A   1      38.067  29.161  28.553  1.00  0.00     0.041 A 
ATOM     78  F   UNL A   1      39.701  29.362  26.882  1.00  0.00    -0.206 F 
ATOM     79  C   UNL A   1      37.725  28.977  29.889  1.00  0.00     0.022 A 
BRANCH  76  80
ATOM     80  S   UNL A   1      38.240  28.562  32.565  1.00  0.00     0.124 S 
ATOM     81  O   UNL A   1      39.346  29.155  33.315  1.00  0.00    -0.237 OA
ATOM     82  O   UNL A   1      36.970  29.278  32.655  1.00  0.00    -0.237 OA
ATOM     83  O   UNL A   1      38.153  27.107  32.636  1.00  0.00    -0.744 OA
ENDBRANCH  76  80
ENDBRANCH  59  73
BRANCH  60  84
ATOM     84  C   UNL A   1      49.999  28.195  26.335  1.00  0.00     0.023 A 
ATOM     85  C   UNL A   1      50.399  28.519  25.026  1.00  0.00     0.031 A 
ATOM     86  C   UNL A   1      50.949  27.609  27.188  1.00  0.00     0.131 A 
ATOM     87  C   UNL A   1      51.684  28.182  24.583  1.00  0.00     0.055 A 
ATOM     88  C   UNL A   1      52.254  27.346  26.767  1.00  0.00     0.041 A 
ATOM     89  F   UNL A   1      50.614  27.270  28.442  1.00  0.00    -0.206 F 
ATOM     90  C   UNL A   1      52.621  27.613  25.451  1.00  0.00     0.022 A 
BRANCH  87  91
ATOM     91  S   UNL A   1      52.127  28.323  22.830  1.00  0.00     0.124 S 
ATOM     92  O   UNL A   1      52.294  26.926  22.443  1.00  0.00    -0.237 OA
ATOM     93  O   UNL A   1      50.953  28.996  22.278  1.00  0.00    -0.237 OA
ATOM     94  O   UNL A   1      53.346  29.125  22.847  1.00  0.00    -0.744 OA
ENDBRANCH  87  91
ENDBRANCH  60  84
BRANCH  72  95
ATOM     95  C   UNL A   1      46.264  33.331  29.383  1.00  0.00     0.023 A 
ATOM     96  C   UNL A   1      46.235  34.404  28.471  1.00  0.00     0.031 A 
ATOM     97  C   UNL A   1      46.756  33.573  30.678  1.00  0.00     0.131 A 
ATOM     98  C   UNL A   1      46.734  35.656  28.850  1.00  0.00     0.055 A 
ATOM     99  C   UNL A   1      47.206  34.836  31.066  1.00  0.00     0.041 A 
ATOM    100  F   UNL A   1      46.815  32.581  31.581  1.00  0.00    -0.206 F 
ATOM    101  C   UNL A   1      47.212  35.880  30.145  1.00  0.00     0.022 A 
BRANCH  98 102
ATOM    102  S   UNL A   1      46.870  37.013  27.653  1.00  0.00     0.124 S 
ATOM    103  O   UNL A   1      46.510  36.350  26.402  1.00  0.00    -0.237 OA
ATOM    104  O   UNL A   1      45.887  37.969  28.158  1.00  0.00    -0.237 OA
ATOM    105  O   UNL A   1      48.263  37.436  27.754  1.00  0.00    -0.744 OA
ENDBRANCH  98 102
ENDBRANCH  72  95
ENDBRANCH  46  47
ENDBRANCH  38  41
ENDBRANCH  36  37
ENDBRANCH  35  36
ENDBRANCH   1  35
TORSDOF 19
ENDMDL
