MODEL 1
REMARK VINA RESULT:     -11.8      0.000      0.000
REMARK SMILES COc1ccccc1OC1CCN(c2cccc(C(=O)NCCCCNC(=O)c3ccc(-c4c5nc(c(-c6cc(S(=O)(=O)[O-])ccc6F)c6ccc([nH]6)c(-c6cc(S(=O)(=O)[O-])ccc6F)c6nc(c(-c7cc(S(=O)(=O)[O-])ccc7F)c7ccc4[nH]7)C=C6)C=C5)cc3)n2)CC1
REMARK SMILES IDX 23 1 22 2 21 3 19 4 20 5 18 7 14 8 15 9 92 10 16 11 17 12
REMARK SMILES IDX 13 13 10 14 11 15 94 16 12 17 93 18 9 19 8 20 3 21 4 22 5 23
REMARK SMILES IDX 7 24 6 25 2 26 1 27 24 28 25 29 26 30 27 31 28 33 29 34
REMARK SMILES IDX 30 35 91 36 31 37 90 38 32 39 33 40 34 41 84 42 35 43 89 44
REMARK SMILES IDX 83 45 85 46 36 47 88 48 82 49 81 50 37 52 69 53 49 54 68 55
REMARK SMILES IDX 50 56 53 57 67 58 86 59 51 60 52 61 66 63 87 64 54 65 38 66
REMARK SMILES IDX 39 67 47 68 40 69 46 70 48 71 45 72 41 73 42 74 43 75 44 76
REMARK SMILES IDX 70 77 71 78 79 79 72 80 78 81 80 82 77 83 73 84 74 85 75 86
REMARK SMILES IDX 76 87 55 88 56 89 64 90 57 91 63 92 65 93 62 94 58 95 59 96
REMARK SMILES IDX 60 97 61 98
REMARK H PARENT 21 6 26 32 85 51 53 62
REMARK Flexibility Score: inf
ROOT
ATOM      1  C   UNL A   1      32.285  31.662  27.045  1.00  0.00     0.023 C 
ENDROOT
BRANCH   1   2
ATOM      2  C   UNL A   1      31.876  30.337  26.412  1.00  0.00     0.116 C 
BRANCH   2   3
ATOM      3  N   UNL A   1      32.623  30.080  25.209  1.00  0.00    -0.351 N 
ATOM      4  C   UNL A   1      32.561  29.123  24.229  1.00  0.00     0.269 C 
ATOM      5  O   UNL A   1      33.440  29.214  23.364  1.00  0.00    -0.268 OA
ATOM      6  H   UNL A   1      33.337  30.740  25.054  1.00  0.00     0.163 HD
BRANCH   4   7
ATOM      7  C   UNL A   1      31.526  28.029  24.124  1.00  0.00     0.130 A 
ATOM      8  C   UNL A   1      31.328  25.709  24.188  1.00  0.00     0.129 A 
ATOM      9  C   UNL A   1      30.015  25.765  23.756  1.00  0.00     0.047 A 
ATOM     10  N   UNL A   1      32.053  26.813  24.408  1.00  0.00    -0.226 NA
ATOM     11  C   UNL A   1      29.438  27.001  23.532  1.00  0.00     0.006 A 
ATOM     12  C   UNL A   1      30.209  28.148  23.700  1.00  0.00     0.034 A 
BRANCH   8  13
ATOM     13  N   UNL A   1      31.972  24.502  24.289  1.00  0.00    -0.356 N 
ATOM     14  C   UNL A   1      32.356  20.732  24.248  1.00  0.00     0.177 C 
ATOM     15  C   UNL A   1      32.545  21.767  22.612  1.00  0.00     0.066 C 
ATOM     16  C   UNL A   1      31.670  21.649  25.820  1.00  0.00     0.066 C 
ATOM     17  C   UNL A   1      32.529  23.708  22.721  1.00  0.00     0.122 C 
ATOM     18  C   UNL A   1      31.701  23.589  25.862  1.00  0.00     0.122 C 
BRANCH  14  19
ATOM     19  O   UNL A   1      33.703  20.298  24.607  1.00  0.00    -0.486 OA
BRANCH  19  20
ATOM     20  C   UNL A   1      33.735  18.918  24.603  1.00  0.00     0.161 A 
ATOM     21  C   UNL A   1      34.969  18.253  24.621  1.00  0.00     0.160 A 
ATOM     22  C   UNL A   1      34.999  16.859  24.620  1.00  0.00     0.050 A 
ATOM     23  C   UNL A   1      33.802  16.142  24.633  1.00  0.00     0.004 A 
ATOM     24  C   UNL A   1      32.540  18.210  24.606  1.00  0.00     0.050 A 
ATOM     25  C   UNL A   1      32.576  16.815  24.630  1.00  0.00     0.004 A 
BRANCH  21  26
ATOM     26  O   UNL A   1      36.018  19.149  24.680  1.00  0.00    -0.493 OA
ATOM     27  C   UNL A   1      37.351  20.426  24.835  1.00  0.00     0.278 C 
ENDBRANCH  21  26
ENDBRANCH  19  20
ENDBRANCH  14  19
ENDBRANCH   8  13
ENDBRANCH   4   7
ENDBRANCH   2   3
ENDBRANCH   1   2
BRANCH   1  28
ATOM     28  C   UNL A   1      33.660  31.604  27.713  1.00  0.00     0.023 C 
BRANCH  28  29
ATOM     29  C   UNL A   1      34.363  32.952  27.839  1.00  0.00     0.116 C 
BRANCH  29  30
ATOM     30  N   UNL A   1      33.695  33.867  28.756  1.00  0.00    -0.352 N 
ATOM     31  C   UNL A   1      34.009  34.111  30.072  1.00  0.00     0.251 C 
ATOM     32  H   UNL A   1      32.931  34.368  28.392  1.00  0.00     0.163 HD
ATOM     33  O   UNL A   1      33.285  34.811  30.769  1.00  0.00    -0.269 OA
BRANCH  31  34
ATOM     34  C   UNL A   1      35.216  33.467  30.623  1.00  0.00     0.039 A 
ATOM     35  C   UNL A   1      35.087  32.257  31.305  1.00  0.00     0.014 A 
ATOM     36  C   UNL A   1      36.475  34.008  30.349  1.00  0.00     0.014 A 
ATOM     37  C   UNL A   1      36.236  31.549  31.653  1.00  0.00     0.010 A 
ATOM     38  C   UNL A   1      37.611  33.256  30.616  1.00  0.00     0.010 A 
ATOM     39  C   UNL A   1      37.505  32.020  31.272  1.00  0.00    -0.014 A 
BRANCH  39  40
ATOM     40  C   UNL A   1      38.735  31.237  31.556  1.00  0.00     0.031 A 
ATOM     41  C   UNL A   1      39.563  31.567  32.770  1.00  0.00     0.074 A 
ATOM     42  C   UNL A   1      39.135  30.279  30.695  1.00  0.00     0.049 A 
ATOM     43  N   UNL A   1      40.702  31.055  33.155  1.00  0.00    -0.248 NA
ATOM     44  C   UNL A   1      39.056  32.633  33.648  1.00  0.00     0.031 C 
ATOM     45  C   UNL A   1      38.433  29.900  29.466  1.00  0.00     0.029 A 
ATOM     46  N   UNL A   1      40.232  29.454  30.714  1.00  0.00    -0.354 N 
ATOM     47  C   UNL A   1      41.058  31.749  34.306  1.00  0.00     0.074 A 
ATOM     48  C   UNL A   1      40.043  32.757  34.522  1.00  0.00     0.031 C 
ATOM     49  C   UNL A   1      39.100  28.899  28.869  1.00  0.00     0.029 A 
ATOM     50  C   UNL A   1      40.306  28.602  29.634  1.00  0.00     0.049 A 
ATOM     51  H   UNL A   1      40.905  29.470  31.433  1.00  0.00     0.167 HD
ATOM     52  C   UNL A   1      42.123  31.549  35.119  1.00  0.00     0.034 A 
ATOM     53  C   UNL A   1      41.249  27.701  29.290  1.00  0.00     0.034 A 
ATOM     54  C   UNL A   1      43.115  30.526  34.894  1.00  0.00     0.049 A 
ATOM     55  C   UNL A   1      42.445  27.523  30.195  1.00  0.00     0.074 A 
ATOM     56  C   UNL A   1      44.194  30.190  35.692  1.00  0.00     0.029 A 
ATOM     57  N   UNL A   1      43.161  29.689  33.788  1.00  0.00    -0.354 N 
ATOM     58  N   UNL A   1      42.730  28.142  31.319  1.00  0.00    -0.248 NA
ATOM     59  C   UNL A   1      43.441  26.521  29.793  1.00  0.00     0.031 C 
ATOM     60  C   UNL A   1      44.944  29.219  35.024  1.00  0.00     0.029 A 
ATOM     61  C   UNL A   1      44.277  28.870  33.860  1.00  0.00     0.049 A 
ATOM     62  H   UNL A   1      42.500  29.679  33.059  1.00  0.00     0.167 HD
ATOM     63  C   UNL A   1      43.916  27.572  31.776  1.00  0.00     0.074 A 
ATOM     64  C   UNL A   1      44.285  26.554  30.815  1.00  0.00     0.031 C 
ATOM     65  C   UNL A   1      44.633  27.858  32.892  1.00  0.00     0.034 A 
BRANCH  52  66
ATOM     66  C   UNL A   1      42.291  32.472  36.300  1.00  0.00     0.023 A 
ATOM     67  C   UNL A   1      41.754  32.174  37.565  1.00  0.00     0.031 A 
ATOM     68  C   UNL A   1      43.004  33.677  36.157  1.00  0.00     0.131 A 
ATOM     69  C   UNL A   1      41.882  33.095  38.615  1.00  0.00     0.055 A 
ATOM     70  C   UNL A   1      43.202  34.548  37.229  1.00  0.00     0.041 A 
ATOM     71  F   UNL A   1      43.516  34.031  34.968  1.00  0.00    -0.206 F 
ATOM     72  C   UNL A   1      42.629  34.265  38.465  1.00  0.00     0.022 A 
BRANCH  69  73
ATOM     73  S   UNL A   1      40.944  32.807  40.140  1.00  0.00     0.124 S 
ATOM     74  O   UNL A   1      39.629  32.449  39.613  1.00  0.00    -0.237 OA
ATOM     75  O   UNL A   1      41.693  31.728  40.774  1.00  0.00    -0.237 OA
ATOM     76  O   UNL A   1      41.001  34.096  40.827  1.00  0.00    -0.744 OA
ENDBRANCH  69  73
ENDBRANCH  52  66
BRANCH  53  77
ATOM     77  C   UNL A   1      41.130  26.912  28.028  1.00  0.00     0.023 A 
ATOM     78  C   UNL A   1      40.794  25.548  28.054  1.00  0.00     0.031 A 
ATOM     79  C   UNL A   1      41.423  27.490  26.779  1.00  0.00     0.131 A 
ATOM     80  C   UNL A   1      40.827  24.795  26.869  1.00  0.00     0.055 A 
ATOM     81  C   UNL A   1      41.384  26.753  25.594  1.00  0.00     0.041 A 
ATOM     82  F   UNL A   1      41.752  28.789  26.692  1.00  0.00    -0.206 F 
ATOM     83  C   UNL A   1      41.103  25.392  25.637  1.00  0.00     0.022 A 
BRANCH  80  84
ATOM     84  S   UNL A   1      40.633  22.995  26.982  1.00  0.00     0.124 S 
ATOM     85  O   UNL A   1      41.603  22.532  25.995  1.00  0.00    -0.237 OA
ATOM     86  O   UNL A   1      40.966  22.741  28.378  1.00  0.00    -0.237 OA
ATOM     87  O   UNL A   1      39.231  22.782  26.627  1.00  0.00    -0.744 OA
ENDBRANCH  80  84
ENDBRANCH  53  77
BRANCH  65  88
ATOM     88  C   UNL A   1      45.854  27.014  33.170  1.00  0.00     0.023 A 
ATOM     89  C   UNL A   1      45.779  25.796  33.867  1.00  0.00     0.031 A 
ATOM     90  C   UNL A   1      47.117  27.439  32.719  1.00  0.00     0.131 A 
ATOM     91  C   UNL A   1      46.950  25.072  34.137  1.00  0.00     0.055 A 
ATOM     92  C   UNL A   1      48.268  26.680  32.929  1.00  0.00     0.041 A 
ATOM     93  F   UNL A   1      47.251  28.598  32.054  1.00  0.00    -0.206 F 
ATOM     94  C   UNL A   1      48.191  25.496  33.653  1.00  0.00     0.022 A 
BRANCH  91  95
ATOM     95  S   UNL A   1      46.847  23.618  35.215  1.00  0.00     0.124 S 
ATOM     96  O   UNL A   1      46.728  24.227  36.536  1.00  0.00    -0.237 OA
ATOM     97  O   UNL A   1      45.654  22.942  34.716  1.00  0.00    -0.237 OA
ATOM     98  O   UNL A   1      48.105  22.916  34.967  1.00  0.00    -0.744 OA
ENDBRANCH  91  95
ENDBRANCH  65  88
ENDBRANCH  39  40
ENDBRANCH  31  34
ENDBRANCH  29  30
ENDBRANCH  28  29
ENDBRANCH   1  28
TORSDOF 18
ENDMDL
MODEL 2
REMARK VINA RESULT:     -11.1      2.873      3.932
REMARK SMILES COc1ccccc1OC1CCN(c2cccc(C(=O)NCCCCNC(=O)c3ccc(-c4c5nc(c(-c6cc(S(=O)(=O)[O-])ccc6F)c6ccc([nH]6)c(-c6cc(S(=O)(=O)[O-])ccc6F)c6nc(c(-c7cc(S(=O)(=O)[O-])ccc7F)c7ccc4[nH]7)C=C6)C=C5)cc3)n2)CC1
REMARK SMILES IDX 23 1 22 2 21 3 19 4 20 5 18 7 14 8 15 9 92 10 16 11 17 12
REMARK SMILES IDX 13 13 10 14 11 15 94 16 12 17 93 18 9 19 8 20 3 21 4 22 5 23
REMARK SMILES IDX 7 24 6 25 2 26 1 27 24 28 25 29 26 30 27 31 28 33 29 34
REMARK SMILES IDX 30 35 91 36 31 37 90 38 32 39 33 40 34 41 84 42 35 43 89 44
REMARK SMILES IDX 83 45 85 46 36 47 88 48 82 49 81 50 37 52 69 53 49 54 68 55
REMARK SMILES IDX 50 56 53 57 67 58 86 59 51 60 52 61 66 63 87 64 54 65 38 66
REMARK SMILES IDX 39 67 47 68 40 69 46 70 48 71 45 72 41 73 42 74 43 75 44 76
REMARK SMILES IDX 70 77 71 78 79 79 72 80 78 81 80 82 77 83 73 84 74 85 75 86
REMARK SMILES IDX 76 87 55 88 56 89 64 90 57 91 63 92 65 93 62 94 58 95 59 96
REMARK SMILES IDX 60 97 61 98
REMARK H PARENT 21 6 26 32 85 51 53 62
REMARK Flexibility Score: inf
ROOT
ATOM      1  C   UNL A   1      35.638  34.100  28.808  1.00  0.00     0.023 C 
ENDROOT
BRANCH   1   2
ATOM      2  C   UNL A   1      35.562  33.063  27.693  1.00  0.00     0.116 C 
BRANCH   2   3
ATOM      3  N   UNL A   1      35.861  31.744  28.186  1.00  0.00    -0.351 N 
ATOM      4  C   UNL A   1      35.197  30.545  28.176  1.00  0.00     0.269 C 
ATOM      5  O   UNL A   1      35.777  29.629  28.770  1.00  0.00    -0.268 OA
ATOM      6  H   UNL A   1      36.738  31.691  28.629  1.00  0.00     0.163 HD
BRANCH   4   7
ATOM      7  C   UNL A   1      33.875  30.269  27.498  1.00  0.00     0.130 A 
ATOM      8  C   UNL A   1      32.730  28.578  26.381  1.00  0.00     0.129 A 
ATOM      9  C   UNL A   1      31.731  29.451  25.990  1.00  0.00     0.047 A 
ATOM     10  N   UNL A   1      33.753  28.965  27.152  1.00  0.00    -0.226 NA
ATOM     11  C   UNL A   1      31.801  30.770  26.397  1.00  0.00     0.006 A 
ATOM     12  C   UNL A   1      32.898  31.190  27.146  1.00  0.00     0.034 A 
BRANCH   8  13
ATOM     13  N   UNL A   1      32.763  27.299  25.884  1.00  0.00    -0.356 N 
ATOM     14  C   UNL A   1      33.389  23.561  25.897  1.00  0.00     0.177 C 
ATOM     15  C   UNL A   1      31.696  24.286  26.523  1.00  0.00     0.066 C 
ATOM     16  C   UNL A   1      34.838  24.816  25.562  1.00  0.00     0.066 C 
ATOM     17  C   UNL A   1      31.355  26.189  26.316  1.00  0.00     0.122 C 
ATOM     18  C   UNL A   1      34.418  26.699  25.352  1.00  0.00     0.122 C 
BRANCH  14  19
ATOM     19  O   UNL A   1      33.108  22.938  24.608  1.00  0.00    -0.486 OA
BRANCH  19  20
ATOM     20  C   UNL A   1      33.228  21.569  24.747  1.00  0.00     0.161 A 
ATOM     21  C   UNL A   1      34.439  20.942  24.419  1.00  0.00     0.160 A 
ATOM     22  C   UNL A   1      34.560  19.561  24.564  1.00  0.00     0.050 A 
ATOM     23  C   UNL A   1      33.486  18.823  25.064  1.00  0.00     0.004 A 
ATOM     24  C   UNL A   1      32.153  20.838  25.235  1.00  0.00     0.050 A 
ATOM     25  C   UNL A   1      32.288  19.459  25.402  1.00  0.00     0.004 A 
BRANCH  21  26
ATOM     26  O   UNL A   1      35.386  21.865  24.018  1.00  0.00    -0.493 OA
ATOM     27  C   UNL A   1      36.677  23.027  23.376  1.00  0.00     0.278 C 
ENDBRANCH  21  26
ENDBRANCH  19  20
ENDBRANCH  14  19
ENDBRANCH   8  13
ENDBRANCH   4   7
ENDBRANCH   2   3
ENDBRANCH   1   2
BRANCH   1  28
ATOM     28  C   UNL A   1      34.386  34.974  28.896  1.00  0.00     0.023 C 
BRANCH  28  29
ATOM     29  C   UNL A   1      33.272  34.404  29.768  1.00  0.00     0.116 C 
BRANCH  29  30
ATOM     30  N   UNL A   1      32.606  35.410  30.585  1.00  0.00    -0.352 N 
ATOM     31  C   UNL A   1      32.867  35.731  31.897  1.00  0.00     0.251 C 
ATOM     32  H   UNL A   1      31.886  35.919  30.148  1.00  0.00     0.163 HD
ATOM     33  O   UNL A   1      32.145  36.511  32.506  1.00  0.00    -0.269 OA
BRANCH  31  34
ATOM     34  C   UNL A   1      34.012  35.073  32.553  1.00  0.00     0.039 A 
ATOM     35  C   UNL A   1      33.822  33.832  33.162  1.00  0.00     0.014 A 
ATOM     36  C   UNL A   1      35.286  35.635  32.447  1.00  0.00     0.014 A 
ATOM     37  C   UNL A   1      34.934  33.118  33.607  1.00  0.00     0.010 A 
ATOM     38  C   UNL A   1      36.395  34.881  32.808  1.00  0.00     0.010 A 
ATOM     39  C   UNL A   1      36.231  33.615  33.393  1.00  0.00    -0.014 A 
BRANCH  39  40
ATOM     40  C   UNL A   1      37.431  32.831  33.781  1.00  0.00     0.031 A 
ATOM     41  C   UNL A   1      38.197  33.206  35.021  1.00  0.00     0.074 A 
ATOM     42  C   UNL A   1      37.862  31.828  32.988  1.00  0.00     0.049 A 
ATOM     43  N   UNL A   1      39.306  32.698  35.492  1.00  0.00    -0.248 NA
ATOM     44  C   UNL A   1      37.661  34.319  35.820  1.00  0.00     0.031 C 
ATOM     45  C   UNL A   1      37.222  31.400  31.741  1.00  0.00     0.029 A 
ATOM     46  N   UNL A   1      38.943  30.989  33.106  1.00  0.00    -0.354 N 
ATOM     47  C   UNL A   1      39.610  33.441  36.627  1.00  0.00     0.074 A 
ATOM     48  C   UNL A   1      38.601  34.471  36.740  1.00  0.00     0.031 C 
ATOM     49  C   UNL A   1      37.904  30.363  31.229  1.00  0.00     0.029 A 
ATOM     50  C   UNL A   1      39.062  30.086  32.073  1.00  0.00     0.049 A 
ATOM     51  H   UNL A   1      39.576  31.031  33.859  1.00  0.00     0.167 HD
ATOM     52  C   UNL A   1      40.626  33.264  37.506  1.00  0.00     0.034 A 
ATOM     53  C   UNL A   1      40.007  29.157  31.823  1.00  0.00     0.034 A 
ATOM     54  C   UNL A   1      41.611  32.219  37.384  1.00  0.00     0.049 A 
ATOM     55  C   UNL A   1      41.149  29.006  32.800  1.00  0.00     0.074 A 
ATOM     56  C   UNL A   1      42.640  31.906  38.255  1.00  0.00     0.029 A 
ATOM     57  N   UNL A   1      41.704  31.330  36.322  1.00  0.00    -0.354 N 
ATOM     58  N   UNL A   1      41.383  29.673  33.908  1.00  0.00    -0.248 NA
ATOM     59  C   UNL A   1      42.149  27.973  32.500  1.00  0.00     0.031 C 
ATOM     60  C   UNL A   1      43.410  30.894  37.674  1.00  0.00     0.029 A 
ATOM     61  C   UNL A   1      42.801  30.500  36.493  1.00  0.00     0.049 A 
ATOM     62  H   UNL A   1      41.083  31.294  35.559  1.00  0.00     0.167 HD
ATOM     63  C   UNL A   1      42.533  29.110  34.455  1.00  0.00     0.074 A 
ATOM     64  C   UNL A   1      42.937  28.043  33.564  1.00  0.00     0.031 C 
ATOM     65  C   UNL A   1      43.192  29.439  35.595  1.00  0.00     0.034 A 
BRANCH  52  66
ATOM     66  C   UNL A   1      40.744  34.241  38.651  1.00  0.00     0.023 A 
ATOM     67  C   UNL A   1      40.120  34.018  39.890  1.00  0.00     0.031 A 
ATOM     68  C   UNL A   1      41.498  35.419  38.496  1.00  0.00     0.131 A 
ATOM     69  C   UNL A   1      40.208  34.985  40.902  1.00  0.00     0.055 A 
ATOM     70  C   UNL A   1      41.651  36.337  39.536  1.00  0.00     0.041 A 
ATOM     71  F   UNL A   1      42.093  35.702  37.327  1.00  0.00    -0.206 F 
ATOM     72  C   UNL A   1      40.994  36.129  40.745  1.00  0.00     0.022 A 
BRANCH  69  73
ATOM     73  S   UNL A   1      39.167  34.795  42.376  1.00  0.00     0.124 S 
ATOM     74  O   UNL A   1      38.717  33.411  42.242  1.00  0.00    -0.237 OA
ATOM     75  O   UNL A   1      40.105  35.060  43.460  1.00  0.00    -0.237 OA
ATOM     76  O   UNL A   1      38.124  35.802  42.191  1.00  0.00    -0.744 OA
ENDBRANCH  69  73
ENDBRANCH  52  66
BRANCH  53  77
ATOM     77  C   UNL A   1      39.944  28.311  30.594  1.00  0.00     0.023 A 
ATOM     78  C   UNL A   1      40.650  28.665  29.433  1.00  0.00     0.031 A 
ATOM     79  C   UNL A   1      39.116  27.175  30.536  1.00  0.00     0.131 A 
ATOM     80  C   UNL A   1      40.464  27.935  28.248  1.00  0.00     0.055 A 
ATOM     81  C   UNL A   1      38.990  26.410  29.375  1.00  0.00     0.041 A 
ATOM     82  F   UNL A   1      38.415  26.788  31.614  1.00  0.00    -0.206 F 
ATOM     83  C   UNL A   1      39.651  26.799  28.215  1.00  0.00     0.022 A 
BRANCH  80  84
ATOM     84  S   UNL A   1      41.196  28.570  26.715  1.00  0.00     0.124 S 
ATOM     85  O   UNL A   1      40.084  29.327  26.150  1.00  0.00    -0.237 OA
ATOM     86  O   UNL A   1      42.318  29.354  27.216  1.00  0.00    -0.237 OA
ATOM     87  O   UNL A   1      41.560  27.357  25.985  1.00  0.00    -0.744 OA
ENDBRANCH  80  84
ENDBRANCH  53  77
BRANCH  65  88
ATOM     88  C   UNL A   1      44.383  28.593  35.978  1.00  0.00     0.023 A 
ATOM     89  C   UNL A   1      45.693  28.926  35.593  1.00  0.00     0.031 A 
ATOM     90  C   UNL A   1      44.198  27.432  36.752  1.00  0.00     0.131 A 
ATOM     91  C   UNL A   1      46.759  28.082  35.938  1.00  0.00     0.055 A 
ATOM     92  C   UNL A   1      45.271  26.635  37.152  1.00  0.00     0.041 A 
ATOM     93  F   UNL A   1      42.969  27.060  37.143  1.00  0.00    -0.206 F 
ATOM     94  C   UNL A   1      46.559  26.951  36.734  1.00  0.00     0.022 A 
BRANCH  91  95
ATOM     95  S   UNL A   1      48.402  28.426  35.250  1.00  0.00     0.124 S 
ATOM     96  O   UNL A   1      48.992  29.272  36.282  1.00  0.00    -0.237 OA
ATOM     97  O   UNL A   1      48.972  27.088  35.119  1.00  0.00    -0.237 OA
ATOM     98  O   UNL A   1      48.110  29.101  33.987  1.00  0.00    -0.744 OA
ENDBRANCH  91  95
ENDBRANCH  65  88
ENDBRANCH  39  40
ENDBRANCH  31  34
ENDBRANCH  29  30
ENDBRANCH  28  29
ENDBRANCH   1  28
TORSDOF 18
ENDMDL
MODEL 3
REMARK VINA RESULT:     -11.1      6.385     11.561
REMARK SMILES COc1ccccc1OC1CCN(c2cccc(C(=O)NCCCCNC(=O)c3ccc(-c4c5nc(c(-c6cc(S(=O)(=O)[O-])ccc6F)c6ccc([nH]6)c(-c6cc(S(=O)(=O)[O-])ccc6F)c6nc(c(-c7cc(S(=O)(=O)[O-])ccc7F)c7ccc4[nH]7)C=C6)C=C5)cc3)n2)CC1
REMARK SMILES IDX 23 1 22 2 21 3 19 4 20 5 18 7 14 8 15 9 92 10 16 11 17 12
REMARK SMILES IDX 13 13 10 14 11 15 94 16 12 17 93 18 9 19 8 20 3 21 4 22 5 23
REMARK SMILES IDX 7 24 6 25 2 26 1 27 24 28 25 29 26 30 27 31 28 33 29 34
REMARK SMILES IDX 30 35 91 36 31 37 90 38 32 39 33 40 34 41 84 42 35 43 89 44
REMARK SMILES IDX 83 45 85 46 36 47 88 48 82 49 81 50 37 52 69 53 49 54 68 55
REMARK SMILES IDX 50 56 53 57 67 58 86 59 51 60 52 61 66 63 87 64 54 65 38 66
REMARK SMILES IDX 39 67 47 68 40 69 46 70 48 71 45 72 41 73 42 74 43 75 44 76
REMARK SMILES IDX 70 77 71 78 79 79 72 80 78 81 80 82 77 83 73 84 74 85 75 86
REMARK SMILES IDX 76 87 55 88 56 89 64 90 57 91 63 92 65 93 62 94 58 95 59 96
REMARK SMILES IDX 60 97 61 98
REMARK H PARENT 21 6 26 32 85 51 53 62
REMARK Flexibility Score: inf
ROOT
ATOM      1  C   UNL A   1      41.427  21.535  27.601  1.00  0.00     0.023 C 
ENDROOT
BRANCH   1   2
ATOM      2  C   UNL A   1      40.678  22.280  26.502  1.00  0.00     0.116 C 
BRANCH   2   3
ATOM      3  N   UNL A   1      39.953  23.403  27.035  1.00  0.00    -0.351 N 
ATOM      4  C   UNL A   1      38.715  23.944  26.798  1.00  0.00     0.269 C 
ATOM      5  O   UNL A   1      38.472  24.975  27.436  1.00  0.00    -0.268 OA
ATOM      6  H   UNL A   1      40.457  23.893  27.724  1.00  0.00     0.163 HD
BRANCH   4   7
ATOM      7  C   UNL A   1      37.664  23.379  25.872  1.00  0.00     0.130 A 
ATOM      8  C   UNL A   1      35.505  23.801  25.110  1.00  0.00     0.129 A 
ATOM      9  C   UNL A   1      35.431  22.564  24.496  1.00  0.00     0.047 A 
ATOM     10  N   UNL A   1      36.607  24.217  25.744  1.00  0.00    -0.226 NA
ATOM     11  C   UNL A   1      36.529  21.725  24.553  1.00  0.00     0.006 A 
ATOM     12  C   UNL A   1      37.654  22.129  25.266  1.00  0.00     0.034 A 
BRANCH   8  13
ATOM     13  N   UNL A   1      34.392  24.601  25.189  1.00  0.00    -0.356 N 
ATOM     14  C   UNL A   1      30.916  25.846  24.337  1.00  0.00     0.177 C 
ATOM     15  C   UNL A   1      31.172  24.451  25.668  1.00  0.00     0.066 C 
ATOM     16  C   UNL A   1      32.452  26.352  23.255  1.00  0.00     0.066 C 
ATOM     17  C   UNL A   1      32.982  23.986  26.205  1.00  0.00     0.122 C 
ATOM     18  C   UNL A   1      34.229  25.865  23.864  1.00  0.00     0.122 C 
BRANCH  14  19
ATOM     19  O   UNL A   1      30.549  27.048  25.080  1.00  0.00    -0.486 OA
BRANCH  19  20
ATOM     20  C   UNL A   1      29.845  27.886  24.238  1.00  0.00     0.161 A 
ATOM     21  C   UNL A   1      30.319  29.183  23.995  1.00  0.00     0.160 A 
ATOM     22  C   UNL A   1      29.610  30.026  23.141  1.00  0.00     0.050 A 
ATOM     23  C   UNL A   1      28.454  29.560  22.514  1.00  0.00     0.004 A 
ATOM     24  C   UNL A   1      28.690  27.419  23.624  1.00  0.00     0.050 A 
ATOM     25  C   UNL A   1      27.997  28.259  22.751  1.00  0.00     0.004 A 
BRANCH  21  26
ATOM     26  O   UNL A   1      31.512  29.410  24.654  1.00  0.00    -0.493 OA
ATOM     27  C   UNL A   1      33.171  29.698  25.426  1.00  0.00     0.278 C 
ENDBRANCH  21  26
ENDBRANCH  19  20
ENDBRANCH  14  19
ENDBRANCH   8  13
ENDBRANCH   4   7
ENDBRANCH   2   3
ENDBRANCH   1   2
BRANCH   1  28
ATOM     28  C   UNL A   1      42.251  20.361  27.070  1.00  0.00     0.023 C 
BRANCH  28  29
ATOM     29  C   UNL A   1      42.125  20.123  25.569  1.00  0.00     0.116 C 
BRANCH  29  30
ATOM     30  N   UNL A   1      43.167  19.257  25.032  1.00  0.00    -0.352 N 
ATOM     31  C   UNL A   1      44.443  19.612  24.663  1.00  0.00     0.251 C 
ATOM     32  H   UNL A   1      42.929  18.309  24.919  1.00  0.00     0.163 HD
ATOM     33  O   UNL A   1      45.179  18.809  24.104  1.00  0.00    -0.269 OA
BRANCH  31  34
ATOM     34  C   UNL A   1      44.875  20.998  24.922  1.00  0.00     0.039 A 
ATOM     35  C   UNL A   1      44.531  21.996  24.011  1.00  0.00     0.014 A 
ATOM     36  C   UNL A   1      45.507  21.311  26.128  1.00  0.00     0.014 A 
ATOM     37  C   UNL A   1      44.763  23.330  24.346  1.00  0.00     0.010 A 
ATOM     38  C   UNL A   1      45.651  22.642  26.495  1.00  0.00     0.010 A 
ATOM     39  C   UNL A   1      45.282  23.666  25.608  1.00  0.00    -0.014 A 
BRANCH  39  40
ATOM     40  C   UNL A   1      45.454  25.083  26.018  1.00  0.00     0.031 A 
ATOM     41  C   UNL A   1      46.826  25.702  25.999  1.00  0.00     0.074 A 
ATOM     42  C   UNL A   1      44.393  25.787  26.463  1.00  0.00     0.049 A 
ATOM     43  N   UNL A   1      47.200  26.894  26.384  1.00  0.00    -0.248 NA
ATOM     44  C   UNL A   1      47.927  24.858  25.508  1.00  0.00     0.031 C 
ATOM     45  C   UNL A   1      43.023  25.279  26.563  1.00  0.00     0.029 A 
ATOM     46  N   UNL A   1      44.298  27.078  26.922  1.00  0.00    -0.354 N 
ATOM     47  C   UNL A   1      48.578  26.936  26.203  1.00  0.00     0.074 A 
ATOM     48  C   UNL A   1      48.980  25.630  25.729  1.00  0.00     0.031 C 
ATOM     49  C   UNL A   1      42.223  26.255  27.021  1.00  0.00     0.029 A 
ATOM     50  C   UNL A   1      43.026  27.440  27.306  1.00  0.00     0.049 A 
ATOM     51  H   UNL A   1      45.069  27.688  26.973  1.00  0.00     0.167 HD
ATOM     52  C   UNL A   1      49.425  27.975  26.395  1.00  0.00     0.034 A 
ATOM     53  C   UNL A   1      42.564  28.586  27.846  1.00  0.00     0.034 A 
ATOM     54  C   UNL A   1      48.999  29.274  26.853  1.00  0.00     0.049 A 
ATOM     55  C   UNL A   1      43.537  29.717  28.084  1.00  0.00     0.074 A 
ATOM     56  C   UNL A   1      49.762  30.418  27.013  1.00  0.00     0.029 A 
ATOM     57  N   UNL A   1      47.707  29.601  27.239  1.00  0.00    -0.354 N 
ATOM     58  N   UNL A   1      44.828  29.762  27.841  1.00  0.00    -0.248 NA
ATOM     59  C   UNL A   1      42.993  30.954  28.658  1.00  0.00     0.031 C 
ATOM     60  C   UNL A   1      48.954  31.404  27.585  1.00  0.00     0.029 A 
ATOM     61  C   UNL A   1      47.662  30.914  27.682  1.00  0.00     0.049 A 
ATOM     62  H   UNL A   1      46.935  28.990  27.204  1.00  0.00     0.167 HD
ATOM     63  C   UNL A   1      45.237  31.045  28.195  1.00  0.00     0.074 A 
ATOM     64  C   UNL A   1      44.056  31.745  28.655  1.00  0.00     0.031 C 
ATOM     65  C   UNL A   1      46.475  31.599  28.139  1.00  0.00     0.034 A 
BRANCH  52  66
ATOM     66  C   UNL A   1      50.895  27.741  26.148  1.00  0.00     0.023 A 
ATOM     67  C   UNL A   1      51.461  27.829  24.864  1.00  0.00     0.031 A 
ATOM     68  C   UNL A   1      51.748  27.421  27.221  1.00  0.00     0.131 A 
ATOM     69  C   UNL A   1      52.820  27.540  24.677  1.00  0.00     0.055 A 
ATOM     70  C   UNL A   1      53.117  27.219  27.040  1.00  0.00     0.041 A 
ATOM     71  F   UNL A   1      51.262  27.295  28.466  1.00  0.00    -0.206 F 
ATOM     72  C   UNL A   1      53.659  27.266  25.759  1.00  0.00     0.022 A 
BRANCH  69  73
ATOM     73  S   UNL A   1      53.449  27.391  22.981  1.00  0.00     0.124 S 
ATOM     74  O   UNL A   1      53.533  28.792  22.575  1.00  0.00    -0.237 OA
ATOM     75  O   UNL A   1      54.720  26.704  23.175  1.00  0.00    -0.237 OA
ATOM     76  O   UNL A   1      52.416  26.614  22.300  1.00  0.00    -0.744 OA
ENDBRANCH  69  73
ENDBRANCH  52  66
BRANCH  53  77
ATOM     77  C   UNL A   1      41.128  28.730  28.226  1.00  0.00     0.023 A 
ATOM     78  C   UNL A   1      40.711  28.574  29.559  1.00  0.00     0.031 A 
ATOM     79  C   UNL A   1      40.136  28.950  27.252  1.00  0.00     0.131 A 
ATOM     80  C   UNL A   1      39.342  28.572  29.870  1.00  0.00     0.055 A 
ATOM     81  C   UNL A   1      38.781  29.019  27.578  1.00  0.00     0.041 A 
ATOM     82  F   UNL A   1      40.474  29.105  25.961  1.00  0.00    -0.206 F 
ATOM     83  C   UNL A   1      38.374  28.811  28.891  1.00  0.00     0.022 A 
BRANCH  80  84
ATOM     84  S   UNL A   1      38.837  28.120  31.553  1.00  0.00     0.124 S 
ATOM     85  O   UNL A   1      38.527  26.704  31.396  1.00  0.00    -0.237 OA
ATOM     86  O   UNL A   1      40.034  28.435  32.323  1.00  0.00    -0.237 OA
ATOM     87  O   UNL A   1      37.688  28.987  31.806  1.00  0.00    -0.744 OA
ENDBRANCH  80  84
ENDBRANCH  53  77
BRANCH  65  88
ATOM     88  C   UNL A   1      46.604  33.053  28.523  1.00  0.00     0.023 A 
ATOM     89  C   UNL A   1      46.466  34.091  27.585  1.00  0.00     0.031 A 
ATOM     90  C   UNL A   1      46.863  33.404  29.861  1.00  0.00     0.131 A 
ATOM     91  C   UNL A   1      46.639  35.424  27.987  1.00  0.00     0.055 A 
ATOM     92  C   UNL A   1      46.964  34.735  30.268  1.00  0.00     0.041 A 
ATOM     93  F   UNL A   1      47.012  32.456  30.800  1.00  0.00    -0.206 F 
ATOM     94  C   UNL A   1      46.866  35.753  29.326  1.00  0.00     0.022 A 
BRANCH  91  95
ATOM     95  S   UNL A   1      46.664  36.720  26.719  1.00  0.00     0.124 S 
ATOM     96  O   UNL A   1      45.338  37.311  26.862  1.00  0.00    -0.237 OA
ATOM     97  O   UNL A   1      47.784  37.554  27.147  1.00  0.00    -0.237 OA
ATOM     98  O   UNL A   1      46.883  35.981  25.477  1.00  0.00    -0.744 OA
ENDBRANCH  91  95
ENDBRANCH  65  88
ENDBRANCH  39  40
ENDBRANCH  31  34
ENDBRANCH  29  30
ENDBRANCH  28  29
ENDBRANCH   1  28
TORSDOF 18
ENDMDL
