MODEL 1
REMARK VINA RESULT:     -11.4      0.000      0.000
REMARK SMILES C[C@H]1CCC[C@@](NC(=O)N2CCO[C@H](C#N)C2)(C(=O)NCCCCNC(=O)c2ccc(-c3c4nc(c(-c5cc(S(=O)(=O)[O-])ccc5F)c5ccc([nH]5)c(-c5cc(S(=O)(=O)[O-])ccc5F)c5nc(c(-c6cc(S(=O)(=O)[O-])ccc6F)c6ccc3[nH]6)C=C5)C=C4)cc2)C1
REMARK SMILES IDX 22 1 21 2 20 3 18 4 19 5 6 7 1 8 2 9 3 10 91 11 4 12 5 13
REMARK SMILES IDX 7 14 8 15 9 17 10 18 11 19 17 20 12 21 14 22 13 23 15 24
REMARK SMILES IDX 16 25 23 26 24 27 25 28 26 29 27 31 28 32 29 33 90 34 30 35
REMARK SMILES IDX 89 36 31 37 32 38 33 39 83 40 34 41 88 42 82 43 84 44 35 45
REMARK SMILES IDX 87 46 81 47 80 48 36 50 68 51 48 52 67 53 49 54 52 55 66 56
REMARK SMILES IDX 85 57 50 58 51 59 65 61 86 62 53 63 37 64 38 65 46 66 39 67
REMARK SMILES IDX 45 68 47 69 44 70 40 71 41 72 42 73 43 74 69 75 70 76 78 77
REMARK SMILES IDX 71 78 77 79 79 80 76 81 72 82 73 83 74 84 75 85 54 86 55 87
REMARK SMILES IDX 63 88 56 89 62 90 64 91 61 92 57 93 58 94 59 95 60 96
REMARK H PARENT 20 6 7 16 25 30 84 49 52 60
REMARK Flexibility Score: inf
ROOT
ATOM      1  C   UNL A   1      34.530  24.193  24.640  1.00  0.00     0.023 C 
ENDROOT
BRANCH   1   2
ATOM      2  C   UNL A   1      34.393  25.600  25.201  1.00  0.00     0.116 C 
BRANCH   2   3
ATOM      3  N   UNL A   1      33.165  25.719  25.976  1.00  0.00    -0.354 N 
ATOM      4  C   UNL A   1      32.411  26.818  26.284  1.00  0.00     0.245 C 
ATOM      5  O   UNL A   1      31.371  26.625  26.920  1.00  0.00    -0.272 OA
ATOM      6  H   UNL A   1      32.821  24.869  26.337  1.00  0.00     0.163 HD
BRANCH   4   7
ATOM      7  C   UNL A   1      32.909  28.242  25.939  1.00  0.00     0.121 C 
ATOM      8  C   UNL A   1      31.264  31.763  26.650  1.00  0.00     0.008 C 
ATOM      9  C   UNL A   1      32.381  30.771  26.320  1.00  0.00    -0.011 C 
ATOM     10  C   UNL A   1      33.431  30.830  27.431  1.00  0.00     0.003 C 
ATOM     11  C   UNL A   1      31.820  29.338  26.121  1.00  0.00     0.042 C 
ATOM     12  C   UNL A   1      34.560  29.872  27.136  1.00  0.00     0.003 C 
ATOM     13  C   UNL A   1      34.016  28.465  27.024  1.00  0.00     0.039 C 
BRANCH   7  14
ATOM     14  N   UNL A   1      33.446  28.294  24.557  1.00  0.00    -0.323 N 
ATOM     15  C   UNL A   1      32.928  28.455  23.312  1.00  0.00     0.318 C 
ATOM     16  H   UNL A   1      34.424  28.186  24.538  1.00  0.00     0.166 HD
ATOM     17  O   UNL A   1      33.745  28.451  22.387  1.00  0.00    -0.249 OA
BRANCH  15  18
ATOM     18  N   UNL A   1      31.581  28.385  23.072  1.00  0.00    -0.319 N 
ATOM     19  C   UNL A   1      30.955  27.051  23.085  1.00  0.00     0.150 C 
ATOM     20  C   UNL A   1      30.777  29.368  22.320  1.00  0.00     0.169 C 
ATOM     21  C   UNL A   1      29.493  27.147  23.545  1.00  0.00     0.183 C 
ATOM     22  C   UNL A   1      29.308  29.385  22.806  1.00  0.00     0.240 C 
ATOM     23  O   UNL A   1      28.750  28.051  22.716  1.00  0.00    -0.360 OA
BRANCH  22  24
ATOM     24  C   UNL A   1      28.504  30.342  22.025  1.00  0.00     0.096 C 
ATOM     25  N   UNL A   1      27.861  31.108  21.439  1.00  0.00    -0.195 NA
ENDBRANCH  22  24
ENDBRANCH  15  18
ENDBRANCH   7  14
ENDBRANCH   4   7
ENDBRANCH   2   3
ENDBRANCH   1   2
BRANCH   1  26
ATOM     26  C   UNL A   1      35.218  23.247  25.621  1.00  0.00     0.023 C 
BRANCH  26  27
ATOM     27  C   UNL A   1      36.609  23.704  26.038  1.00  0.00     0.116 C 
BRANCH  27  28
ATOM     28  N   UNL A   1      37.574  22.624  26.059  1.00  0.00    -0.352 N 
ATOM     29  C   UNL A   1      38.906  22.690  26.391  1.00  0.00     0.251 C 
ATOM     30  H   UNL A   1      37.235  21.736  25.805  1.00  0.00     0.163 HD
ATOM     31  O   UNL A   1      39.629  21.712  26.238  1.00  0.00    -0.269 OA
BRANCH  29  32
ATOM     32  C   UNL A   1      39.452  23.972  26.882  1.00  0.00     0.039 A 
ATOM     33  C   UNL A   1      40.024  24.850  25.962  1.00  0.00     0.014 A 
ATOM     34  C   UNL A   1      39.333  24.329  28.229  1.00  0.00     0.014 A 
ATOM     35  C   UNL A   1      40.436  26.114  26.385  1.00  0.00     0.010 A 
ATOM     36  C   UNL A   1      39.663  25.620  28.628  1.00  0.00     0.010 A 
ATOM     37  C   UNL A   1      40.232  26.522  27.713  1.00  0.00    -0.014 A 
BRANCH  37  38
ATOM     38  C   UNL A   1      40.656  27.868  28.180  1.00  0.00     0.031 A 
ATOM     39  C   UNL A   1      42.124  28.189  28.273  1.00  0.00     0.074 A 
ATOM     40  C   UNL A   1      39.740  28.783  28.555  1.00  0.00     0.049 A 
ATOM     41  N   UNL A   1      42.711  29.255  28.750  1.00  0.00    -0.248 NA
ATOM     42  C   UNL A   1      43.052  27.157  27.785  1.00  0.00     0.031 C 
ATOM     43  C   UNL A   1      38.289  28.593  28.513  1.00  0.00     0.029 A 
ATOM     44  N   UNL A   1      39.892  30.055  29.053  1.00  0.00    -0.354 N 
ATOM     45  C   UNL A   1      44.077  29.018  28.631  1.00  0.00     0.074 A 
ATOM     46  C   UNL A   1      44.226  27.680  28.103  1.00  0.00     0.031 C 
ATOM     47  C   UNL A   1      37.686  29.713  28.944  1.00  0.00     0.029 A 
ATOM     48  C   UNL A   1      38.703  30.678  29.354  1.00  0.00     0.049 A 
ATOM     49  H   UNL A   1      40.770  30.480  29.183  1.00  0.00     0.167 HD
ATOM     50  C   UNL A   1      45.109  29.849  28.915  1.00  0.00     0.034 A 
ATOM     51  C   UNL A   1      38.458  31.878  29.923  1.00  0.00     0.034 A 
ATOM     52  C   UNL A   1      44.941  31.180  29.442  1.00  0.00     0.049 A 
ATOM     53  C   UNL A   1      39.626  32.757  30.307  1.00  0.00     0.074 A 
ATOM     54  C   UNL A   1      45.917  32.115  29.741  1.00  0.00     0.029 A 
ATOM     55  N   UNL A   1      43.721  31.764  29.762  1.00  0.00    -0.354 N 
ATOM     56  N   UNL A   1      40.912  32.524  30.175  1.00  0.00    -0.248 NA
ATOM     57  C   UNL A   1      39.312  34.059  30.909  1.00  0.00     0.031 C 
ATOM     58  C   UNL A   1      45.298  33.222  30.325  1.00  0.00     0.029 A 
ATOM     59  C   UNL A   1      43.926  33.030  30.288  1.00  0.00     0.049 A 
ATOM     60  H   UNL A   1      42.842  31.341  29.633  1.00  0.00     0.167 HD
ATOM     61  C   UNL A   1      41.555  33.673  30.632  1.00  0.00     0.074 A 
ATOM     62  C   UNL A   1      40.517  34.593  31.044  1.00  0.00     0.031 C 
ATOM     63  C   UNL A   1      42.883  33.946  30.689  1.00  0.00     0.034 A 
BRANCH  50  64
ATOM     64  C   UNL A   1      46.507  29.322  28.696  1.00  0.00     0.023 A 
ATOM     65  C   UNL A   1      47.016  29.092  27.406  1.00  0.00     0.031 A 
ATOM     66  C   UNL A   1      47.333  29.017  29.792  1.00  0.00     0.131 A 
ATOM     67  C   UNL A   1      48.275  28.495  27.246  1.00  0.00     0.055 A 
ATOM     68  C   UNL A   1      48.625  28.514  29.623  1.00  0.00     0.041 A 
ATOM     69  F   UNL A   1      46.894  29.189  31.049  1.00  0.00    -0.206 F 
ATOM     70  C   UNL A   1      49.097  28.234  28.345  1.00  0.00     0.022 A 
BRANCH  67  71
ATOM     71  S   UNL A   1      48.748  27.907  25.597  1.00  0.00     0.124 S 
ATOM     72  O   UNL A   1      48.762  26.459  25.795  1.00  0.00    -0.237 OA
ATOM     73  O   UNL A   1      47.677  28.426  24.756  1.00  0.00    -0.237 OA
ATOM     74  O   UNL A   1      50.062  28.510  25.383  1.00  0.00    -0.744 OA
ENDBRANCH  67  71
ENDBRANCH  50  64
BRANCH  51  75
ATOM     75  C   UNL A   1      37.056  32.316  30.196  1.00  0.00     0.023 A 
ATOM     76  C   UNL A   1      36.314  33.020  29.235  1.00  0.00     0.031 A 
ATOM     77  C   UNL A   1      36.458  32.087  31.449  1.00  0.00     0.131 A 
ATOM     78  C   UNL A   1      35.042  33.518  29.560  1.00  0.00     0.055 A 
ATOM     79  C   UNL A   1      35.167  32.525  31.744  1.00  0.00     0.041 A 
ATOM     80  F   UNL A   1      37.123  31.422  32.409  1.00  0.00    -0.206 F 
ATOM     81  C   UNL A   1      34.456  33.260  30.800  1.00  0.00     0.022 A 
BRANCH  78  82
ATOM     82  S   UNL A   1      34.210  34.612  28.377  1.00  0.00     0.124 S 
ATOM     83  O   UNL A   1      34.772  34.158  27.110  1.00  0.00    -0.237 OA
ATOM     84  O   UNL A   1      32.804  34.294  28.606  1.00  0.00    -0.237 OA
ATOM     85  O   UNL A   1      34.622  35.949  28.801  1.00  0.00    -0.744 OA
ENDBRANCH  78  82
ENDBRANCH  51  75
BRANCH  63  86
ATOM     86  C   UNL A   1      43.300  35.330  31.131  1.00  0.00     0.023 A 
ATOM     87  C   UNL A   1      43.483  36.389  30.226  1.00  0.00     0.031 A 
ATOM     88  C   UNL A   1      43.482  35.593  32.501  1.00  0.00     0.131 A 
ATOM     89  C   UNL A   1      43.877  37.651  30.700  1.00  0.00     0.055 A 
ATOM     90  C   UNL A   1      43.805  36.866  32.973  1.00  0.00     0.041 A 
ATOM     91  F   UNL A   1      43.330  34.617  33.411  1.00  0.00    -0.206 F 
ATOM     92  C   UNL A   1      44.014  37.901  32.069  1.00  0.00     0.022 A 
BRANCH  89  93
ATOM     93  S   UNL A   1      44.293  38.947  29.501  1.00  0.00     0.124 S 
ATOM     94  O   UNL A   1      44.183  40.156  30.311  1.00  0.00    -0.237 OA
ATOM     95  O   UNL A   1      45.643  38.574  29.092  1.00  0.00    -0.237 OA
ATOM     96  O   UNL A   1      43.269  38.799  28.467  1.00  0.00    -0.744 OA
ENDBRANCH  89  93
ENDBRANCH  63  86
ENDBRANCH  37  38
ENDBRANCH  29  32
ENDBRANCH  27  28
ENDBRANCH  26  27
ENDBRANCH   1  26
TORSDOF 17
ENDMDL
MODEL 2
REMARK VINA RESULT:     -11.4      1.716      2.037
REMARK SMILES C[C@H]1CCC[C@@](NC(=O)N2CCO[C@H](C#N)C2)(C(=O)NCCCCNC(=O)c2ccc(-c3c4nc(c(-c5cc(S(=O)(=O)[O-])ccc5F)c5ccc([nH]5)c(-c5cc(S(=O)(=O)[O-])ccc5F)c5nc(c(-c6cc(S(=O)(=O)[O-])ccc6F)c6ccc3[nH]6)C=C5)C=C4)cc2)C1
REMARK SMILES IDX 22 1 21 2 20 3 18 4 19 5 6 7 1 8 2 9 3 10 91 11 4 12 5 13
REMARK SMILES IDX 7 14 8 15 9 17 10 18 11 19 17 20 12 21 14 22 13 23 15 24
REMARK SMILES IDX 16 25 23 26 24 27 25 28 26 29 27 31 28 32 29 33 90 34 30 35
REMARK SMILES IDX 89 36 31 37 32 38 33 39 83 40 34 41 88 42 82 43 84 44 35 45
REMARK SMILES IDX 87 46 81 47 80 48 36 50 68 51 48 52 67 53 49 54 52 55 66 56
REMARK SMILES IDX 85 57 50 58 51 59 65 61 86 62 53 63 37 64 38 65 46 66 39 67
REMARK SMILES IDX 45 68 47 69 44 70 40 71 41 72 42 73 43 74 69 75 70 76 78 77
REMARK SMILES IDX 71 78 77 79 79 80 76 81 72 82 73 83 74 84 75 85 54 86 55 87
REMARK SMILES IDX 63 88 56 89 62 90 64 91 61 92 57 93 58 94 59 95 60 96
REMARK H PARENT 20 6 7 16 25 30 84 49 52 60
REMARK Flexibility Score: inf
ROOT
ATOM      1  C   UNL A   1      34.234  23.883  25.148  1.00  0.00     0.023 C 
ENDROOT
BRANCH   1   2
ATOM      2  C   UNL A   1      34.079  25.358  25.487  1.00  0.00     0.116 C 
BRANCH   2   3
ATOM      3  N   UNL A   1      32.808  25.591  26.162  1.00  0.00    -0.354 N 
ATOM      4  C   UNL A   1      32.095  26.744  26.340  1.00  0.00     0.245 C 
ATOM      5  O   UNL A   1      31.005  26.648  26.911  1.00  0.00    -0.272 OA
ATOM      6  H   UNL A   1      32.396  24.787  26.554  1.00  0.00     0.163 HD
BRANCH   4   7
ATOM      7  C   UNL A   1      32.690  28.115  25.936  1.00  0.00     0.121 C 
ATOM      8  C   UNL A   1      31.284  31.767  26.473  1.00  0.00     0.008 C 
ATOM      9  C   UNL A   1      32.333  30.688  26.199  1.00  0.00    -0.011 C 
ATOM     10  C   UNL A   1      33.377  30.726  27.316  1.00  0.00     0.003 C 
ATOM     11  C   UNL A   1      31.678  29.289  26.058  1.00  0.00     0.042 C 
ATOM     12  C   UNL A   1      34.441  29.682  27.076  1.00  0.00     0.003 C 
ATOM     13  C   UNL A   1      33.803  28.311  27.021  1.00  0.00     0.039 C 
BRANCH   7  14
ATOM     14  N   UNL A   1      33.239  28.067  24.559  1.00  0.00    -0.323 N 
ATOM     15  C   UNL A   1      32.746  28.227  23.304  1.00  0.00     0.318 C 
ATOM     16  H   UNL A   1      34.204  27.872  24.554  1.00  0.00     0.166 HD
ATOM     17  O   UNL A   1      33.565  28.116  22.388  1.00  0.00    -0.249 OA
BRANCH  15  18
ATOM     18  N   UNL A   1      31.400  28.268  23.053  1.00  0.00    -0.319 N 
ATOM     19  C   UNL A   1      30.667  26.990  23.055  1.00  0.00     0.150 C 
ATOM     20  C   UNL A   1      30.685  29.316  22.299  1.00  0.00     0.169 C 
ATOM     21  C   UNL A   1      29.214  27.203  23.505  1.00  0.00     0.183 C 
ATOM     22  C   UNL A   1      29.217  29.451  22.775  1.00  0.00     0.240 C 
ATOM     23  O   UNL A   1      28.553  28.167  22.674  1.00  0.00    -0.360 OA
BRANCH  22  24
ATOM     24  C   UNL A   1      28.501  30.474  21.991  1.00  0.00     0.096 C 
ATOM     25  N   UNL A   1      27.966  31.293  21.370  1.00  0.00    -0.195 NA
ENDBRANCH  22  24
ENDBRANCH  15  18
ENDBRANCH   7  14
ENDBRANCH   4   7
ENDBRANCH   2   3
ENDBRANCH   1   2
BRANCH   1  26
ATOM     26  C   UNL A   1      35.190  23.170  26.101  1.00  0.00     0.023 C 
BRANCH  26  27
ATOM     27  C   UNL A   1      36.626  23.667  26.011  1.00  0.00     0.116 C 
BRANCH  27  28
ATOM     28  N   UNL A   1      37.597  22.592  26.062  1.00  0.00    -0.352 N 
ATOM     29  C   UNL A   1      38.927  22.673  26.400  1.00  0.00     0.251 C 
ATOM     30  H   UNL A   1      37.264  21.697  25.827  1.00  0.00     0.163 HD
ATOM     31  O   UNL A   1      39.656  21.696  26.274  1.00  0.00    -0.269 OA
BRANCH  29  32
ATOM     32  C   UNL A   1      39.463  23.969  26.864  1.00  0.00     0.039 A 
ATOM     33  C   UNL A   1      40.035  24.829  25.928  1.00  0.00     0.014 A 
ATOM     34  C   UNL A   1      39.335  24.357  28.202  1.00  0.00     0.014 A 
ATOM     35  C   UNL A   1      40.438  26.105  26.324  1.00  0.00     0.010 A 
ATOM     36  C   UNL A   1      39.655  25.658  28.573  1.00  0.00     0.010 A 
ATOM     37  C   UNL A   1      40.225  26.542  27.640  1.00  0.00    -0.014 A 
BRANCH  37  38
ATOM     38  C   UNL A   1      40.638  27.901  28.079  1.00  0.00     0.031 A 
ATOM     39  C   UNL A   1      42.101  28.256  28.100  1.00  0.00     0.074 A 
ATOM     40  C   UNL A   1      39.720  28.797  28.491  1.00  0.00     0.049 A 
ATOM     41  N   UNL A   1      42.685  29.338  28.542  1.00  0.00    -0.248 NA
ATOM     42  C   UNL A   1      43.029  27.242  27.576  1.00  0.00     0.031 C 
ATOM     43  C   UNL A   1      38.274  28.573  28.519  1.00  0.00     0.029 A 
ATOM     44  N   UNL A   1      39.865  30.076  28.974  1.00  0.00    -0.354 N 
ATOM     45  C   UNL A   1      44.049  29.133  28.361  1.00  0.00     0.074 A 
ATOM     46  C   UNL A   1      44.205  27.795  27.834  1.00  0.00     0.031 C 
ATOM     47  C   UNL A   1      37.666  29.682  28.971  1.00  0.00     0.029 A 
ATOM     48  C   UNL A   1      38.677  30.674  29.327  1.00  0.00     0.049 A 
ATOM     49  H   UNL A   1      40.738  30.522  29.059  1.00  0.00     0.167 HD
ATOM     50  C   UNL A   1      45.074  29.989  28.590  1.00  0.00     0.034 A 
ATOM     51  C   UNL A   1      38.432  31.871  29.900  1.00  0.00     0.034 A 
ATOM     52  C   UNL A   1      44.900  31.320  29.117  1.00  0.00     0.049 A 
ATOM     53  C   UNL A   1      39.596  32.779  30.222  1.00  0.00     0.074 A 
ATOM     54  C   UNL A   1      45.867  32.279  29.363  1.00  0.00     0.029 A 
ATOM     55  N   UNL A   1      43.683  31.878  29.490  1.00  0.00    -0.354 N 
ATOM     56  N   UNL A   1      40.880  32.576  30.031  1.00  0.00    -0.248 NA
ATOM     57  C   UNL A   1      39.281  34.079  30.830  1.00  0.00     0.031 C 
ATOM     58  C   UNL A   1      45.250  33.376  29.969  1.00  0.00     0.029 A 
ATOM     59  C   UNL A   1      43.883  33.152  29.998  1.00  0.00     0.049 A 
ATOM     60  H   UNL A   1      42.809  31.434  29.406  1.00  0.00     0.167 HD
ATOM     61  C   UNL A   1      41.516  33.742  30.450  1.00  0.00     0.074 A 
ATOM     62  C   UNL A   1      40.478  34.641  30.906  1.00  0.00     0.031 C 
ATOM     63  C   UNL A   1      42.839  34.046  30.442  1.00  0.00     0.034 A 
BRANCH  50  64
ATOM     64  C   UNL A   1      46.471  29.493  28.308  1.00  0.00     0.023 A 
ATOM     65  C   UNL A   1      47.213  28.786  29.271  1.00  0.00     0.031 A 
ATOM     66  C   UNL A   1      47.084  29.753  27.069  1.00  0.00     0.131 A 
ATOM     67  C   UNL A   1      48.548  28.442  29.013  1.00  0.00     0.055 A 
ATOM     68  C   UNL A   1      48.380  29.321  26.783  1.00  0.00     0.041 A 
ATOM     69  F   UNL A   1      46.437  30.447  26.119  1.00  0.00    -0.206 F 
ATOM     70  C   UNL A   1      49.127  28.676  27.763  1.00  0.00     0.022 A 
BRANCH  67  71
ATOM     71  S   UNL A   1      49.566  27.842  30.389  1.00  0.00     0.124 S 
ATOM     72  O   UNL A   1      50.702  27.258  29.679  1.00  0.00    -0.237 OA
ATOM     73  O   UNL A   1      49.839  29.064  31.136  1.00  0.00    -0.237 OA
ATOM     74  O   UNL A   1      48.698  26.877  31.061  1.00  0.00    -0.744 OA
ENDBRANCH  67  71
ENDBRANCH  50  64
BRANCH  51  75
ATOM     75  C   UNL A   1      37.035  32.279  30.236  1.00  0.00     0.023 A 
ATOM     76  C   UNL A   1      36.233  32.961  29.308  1.00  0.00     0.031 A 
ATOM     77  C   UNL A   1      36.501  32.043  31.517  1.00  0.00     0.131 A 
ATOM     78  C   UNL A   1      34.967  33.432  29.690  1.00  0.00     0.055 A 
ATOM     79  C   UNL A   1      35.215  32.453  31.869  1.00  0.00     0.041 A 
ATOM     80  F   UNL A   1      37.225  31.398  32.447  1.00  0.00    -0.206 F 
ATOM     81  C   UNL A   1      34.445  33.167  30.957  1.00  0.00     0.022 A 
BRANCH  78  82
ATOM     82  S   UNL A   1      34.055  34.501  28.542  1.00  0.00     0.124 S 
ATOM     83  O   UNL A   1      34.332  35.824  29.089  1.00  0.00    -0.237 OA
ATOM     84  O   UNL A   1      34.690  34.187  27.267  1.00  0.00    -0.237 OA
ATOM     85  O   UNL A   1      32.673  34.045  28.677  1.00  0.00    -0.744 OA
ENDBRANCH  78  82
ENDBRANCH  51  75
BRANCH  63  86
ATOM     86  C   UNL A   1      43.243  35.443  30.855  1.00  0.00     0.023 A 
ATOM     87  C   UNL A   1      43.433  35.808  32.198  1.00  0.00     0.031 A 
ATOM     88  C   UNL A   1      43.475  36.417  29.866  1.00  0.00     0.131 A 
ATOM     89  C   UNL A   1      43.804  37.125  32.517  1.00  0.00     0.055 A 
ATOM     90  C   UNL A   1      43.911  37.704  30.185  1.00  0.00     0.041 A 
ATOM     91  F   UNL A   1      43.300  36.128  28.567  1.00  0.00    -0.206 F 
ATOM     92  C   UNL A   1      44.068  38.066  31.518  1.00  0.00     0.022 A 
BRANCH  89  93
ATOM     93  S   UNL A   1      43.856  37.623  34.261  1.00  0.00     0.124 S 
ATOM     94  O   UNL A   1      42.716  38.529  34.351  1.00  0.00    -0.237 OA
ATOM     95  O   UNL A   1      43.714  36.348  34.955  1.00  0.00    -0.237 OA
ATOM     96  O   UNL A   1      45.166  38.260  34.396  1.00  0.00    -0.744 OA
ENDBRANCH  89  93
ENDBRANCH  63  86
ENDBRANCH  37  38
ENDBRANCH  29  32
ENDBRANCH  27  28
ENDBRANCH  26  27
ENDBRANCH   1  26
TORSDOF 17
ENDMDL
MODEL 3
REMARK VINA RESULT:     -11.3      5.413      8.390
REMARK SMILES C[C@H]1CCC[C@@](NC(=O)N2CCO[C@H](C#N)C2)(C(=O)NCCCCNC(=O)c2ccc(-c3c4nc(c(-c5cc(S(=O)(=O)[O-])ccc5F)c5ccc([nH]5)c(-c5cc(S(=O)(=O)[O-])ccc5F)c5nc(c(-c6cc(S(=O)(=O)[O-])ccc6F)c6ccc3[nH]6)C=C5)C=C4)cc2)C1
REMARK SMILES IDX 22 1 21 2 20 3 18 4 19 5 6 7 1 8 2 9 3 10 91 11 4 12 5 13
REMARK SMILES IDX 7 14 8 15 9 17 10 18 11 19 17 20 12 21 14 22 13 23 15 24
REMARK SMILES IDX 16 25 23 26 24 27 25 28 26 29 27 31 28 32 29 33 90 34 30 35
REMARK SMILES IDX 89 36 31 37 32 38 33 39 83 40 34 41 88 42 82 43 84 44 35 45
REMARK SMILES IDX 87 46 81 47 80 48 36 50 68 51 48 52 67 53 49 54 52 55 66 56
REMARK SMILES IDX 85 57 50 58 51 59 65 61 86 62 53 63 37 64 38 65 46 66 39 67
REMARK SMILES IDX 45 68 47 69 44 70 40 71 41 72 42 73 43 74 69 75 70 76 78 77
REMARK SMILES IDX 71 78 77 79 79 80 76 81 72 82 73 83 74 84 75 85 54 86 55 87
REMARK SMILES IDX 63 88 56 89 62 90 64 91 61 92 57 93 58 94 59 95 60 96
REMARK H PARENT 20 6 7 16 25 30 84 49 52 60
REMARK Flexibility Score: inf
ROOT
ATOM      1  C   UNL A   1      31.399  31.054  25.634  1.00  0.00     0.023 C 
ENDROOT
BRANCH   1   2
ATOM      2  C   UNL A   1      32.054  29.693  25.808  1.00  0.00     0.116 C 
BRANCH   2   3
ATOM      3  N   UNL A   1      33.171  29.548  24.882  1.00  0.00    -0.354 N 
ATOM      4  C   UNL A   1      33.255  28.889  23.687  1.00  0.00     0.245 C 
ATOM      5  O   UNL A   1      34.322  28.975  23.072  1.00  0.00    -0.272 OA
ATOM      6  H   UNL A   1      34.001  29.997  25.164  1.00  0.00     0.163 HD
BRANCH   4   7
ATOM      7  C   UNL A   1      32.093  27.994  23.192  1.00  0.00     0.121 C 
ATOM      8  C   UNL A   1      29.413  25.932  25.234  1.00  0.00     0.008 C 
ATOM      9  C   UNL A   1      30.017  26.646  24.024  1.00  0.00    -0.011 C 
ATOM     10  C   UNL A   1      29.098  27.805  23.632  1.00  0.00     0.003 C 
ATOM     11  C   UNL A   1      31.465  27.120  24.315  1.00  0.00     0.042 C 
ATOM     12  C   UNL A   1      29.654  28.531  22.430  1.00  0.00     0.003 C 
ATOM     13  C   UNL A   1      31.034  29.060  22.750  1.00  0.00     0.039 C 
BRANCH   7  14
ATOM     14  N   UNL A   1      32.533  27.129  22.071  1.00  0.00    -0.323 N 
ATOM     15  C   UNL A   1      32.919  25.834  21.928  1.00  0.00     0.318 C 
ATOM     16  H   UNL A   1      32.548  27.614  21.215  1.00  0.00     0.166 HD
ATOM     17  O   UNL A   1      33.206  25.484  20.780  1.00  0.00    -0.249 OA
BRANCH  15  18
ATOM     18  N   UNL A   1      33.203  25.038  23.006  1.00  0.00    -0.319 N 
ATOM     19  C   UNL A   1      34.459  25.296  23.732  1.00  0.00     0.150 C 
ATOM     20  C   UNL A   1      32.701  23.670  23.237  1.00  0.00     0.169 C 
ATOM     21  C   UNL A   1      34.311  24.926  25.215  1.00  0.00     0.183 C 
ATOM     22  C   UNL A   1      32.613  23.348  24.749  1.00  0.00     0.240 C 
ATOM     23  O   UNL A   1      33.907  23.558  25.366  1.00  0.00    -0.360 OA
BRANCH  22  24
ATOM     24  C   UNL A   1      32.146  21.967  24.968  1.00  0.00     0.096 C 
ATOM     25  N   UNL A   1      31.806  20.871  25.126  1.00  0.00    -0.195 NA
ENDBRANCH  22  24
ENDBRANCH  15  18
ENDBRANCH   7  14
ENDBRANCH   4   7
ENDBRANCH   2   3
ENDBRANCH   1   2
BRANCH   1  26
ATOM     26  C   UNL A   1      31.437  31.880  26.918  1.00  0.00     0.023 C 
BRANCH  26  27
ATOM     27  C   UNL A   1      32.727  32.667  27.101  1.00  0.00     0.116 C 
BRANCH  27  28
ATOM     28  N   UNL A   1      32.504  34.003  27.614  1.00  0.00    -0.352 N 
ATOM     29  C   UNL A   1      33.167  34.634  28.638  1.00  0.00     0.251 C 
ATOM     30  H   UNL A   1      31.791  34.521  27.175  1.00  0.00     0.163 HD
ATOM     31  O   UNL A   1      32.780  35.724  29.046  1.00  0.00    -0.269 OA
BRANCH  29  32
ATOM     32  C   UNL A   1      34.316  33.951  29.267  1.00  0.00     0.039 A 
ATOM     33  C   UNL A   1      35.602  34.277  28.839  1.00  0.00     0.014 A 
ATOM     34  C   UNL A   1      34.123  33.049  30.318  1.00  0.00     0.014 A 
ATOM     35  C   UNL A   1      36.704  33.734  29.501  1.00  0.00     0.010 A 
ATOM     36  C   UNL A   1      35.221  32.579  31.030  1.00  0.00     0.010 A 
ATOM     37  C   UNL A   1      36.525  32.905  30.619  1.00  0.00    -0.014 A 
BRANCH  37  38
ATOM     38  C   UNL A   1      37.686  32.324  31.343  1.00  0.00     0.031 A 
ATOM     39  C   UNL A   1      38.447  31.183  30.722  1.00  0.00     0.074 A 
ATOM     40  C   UNL A   1      38.036  32.785  32.560  1.00  0.00     0.049 A 
ATOM     41  N   UNL A   1      39.417  30.464  31.222  1.00  0.00    -0.248 NA
ATOM     42  C   UNL A   1      38.038  30.783  29.366  1.00  0.00     0.031 C 
ATOM     43  C   UNL A   1      37.379  33.885  33.268  1.00  0.00     0.029 A 
ATOM     44  N   UNL A   1      39.027  32.383  33.423  1.00  0.00    -0.354 N 
ATOM     45  C   UNL A   1      39.728  29.520  30.248  1.00  0.00     0.074 A 
ATOM     46  C   UNL A   1      38.795  29.717  29.161  1.00  0.00     0.031 C 
ATOM     47  C   UNL A   1      37.997  34.082  34.444  1.00  0.00     0.029 A 
ATOM     48  C   UNL A   1      39.052  33.086  34.606  1.00  0.00     0.049 A 
ATOM     49  H   UNL A   1      39.660  31.658  33.215  1.00  0.00     0.167 HD
ATOM     50  C   UNL A   1      40.716  28.592  30.251  1.00  0.00     0.034 A 
ATOM     51  C   UNL A   1      39.818  32.929  35.706  1.00  0.00     0.034 A 
ATOM     52  C   UNL A   1      41.637  28.410  31.345  1.00  0.00     0.049 A 
ATOM     53  C   UNL A   1      40.860  31.835  35.721  1.00  0.00     0.074 A 
ATOM     54  C   UNL A   1      42.690  27.517  31.441  1.00  0.00     0.029 A 
ATOM     55  N   UNL A   1      41.611  29.123  32.537  1.00  0.00    -0.354 N 
ATOM     56  N   UNL A   1      41.151  30.959  34.786  1.00  0.00    -0.248 NA
ATOM     57  C   UNL A   1      41.680  31.710  36.933  1.00  0.00     0.031 C 
ATOM     58  C   UNL A   1      43.239  27.624  32.721  1.00  0.00     0.029 A 
ATOM     59  C   UNL A   1      42.606  28.662  33.385  1.00  0.00     0.049 A 
ATOM     60  H   UNL A   1      40.979  29.847  32.749  1.00  0.00     0.167 HD
ATOM     61  C   UNL A   1      42.221  30.216  35.281  1.00  0.00     0.074 A 
ATOM     62  C   UNL A   1      42.520  30.742  36.595  1.00  0.00     0.031 C 
ATOM     63  C   UNL A   1      42.903  29.200  34.693  1.00  0.00     0.034 A 
BRANCH  50  64
ATOM     64  C   UNL A   1      40.819  27.682  29.051  1.00  0.00     0.023 A 
ATOM     65  C   UNL A   1      41.778  27.892  28.044  1.00  0.00     0.031 A 
ATOM     66  C   UNL A   1      39.927  26.607  28.894  1.00  0.00     0.131 A 
ATOM     67  C   UNL A   1      41.768  27.095  26.891  1.00  0.00     0.055 A 
ATOM     68  C   UNL A   1      39.987  25.755  27.788  1.00  0.00     0.041 A 
ATOM     69  F   UNL A   1      38.971  26.371  29.806  1.00  0.00    -0.206 F 
ATOM     70  C   UNL A   1      40.900  26.008  26.770  1.00  0.00     0.022 A 
BRANCH  67  71
ATOM     71  S   UNL A   1      42.787  27.606  25.480  1.00  0.00     0.124 S 
ATOM     72  O   UNL A   1      42.042  28.761  24.984  1.00  0.00    -0.237 OA
ATOM     73  O   UNL A   1      44.072  27.896  26.106  1.00  0.00    -0.237 OA
ATOM     74  O   UNL A   1      42.767  26.438  24.602  1.00  0.00    -0.744 OA
ENDBRANCH  67  71
ENDBRANCH  50  64
BRANCH  51  75
ATOM     75  C   UNL A   1      39.617  33.802  36.901  1.00  0.00     0.023 A 
ATOM     76  C   UNL A   1      39.035  33.305  38.077  1.00  0.00     0.031 A 
ATOM     77  C   UNL A   1      39.953  35.169  36.861  1.00  0.00     0.131 A 
ATOM     78  C   UNL A   1      38.755  34.175  39.142  1.00  0.00     0.055 A 
ATOM     79  C   UNL A   1      39.734  36.016  37.949  1.00  0.00     0.041 A 
ATOM     80  F   UNL A   1      40.508  35.701  35.761  1.00  0.00    -0.206 F 
ATOM     81  C   UNL A   1      39.117  35.523  39.094  1.00  0.00     0.022 A 
BRANCH  78  82
ATOM     82  S   UNL A   1      37.801  33.545  40.551  1.00  0.00     0.124 S 
ATOM     83  O   UNL A   1      36.642  32.963  39.885  1.00  0.00    -0.237 OA
ATOM     84  O   UNL A   1      38.738  32.601  41.153  1.00  0.00    -0.237 OA
ATOM     85  O   UNL A   1      37.532  34.743  41.343  1.00  0.00    -0.744 OA
ENDBRANCH  78  82
ENDBRANCH  51  75
BRANCH  63  86
ATOM     86  C   UNL A   1      44.103  28.643  35.422  1.00  0.00     0.023 A 
ATOM     87  C   UNL A   1      44.001  27.609  36.368  1.00  0.00     0.031 A 
ATOM     88  C   UNL A   1      45.386  29.145  35.130  1.00  0.00     0.131 A 
ATOM     89  C   UNL A   1      45.155  27.139  37.016  1.00  0.00     0.055 A 
ATOM     90  C   UNL A   1      46.536  28.626  35.725  1.00  0.00     0.041 A 
ATOM     91  F   UNL A   1      45.544  30.139  34.242  1.00  0.00    -0.206 F 
ATOM     92  C   UNL A   1      46.422  27.623  36.681  1.00  0.00     0.022 A 
BRANCH  89  93
ATOM     93  S   UNL A   1      44.975  25.941  38.367  1.00  0.00     0.124 S 
ATOM     94  O   UNL A   1      44.257  24.853  37.713  1.00  0.00    -0.237 OA
ATOM     95  O   UNL A   1      46.362  25.665  38.727  1.00  0.00    -0.237 OA
ATOM     96  O   UNL A   1      44.208  26.673  39.374  1.00  0.00    -0.744 OA
ENDBRANCH  89  93
ENDBRANCH  63  86
ENDBRANCH  37  38
ENDBRANCH  29  32
ENDBRANCH  27  28
ENDBRANCH  26  27
ENDBRANCH   1  26
TORSDOF 17
ENDMDL
