MODEL 1
REMARK VINA RESULT:     -10.8      0.000      0.000
REMARK SMILES CN(Cc1ccnn1C)C(=O)c1c(C(=O)NCCCCNC(=O)c2ccc(-c3c4nc(c(-c5cc(S(=O)(=O)[O-])ccc5F)c5ccc([nH]5)c(-c5cc(S(=O)(=O)[O-])ccc5F)c5nc(c(-c6cc(S(=O)(=O)[O-])ccc6F)c6ccc3[nH]6)C=C5)C=C4)cc2)cnn1C
REMARK SMILES IDX 18 1 17 2 16 3 14 4 15 5 13 7 12 8 89 9 87 10 88 11 90 12
REMARK SMILES IDX 10 13 11 14 2 15 1 16 3 17 4 18 5 19 8 20 6 21 7 22 9 23
REMARK SMILES IDX 19 24 20 25 21 26 22 27 23 29 24 30 25 31 86 32 26 33 85 34
REMARK SMILES IDX 27 35 28 36 29 37 79 38 30 39 84 40 78 41 80 42 31 43 83 44
REMARK SMILES IDX 77 45 76 46 32 48 64 49 44 50 63 51 45 52 48 53 62 54 81 55
REMARK SMILES IDX 46 56 47 57 61 59 82 60 49 61 33 62 34 63 42 64 35 65 41 66
REMARK SMILES IDX 43 67 40 68 36 69 37 70 38 71 39 72 65 73 66 74 74 75 67 76
REMARK SMILES IDX 73 77 75 78 72 79 68 80 69 81 70 82 71 83 50 84 51 85 59 86
REMARK SMILES IDX 52 87 58 88 60 89 57 90 53 91 54 92 55 93 56 94
REMARK H PARENT 16 6 21 28 80 47 48 58
REMARK Flexibility Score: inf
ROOT
ATOM      1  C   UNL A   1      32.275  27.672  26.269  1.00  0.00     0.023 C 
ENDROOT
BRANCH   1   2
ATOM      2  C   UNL A   1      32.702  26.227  26.477  1.00  0.00     0.116 C 
BRANCH   2   3
ATOM      3  N   UNL A   1      31.614  25.348  26.802  1.00  0.00    -0.352 N 
ATOM      4  C   UNL A   1      31.515  23.986  26.876  1.00  0.00     0.255 C 
ATOM      5  O   UNL A   1      30.374  23.567  27.094  1.00  0.00    -0.269 OA
ATOM      6  H   UNL A   1      30.774  25.817  27.013  1.00  0.00     0.163 HD
BRANCH   4   7
ATOM      7  C   UNL A   1      32.609  23.021  26.731  1.00  0.00     0.090 A 
ATOM      8  C   UNL A   1      33.300  22.386  25.691  1.00  0.00     0.138 A 
ATOM      9  N   UNL A   1      34.369  21.757  26.289  1.00  0.00    -0.262 N 
ATOM     10  C   UNL A   1      33.265  22.513  27.894  1.00  0.00     0.149 A 
ATOM     11  N   UNL A   1      34.286  21.704  27.626  1.00  0.00    -0.180 NA
ATOM     12  C   UNL A   1      35.546  21.204  25.655  1.00  0.00     0.174 C 
BRANCH   8  13
ATOM     13  C   UNL A   1      33.146  22.391  24.260  1.00  0.00     0.273 C 
ATOM     14  O   UNL A   1      32.724  21.401  23.667  1.00  0.00    -0.267 OA
BRANCH  13  15
ATOM     15  N   UNL A   1      33.539  23.552  23.578  1.00  0.00    -0.334 N 
ATOM     16  C   UNL A   1      34.637  24.346  24.113  1.00  0.00     0.147 C 
BRANCH  15  17
ATOM     17  C   UNL A   1      32.848  24.093  22.407  1.00  0.00     0.175 C 
BRANCH  17  18
ATOM     18  C   UNL A   1      31.732  24.968  22.869  1.00  0.00     0.057 A 
ATOM     19  C   UNL A   1      30.496  24.644  23.401  1.00  0.00     0.047 A 
ATOM     20  N   UNL A   1      31.764  26.343  22.847  1.00  0.00    -0.271 N 
ATOM     21  C   UNL A   1      29.893  25.868  23.714  1.00  0.00     0.135 A 
ATOM     22  N   UNL A   1      30.660  26.905  23.382  1.00  0.00    -0.181 NA
ATOM     23  C   UNL A   1      32.811  27.220  22.375  1.00  0.00     0.174 C 
ENDBRANCH  17  18
ENDBRANCH  15  17
ENDBRANCH  13  15
ENDBRANCH   8  13
ENDBRANCH   4   7
ENDBRANCH   2   3
ENDBRANCH   1   2
BRANCH   1  24
ATOM     24  C   UNL A   1      32.856  28.676  27.251  1.00  0.00     0.023 C 
BRANCH  24  25
ATOM     25  C   UNL A   1      33.607  29.843  26.621  1.00  0.00     0.116 C 
BRANCH  25  26
ATOM     26  N   UNL A   1      33.592  31.059  27.426  1.00  0.00    -0.352 N 
ATOM     27  C   UNL A   1      34.513  31.493  28.357  1.00  0.00     0.251 C 
ATOM     28  H   UNL A   1      32.818  31.650  27.286  1.00  0.00     0.163 HD
ATOM     29  O   UNL A   1      34.301  32.493  29.021  1.00  0.00    -0.269 OA
BRANCH  27  30
ATOM     30  C   UNL A   1      35.738  30.689  28.559  1.00  0.00     0.039 A 
ATOM     31  C   UNL A   1      36.880  30.996  27.818  1.00  0.00     0.014 A 
ATOM     32  C   UNL A   1      35.777  29.714  29.557  1.00  0.00     0.014 A 
ATOM     33  C   UNL A   1      38.094  30.393  28.154  1.00  0.00     0.010 A 
ATOM     34  C   UNL A   1      37.001  29.187  29.949  1.00  0.00     0.010 A 
ATOM     35  C   UNL A   1      38.176  29.529  29.258  1.00  0.00    -0.014 A 
BRANCH  35  36
ATOM     36  C   UNL A   1      39.474  28.967  29.715  1.00  0.00     0.031 A 
ATOM     37  C   UNL A   1      40.240  29.661  30.810  1.00  0.00     0.074 A 
ATOM     38  C   UNL A   1      39.998  27.889  29.097  1.00  0.00     0.049 A 
ATOM     39  N   UNL A   1      41.438  29.411  31.268  1.00  0.00    -0.248 NA
ATOM     40  C   UNL A   1      39.581  30.813  31.444  1.00  0.00     0.031 C 
ATOM     41  C   UNL A   1      39.374  27.161  27.987  1.00  0.00     0.029 A 
ATOM     42  N   UNL A   1      41.180  27.222  29.301  1.00  0.00    -0.354 N 
ATOM     43  C   UNL A   1      41.681  30.379  32.236  1.00  0.00     0.074 A 
ATOM     44  C   UNL A   1      40.536  31.264  32.242  1.00  0.00     0.031 C 
ATOM     45  C   UNL A   1      40.168  26.140  27.627  1.00  0.00     0.029 A 
ATOM     46  C   UNL A   1      41.378  26.164  28.442  1.00  0.00     0.049 A 
ATOM     47  H   UNL A   1      41.827  27.477  29.998  1.00  0.00     0.167 HD
ATOM     48  C   UNL A   1      42.745  30.501  33.068  1.00  0.00     0.034 A 
ATOM     49  C   UNL A   1      42.423  25.320  28.317  1.00  0.00     0.034 A 
ATOM     50  C   UNL A   1      43.870  29.601  33.063  1.00  0.00     0.049 A 
ATOM     51  C   UNL A   1      43.601  25.483  29.249  1.00  0.00     0.074 A 
ATOM     52  C   UNL A   1      44.988  29.614  33.879  1.00  0.00     0.029 A 
ATOM     53  N   UNL A   1      44.019  28.521  32.203  1.00  0.00    -0.354 N 
ATOM     54  N   UNL A   1      43.795  26.383  30.185  1.00  0.00    -0.248 NA
ATOM     55  C   UNL A   1      44.691  24.507  29.118  1.00  0.00     0.031 C 
ATOM     56  C   UNL A   1      45.834  28.573  33.481  1.00  0.00     0.029 A 
ATOM     57  C   UNL A   1      45.214  27.869  32.462  1.00  0.00     0.049 A 
ATOM     58  H   UNL A   1      43.370  28.257  31.511  1.00  0.00     0.167 HD
ATOM     59  C   UNL A   1      45.013  26.058  30.776  1.00  0.00     0.074 A 
ATOM     60  C   UNL A   1      45.497  24.871  30.104  1.00  0.00     0.031 C 
ATOM     61  C   UNL A   1      45.675  26.683  31.783  1.00  0.00     0.034 A 
BRANCH  48  62
ATOM     62  C   UNL A   1      42.731  31.652  34.043  1.00  0.00     0.023 A 
ATOM     63  C   UNL A   1      42.158  31.520  35.320  1.00  0.00     0.031 A 
ATOM     64  C   UNL A   1      43.277  32.898  33.690  1.00  0.00     0.131 A 
ATOM     65  C   UNL A   1      42.079  32.632  36.170  1.00  0.00     0.055 A 
ATOM     66  C   UNL A   1      43.267  33.981  34.573  1.00  0.00     0.041 A 
ATOM     67  F   UNL A   1      43.819  33.089  32.477  1.00  0.00    -0.206 F 
ATOM     68  C   UNL A   1      42.653  33.855  35.815  1.00  0.00     0.022 A 
BRANCH  65  69
ATOM     69  S   UNL A   1      41.101  32.490  37.690  1.00  0.00     0.124 S 
ATOM     70  O   UNL A   1      39.842  31.954  37.180  1.00  0.00    -0.237 OA
ATOM     71  O   UNL A   1      41.903  31.578  38.498  1.00  0.00    -0.237 OA
ATOM     72  O   UNL A   1      41.033  33.864  38.184  1.00  0.00    -0.744 OA
ENDBRANCH  65  69
ENDBRANCH  48  62
BRANCH  49  73
ATOM     73  C   UNL A   1      42.428  24.255  27.272  1.00  0.00     0.023 A 
ATOM     74  C   UNL A   1      41.649  23.096  27.415  1.00  0.00     0.031 A 
ATOM     75  C   UNL A   1      43.269  24.346  26.148  1.00  0.00     0.131 A 
ATOM     76  C   UNL A   1      41.775  22.047  26.492  1.00  0.00     0.055 A 
ATOM     77  C   UNL A   1      43.346  23.324  25.198  1.00  0.00     0.041 A 
ATOM     78  F   UNL A   1      44.031  25.434  25.955  1.00  0.00    -0.206 F 
ATOM     79  C   UNL A   1      42.610  22.158  25.377  1.00  0.00     0.022 A 
BRANCH  76  80
ATOM     80  S   UNL A   1      40.920  20.483  26.833  1.00  0.00     0.124 S 
ATOM     81  O   UNL A   1      39.680  20.653  26.084  1.00  0.00    -0.237 OA
ATOM     82  O   UNL A   1      41.862  19.504  26.300  1.00  0.00    -0.237 OA
ATOM     83  O   UNL A   1      40.778  20.483  28.287  1.00  0.00    -0.744 OA
ENDBRANCH  76  80
ENDBRANCH  49  73
BRANCH  61  84
ATOM     84  C   UNL A   1      46.963  26.052  32.251  1.00  0.00     0.023 A 
ATOM     85  C   UNL A   1      46.989  25.114  33.297  1.00  0.00     0.031 A 
ATOM     86  C   UNL A   1      48.180  26.403  31.643  1.00  0.00     0.131 A 
ATOM     87  C   UNL A   1      48.217  24.602  33.742  1.00  0.00     0.055 A 
ATOM     88  C   UNL A   1      49.392  25.845  32.051  1.00  0.00     0.041 A 
ATOM     89  F   UNL A   1      48.211  27.295  30.639  1.00  0.00    -0.206 F 
ATOM     90  C   UNL A   1      49.416  24.949  33.115  1.00  0.00     0.022 A 
BRANCH  87  91
ATOM     91  S   UNL A   1      48.234  23.536  35.210  1.00  0.00     0.124 S 
ATOM     92  O   UNL A   1      46.947  23.844  35.824  1.00  0.00    -0.237 OA
ATOM     93  O   UNL A   1      48.360  22.203  34.627  1.00  0.00    -0.237 OA
ATOM     94  O   UNL A   1      49.404  23.997  35.955  1.00  0.00    -0.744 OA
ENDBRANCH  87  91
ENDBRANCH  61  84
ENDBRANCH  35  36
ENDBRANCH  27  30
ENDBRANCH  25  26
ENDBRANCH  24  25
ENDBRANCH   1  24
TORSDOF 18
ENDMDL
MODEL 2
REMARK VINA RESULT:     -10.7      2.163      7.700
REMARK SMILES CN(Cc1ccnn1C)C(=O)c1c(C(=O)NCCCCNC(=O)c2ccc(-c3c4nc(c(-c5cc(S(=O)(=O)[O-])ccc5F)c5ccc([nH]5)c(-c5cc(S(=O)(=O)[O-])ccc5F)c5nc(c(-c6cc(S(=O)(=O)[O-])ccc6F)c6ccc3[nH]6)C=C5)C=C4)cc2)cnn1C
REMARK SMILES IDX 18 1 17 2 16 3 14 4 15 5 13 7 12 8 89 9 87 10 88 11 90 12
REMARK SMILES IDX 10 13 11 14 2 15 1 16 3 17 4 18 5 19 8 20 6 21 7 22 9 23
REMARK SMILES IDX 19 24 20 25 21 26 22 27 23 29 24 30 25 31 86 32 26 33 85 34
REMARK SMILES IDX 27 35 28 36 29 37 79 38 30 39 84 40 78 41 80 42 31 43 83 44
REMARK SMILES IDX 77 45 76 46 32 48 64 49 44 50 63 51 45 52 48 53 62 54 81 55
REMARK SMILES IDX 46 56 47 57 61 59 82 60 49 61 33 62 34 63 42 64 35 65 41 66
REMARK SMILES IDX 43 67 40 68 36 69 37 70 38 71 39 72 65 73 66 74 74 75 67 76
REMARK SMILES IDX 73 77 75 78 72 79 68 80 69 81 70 82 71 83 50 84 51 85 59 86
REMARK SMILES IDX 52 87 58 88 60 89 57 90 53 91 54 92 55 93 56 94
REMARK H PARENT 16 6 21 28 80 47 48 58
REMARK Flexibility Score: inf
ROOT
ATOM      1  C   UNL A   1      33.714  27.795  25.580  1.00  0.00     0.023 C 
ENDROOT
BRANCH   1   2
ATOM      2  C   UNL A   1      33.720  26.274  25.629  1.00  0.00     0.116 C 
BRANCH   2   3
ATOM      3  N   UNL A   1      32.518  25.713  26.179  1.00  0.00    -0.352 N 
ATOM      4  C   UNL A   1      32.145  24.430  26.470  1.00  0.00     0.255 C 
ATOM      5  O   UNL A   1      30.975  24.311  26.848  1.00  0.00    -0.269 OA
ATOM      6  H   UNL A   1      31.826  26.383  26.386  1.00  0.00     0.163 HD
BRANCH   4   7
ATOM      7  C   UNL A   1      32.986  23.233  26.383  1.00  0.00     0.090 A 
ATOM      8  C   UNL A   1      33.436  22.354  25.390  1.00  0.00     0.138 A 
ATOM      9  N   UNL A   1      34.387  21.565  25.999  1.00  0.00    -0.262 N 
ATOM     10  C   UNL A   1      33.607  22.715  27.560  1.00  0.00     0.149 A 
ATOM     11  N   UNL A   1      34.403  21.674  27.335  1.00  0.00    -0.180 NA
ATOM     12  C   UNL A   1      35.360  20.698  25.372  1.00  0.00     0.174 C 
BRANCH   8  13
ATOM     13  C   UNL A   1      33.172  22.242  23.979  1.00  0.00     0.273 C 
ATOM     14  O   UNL A   1      32.444  21.355  23.541  1.00  0.00    -0.267 OA
BRANCH  13  15
ATOM     15  N   UNL A   1      33.814  23.160  23.134  1.00  0.00    -0.334 N 
ATOM     16  C   UNL A   1      35.104  23.705  23.536  1.00  0.00     0.147 C 
BRANCH  15  17
ATOM     17  C   UNL A   1      33.227  23.700  21.907  1.00  0.00     0.175 C 
BRANCH  17  18
ATOM     18  C   UNL A   1      32.684  25.060  22.193  1.00  0.00     0.057 A 
ATOM     19  C   UNL A   1      33.231  26.312  21.970  1.00  0.00     0.047 A 
ATOM     20  N   UNL A   1      31.453  25.301  22.756  1.00  0.00    -0.271 N 
ATOM     21  C   UNL A   1      32.248  27.224  22.372  1.00  0.00     0.135 A 
ATOM     22  N   UNL A   1      31.163  26.616  22.849  1.00  0.00    -0.181 NA
ATOM     23  C   UNL A   1      30.458  24.354  23.206  1.00  0.00     0.174 C 
ENDBRANCH  17  18
ENDBRANCH  15  17
ENDBRANCH  13  15
ENDBRANCH   8  13
ENDBRANCH   4   7
ENDBRANCH   2   3
ENDBRANCH   1   2
BRANCH   1  24
ATOM     24  C   UNL A   1      32.378  28.456  25.878  1.00  0.00     0.023 C 
BRANCH  24  25
ATOM     25  C   UNL A   1      32.306  29.208  27.201  1.00  0.00     0.116 C 
BRANCH  25  26
ATOM     26  N   UNL A   1      32.168  30.653  27.053  1.00  0.00    -0.352 N 
ATOM     27  C   UNL A   1      33.086  31.644  27.336  1.00  0.00     0.251 C 
ATOM     28  H   UNL A   1      31.302  30.963  26.704  1.00  0.00     0.163 HD
ATOM     29  O   UNL A   1      32.777  32.819  27.249  1.00  0.00    -0.269 OA
BRANCH  27  30
ATOM     30  C   UNL A   1      34.435  31.241  27.790  1.00  0.00     0.039 A 
ATOM     31  C   UNL A   1      35.418  32.219  27.945  1.00  0.00     0.014 A 
ATOM     32  C   UNL A   1      34.680  29.918  28.164  1.00  0.00     0.014 A 
ATOM     33  C   UNL A   1      36.618  31.886  28.577  1.00  0.00     0.010 A 
ATOM     34  C   UNL A   1      35.834  29.613  28.874  1.00  0.00     0.010 A 
ATOM     35  C   UNL A   1      36.812  30.596  29.098  1.00  0.00    -0.014 A 
BRANCH  35  36
ATOM     36  C   UNL A   1      38.026  30.246  29.881  1.00  0.00     0.031 A 
ATOM     37  C   UNL A   1      39.019  29.266  29.316  1.00  0.00     0.074 A 
ATOM     38  C   UNL A   1      38.194  30.743  31.124  1.00  0.00     0.049 A 
ATOM     39  N   UNL A   1      40.071  28.734  29.880  1.00  0.00    -0.248 NA
ATOM     40  C   UNL A   1      38.768  28.795  27.945  1.00  0.00     0.031 C 
ATOM     41  C   UNL A   1      37.273  31.662  31.802  1.00  0.00     0.029 A 
ATOM     42  N   UNL A   1      39.189  30.539  32.047  1.00  0.00    -0.354 N 
ATOM     43  C   UNL A   1      40.602  27.859  28.939  1.00  0.00     0.074 A 
ATOM     44  C   UNL A   1      39.711  27.878  27.798  1.00  0.00     0.031 C 
ATOM     45  C   UNL A   1      37.759  31.955  33.019  1.00  0.00     0.029 A 
ATOM     46  C   UNL A   1      38.997  31.214  33.231  1.00  0.00     0.049 A 
ATOM     47  H   UNL A   1      39.969  29.962  31.877  1.00  0.00     0.167 HD
ATOM     48  C   UNL A   1      41.745  27.133  29.005  1.00  0.00     0.034 A 
ATOM     49  C   UNL A   1      39.729  31.222  34.364  1.00  0.00     0.034 A 
ATOM     50  C   UNL A   1      42.632  27.138  30.140  1.00  0.00     0.049 A 
ATOM     51  C   UNL A   1      40.993  30.396  34.416  1.00  0.00     0.074 A 
ATOM     52  C   UNL A   1      43.829  26.464  30.302  1.00  0.00     0.029 A 
ATOM     53  N   UNL A   1      42.422  27.862  31.306  1.00  0.00    -0.354 N 
ATOM     54  N   UNL A   1      41.500  29.604  33.499  1.00  0.00    -0.248 NA
ATOM     55  C   UNL A   1      41.791  30.479  35.647  1.00  0.00     0.031 C 
ATOM     56  C   UNL A   1      44.318  26.740  31.584  1.00  0.00     0.029 A 
ATOM     57  C   UNL A   1      43.461  27.640  32.196  1.00  0.00     0.049 A 
ATOM     58  H   UNL A   1      41.649  28.448  31.477  1.00  0.00     0.167 HD
ATOM     59  C   UNL A   1      42.693  29.123  34.032  1.00  0.00     0.074 A 
ATOM     60  C   UNL A   1      42.838  29.728  35.339  1.00  0.00     0.031 C 
ATOM     61  C   UNL A   1      43.590  28.258  33.493  1.00  0.00     0.034 A 
BRANCH  48  62
ATOM     62  C   UNL A   1      42.087  26.275  27.812  1.00  0.00     0.023 A 
ATOM     63  C   UNL A   1      41.616  24.954  27.704  1.00  0.00     0.031 A 
ATOM     64  C   UNL A   1      42.906  26.769  26.782  1.00  0.00     0.131 A 
ATOM     65  C   UNL A   1      42.024  24.151  26.630  1.00  0.00     0.055 A 
ATOM     66  C   UNL A   1      43.244  25.989  25.674  1.00  0.00     0.041 A 
ATOM     67  F   UNL A   1      43.402  28.015  26.842  1.00  0.00    -0.206 F 
ATOM     68  C   UNL A   1      42.814  24.667  25.601  1.00  0.00     0.022 A 
BRANCH  65  69
ATOM     69  S   UNL A   1      41.614  22.385  26.666  1.00  0.00     0.124 S 
ATOM     70  O   UNL A   1      40.154  22.423  26.630  1.00  0.00    -0.237 OA
ATOM     71  O   UNL A   1      42.269  21.883  25.465  1.00  0.00    -0.237 OA
ATOM     72  O   UNL A   1      42.188  21.925  27.929  1.00  0.00    -0.744 OA
ENDBRANCH  65  69
ENDBRANCH  48  62
BRANCH  49  73
ATOM     73  C   UNL A   1      39.296  32.016  35.552  1.00  0.00     0.023 A 
ATOM     74  C   UNL A   1      38.596  31.414  36.609  1.00  0.00     0.031 A 
ATOM     75  C   UNL A   1      39.512  33.404  35.613  1.00  0.00     0.131 A 
ATOM     76  C   UNL A   1      38.077  32.203  37.647  1.00  0.00     0.055 A 
ATOM     77  C   UNL A   1      39.045  34.178  36.680  1.00  0.00     0.041 A 
ATOM     78  F   UNL A   1      40.181  34.033  34.634  1.00  0.00    -0.206 F 
ATOM     79  C   UNL A   1      38.307  33.580  37.695  1.00  0.00     0.022 A 
BRANCH  76  80
ATOM     80  S   UNL A   1      36.992  31.421  38.873  1.00  0.00     0.124 S 
ATOM     81  O   UNL A   1      36.807  30.092  38.301  1.00  0.00    -0.237 OA
ATOM     82  O   UNL A   1      37.805  31.492  40.082  1.00  0.00    -0.237 OA
ATOM     83  O   UNL A   1      35.805  32.273  38.870  1.00  0.00    -0.744 OA
ENDBRANCH  76  80
ENDBRANCH  49  73
BRANCH  61  84
ATOM     84  C   UNL A   1      44.832  27.970  34.297  1.00  0.00     0.023 A 
ATOM     85  C   UNL A   1      44.896  26.892  35.197  1.00  0.00     0.031 A 
ATOM     86  C   UNL A   1      45.964  28.792  34.164  1.00  0.00     0.131 A 
ATOM     87  C   UNL A   1      46.051  26.700  35.971  1.00  0.00     0.055 A 
ATOM     88  C   UNL A   1      47.130  28.560  34.894  1.00  0.00     0.041 A 
ATOM     89  F   UNL A   1      45.955  29.835  33.319  1.00  0.00    -0.206 F 
ATOM     90  C   UNL A   1      47.173  27.517  35.814  1.00  0.00     0.022 A 
BRANCH  87  91
ATOM     91  S   UNL A   1      46.034  25.414  37.252  1.00  0.00     0.124 S 
ATOM     92  O   UNL A   1      47.387  25.506  37.792  1.00  0.00    -0.237 OA
ATOM     93  O   UNL A   1      44.963  25.867  38.135  1.00  0.00    -0.237 OA
ATOM     94  O   UNL A   1      45.745  24.191  36.506  1.00  0.00    -0.744 OA
ENDBRANCH  87  91
ENDBRANCH  61  84
ENDBRANCH  35  36
ENDBRANCH  27  30
ENDBRANCH  25  26
ENDBRANCH  24  25
ENDBRANCH   1  24
TORSDOF 18
ENDMDL
MODEL 3
REMARK VINA RESULT:     -10.5      3.180      4.725
REMARK SMILES CN(Cc1ccnn1C)C(=O)c1c(C(=O)NCCCCNC(=O)c2ccc(-c3c4nc(c(-c5cc(S(=O)(=O)[O-])ccc5F)c5ccc([nH]5)c(-c5cc(S(=O)(=O)[O-])ccc5F)c5nc(c(-c6cc(S(=O)(=O)[O-])ccc6F)c6ccc3[nH]6)C=C5)C=C4)cc2)cnn1C
REMARK SMILES IDX 18 1 17 2 16 3 14 4 15 5 13 7 12 8 89 9 87 10 88 11 90 12
REMARK SMILES IDX 10 13 11 14 2 15 1 16 3 17 4 18 5 19 8 20 6 21 7 22 9 23
REMARK SMILES IDX 19 24 20 25 21 26 22 27 23 29 24 30 25 31 86 32 26 33 85 34
REMARK SMILES IDX 27 35 28 36 29 37 79 38 30 39 84 40 78 41 80 42 31 43 83 44
REMARK SMILES IDX 77 45 76 46 32 48 64 49 44 50 63 51 45 52 48 53 62 54 81 55
REMARK SMILES IDX 46 56 47 57 61 59 82 60 49 61 33 62 34 63 42 64 35 65 41 66
REMARK SMILES IDX 43 67 40 68 36 69 37 70 38 71 39 72 65 73 66 74 74 75 67 76
REMARK SMILES IDX 73 77 75 78 72 79 68 80 69 81 70 82 71 83 50 84 51 85 59 86
REMARK SMILES IDX 52 87 58 88 60 89 57 90 53 91 54 92 55 93 56 94
REMARK H PARENT 16 6 21 28 80 47 48 58
REMARK Flexibility Score: inf
ROOT
ATOM      1  C   UNL A   1      32.032  29.835  26.804  1.00  0.00     0.023 C 
ENDROOT
BRANCH   1   2
ATOM      2  C   UNL A   1      33.218  29.005  26.338  1.00  0.00     0.116 C 
BRANCH   2   3
ATOM      3  N   UNL A   1      33.668  29.337  25.016  1.00  0.00    -0.352 N 
ATOM      4  C   UNL A   1      33.401  28.802  23.786  1.00  0.00     0.255 C 
ATOM      5  O   UNL A   1      34.057  29.293  22.862  1.00  0.00    -0.269 OA
ATOM      6  H   UNL A   1      34.291  30.099  24.989  1.00  0.00     0.163 HD
BRANCH   4   7
ATOM      7  C   UNL A   1      32.434  27.742  23.485  1.00  0.00     0.090 A 
ATOM      8  C   UNL A   1      32.457  26.378  23.172  1.00  0.00     0.138 A 
ATOM      9  N   UNL A   1      31.145  25.964  23.226  1.00  0.00    -0.262 N 
ATOM     10  C   UNL A   1      31.036  28.033  23.497  1.00  0.00     0.149 A 
ATOM     11  N   UNL A   1      30.263  26.973  23.281  1.00  0.00    -0.180 NA
ATOM     12  C   UNL A   1      30.638  24.611  23.269  1.00  0.00     0.174 C 
BRANCH   8  13
ATOM     13  C   UNL A   1      33.523  25.436  22.947  1.00  0.00     0.273 C 
ATOM     14  O   UNL A   1      33.743  24.988  21.825  1.00  0.00    -0.267 OA
BRANCH  13  15
ATOM     15  N   UNL A   1      34.263  25.027  24.067  1.00  0.00    -0.334 N 
ATOM     16  C   UNL A   1      35.266  23.982  23.906  1.00  0.00     0.147 C 
BRANCH  15  17
ATOM     17  C   UNL A   1      34.027  25.506  25.430  1.00  0.00     0.175 C 
BRANCH  17  18
ATOM     18  C   UNL A   1      33.182  24.510  26.149  1.00  0.00     0.057 A 
ATOM     19  C   UNL A   1      33.422  23.182  26.457  1.00  0.00     0.047 A 
ATOM     20  N   UNL A   1      31.937  24.780  26.670  1.00  0.00    -0.271 N 
ATOM     21  C   UNL A   1      32.310  22.765  27.200  1.00  0.00     0.135 A 
ATOM     22  N   UNL A   1      31.405  23.733  27.334  1.00  0.00    -0.181 NA
ATOM     23  C   UNL A   1      31.181  26.010  26.625  1.00  0.00     0.174 C 
ENDBRANCH  17  18
ENDBRANCH  15  17
ENDBRANCH  13  15
ENDBRANCH   8  13
ENDBRANCH   4   7
ENDBRANCH   2   3
ENDBRANCH   1   2
BRANCH   1  24
ATOM     24  C   UNL A   1      32.120  31.325  26.517  1.00  0.00     0.023 C 
BRANCH  24  25
ATOM     25  C   UNL A   1      33.093  32.101  27.397  1.00  0.00     0.116 C 
BRANCH  25  26
ATOM     26  N   UNL A   1      32.708  33.490  27.621  1.00  0.00    -0.352 N 
ATOM     27  C   UNL A   1      33.214  34.391  28.535  1.00  0.00     0.251 C 
ATOM     28  H   UNL A   1      31.989  33.829  27.041  1.00  0.00     0.163 HD
ATOM     29  O   UNL A   1      32.710  35.494  28.663  1.00  0.00    -0.269 OA
BRANCH  27  30
ATOM     30  C   UNL A   1      34.349  33.968  29.383  1.00  0.00     0.039 A 
ATOM     31  C   UNL A   1      34.097  33.199  30.519  1.00  0.00     0.014 A 
ATOM     32  C   UNL A   1      35.659  34.242  28.983  1.00  0.00     0.014 A 
ATOM     33  C   UNL A   1      35.167  32.615  31.199  1.00  0.00     0.010 A 
ATOM     34  C   UNL A   1      36.713  33.584  29.605  1.00  0.00     0.010 A 
ATOM     35  C   UNL A   1      36.478  32.754  30.714  1.00  0.00    -0.014 A 
BRANCH  35  36
ATOM     36  C   UNL A   1      37.623  32.045  31.344  1.00  0.00     0.031 A 
ATOM     37  C   UNL A   1      38.151  32.519  32.671  1.00  0.00     0.074 A 
ATOM     38  C   UNL A   1      38.232  31.034  30.691  1.00  0.00     0.049 A 
ATOM     39  N   UNL A   1      39.208  32.124  33.330  1.00  0.00    -0.248 NA
ATOM     40  C   UNL A   1      37.409  33.610  33.322  1.00  0.00     0.031 C 
ATOM     41  C   UNL A   1      37.843  30.519  29.374  1.00  0.00     0.029 A 
ATOM     42  N   UNL A   1      39.316  30.266  31.035  1.00  0.00    -0.354 N 
ATOM     43  C   UNL A   1      39.265  32.923  34.466  1.00  0.00     0.074 A 
ATOM     44  C   UNL A   1      38.179  33.874  34.366  1.00  0.00     0.031 C 
ATOM     45  C   UNL A   1      38.662  29.509  29.037  1.00  0.00     0.029 A 
ATOM     46  C   UNL A   1      39.661  29.332  30.085  1.00  0.00     0.049 A 
ATOM     47  H   UNL A   1      39.801  30.372  31.886  1.00  0.00     0.167 HD
ATOM     48  C   UNL A   1      40.122  32.850  35.514  1.00  0.00     0.034 A 
ATOM     49  C   UNL A   1      40.677  28.446  30.055  1.00  0.00     0.034 A 
ATOM     50  C   UNL A   1      41.188  31.886  35.609  1.00  0.00     0.049 A 
ATOM     51  C   UNL A   1      41.625  28.390  31.231  1.00  0.00     0.074 A 
ATOM     52  C   UNL A   1      42.098  31.703  36.637  1.00  0.00     0.029 A 
ATOM     53  N   UNL A   1      41.485  30.933  34.643  1.00  0.00    -0.354 N 
ATOM     54  N   UNL A   1      41.638  29.130  32.315  1.00  0.00    -0.248 NA
ATOM     55  C   UNL A   1      42.682  27.372  31.184  1.00  0.00     0.031 C 
ATOM     56  C   UNL A   1      42.973  30.675  36.271  1.00  0.00     0.029 A 
ATOM     57  C   UNL A   1      42.570  30.171  35.045  1.00  0.00     0.049 A 
ATOM     58  H   UNL A   1      40.996  30.817  33.796  1.00  0.00     0.167 HD
ATOM     59  C   UNL A   1      42.684  28.641  33.094  1.00  0.00     0.074 A 
ATOM     60  C   UNL A   1      43.263  27.533  32.364  1.00  0.00     0.031 C 
ATOM     61  C   UNL A   1      43.128  29.066  34.304  1.00  0.00     0.034 A 
BRANCH  48  62
ATOM     62  C   UNL A   1      39.934  33.846  36.631  1.00  0.00     0.023 A 
ATOM     63  C   UNL A   1      39.433  33.452  37.885  1.00  0.00     0.031 A 
ATOM     64  C   UNL A   1      40.238  35.205  36.440  1.00  0.00     0.131 A 
ATOM     65  C   UNL A   1      39.182  34.413  38.873  1.00  0.00     0.055 A 
ATOM     66  C   UNL A   1      40.062  36.146  37.457  1.00  0.00     0.041 A 
ATOM     67  F   UNL A   1      40.699  35.643  35.259  1.00  0.00    -0.206 F 
ATOM     68  C   UNL A   1      39.518  35.755  38.677  1.00  0.00     0.022 A 
BRANCH  65  69
ATOM     69  S   UNL A   1      38.293  33.905  40.369  1.00  0.00     0.124 S 
ATOM     70  O   UNL A   1      38.045  35.190  41.014  1.00  0.00    -0.237 OA
ATOM     71  O   UNL A   1      37.122  33.227  39.826  1.00  0.00    -0.237 OA
ATOM     72  O   UNL A   1      39.249  33.041  41.059  1.00  0.00    -0.744 OA
ENDBRANCH  65  69
ENDBRANCH  48  62
BRANCH  49  73
ATOM     73  C   UNL A   1      40.876  27.545  28.881  1.00  0.00     0.023 A 
ATOM     74  C   UNL A   1      41.879  27.803  27.933  1.00  0.00     0.031 A 
ATOM     75  C   UNL A   1      40.018  26.455  28.650  1.00  0.00     0.131 A 
ATOM     76  C   UNL A   1      41.957  27.027  26.766  1.00  0.00     0.055 A 
ATOM     77  C   UNL A   1      40.139  25.647  27.517  1.00  0.00     0.041 A 
ATOM     78  F   UNL A   1      39.046  26.157  29.526  1.00  0.00    -0.206 F 
ATOM     79  C   UNL A   1      41.101  25.943  26.557  1.00  0.00     0.022 A 
BRANCH  76  80
ATOM     80  S   UNL A   1      43.120  27.529  25.467  1.00  0.00     0.124 S 
ATOM     81  O   UNL A   1      44.107  28.286  26.228  1.00  0.00    -0.237 OA
ATOM     82  O   UNL A   1      43.563  26.240  24.946  1.00  0.00    -0.237 OA
ATOM     83  O   UNL A   1      42.293  28.318  24.556  1.00  0.00    -0.744 OA
ENDBRANCH  76  80
ENDBRANCH  49  73
BRANCH  61  84
ATOM     84  C   UNL A   1      44.257  28.288  34.931  1.00  0.00     0.023 A 
ATOM     85  C   UNL A   1      44.019  27.168  35.747  1.00  0.00     0.031 A 
ATOM     86  C   UNL A   1      45.589  28.680  34.713  1.00  0.00     0.131 A 
ATOM     87  C   UNL A   1      45.097  26.513  36.362  1.00  0.00     0.055 A 
ATOM     88  C   UNL A   1      46.660  27.988  35.280  1.00  0.00     0.041 A 
ATOM     89  F   UNL A   1      45.871  29.742  33.942  1.00  0.00    -0.206 F 
ATOM     90  C   UNL A   1      46.416  26.906  36.121  1.00  0.00     0.022 A 
BRANCH  87  91
ATOM     91  S   UNL A   1      44.746  25.189  37.551  1.00  0.00     0.124 S 
ATOM     92  O   UNL A   1      43.297  25.283  37.692  1.00  0.00    -0.237 OA
ATOM     93  O   UNL A   1      45.245  24.006  36.857  1.00  0.00    -0.237 OA
ATOM     94  O   UNL A   1      45.511  25.579  38.734  1.00  0.00    -0.744 OA
ENDBRANCH  87  91
ENDBRANCH  61  84
ENDBRANCH  35  36
ENDBRANCH  27  30
ENDBRANCH  25  26
ENDBRANCH  24  25
ENDBRANCH   1  24
TORSDOF 18
ENDMDL
