MODEL 1
REMARK VINA RESULT:     -10.5      0.000      0.000
REMARK SMILES C=CC[N@@H+](CC(=O)NCCCCNC(=O)c1ccc(-c2c3nc(c(-c4cc(S(=O)(=O)[O-])ccc4F)c4ccc([nH]4)c(-c4cc(S(=O)(=O)[O-])ccc4F)c4nc(c(-c5cc(S(=O)(=O)[O-])ccc5F)c5ccc2[nH]5)C=C4)C=C3)cc1)C[C@H]1CNC(=O)O1
REMARK SMILES IDX 10 1 9 2 8 3 6 4 7 5 5 7 4 8 3 10 2 11 1 12 79 13 80 14
REMARK SMILES IDX 81 15 85 16 82 17 83 18 84 20 11 21 12 22 13 23 14 24 15 26
REMARK SMILES IDX 16 27 17 28 78 29 18 30 77 31 19 32 20 33 21 34 71 35 22 36
REMARK SMILES IDX 76 37 70 38 72 39 23 40 75 41 69 42 68 43 24 45 56 46 36 47
REMARK SMILES IDX 55 48 37 49 40 50 54 51 73 52 38 53 39 54 53 56 74 57 41 58
REMARK SMILES IDX 25 59 26 60 34 61 27 62 33 63 35 64 32 65 28 66 29 67 30 68
REMARK SMILES IDX 31 69 57 70 58 71 66 72 59 73 65 74 67 75 64 76 60 77 61 78
REMARK SMILES IDX 62 79 63 80 42 81 43 82 51 83 44 84 50 85 52 86 49 87 45 88
REMARK SMILES IDX 46 89 47 90 48 91
REMARK H PARENT 8 6 4 9 82 19 13 25 72 44 40 55
REMARK Flexibility Score: inf
ROOT
ATOM      1  C   UNL A   1      31.370  28.604  25.344  1.00  0.00     0.023 C 
ENDROOT
BRANCH   1   2
ATOM      2  C   UNL A   1      31.895  27.188  25.059  1.00  0.00     0.116 C 
BRANCH   2   3
ATOM      3  N   UNL A   1      32.891  27.105  24.011  1.00  0.00    -0.351 N 
ATOM      4  C   UNL A   1      33.417  26.030  23.356  1.00  0.00     0.275 C 
ATOM      5  O   UNL A   1      33.786  26.238  22.191  1.00  0.00    -0.269 OA
ATOM      6  H   UNL A   1      33.252  27.974  23.721  1.00  0.00     0.163 HD
BRANCH   4   7
ATOM      7  C   UNL A   1      33.515  24.601  23.916  1.00  0.00     0.363 C 
BRANCH   7   8
ATOM      8  N   UNL A   1      34.280  24.333  25.159  1.00  0.00    -0.321 N 
ATOM      9  H   UNL A   1      34.450  25.250  25.575  1.00  0.00     0.348 HD
BRANCH   8  10
ATOM     10  C   UNL A   1      35.625  23.856  24.899  1.00  0.00     0.290 C 
BRANCH  10  11
ATOM     11  C   UNL A   1      35.815  22.810  23.846  1.00  0.00     0.025 C 
ATOM     12  C   UNL A   1      36.663  22.938  22.813  1.00  0.00     0.010 C 
ENDBRANCH  10  11
ENDBRANCH   8  10
BRANCH   8  13
ATOM     13  C   UNL A   1      33.537  23.832  26.334  1.00  0.00     0.310 C 
BRANCH  13  14
ATOM     14  C   UNL A   1      32.037  23.565  26.172  1.00  0.00     0.252 C 
ATOM     15  C   UNL A   1      31.608  22.228  25.614  1.00  0.00     0.170 C 
ATOM     16  O   UNL A   1      31.346  23.596  27.431  1.00  0.00    -0.438 OA
ATOM     17  N   UNL A   1      30.272  22.168  26.114  1.00  0.00    -0.318 N 
ATOM     18  C   UNL A   1      30.158  22.955  27.229  1.00  0.00     0.407 C 
ATOM     19  H   UNL A   1      29.543  21.641  25.718  1.00  0.00     0.167 HD
ATOM     20  O   UNL A   1      29.172  23.061  27.929  1.00  0.00    -0.225 OA
ENDBRANCH  13  14
ENDBRANCH   8  13
ENDBRANCH   7   8
ENDBRANCH   4   7
ENDBRANCH   2   3
ENDBRANCH   1   2
BRANCH   1  21
ATOM     21  C   UNL A   1      31.869  29.286  26.604  1.00  0.00     0.023 C 
BRANCH  21  22
ATOM     22  C   UNL A   1      33.152  30.069  26.422  1.00  0.00     0.116 C 
BRANCH  22  23
ATOM     23  N   UNL A   1      33.082  31.424  26.958  1.00  0.00    -0.352 N 
ATOM     24  C   UNL A   1      33.964  32.075  27.788  1.00  0.00     0.251 C 
ATOM     25  H   UNL A   1      32.290  31.944  26.689  1.00  0.00     0.163 HD
ATOM     26  O   UNL A   1      33.675  33.173  28.252  1.00  0.00    -0.269 OA
BRANCH  24  27
ATOM     27  C   UNL A   1      35.232  31.409  28.141  1.00  0.00     0.039 A 
ATOM     28  C   UNL A   1      36.416  32.144  28.137  1.00  0.00     0.014 A 
ATOM     29  C   UNL A   1      35.224  30.078  28.564  1.00  0.00     0.014 A 
ATOM     30  C   UNL A   1      37.580  31.566  28.644  1.00  0.00     0.010 A 
ATOM     31  C   UNL A   1      36.345  29.553  29.187  1.00  0.00     0.010 A 
ATOM     32  C   UNL A   1      37.541  30.285  29.222  1.00  0.00    -0.014 A 
BRANCH  32  33
ATOM     33  C   UNL A   1      38.741  29.672  29.843  1.00  0.00     0.031 A 
ATOM     34  C   UNL A   1      39.191  30.138  31.202  1.00  0.00     0.074 A 
ATOM     35  C   UNL A   1      39.459  28.758  29.160  1.00  0.00     0.049 A 
ATOM     36  N   UNL A   1      40.256  29.802  31.882  1.00  0.00    -0.248 NA
ATOM     37  C   UNL A   1      38.354  31.153  31.863  1.00  0.00     0.031 C 
ATOM     38  C   UNL A   1      39.148  28.270  27.814  1.00  0.00     0.029 A 
ATOM     39  N   UNL A   1      40.602  28.079  29.501  1.00  0.00    -0.354 N 
ATOM     40  C   UNL A   1      40.223  30.575  33.038  1.00  0.00     0.074 A 
ATOM     41  C   UNL A   1      39.083  31.455  32.924  1.00  0.00     0.031 C 
ATOM     42  C   UNL A   1      40.052  27.342  27.463  1.00  0.00     0.029 A 
ATOM     43  C   UNL A   1      41.040  27.208  28.529  1.00  0.00     0.049 A 
ATOM     44  H   UNL A   1      41.065  28.203  30.360  1.00  0.00     0.167 HD
ATOM     45  C   UNL A   1      41.049  30.529  34.111  1.00  0.00     0.034 A 
ATOM     46  C   UNL A   1      42.121  26.404  28.498  1.00  0.00     0.034 A 
ATOM     47  C   UNL A   1      42.171  29.630  34.210  1.00  0.00     0.049 A 
ATOM     48  C   UNL A   1      43.042  26.387  29.692  1.00  0.00     0.074 A 
ATOM     49  C   UNL A   1      43.043  29.453  35.269  1.00  0.00     0.029 A 
ATOM     50  N   UNL A   1      42.584  28.762  33.207  1.00  0.00    -0.354 N 
ATOM     51  N   UNL A   1      42.965  27.082  30.805  1.00  0.00    -0.248 NA
ATOM     52  C   UNL A   1      44.187  25.471  29.632  1.00  0.00     0.031 C 
ATOM     53  C   UNL A   1      44.026  28.541  34.877  1.00  0.00     0.029 A 
ATOM     54  C   UNL A   1      43.718  28.074  33.610  1.00  0.00     0.049 A 
ATOM     55  H   UNL A   1      42.136  28.651  32.336  1.00  0.00     0.167 HD
ATOM     56  C   UNL A   1      44.034  26.658  31.592  1.00  0.00     0.074 A 
ATOM     57  C   UNL A   1      44.728  25.640  30.830  1.00  0.00     0.031 C 
ATOM     58  C   UNL A   1      44.403  27.066  32.833  1.00  0.00     0.034 A 
BRANCH  45  59
ATOM     59  C   UNL A   1      40.775  31.494  35.241  1.00  0.00     0.023 A 
ATOM     60  C   UNL A   1      39.678  31.329  36.107  1.00  0.00     0.031 A 
ATOM     61  C   UNL A   1      41.597  32.619  35.433  1.00  0.00     0.131 A 
ATOM     62  C   UNL A   1      39.381  32.313  37.061  1.00  0.00     0.055 A 
ATOM     63  C   UNL A   1      41.350  33.546  36.448  1.00  0.00     0.041 A 
ATOM     64  F   UNL A   1      42.644  32.846  34.626  1.00  0.00    -0.206 F 
ATOM     65  C   UNL A   1      40.227  33.407  37.258  1.00  0.00     0.022 A 
BRANCH  62  66
ATOM     66  S   UNL A   1      37.789  32.229  37.923  1.00  0.00     0.124 S 
ATOM     67  O   UNL A   1      37.008  33.231  37.200  1.00  0.00    -0.237 OA
ATOM     68  O   UNL A   1      37.391  30.842  37.718  1.00  0.00    -0.237 OA
ATOM     69  O   UNL A   1      38.124  32.586  39.300  1.00  0.00    -0.744 OA
ENDBRANCH  62  66
ENDBRANCH  45  59
BRANCH  46  70
ATOM     70  C   UNL A   1      42.398  25.554  27.303  1.00  0.00     0.023 A 
ATOM     71  C   UNL A   1      42.001  24.209  27.262  1.00  0.00     0.031 A 
ATOM     72  C   UNL A   1      43.101  26.066  26.197  1.00  0.00     0.131 A 
ATOM     73  C   UNL A   1      42.348  23.408  26.162  1.00  0.00     0.055 A 
ATOM     74  C   UNL A   1      43.393  25.281  25.079  1.00  0.00     0.041 A 
ATOM     75  F   UNL A   1      43.501  27.348  26.178  1.00  0.00    -0.206 F 
ATOM     76  C   UNL A   1      43.028  23.940  25.064  1.00  0.00     0.022 A 
BRANCH  73  77
ATOM     77  S   UNL A   1      41.978  21.633  26.227  1.00  0.00     0.124 S 
ATOM     78  O   UNL A   1      40.590  21.603  25.785  1.00  0.00    -0.237 OA
ATOM     79  O   UNL A   1      42.961  21.086  25.298  1.00  0.00    -0.237 OA
ATOM     80  O   UNL A   1      42.195  21.293  27.632  1.00  0.00    -0.744 OA
ENDBRANCH  73  77
ENDBRANCH  46  70
BRANCH  58  81
ATOM     81  C   UNL A   1      45.583  26.369  33.465  1.00  0.00     0.023 A 
ATOM     82  C   UNL A   1      45.448  25.153  34.156  1.00  0.00     0.031 A 
ATOM     83  C   UNL A   1      46.868  26.937  33.371  1.00  0.00     0.131 A 
ATOM     84  C   UNL A   1      46.566  24.573  34.774  1.00  0.00     0.055 A 
ATOM     85  C   UNL A   1      47.988  26.318  33.927  1.00  0.00     0.041 A 
ATOM     86  F   UNL A   1      47.056  28.100  32.728  1.00  0.00    -0.206 F 
ATOM     87  C   UNL A   1      47.838  25.137  34.646  1.00  0.00     0.022 A 
BRANCH  84  88
ATOM     88  S   UNL A   1      46.318  23.123  35.836  1.00  0.00     0.124 S 
ATOM     89  O   UNL A   1      47.564  23.090  36.596  1.00  0.00    -0.237 OA
ATOM     90  O   UNL A   1      45.122  23.487  36.588  1.00  0.00    -0.237 OA
ATOM     91  O   UNL A   1      46.143  22.028  34.885  1.00  0.00    -0.744 OA
ENDBRANCH  84  88
ENDBRANCH  58  81
ENDBRANCH  32  33
ENDBRANCH  24  27
ENDBRANCH  22  23
ENDBRANCH  21  22
ENDBRANCH   1  21
TORSDOF 19
ENDMDL
MODEL 2
REMARK VINA RESULT:     -10.4      1.423      2.464
REMARK SMILES C=CC[N@@H+](CC(=O)NCCCCNC(=O)c1ccc(-c2c3nc(c(-c4cc(S(=O)(=O)[O-])ccc4F)c4ccc([nH]4)c(-c4cc(S(=O)(=O)[O-])ccc4F)c4nc(c(-c5cc(S(=O)(=O)[O-])ccc5F)c5ccc2[nH]5)C=C4)C=C3)cc1)C[C@H]1CNC(=O)O1
REMARK SMILES IDX 10 1 9 2 8 3 6 4 7 5 5 7 4 8 3 10 2 11 1 12 79 13 80 14
REMARK SMILES IDX 81 15 85 16 82 17 83 18 84 20 11 21 12 22 13 23 14 24 15 26
REMARK SMILES IDX 16 27 17 28 78 29 18 30 77 31 19 32 20 33 21 34 71 35 22 36
REMARK SMILES IDX 76 37 70 38 72 39 23 40 75 41 69 42 68 43 24 45 56 46 36 47
REMARK SMILES IDX 55 48 37 49 40 50 54 51 73 52 38 53 39 54 53 56 74 57 41 58
REMARK SMILES IDX 25 59 26 60 34 61 27 62 33 63 35 64 32 65 28 66 29 67 30 68
REMARK SMILES IDX 31 69 57 70 58 71 66 72 59 73 65 74 67 75 64 76 60 77 61 78
REMARK SMILES IDX 62 79 63 80 42 81 43 82 51 83 44 84 50 85 52 86 49 87 45 88
REMARK SMILES IDX 46 89 47 90 48 91
REMARK H PARENT 8 6 4 9 82 19 13 25 72 44 40 55
REMARK Flexibility Score: inf
ROOT
ATOM      1  C   UNL A   1      31.845  27.788  26.920  1.00  0.00     0.023 C 
ENDROOT
BRANCH   1   2
ATOM      2  C   UNL A   1      32.301  26.377  26.517  1.00  0.00     0.116 C 
BRANCH   2   3
ATOM      3  N   UNL A   1      31.272  25.359  26.579  1.00  0.00    -0.351 N 
ATOM      4  C   UNL A   1      31.357  23.999  26.628  1.00  0.00     0.275 C 
ATOM      5  O   UNL A   1      30.435  23.424  27.223  1.00  0.00    -0.269 OA
ATOM      6  H   UNL A   1      30.353  25.710  26.586  1.00  0.00     0.163 HD
BRANCH   4   7
ATOM      7  C   UNL A   1      32.520  23.155  26.079  1.00  0.00     0.363 C 
BRANCH   7   8
ATOM      8  N   UNL A   1      32.826  23.154  24.627  1.00  0.00    -0.321 N 
ATOM      9  H   UNL A   1      32.314  23.948  24.242  1.00  0.00     0.348 HD
BRANCH   8  10
ATOM     10  C   UNL A   1      32.228  22.032  23.928  1.00  0.00     0.290 C 
BRANCH  10  11
ATOM     11  C   UNL A   1      32.317  20.676  24.556  1.00  0.00     0.025 C 
ATOM     12  C   UNL A   1      33.477  20.051  24.817  1.00  0.00     0.010 C 
ENDBRANCH  10  11
ENDBRANCH   8  10
BRANCH   8  13
ATOM     13  C   UNL A   1      34.142  23.670  24.198  1.00  0.00     0.310 C 
BRANCH  13  14
ATOM     14  C   UNL A   1      35.395  22.993  24.761  1.00  0.00     0.252 C 
ATOM     15  C   UNL A   1      36.395  22.420  23.784  1.00  0.00     0.170 C 
ATOM     16  O   UNL A   1      36.208  23.908  25.513  1.00  0.00    -0.438 OA
ATOM     17  N   UNL A   1      37.562  22.401  24.606  1.00  0.00    -0.318 N 
ATOM     18  C   UNL A   1      37.445  23.336  25.600  1.00  0.00     0.407 C 
ATOM     19  H   UNL A   1      38.335  21.807  24.477  1.00  0.00     0.167 HD
ATOM     20  O   UNL A   1      38.297  23.618  26.417  1.00  0.00    -0.225 OA
ENDBRANCH  13  14
ENDBRANCH   8  13
ENDBRANCH   7   8
ENDBRANCH   4   7
ENDBRANCH   2   3
ENDBRANCH   1   2
BRANCH   1  21
ATOM     21  C   UNL A   1      32.162  28.918  25.958  1.00  0.00     0.023 C 
BRANCH  21  22
ATOM     22  C   UNL A   1      33.545  29.511  26.129  1.00  0.00     0.116 C 
BRANCH  22  23
ATOM     23  N   UNL A   1      33.534  30.823  26.768  1.00  0.00    -0.352 N 
ATOM     24  C   UNL A   1      34.402  31.340  27.701  1.00  0.00     0.251 C 
ATOM     25  H   UNL A   1      32.802  31.421  26.493  1.00  0.00     0.163 HD
ATOM     26  O   UNL A   1      34.161  32.418  28.234  1.00  0.00    -0.269 OA
BRANCH  24  27
ATOM     27  C   UNL A   1      35.593  30.554  28.076  1.00  0.00     0.039 A 
ATOM     28  C   UNL A   1      36.791  30.759  27.393  1.00  0.00     0.014 A 
ATOM     29  C   UNL A   1      35.537  29.685  29.167  1.00  0.00     0.014 A 
ATOM     30  C   UNL A   1      37.956  30.154  27.864  1.00  0.00     0.010 A 
ATOM     31  C   UNL A   1      36.714  29.194  29.709  1.00  0.00     0.010 A 
ATOM     32  C   UNL A   1      37.936  29.410  29.056  1.00  0.00    -0.014 A 
BRANCH  32  33
ATOM     33  C   UNL A   1      39.172  28.820  29.629  1.00  0.00     0.031 A 
ATOM     34  C   UNL A   1      39.761  29.410  30.882  1.00  0.00     0.074 A 
ATOM     35  C   UNL A   1      39.795  27.812  28.988  1.00  0.00     0.049 A 
ATOM     36  N   UNL A   1      40.875  29.108  31.495  1.00  0.00    -0.248 NA
ATOM     37  C   UNL A   1      39.020  30.521  31.502  1.00  0.00     0.031 C 
ATOM     38  C   UNL A   1      39.345  27.196  27.737  1.00  0.00     0.029 A 
ATOM     39  N   UNL A   1      40.945  27.130  29.295  1.00  0.00    -0.354 N 
ATOM     40  C   UNL A   1      40.974  29.999  32.558  1.00  0.00     0.074 A 
ATOM     41  C   UNL A   1      39.853  30.905  32.454  1.00  0.00     0.031 C 
ATOM     42  C   UNL A   1      40.185  26.202  27.408  1.00  0.00     0.029 A 
ATOM     43  C   UNL A   1      41.265  26.144  28.389  1.00  0.00     0.049 A 
ATOM     44  H   UNL A   1      41.491  27.326  30.091  1.00  0.00     0.167 HD
ATOM     45  C   UNL A   1      41.896  30.036  33.551  1.00  0.00     0.034 A 
ATOM     46  C   UNL A   1      42.315  25.300  28.348  1.00  0.00     0.034 A 
ATOM     47  C   UNL A   1      42.996  29.109  33.645  1.00  0.00     0.049 A 
ATOM     48  C   UNL A   1      43.343  25.374  29.448  1.00  0.00     0.074 A 
ATOM     49  C   UNL A   1      43.958  29.013  34.634  1.00  0.00     0.029 A 
ATOM     50  N   UNL A   1      43.287  28.125  32.709  1.00  0.00    -0.354 N 
ATOM     51  N   UNL A   1      43.392  26.186  30.481  1.00  0.00    -0.248 NA
ATOM     52  C   UNL A   1      44.452  24.414  29.385  1.00  0.00     0.031 C 
ATOM     53  C   UNL A   1      44.874  28.027  34.256  1.00  0.00     0.029 A 
ATOM     54  C   UNL A   1      44.434  27.440  33.081  1.00  0.00     0.049 A 
ATOM     55  H   UNL A   1      42.757  27.940  31.901  1.00  0.00     0.167 HD
ATOM     56  C   UNL A   1      44.518  25.807  31.209  1.00  0.00     0.074 A 
ATOM     57  C   UNL A   1      45.108  24.688  30.503  1.00  0.00     0.031 C 
ATOM     58  C   UNL A   1      45.014  26.330  32.359  1.00  0.00     0.034 A 
BRANCH  45  59
ATOM     59  C   UNL A   1      41.757  31.125  34.589  1.00  0.00     0.023 A 
ATOM     60  C   UNL A   1      40.707  31.126  35.526  1.00  0.00     0.031 A 
ATOM     61  C   UNL A   1      42.662  32.201  34.619  1.00  0.00     0.131 A 
ATOM     62  C   UNL A   1      40.537  32.219  36.389  1.00  0.00     0.055 A 
ATOM     63  C   UNL A   1      42.541  33.239  35.544  1.00  0.00     0.041 A 
ATOM     64  F   UNL A   1      43.670  32.271  33.735  1.00  0.00    -0.206 F 
ATOM     65  C   UNL A   1      41.464  33.262  36.425  1.00  0.00     0.022 A 
BRANCH  62  66
ATOM     66  S   UNL A   1      38.999  32.335  37.342  1.00  0.00     0.124 S 
ATOM     67  O   UNL A   1      38.324  33.448  36.677  1.00  0.00    -0.237 OA
ATOM     68  O   UNL A   1      38.405  31.019  37.145  1.00  0.00    -0.237 OA
ATOM     69  O   UNL A   1      39.458  32.617  38.701  1.00  0.00    -0.744 OA
ENDBRANCH  62  66
ENDBRANCH  45  59
BRANCH  46  70
ATOM     70  C   UNL A   1      42.454  24.318  27.233  1.00  0.00     0.023 A 
ATOM     71  C   UNL A   1      41.781  23.088  27.262  1.00  0.00     0.031 A 
ATOM     72  C   UNL A   1      43.295  24.581  26.136  1.00  0.00     0.131 A 
ATOM     73  C   UNL A   1      41.994  22.146  26.242  1.00  0.00     0.055 A 
ATOM     74  C   UNL A   1      43.458  23.666  25.094  1.00  0.00     0.041 A 
ATOM     75  F   UNL A   1      43.960  25.745  26.052  1.00  0.00    -0.206 F 
ATOM     76  C   UNL A   1      42.816  22.434  25.151  1.00  0.00     0.022 A 
BRANCH  73  77
ATOM     77  S   UNL A   1      41.252  20.499  26.409  1.00  0.00     0.124 S 
ATOM     78  O   UNL A   1      39.862  20.763  26.057  1.00  0.00    -0.237 OA
ATOM     79  O   UNL A   1      42.023  19.722  25.444  1.00  0.00    -0.237 OA
ATOM     80  O   UNL A   1      41.489  20.161  27.810  1.00  0.00    -0.744 OA
ENDBRANCH  73  77
ENDBRANCH  46  70
BRANCH  58  81
ATOM     81  C   UNL A   1      46.228  25.659  32.954  1.00  0.00     0.023 A 
ATOM     82  C   UNL A   1      46.120  24.587  33.857  1.00  0.00     0.031 A 
ATOM     83  C   UNL A   1      47.518  26.103  32.607  1.00  0.00     0.131 A 
ATOM     84  C   UNL A   1      47.277  24.034  34.425  1.00  0.00     0.055 A 
ATOM     85  C   UNL A   1      48.666  25.501  33.121  1.00  0.00     0.041 A 
ATOM     86  F   UNL A   1      47.681  27.127  31.754  1.00  0.00    -0.206 F 
ATOM     87  C   UNL A   1      48.549  24.470  34.046  1.00  0.00     0.022 A 
BRANCH  84  88
ATOM     88  S   UNL A   1      47.095  22.803  35.745  1.00  0.00     0.124 S 
ATOM     89  O   UNL A   1      47.917  23.375  36.807  1.00  0.00    -0.237 OA
ATOM     90  O   UNL A   1      45.655  22.808  35.981  1.00  0.00    -0.237 OA
ATOM     91  O   UNL A   1      47.621  21.578  35.146  1.00  0.00    -0.744 OA
ENDBRANCH  84  88
ENDBRANCH  58  81
ENDBRANCH  32  33
ENDBRANCH  24  27
ENDBRANCH  22  23
ENDBRANCH  21  22
ENDBRANCH   1  21
TORSDOF 19
ENDMDL
MODEL 3
REMARK VINA RESULT:     -10.4      2.293      3.319
REMARK SMILES C=CC[N@@H+](CC(=O)NCCCCNC(=O)c1ccc(-c2c3nc(c(-c4cc(S(=O)(=O)[O-])ccc4F)c4ccc([nH]4)c(-c4cc(S(=O)(=O)[O-])ccc4F)c4nc(c(-c5cc(S(=O)(=O)[O-])ccc5F)c5ccc2[nH]5)C=C4)C=C3)cc1)C[C@H]1CNC(=O)O1
REMARK SMILES IDX 10 1 9 2 8 3 6 4 7 5 5 7 4 8 3 10 2 11 1 12 79 13 80 14
REMARK SMILES IDX 81 15 85 16 82 17 83 18 84 20 11 21 12 22 13 23 14 24 15 26
REMARK SMILES IDX 16 27 17 28 78 29 18 30 77 31 19 32 20 33 21 34 71 35 22 36
REMARK SMILES IDX 76 37 70 38 72 39 23 40 75 41 69 42 68 43 24 45 56 46 36 47
REMARK SMILES IDX 55 48 37 49 40 50 54 51 73 52 38 53 39 54 53 56 74 57 41 58
REMARK SMILES IDX 25 59 26 60 34 61 27 62 33 63 35 64 32 65 28 66 29 67 30 68
REMARK SMILES IDX 31 69 57 70 58 71 66 72 59 73 65 74 67 75 64 76 60 77 61 78
REMARK SMILES IDX 62 79 63 80 42 81 43 82 51 83 44 84 50 85 52 86 49 87 45 88
REMARK SMILES IDX 46 89 47 90 48 91
REMARK H PARENT 8 6 4 9 82 19 13 25 72 44 40 55
REMARK Flexibility Score: inf
ROOT
ATOM      1  C   UNL A   1      31.573  27.473  26.809  1.00  0.00     0.023 C 
ENDROOT
BRANCH   1   2
ATOM      2  C   UNL A   1      32.081  26.208  26.102  1.00  0.00     0.116 C 
BRANCH   2   3
ATOM      3  N   UNL A   1      31.286  25.019  26.327  1.00  0.00    -0.351 N 
ATOM      4  C   UNL A   1      31.611  23.811  26.872  1.00  0.00     0.275 C 
ATOM      5  O   UNL A   1      30.690  23.216  27.449  1.00  0.00    -0.269 OA
ATOM      6  H   UNL A   1      30.348  25.095  26.037  1.00  0.00     0.163 HD
BRANCH   4   7
ATOM      7  C   UNL A   1      33.015  23.185  26.885  1.00  0.00     0.363 C 
BRANCH   7   8
ATOM      8  N   UNL A   1      33.492  22.386  25.729  1.00  0.00    -0.321 N 
ATOM      9  H   UNL A   1      32.835  22.583  24.974  1.00  0.00     0.348 HD
BRANCH   8  10
ATOM     10  C   UNL A   1      33.322  20.959  25.924  1.00  0.00     0.290 C 
BRANCH  10  11
ATOM     11  C   UNL A   1      32.504  20.199  24.927  1.00  0.00     0.025 C 
ATOM     12  C   UNL A   1      32.566  20.406  23.602  1.00  0.00     0.010 C 
ENDBRANCH  10  11
ENDBRANCH   8  10
BRANCH   8  13
ATOM     13  C   UNL A   1      34.659  22.890  24.975  1.00  0.00     0.310 C 
BRANCH  13  14
ATOM     14  C   UNL A   1      36.048  22.698  25.591  1.00  0.00     0.252 C 
ATOM     15  C   UNL A   1      37.132  22.094  24.728  1.00  0.00     0.170 C 
ATOM     16  O   UNL A   1      36.641  23.948  25.980  1.00  0.00    -0.438 OA
ATOM     17  N   UNL A   1      38.289  22.572  25.415  1.00  0.00    -0.318 N 
ATOM     18  C   UNL A   1      37.979  23.709  26.113  1.00  0.00     0.407 C 
ATOM     19  H   UNL A   1      39.177  22.149  25.389  1.00  0.00     0.167 HD
ATOM     20  O   UNL A   1      38.759  24.396  26.739  1.00  0.00    -0.225 OA
ENDBRANCH  13  14
ENDBRANCH   8  13
ENDBRANCH   7   8
ENDBRANCH   4   7
ENDBRANCH   2   3
ENDBRANCH   1   2
BRANCH   1  21
ATOM     21  C   UNL A   1      31.541  28.755  25.995  1.00  0.00     0.023 C 
BRANCH  21  22
ATOM     22  C   UNL A   1      32.811  29.575  26.075  1.00  0.00     0.116 C 
BRANCH  22  23
ATOM     23  N   UNL A   1      32.577  30.963  26.461  1.00  0.00    -0.352 N 
ATOM     24  C   UNL A   1      33.325  31.771  27.286  1.00  0.00     0.251 C 
ATOM     25  H   UNL A   1      31.770  31.378  26.079  1.00  0.00     0.163 HD
ATOM     26  O   UNL A   1      32.903  32.876  27.610  1.00  0.00    -0.269 OA
BRANCH  24  27
ATOM     27  C   UNL A   1      34.610  31.264  27.802  1.00  0.00     0.039 A 
ATOM     28  C   UNL A   1      35.675  32.147  27.973  1.00  0.00     0.014 A 
ATOM     29  C   UNL A   1      34.722  29.931  28.202  1.00  0.00     0.014 A 
ATOM     30  C   UNL A   1      36.826  31.709  28.630  1.00  0.00     0.010 A 
ATOM     31  C   UNL A   1      35.808  29.537  28.968  1.00  0.00     0.010 A 
ATOM     32  C   UNL A   1      36.879  30.416  29.179  1.00  0.00    -0.014 A 
BRANCH  32  33
ATOM     33  C   UNL A   1      38.054  29.945  29.953  1.00  0.00     0.031 A 
ATOM     34  C   UNL A   1      38.279  30.465  31.348  1.00  0.00     0.074 A 
ATOM     35  C   UNL A   1      38.948  29.116  29.379  1.00  0.00     0.049 A 
ATOM     36  N   UNL A   1      39.282  30.254  32.159  1.00  0.00    -0.248 NA
ATOM     37  C   UNL A   1      37.259  31.381  31.884  1.00  0.00     0.031 C 
ATOM     38  C   UNL A   1      38.862  28.589  28.014  1.00  0.00     0.029 A 
ATOM     39  N   UNL A   1      40.109  28.571  29.869  1.00  0.00    -0.354 N 
ATOM     40  C   UNL A   1      39.021  31.022  33.288  1.00  0.00     0.074 A 
ATOM     41  C   UNL A   1      37.812  31.768  33.021  1.00  0.00     0.031 C 
ATOM     42  C   UNL A   1      39.901  27.768  27.793  1.00  0.00     0.029 A 
ATOM     43  C   UNL A   1      40.758  27.752  28.974  1.00  0.00     0.049 A 
ATOM     44  H   UNL A   1      40.446  28.750  30.776  1.00  0.00     0.167 HD
ATOM     45  C   UNL A   1      39.708  31.075  34.455  1.00  0.00     0.034 A 
ATOM     46  C   UNL A   1      41.917  27.074  29.089  1.00  0.00     0.034 A 
ATOM     47  C   UNL A   1      40.903  30.308  34.706  1.00  0.00     0.049 A 
ATOM     48  C   UNL A   1      42.680  27.166  30.387  1.00  0.00     0.074 A 
ATOM     49  C   UNL A   1      41.651  30.235  35.867  1.00  0.00     0.029 A 
ATOM     50  N   UNL A   1      41.530  29.488  33.776  1.00  0.00    -0.354 N 
ATOM     51  N   UNL A   1      42.390  27.852  31.470  1.00  0.00    -0.248 NA
ATOM     52  C   UNL A   1      43.919  26.385  30.484  1.00  0.00     0.031 C 
ATOM     53  C   UNL A   1      42.771  29.438  35.614  1.00  0.00     0.029 A 
ATOM     54  C   UNL A   1      42.676  28.934  34.327  1.00  0.00     0.049 A 
ATOM     55  H   UNL A   1      41.209  29.324  32.860  1.00  0.00     0.167 HD
ATOM     56  C   UNL A   1      43.394  27.555  32.388  1.00  0.00     0.074 A 
ATOM     57  C   UNL A   1      44.286  26.619  31.736  1.00  0.00     0.031 C 
ATOM     58  C   UNL A   1      43.559  28.007  33.658  1.00  0.00     0.034 A 
BRANCH  45  59
ATOM     59  C   UNL A   1      39.191  32.007  35.526  1.00  0.00     0.023 A 
ATOM     60  C   UNL A   1      39.603  33.350  35.602  1.00  0.00     0.031 A 
ATOM     61  C   UNL A   1      38.305  31.537  36.511  1.00  0.00     0.131 A 
ATOM     62  C   UNL A   1      39.202  34.148  36.684  1.00  0.00     0.055 A 
ATOM     63  C   UNL A   1      37.835  32.365  37.533  1.00  0.00     0.041 A 
ATOM     64  F   UNL A   1      37.894  30.260  36.509  1.00  0.00    -0.206 F 
ATOM     65  C   UNL A   1      38.297  33.673  37.635  1.00  0.00     0.022 A 
BRANCH  62  66
ATOM     66  S   UNL A   1      40.011  35.753  36.919  1.00  0.00     0.124 S 
ATOM     67  O   UNL A   1      41.414  35.361  37.043  1.00  0.00    -0.237 OA
ATOM     68  O   UNL A   1      39.655  36.469  35.701  1.00  0.00    -0.237 OA
ATOM     69  O   UNL A   1      39.405  36.266  38.146  1.00  0.00    -0.744 OA
ENDBRANCH  62  66
ENDBRANCH  45  59
BRANCH  46  70
ATOM     70  C   UNL A   1      42.433  26.256  27.953  1.00  0.00     0.023 A 
ATOM     71  C   UNL A   1      42.163  24.882  27.867  1.00  0.00     0.031 A 
ATOM     72  C   UNL A   1      43.238  26.831  26.952  1.00  0.00     0.131 A 
ATOM     73  C   UNL A   1      42.730  24.118  26.834  1.00  0.00     0.055 A 
ATOM     74  C   UNL A   1      43.751  26.079  25.894  1.00  0.00     0.041 A 
ATOM     75  F   UNL A   1      43.525  28.143  26.980  1.00  0.00    -0.206 F 
ATOM     76  C   UNL A   1      43.509  24.711  25.839  1.00  0.00     0.022 A 
BRANCH  73  77
ATOM     77  S   UNL A   1      42.509  22.318  26.861  1.00  0.00     0.124 S 
ATOM     78  O   UNL A   1      43.634  21.869  26.051  1.00  0.00    -0.237 OA
ATOM     79  O   UNL A   1      42.588  22.026  28.289  1.00  0.00    -0.237 OA
ATOM     80  O   UNL A   1      41.190  22.129  26.261  1.00  0.00    -0.744 OA
ENDBRANCH  73  77
ENDBRANCH  46  70
BRANCH  58  81
ATOM     81  C   UNL A   1      44.723  27.450  34.442  1.00  0.00     0.023 A 
ATOM     82  C   UNL A   1      46.008  28.014  34.370  1.00  0.00     0.031 A 
ATOM     83  C   UNL A   1      44.537  26.334  35.278  1.00  0.00     0.131 A 
ATOM     84  C   UNL A   1      47.069  27.426  35.075  1.00  0.00     0.055 A 
ATOM     85  C   UNL A   1      45.581  25.797  36.032  1.00  0.00     0.041 A 
ATOM     86  F   UNL A   1      43.332  25.750  35.382  1.00  0.00    -0.206 F 
ATOM     87  C   UNL A   1      46.858  26.335  35.922  1.00  0.00     0.022 A 
BRANCH  84  88
ATOM     88  S   UNL A   1      48.750  28.044  34.792  1.00  0.00     0.124 S 
ATOM     89  O   UNL A   1      48.581  29.480  34.987  1.00  0.00    -0.237 OA
ATOM     90  O   UNL A   1      49.517  27.346  35.818  1.00  0.00    -0.237 OA
ATOM     91  O   UNL A   1      49.039  27.636  33.419  1.00  0.00    -0.744 OA
ENDBRANCH  84  88
ENDBRANCH  58  81
ENDBRANCH  32  33
ENDBRANCH  24  27
ENDBRANCH  22  23
ENDBRANCH  21  22
ENDBRANCH   1  21
TORSDOF 19
ENDMDL
