MODEL 1
REMARK VINA RESULT:     -13.1      0.000      0.000
REMARK SMILES Cn1cc(S(=O)(=O)N2CCCc3cc(C(=O)NCCCCNC(=O)c4ccc(-c5c6nc(c(-c7cc(S(=O)(=O)[O-])ccc7F)c7ccc([nH]7)c(-c7cc(S(=O)(=O)[O-])ccc7F)c7nc(c(-c8cc(S(=O)(=O)[O-])ccc8F)c8ccc5[nH]8)C=C7)C=C6)cc4)ccc32)cc1C(N)=O
REMARK SMILES IDX 19 1 18 2 17 3 15 4 16 5 14 7 8 8 9 9 90 10 10 11 12 12
REMARK SMILES IDX 89 13 11 14 13 15 88 16 5 17 6 18 7 19 4 20 1 21 2 22 3 23
REMARK SMILES IDX 92 24 91 25 93 26 94 27 95 28 20 31 21 32 22 33 23 34 24 36
REMARK SMILES IDX 25 37 26 38 87 39 27 40 86 41 28 42 29 43 30 44 80 45 31 46
REMARK SMILES IDX 85 47 79 48 81 49 32 50 84 51 78 52 77 53 33 55 65 56 45 57
REMARK SMILES IDX 64 58 46 59 49 60 63 61 82 62 47 63 48 64 62 66 83 67 50 68
REMARK SMILES IDX 34 69 35 70 43 71 36 72 42 73 44 74 41 75 37 76 38 77 39 78
REMARK SMILES IDX 40 79 66 80 67 81 75 82 68 83 74 84 76 85 73 86 69 87 70 88
REMARK SMILES IDX 71 89 72 90 51 91 52 92 60 93 53 94 59 95 61 96 58 97 54 98
REMARK SMILES IDX 55 99 56 100 57 101
REMARK H PARENT 17 6 94 29 94 30 22 35 81 54 49 65
REMARK Flexibility Score: inf
ROOT
ATOM      1  C   UNL A   1      32.142  30.050  26.758  1.00  0.00     0.023 C 
ENDROOT
BRANCH   1   2
ATOM      2  C   UNL A   1      32.954  29.653  25.523  1.00  0.00     0.116 C 
BRANCH   2   3
ATOM      3  N   UNL A   1      32.123  29.681  24.336  1.00  0.00    -0.352 N 
ATOM      4  C   UNL A   1      31.549  28.683  23.592  1.00  0.00     0.251 C 
ATOM      5  O   UNL A   1      30.862  29.016  22.625  1.00  0.00    -0.269 OA
ATOM      6  H   UNL A   1      31.937  30.587  23.999  1.00  0.00     0.163 HD
BRANCH   4   7
ATOM      7  C   UNL A   1      31.674  27.230  23.913  1.00  0.00     0.040 A 
ATOM      8  N   UNL A   1      31.839  23.145  25.124  1.00  0.00    -0.266 N 
ATOM      9  C   UNL A   1      30.639  22.575  25.763  1.00  0.00     0.136 C 
ATOM     10  C   UNL A   1      31.788  24.513  24.700  1.00  0.00     0.055 A 
ATOM     11  C   UNL A   1      30.177  23.511  26.866  1.00  0.00     0.028 C 
ATOM     12  C   UNL A   1      30.863  25.379  25.302  1.00  0.00    -0.023 A 
ATOM     13  C   UNL A   1      32.578  24.988  23.654  1.00  0.00     0.028 A 
ATOM     14  C   UNL A   1      29.836  24.880  26.286  1.00  0.00     0.039 C 
ATOM     15  C   UNL A   1      30.826  26.731  24.915  1.00  0.00     0.019 A 
ATOM     16  C   UNL A   1      32.509  26.328  23.256  1.00  0.00     0.016 A 
BRANCH   8  17
ATOM     17  S   UNL A   1      33.316  22.336  25.328  1.00  0.00     0.265 S 
ATOM     18  O   UNL A   1      33.539  22.111  26.744  1.00  0.00    -0.201 OA
ATOM     19  O   UNL A   1      34.348  22.863  24.469  1.00  0.00    -0.201 OA
BRANCH  17  20
ATOM     20  C   UNL A   1      33.079  20.728  24.718  1.00  0.00     0.106 A 
ATOM     21  C   UNL A   1      32.149  18.336  22.184  1.00  0.00     0.150 C 
ATOM     22  N   UNL A   1      32.604  19.014  23.379  1.00  0.00    -0.345 N 
ATOM     23  C   UNL A   1      32.609  20.388  23.471  1.00  0.00     0.108 A 
ATOM     24  C   UNL A   1      33.072  18.451  24.560  1.00  0.00     0.107 A 
ATOM     25  C   UNL A   1      33.342  19.523  25.408  1.00  0.00     0.056 A 
BRANCH  24  26
ATOM     26  C   UNL A   1      33.241  17.031  24.819  1.00  0.00     0.265 C 
ATOM     27  N   UNL A   1      33.397  16.676  26.128  1.00  0.00    -0.364 N 
ATOM     28  O   UNL A   1      33.265  16.148  23.968  1.00  0.00    -0.268 OA
ATOM     29  H   UNL A   1      33.381  17.365  26.830  1.00  0.00     0.160 HD
ATOM     30  H   UNL A   1      33.524  15.729  26.370  1.00  0.00     0.160 HD
ENDBRANCH  24  26
ENDBRANCH  17  20
ENDBRANCH   8  17
ENDBRANCH   4   7
ENDBRANCH   2   3
ENDBRANCH   1   2
BRANCH   1  31
ATOM     31  C   UNL A   1      31.838  31.547  26.861  1.00  0.00     0.023 C 
BRANCH  31  32
ATOM     32  C   UNL A   1      33.004  32.406  27.338  1.00  0.00     0.116 C 
BRANCH  32  33
ATOM     33  N   UNL A   1      32.624  33.782  27.618  1.00  0.00    -0.352 N 
ATOM     34  C   UNL A   1      33.152  34.638  28.555  1.00  0.00     0.251 C 
ATOM     35  H   UNL A   1      31.896  34.147  27.065  1.00  0.00     0.163 HD
ATOM     36  O   UNL A   1      32.640  35.737  28.742  1.00  0.00    -0.269 OA
BRANCH  34  37
ATOM     37  C   UNL A   1      34.308  34.197  29.363  1.00  0.00     0.039 A 
ATOM     38  C   UNL A   1      34.073  33.489  30.544  1.00  0.00     0.014 A 
ATOM     39  C   UNL A   1      35.614  34.439  28.930  1.00  0.00     0.014 A 
ATOM     40  C   UNL A   1      35.150  32.961  31.256  1.00  0.00     0.010 A 
ATOM     41  C   UNL A   1      36.682  33.855  29.605  1.00  0.00     0.010 A 
ATOM     42  C   UNL A   1      36.460  33.108  30.771  1.00  0.00    -0.014 A 
BRANCH  42  43
ATOM     43  C   UNL A   1      37.613  32.484  31.470  1.00  0.00     0.031 A 
ATOM     44  C   UNL A   1      38.349  31.340  30.830  1.00  0.00     0.074 A 
ATOM     45  C   UNL A   1      37.948  32.903  32.706  1.00  0.00     0.049 A 
ATOM     46  N   UNL A   1      39.322  30.610  31.309  1.00  0.00    -0.248 NA
ATOM     47  C   UNL A   1      37.906  30.946  29.484  1.00  0.00     0.031 C 
ATOM     48  C   UNL A   1      37.277  33.974  33.447  1.00  0.00     0.029 A 
ATOM     49  N   UNL A   1      38.928  32.471  33.564  1.00  0.00    -0.354 N 
ATOM     50  C   UNL A   1      39.600  29.660  30.330  1.00  0.00     0.074 A 
ATOM     51  C   UNL A   1      38.648  29.872  29.260  1.00  0.00     0.031 C 
ATOM     52  C   UNL A   1      37.880  34.130  34.636  1.00  0.00     0.029 A 
ATOM     53  C   UNL A   1      38.948  33.146  34.764  1.00  0.00     0.049 A 
ATOM     54  H   UNL A   1      39.557  31.748  33.343  1.00  0.00     0.167 HD
ATOM     55  C   UNL A   1      40.573  28.716  30.318  1.00  0.00     0.034 A 
ATOM     56  C   UNL A   1      39.733  32.980  35.847  1.00  0.00     0.034 A 
ATOM     57  C   UNL A   1      41.522  28.530  31.389  1.00  0.00     0.049 A 
ATOM     58  C   UNL A   1      40.800  31.915  35.815  1.00  0.00     0.074 A 
ATOM     59  C   UNL A   1      42.584  27.644  31.457  1.00  0.00     0.029 A 
ATOM     60  N   UNL A   1      41.520  29.237  32.585  1.00  0.00    -0.354 N 
ATOM     61  N   UNL A   1      41.085  31.059  34.861  1.00  0.00    -0.248 NA
ATOM     62  C   UNL A   1      41.657  31.801  37.002  1.00  0.00     0.031 C 
ATOM     63  C   UNL A   1      43.183  27.773  32.716  1.00  0.00     0.029 A 
ATOM     64  C   UNL A   1      42.543  28.789  33.407  1.00  0.00     0.049 A 
ATOM     65  H   UNL A   1      40.884  29.952  32.815  1.00  0.00     0.167 HD
ATOM     66  C   UNL A   1      42.175  30.327  35.322  1.00  0.00     0.074 A 
ATOM     67  C   UNL A   1      42.502  30.850  36.632  1.00  0.00     0.031 C 
ATOM     68  C   UNL A   1      42.848  29.316  34.715  1.00  0.00     0.034 A 
BRANCH  55  69
ATOM     69  C   UNL A   1      40.636  27.804  29.116  1.00  0.00     0.023 A 
ATOM     70  C   UNL A   1      41.575  28.001  28.088  1.00  0.00     0.031 A 
ATOM     71  C   UNL A   1      39.722  26.744  28.975  1.00  0.00     0.131 A 
ATOM     72  C   UNL A   1      41.527  27.208  26.931  1.00  0.00     0.055 A 
ATOM     73  C   UNL A   1      39.733  25.904  27.860  1.00  0.00     0.041 A 
ATOM     74  F   UNL A   1      38.788  26.517  29.914  1.00  0.00    -0.206 F 
ATOM     75  C   UNL A   1      40.628  26.144  26.821  1.00  0.00     0.022 A 
BRANCH  72  76
ATOM     76  S   UNL A   1      42.552  27.684  25.513  1.00  0.00     0.124 S 
ATOM     77  O   UNL A   1      43.845  27.920  26.150  1.00  0.00    -0.237 OA
ATOM     78  O   UNL A   1      42.467  26.508  24.655  1.00  0.00    -0.237 OA
ATOM     79  O   UNL A   1      41.891  28.882  24.999  1.00  0.00    -0.744 OA
ENDBRANCH  72  76
ENDBRANCH  55  69
BRANCH  56  80
ATOM     80  C   UNL A   1      39.546  33.834  37.054  1.00  0.00     0.023 A 
ATOM     81  C   UNL A   1      38.933  33.325  38.210  1.00  0.00     0.031 A 
ATOM     82  C   UNL A   1      39.939  35.184  37.056  1.00  0.00     0.131 A 
ATOM     83  C   UNL A   1      38.689  34.171  39.303  1.00  0.00     0.055 A 
ATOM     84  C   UNL A   1      39.739  36.009  38.165  1.00  0.00     0.041 A 
ATOM     85  F   UNL A   1      40.536  35.718  35.979  1.00  0.00    -0.206 F 
ATOM     86  C   UNL A   1      39.098  35.506  39.292  1.00  0.00     0.022 A 
BRANCH  83  87
ATOM     87  S   UNL A   1      37.752  33.519  40.712  1.00  0.00     0.124 S 
ATOM     88  O   UNL A   1      36.501  33.117  40.079  1.00  0.00    -0.237 OA
ATOM     89  O   UNL A   1      38.615  32.436  41.173  1.00  0.00    -0.237 OA
ATOM     90  O   UNL A   1      37.656  34.664  41.615  1.00  0.00    -0.744 OA
ENDBRANCH  83  87
ENDBRANCH  56  80
BRANCH  68  91
ATOM     91  C   UNL A   1      44.036  28.748  35.453  1.00  0.00     0.023 A 
ATOM     92  C   UNL A   1      43.906  27.675  36.352  1.00  0.00     0.031 A 
ATOM     93  C   UNL A   1      45.314  29.300  35.261  1.00  0.00     0.131 A 
ATOM     94  C   UNL A   1      45.026  27.223  37.065  1.00  0.00     0.055 A 
ATOM     95  C   UNL A   1      46.435  28.808  35.930  1.00  0.00     0.041 A 
ATOM     96  F   UNL A   1      45.496  30.328  34.416  1.00  0.00    -0.206 F 
ATOM     97  C   UNL A   1      46.293  27.772  36.848  1.00  0.00     0.022 A 
BRANCH  94  98
ATOM     98  S   UNL A   1      44.791  25.962  38.348  1.00  0.00     0.124 S 
ATOM     99  O   UNL A   1      44.011  26.687  39.346  1.00  0.00    -0.237 OA
ATOM    100  O   UNL A   1      44.083  24.910  37.626  1.00  0.00    -0.237 OA
ATOM    101  O   UNL A   1      46.154  25.626  38.752  1.00  0.00    -0.744 OA
ENDBRANCH  94  98
ENDBRANCH  68  91
ENDBRANCH  42  43
ENDBRANCH  34  37
ENDBRANCH  32  33
ENDBRANCH  31  32
ENDBRANCH   1  31
TORSDOF 17
ENDMDL
MODEL 2
REMARK VINA RESULT:     -12.9      1.404      1.721
REMARK SMILES Cn1cc(S(=O)(=O)N2CCCc3cc(C(=O)NCCCCNC(=O)c4ccc(-c5c6nc(c(-c7cc(S(=O)(=O)[O-])ccc7F)c7ccc([nH]7)c(-c7cc(S(=O)(=O)[O-])ccc7F)c7nc(c(-c8cc(S(=O)(=O)[O-])ccc8F)c8ccc5[nH]8)C=C7)C=C6)cc4)ccc32)cc1C(N)=O
REMARK SMILES IDX 19 1 18 2 17 3 15 4 16 5 14 7 8 8 9 9 90 10 10 11 12 12
REMARK SMILES IDX 89 13 11 14 13 15 88 16 5 17 6 18 7 19 4 20 1 21 2 22 3 23
REMARK SMILES IDX 92 24 91 25 93 26 94 27 95 28 20 31 21 32 22 33 23 34 24 36
REMARK SMILES IDX 25 37 26 38 87 39 27 40 86 41 28 42 29 43 30 44 80 45 31 46
REMARK SMILES IDX 85 47 79 48 81 49 32 50 84 51 78 52 77 53 33 55 65 56 45 57
REMARK SMILES IDX 64 58 46 59 49 60 63 61 82 62 47 63 48 64 62 66 83 67 50 68
REMARK SMILES IDX 34 69 35 70 43 71 36 72 42 73 44 74 41 75 37 76 38 77 39 78
REMARK SMILES IDX 40 79 66 80 67 81 75 82 68 83 74 84 76 85 73 86 69 87 70 88
REMARK SMILES IDX 71 89 72 90 51 91 52 92 60 93 53 94 59 95 61 96 58 97 54 98
REMARK SMILES IDX 55 99 56 100 57 101
REMARK H PARENT 17 6 94 29 94 30 22 35 81 54 49 65
REMARK Flexibility Score: inf
ROOT
ATOM      1  C   UNL A   1      31.965  30.020  26.452  1.00  0.00     0.023 C 
ENDROOT
BRANCH   1   2
ATOM      2  C   UNL A   1      32.341  29.710  25.002  1.00  0.00     0.116 C 
BRANCH   2   3
ATOM      3  N   UNL A   1      31.156  29.642  24.170  1.00  0.00    -0.352 N 
ATOM      4  C   UNL A   1      30.475  28.584  23.626  1.00  0.00     0.251 C 
ATOM      5  O   UNL A   1      29.466  28.835  22.965  1.00  0.00    -0.269 OA
ATOM      6  H   UNL A   1      30.768  30.520  23.954  1.00  0.00     0.163 HD
BRANCH   4   7
ATOM      7  C   UNL A   1      30.860  27.156  23.827  1.00  0.00     0.040 A 
ATOM      8  N   UNL A   1      31.848  23.109  24.737  1.00  0.00    -0.266 N 
ATOM      9  C   UNL A   1      30.947  22.375  25.643  1.00  0.00     0.136 C 
ATOM     10  C   UNL A   1      31.516  24.465  24.414  1.00  0.00     0.055 A 
ATOM     11  C   UNL A   1      30.690  23.223  26.876  1.00  0.00     0.028 C 
ATOM     12  C   UNL A   1      30.690  25.191  25.284  1.00  0.00    -0.023 A 
ATOM     13  C   UNL A   1      31.928  25.057  23.221  1.00  0.00     0.028 A 
ATOM     14  C   UNL A   1      30.038  24.544  26.480  1.00  0.00     0.039 C 
ATOM     15  C   UNL A   1      30.384  26.533  24.991  1.00  0.00     0.019 A 
ATOM     16  C   UNL A   1      31.589  26.383  22.925  1.00  0.00     0.016 A 
BRANCH   8  17
ATOM     17  S   UNL A   1      33.414  22.499  24.497  1.00  0.00     0.265 S 
ATOM     18  O   UNL A   1      34.134  22.541  25.756  1.00  0.00    -0.201 OA
ATOM     19  O   UNL A   1      34.000  22.975  23.268  1.00  0.00    -0.201 OA
BRANCH  17  20
ATOM     20  C   UNL A   1      33.235  20.796  24.214  1.00  0.00     0.106 A 
ATOM     21  C   UNL A   1      32.140  17.931  22.316  1.00  0.00     0.150 C 
ATOM     22  N   UNL A   1      32.715  18.841  23.284  1.00  0.00    -0.345 N 
ATOM     23  C   UNL A   1      32.605  20.207  23.143  1.00  0.00     0.108 A 
ATOM     24  C   UNL A   1      33.416  18.532  24.443  1.00  0.00     0.107 A 
ATOM     25  C   UNL A   1      33.716  19.755  25.040  1.00  0.00     0.056 A 
BRANCH  24  26
ATOM     26  C   UNL A   1      33.757  17.196  24.902  1.00  0.00     0.265 C 
ATOM     27  N   UNL A   1      33.267  16.840  26.126  1.00  0.00    -0.364 N 
ATOM     28  O   UNL A   1      34.445  16.385  24.291  1.00  0.00    -0.268 OA
ATOM     29  H   UNL A   1      32.712  17.473  26.636  1.00  0.00     0.160 HD
ATOM     30  H   UNL A   1      33.469  15.951  26.498  1.00  0.00     0.160 HD
ENDBRANCH  24  26
ENDBRANCH  17  20
ENDBRANCH   8  17
ENDBRANCH   4   7
ENDBRANCH   2   3
ENDBRANCH   1   2
BRANCH   1  31
ATOM     31  C   UNL A   1      31.675  31.497  26.728  1.00  0.00     0.023 C 
BRANCH  31  32
ATOM     32  C   UNL A   1      32.883  32.317  27.167  1.00  0.00     0.116 C 
BRANCH  32  33
ATOM     33  N   UNL A   1      32.548  33.687  27.521  1.00  0.00    -0.352 N 
ATOM     34  C   UNL A   1      33.107  34.476  28.498  1.00  0.00     0.251 C 
ATOM     35  H   UNL A   1      31.829  34.104  26.993  1.00  0.00     0.163 HD
ATOM     36  O   UNL A   1      32.630  35.578  28.746  1.00  0.00    -0.269 OA
BRANCH  34  37
ATOM     37  C   UNL A   1      34.251  33.957  29.275  1.00  0.00     0.039 A 
ATOM     38  C   UNL A   1      34.028  32.939  30.205  1.00  0.00     0.014 A 
ATOM     39  C   UNL A   1      35.543  34.439  29.049  1.00  0.00     0.014 A 
ATOM     40  C   UNL A   1      35.113  32.355  30.860  1.00  0.00     0.010 A 
ATOM     41  C   UNL A   1      36.628  33.810  29.653  1.00  0.00     0.010 A 
ATOM     42  C   UNL A   1      36.423  32.760  30.560  1.00  0.00    -0.014 A 
BRANCH  42  43
ATOM     43  C   UNL A   1      37.596  32.095  31.184  1.00  0.00     0.031 A 
ATOM     44  C   UNL A   1      38.379  31.073  30.410  1.00  0.00     0.074 A 
ATOM     45  C   UNL A   1      37.907  32.363  32.468  1.00  0.00     0.049 A 
ATOM     46  N   UNL A   1      39.377  30.324  30.801  1.00  0.00    -0.248 NA
ATOM     47  C   UNL A   1      37.959  30.839  29.020  1.00  0.00     0.031 C 
ATOM     48  C   UNL A   1      37.191  33.303  33.333  1.00  0.00     0.029 A 
ATOM     49  N   UNL A   1      38.898  31.861  33.274  1.00  0.00    -0.354 N 
ATOM     50  C   UNL A   1      39.697  29.520  29.711  1.00  0.00     0.074 A 
ATOM     51  C   UNL A   1      38.744  29.833  28.667  1.00  0.00     0.031 C 
ATOM     52  C   UNL A   1      37.780  33.326  34.540  1.00  0.00     0.029 A 
ATOM     53  C   UNL A   1      38.886  32.375  34.551  1.00  0.00     0.049 A 
ATOM     54  H   UNL A   1      39.557  31.197  32.967  1.00  0.00     0.167 HD
ATOM     55  C   UNL A   1      40.707  28.623  29.587  1.00  0.00     0.034 A 
ATOM     56  C   UNL A   1      39.671  32.101  35.611  1.00  0.00     0.034 A 
ATOM     57  C   UNL A   1      41.656  28.336  30.635  1.00  0.00     0.049 A 
ATOM     58  C   UNL A   1      40.778  31.090  35.454  1.00  0.00     0.074 A 
ATOM     59  C   UNL A   1      42.751  27.490  30.599  1.00  0.00     0.029 A 
ATOM     60  N   UNL A   1      41.620  28.882  31.912  1.00  0.00    -0.354 N 
ATOM     61  N   UNL A   1      41.102  30.376  34.400  1.00  0.00    -0.248 NA
ATOM     62  C   UNL A   1      41.632  30.856  36.624  1.00  0.00     0.031 C 
ATOM     63  C   UNL A   1      43.338  27.477  31.870  1.00  0.00     0.029 A 
ATOM     64  C   UNL A   1      42.654  28.370  32.680  1.00  0.00     0.049 A 
ATOM     65  H   UNL A   1      40.955  29.537  32.226  1.00  0.00     0.167 HD
ATOM     66  C   UNL A   1      42.217  29.632  34.774  1.00  0.00     0.074 A 
ATOM     67  C   UNL A   1      42.516  29.994  36.144  1.00  0.00     0.031 C 
ATOM     68  C   UNL A   1      42.932  28.734  34.049  1.00  0.00     0.034 A 
BRANCH  55  69
ATOM     69  C   UNL A   1      40.812  27.877  28.278  1.00  0.00     0.023 A 
ATOM     70  C   UNL A   1      40.285  26.582  28.121  1.00  0.00     0.031 A 
ATOM     71  C   UNL A   1      41.479  28.450  27.181  1.00  0.00     0.131 A 
ATOM     72  C   UNL A   1      40.505  25.874  26.931  1.00  0.00     0.055 A 
ATOM     73  C   UNL A   1      41.622  27.773  25.968  1.00  0.00     0.041 A 
ATOM     74  F   UNL A   1      42.021  29.676  27.275  1.00  0.00    -0.206 F 
ATOM     75  C   UNL A   1      41.148  26.470  25.843  1.00  0.00     0.022 A 
BRANCH  72  76
ATOM     76  S   UNL A   1      40.074  24.114  26.880  1.00  0.00     0.124 S 
ATOM     77  O   UNL A   1      38.771  24.148  26.218  1.00  0.00    -0.237 OA
ATOM     78  O   UNL A   1      41.169  23.543  26.104  1.00  0.00    -0.237 OA
ATOM     79  O   UNL A   1      40.039  23.728  28.289  1.00  0.00    -0.744 OA
ENDBRANCH  72  76
ENDBRANCH  55  69
BRANCH  56  80
ATOM     80  C   UNL A   1      39.443  32.783  36.916  1.00  0.00     0.023 A 
ATOM     81  C   UNL A   1      38.534  32.265  37.853  1.00  0.00     0.031 A 
ATOM     82  C   UNL A   1      40.100  33.986  37.230  1.00  0.00     0.131 A 
ATOM     83  C   UNL A   1      38.272  32.971  39.037  1.00  0.00     0.055 A 
ATOM     84  C   UNL A   1      39.873  34.658  38.433  1.00  0.00     0.041 A 
ATOM     85  F   UNL A   1      40.985  34.520  36.373  1.00  0.00    -0.206 F 
ATOM     86  C   UNL A   1      38.944  34.157  39.339  1.00  0.00     0.022 A 
BRANCH  83  87
ATOM     87  S   UNL A   1      36.976  32.354  40.146  1.00  0.00     0.124 S 
ATOM     88  O   UNL A   1      37.577  31.126  40.653  1.00  0.00    -0.237 OA
ATOM     89  O   UNL A   1      36.849  33.449  41.101  1.00  0.00    -0.237 OA
ATOM     90  O   UNL A   1      35.830  32.168  39.258  1.00  0.00    -0.744 OA
ENDBRANCH  83  87
ENDBRANCH  56  80
BRANCH  68  91
ATOM     91  C   UNL A   1      44.137  28.121  34.719  1.00  0.00     0.023 A 
ATOM     92  C   UNL A   1      44.076  26.863  35.345  1.00  0.00     0.031 A 
ATOM     93  C   UNL A   1      45.360  28.814  34.743  1.00  0.00     0.131 A 
ATOM     94  C   UNL A   1      45.203  26.362  36.013  1.00  0.00     0.055 A 
ATOM     95  C   UNL A   1      46.493  28.284  35.359  1.00  0.00     0.041 A 
ATOM     96  F   UNL A   1      45.473  30.020  34.162  1.00  0.00    -0.206 F 
ATOM     97  C   UNL A   1      46.416  27.057  36.011  1.00  0.00     0.022 A 
BRANCH  94  98
ATOM     98  S   UNL A   1      45.040  24.825  36.963  1.00  0.00     0.124 S 
ATOM     99  O   UNL A   1      46.385  24.268  36.870  1.00  0.00    -0.237 OA
ATOM    100  O   UNL A   1      44.641  25.312  38.279  1.00  0.00    -0.237 OA
ATOM    101  O   UNL A   1      44.010  24.083  36.239  1.00  0.00    -0.744 OA
ENDBRANCH  94  98
ENDBRANCH  68  91
ENDBRANCH  42  43
ENDBRANCH  34  37
ENDBRANCH  32  33
ENDBRANCH  31  32
ENDBRANCH   1  31
TORSDOF 17
ENDMDL
MODEL 3
REMARK VINA RESULT:     -12.7      1.173      7.622
REMARK SMILES Cn1cc(S(=O)(=O)N2CCCc3cc(C(=O)NCCCCNC(=O)c4ccc(-c5c6nc(c(-c7cc(S(=O)(=O)[O-])ccc7F)c7ccc([nH]7)c(-c7cc(S(=O)(=O)[O-])ccc7F)c7nc(c(-c8cc(S(=O)(=O)[O-])ccc8F)c8ccc5[nH]8)C=C7)C=C6)cc4)ccc32)cc1C(N)=O
REMARK SMILES IDX 19 1 18 2 17 3 15 4 16 5 14 7 8 8 9 9 90 10 10 11 12 12
REMARK SMILES IDX 89 13 11 14 13 15 88 16 5 17 6 18 7 19 4 20 1 21 2 22 3 23
REMARK SMILES IDX 92 24 91 25 93 26 94 27 95 28 20 31 21 32 22 33 23 34 24 36
REMARK SMILES IDX 25 37 26 38 87 39 27 40 86 41 28 42 29 43 30 44 80 45 31 46
REMARK SMILES IDX 85 47 79 48 81 49 32 50 84 51 78 52 77 53 33 55 65 56 45 57
REMARK SMILES IDX 64 58 46 59 49 60 63 61 82 62 47 63 48 64 62 66 83 67 50 68
REMARK SMILES IDX 34 69 35 70 43 71 36 72 42 73 44 74 41 75 37 76 38 77 39 78
REMARK SMILES IDX 40 79 66 80 67 81 75 82 68 83 74 84 76 85 73 86 69 87 70 88
REMARK SMILES IDX 71 89 72 90 51 91 52 92 60 93 53 94 59 95 61 96 58 97 54 98
REMARK SMILES IDX 55 99 56 100 57 101
REMARK H PARENT 17 6 94 29 94 30 22 35 81 54 49 65
REMARK Flexibility Score: inf
ROOT
ATOM      1  C   UNL A   1      34.763  30.277  27.879  1.00  0.00     0.023 C 
ENDROOT
BRANCH   1   2
ATOM      2  C   UNL A   1      34.724  29.157  26.837  1.00  0.00     0.116 C 
BRANCH   2   3
ATOM      3  N   UNL A   1      33.787  29.477  25.778  1.00  0.00    -0.352 N 
ATOM      4  C   UNL A   1      33.002  28.690  24.977  1.00  0.00     0.251 C 
ATOM      5  O   UNL A   1      32.272  29.256  24.161  1.00  0.00    -0.269 OA
ATOM      6  H   UNL A   1      33.698  30.442  25.601  1.00  0.00     0.163 HD
BRANCH   4   7
ATOM      7  C   UNL A   1      32.950  27.201  25.070  1.00  0.00     0.040 A 
ATOM      8  N   UNL A   1      32.533  22.986  25.562  1.00  0.00    -0.266 N 
ATOM      9  C   UNL A   1      31.168  22.449  25.707  1.00  0.00     0.136 C 
ATOM     10  C   UNL A   1      32.682  24.400  25.381  1.00  0.00     0.055 A 
ATOM     11  C   UNL A   1      30.431  23.254  26.763  1.00  0.00     0.028 C 
ATOM     12  C   UNL A   1      31.659  25.255  25.816  1.00  0.00    -0.023 A 
ATOM     13  C   UNL A   1      33.780  24.943  24.715  1.00  0.00     0.028 A 
ATOM     14  C   UNL A   1      30.354  24.720  26.349  1.00  0.00     0.039 C 
ATOM     15  C   UNL A   1      31.810  26.646  25.672  1.00  0.00     0.019 A 
ATOM     16  C   UNL A   1      33.903  26.328  24.548  1.00  0.00     0.016 A 
BRANCH   8  17
ATOM     17  S   UNL A   1      33.832  22.014  26.058  1.00  0.00     0.265 S 
ATOM     18  O   UNL A   1      33.775  21.849  27.498  1.00  0.00    -0.201 OA
ATOM     19  O   UNL A   1      35.058  22.358  25.379  1.00  0.00    -0.201 OA
BRANCH  17  20
ATOM     20  C   UNL A   1      33.495  20.415  25.474  1.00  0.00     0.106 A 
ATOM     21  C   UNL A   1      32.494  16.972  25.869  1.00  0.00     0.150 C 
ATOM     22  N   UNL A   1      32.907  18.270  25.377  1.00  0.00    -0.345 N 
ATOM     23  C   UNL A   1      33.099  19.336  26.228  1.00  0.00     0.108 A 
ATOM     24  C   UNL A   1      33.173  18.646  24.067  1.00  0.00     0.107 A 
ATOM     25  C   UNL A   1      33.569  19.981  24.131  1.00  0.00     0.056 A 
BRANCH  24  26
ATOM     26  C   UNL A   1      33.045  17.799  22.894  1.00  0.00     0.265 C 
ATOM     27  N   UNL A   1      31.906  17.963  22.158  1.00  0.00    -0.364 N 
ATOM     28  O   UNL A   1      33.859  16.958  22.527  1.00  0.00    -0.268 OA
ATOM     29  H   UNL A   1      31.237  18.631  22.431  1.00  0.00     0.160 HD
ATOM     30  H   UNL A   1      31.754  17.413  21.355  1.00  0.00     0.160 HD
ENDBRANCH  24  26
ENDBRANCH  17  20
ENDBRANCH   8  17
ENDBRANCH   4   7
ENDBRANCH   2   3
ENDBRANCH   1   2
BRANCH   1  31
ATOM     31  C   UNL A   1      34.321  31.645  27.353  1.00  0.00     0.023 C 
BRANCH  31  32
ATOM     32  C   UNL A   1      32.985  32.140  27.897  1.00  0.00     0.116 C 
BRANCH  32  33
ATOM     33  N   UNL A   1      32.917  33.588  28.018  1.00  0.00    -0.352 N 
ATOM     34  C   UNL A   1      33.706  34.418  28.777  1.00  0.00     0.251 C 
ATOM     35  H   UNL A   1      32.215  34.031  27.487  1.00  0.00     0.163 HD
ATOM     36  O   UNL A   1      33.444  35.613  28.857  1.00  0.00    -0.269 OA
BRANCH  34  37
ATOM     37  C   UNL A   1      34.838  33.841  29.532  1.00  0.00     0.039 A 
ATOM     38  C   UNL A   1      34.568  32.968  30.589  1.00  0.00     0.014 A 
ATOM     39  C   UNL A   1      36.157  34.124  29.166  1.00  0.00     0.014 A 
ATOM     40  C   UNL A   1      35.623  32.323  31.235  1.00  0.00     0.010 A 
ATOM     41  C   UNL A   1      37.202  33.428  29.766  1.00  0.00     0.010 A 
ATOM     42  C   UNL A   1      36.945  32.518  30.803  1.00  0.00    -0.014 A 
BRANCH  42  43
ATOM     43  C   UNL A   1      38.074  31.778  31.422  1.00  0.00     0.031 A 
ATOM     44  C   UNL A   1      38.580  32.179  32.779  1.00  0.00     0.074 A 
ATOM     45  C   UNL A   1      38.684  30.795  30.731  1.00  0.00     0.049 A 
ATOM     46  N   UNL A   1      39.602  31.718  33.452  1.00  0.00    -0.248 NA
ATOM     47  C   UNL A   1      37.858  33.270  33.453  1.00  0.00     0.031 C 
ATOM     48  C   UNL A   1      38.310  30.349  29.387  1.00  0.00     0.029 A 
ATOM     49  N   UNL A   1      39.755  30.002  31.056  1.00  0.00    -0.354 N 
ATOM     50  C   UNL A   1      39.655  32.469  34.623  1.00  0.00     0.074 A 
ATOM     51  C   UNL A   1      38.599  33.456  34.534  1.00  0.00     0.031 C 
ATOM     52  C   UNL A   1      39.124  29.348  29.014  1.00  0.00     0.029 A 
ATOM     53  C   UNL A   1      40.102  29.109  30.068  1.00  0.00     0.049 A 
ATOM     54  H   UNL A   1      40.231  30.065  31.916  1.00  0.00     0.167 HD
ATOM     55  C   UNL A   1      40.492  32.331  35.681  1.00  0.00     0.034 A 
ATOM     56  C   UNL A   1      41.103  28.207  30.017  1.00  0.00     0.034 A 
ATOM     57  C   UNL A   1      41.529  31.331  35.756  1.00  0.00     0.049 A 
ATOM     58  C   UNL A   1      42.030  28.081  31.199  1.00  0.00     0.074 A 
ATOM     59  C   UNL A   1      42.396  31.063  36.802  1.00  0.00     0.029 A 
ATOM     60  N   UNL A   1      41.846  30.436  34.741  1.00  0.00    -0.354 N 
ATOM     61  N   UNL A   1      42.034  28.763  32.322  1.00  0.00    -0.248 NA
ATOM     62  C   UNL A   1      43.078  27.057  31.113  1.00  0.00     0.031 C 
ATOM     63  C   UNL A   1      43.275  30.052  36.396  1.00  0.00     0.029 A 
ATOM     64  C   UNL A   1      42.912  29.636  35.125  1.00  0.00     0.049 A 
ATOM     65  H   UNL A   1      41.381  30.379  33.875  1.00  0.00     0.167 HD
ATOM     66  C   UNL A   1      43.066  28.227  33.086  1.00  0.00     0.074 A 
ATOM     67  C   UNL A   1      43.651  27.159  32.302  1.00  0.00     0.031 C 
ATOM     68  C   UNL A   1      43.490  28.582  34.326  1.00  0.00     0.034 A 
BRANCH  55  69
ATOM     69  C   UNL A   1      40.326  33.304  36.824  1.00  0.00     0.023 A 
ATOM     70  C   UNL A   1      39.668  32.940  38.013  1.00  0.00     0.031 A 
ATOM     71  C   UNL A   1      40.800  34.623  36.713  1.00  0.00     0.131 A 
ATOM     72  C   UNL A   1      39.428  33.903  39.005  1.00  0.00     0.055 A 
ATOM     73  C   UNL A   1      40.633  35.555  37.740  1.00  0.00     0.041 A 
ATOM     74  F   UNL A   1      41.419  35.036  35.595  1.00  0.00    -0.206 F 
ATOM     75  C   UNL A   1      39.929  35.202  38.887  1.00  0.00     0.022 A 
BRANCH  72  76
ATOM     76  S   UNL A   1      38.324  33.474  40.377  1.00  0.00     0.124 S 
ATOM     77  O   UNL A   1      38.205  34.754  41.071  1.00  0.00    -0.237 OA
ATOM     78  O   UNL A   1      37.128  33.008  39.685  1.00  0.00    -0.237 OA
ATOM     79  O   UNL A   1      39.065  32.445  41.105  1.00  0.00    -0.744 OA
ENDBRANCH  72  76
ENDBRANCH  55  69
BRANCH  56  80
ATOM     80  C   UNL A   1      41.290  27.355  28.808  1.00  0.00     0.023 A 
ATOM     81  C   UNL A   1      42.276  27.659  27.856  1.00  0.00     0.031 A 
ATOM     82  C   UNL A   1      40.459  26.247  28.567  1.00  0.00     0.131 A 
ATOM     83  C   UNL A   1      42.376  26.893  26.684  1.00  0.00     0.055 A 
ATOM     84  C   UNL A   1      40.597  25.457  27.423  1.00  0.00     0.041 A 
ATOM     85  F   UNL A   1      39.507  25.908  29.449  1.00  0.00    -0.206 F 
ATOM     86  C   UNL A   1      41.552  25.788  26.467  1.00  0.00     0.022 A 
BRANCH  83  87
ATOM     87  S   UNL A   1      43.553  27.414  25.406  1.00  0.00     0.124 S 
ATOM     88  O   UNL A   1      44.275  28.485  26.083  1.00  0.00    -0.237 OA
ATOM     89  O   UNL A   1      44.303  26.186  25.167  1.00  0.00    -0.237 OA
ATOM     90  O   UNL A   1      42.692  27.840  24.305  1.00  0.00    -0.744 OA
ENDBRANCH  83  87
ENDBRANCH  56  80
BRANCH  68  91
ATOM     91  C   UNL A   1      44.612  27.769  34.923  1.00  0.00     0.023 A 
ATOM     92  C   UNL A   1      44.382  26.523  35.531  1.00  0.00     0.031 A 
ATOM     93  C   UNL A   1      45.930  28.259  34.892  1.00  0.00     0.131 A 
ATOM     94  C   UNL A   1      45.446  25.833  36.132  1.00  0.00     0.055 A 
ATOM     95  C   UNL A   1      46.993  27.541  35.440  1.00  0.00     0.041 A 
ATOM     96  F   UNL A   1      46.206  29.444  34.325  1.00  0.00    -0.206 F 
ATOM     97  C   UNL A   1      46.753  26.327  36.076  1.00  0.00     0.022 A 
BRANCH  94  98
ATOM     98  S   UNL A   1      45.087  24.320  37.066  1.00  0.00     0.124 S 
ATOM     99  O   UNL A   1      44.321  24.836  38.195  1.00  0.00    -0.237 OA
ATOM    100  O   UNL A   1      44.338  23.526  36.097  1.00  0.00    -0.237 OA
ATOM    101  O   UNL A   1      46.411  23.801  37.400  1.00  0.00    -0.744 OA
ENDBRANCH  94  98
ENDBRANCH  68  91
ENDBRANCH  42  43
ENDBRANCH  34  37
ENDBRANCH  32  33
ENDBRANCH  31  32
ENDBRANCH   1  31
TORSDOF 17
ENDMDL
