MODEL 1
REMARK VINA RESULT:     -12.1      0.000      0.000
REMARK SMILES Cc1nn(C)c(=O)c(C(=O)N[C@H](C)CC(=O)NCCCCNC(=O)c2ccc(-c3c4nc(c(-c5cc(S(=O)(=O)[O-])ccc5F)c5ccc([nH]5)c(-c5cc(S(=O)(=O)[O-])ccc5F)c5nc(c(-c6cc(S(=O)(=O)[O-])ccc6F)c6ccc3[nH]6)C=C5)C=C4)cc2)c1C
REMARK SMILES IDX 19 1 18 2 17 3 15 4 16 5 14 7 12 8 13 9 11 10 9 11 10 12
REMARK SMILES IDX 8 14 1 15 2 16 3 17 88 18 4 19 89 20 5 21 6 22 7 23 20 24
REMARK SMILES IDX 21 25 22 26 23 27 24 29 25 30 26 31 87 32 27 33 86 34 28 35
REMARK SMILES IDX 29 36 30 37 80 38 31 39 85 40 79 41 81 42 32 43 84 44 78 45
REMARK SMILES IDX 77 46 33 48 65 49 45 50 64 51 46 52 49 53 63 54 82 55 47 56
REMARK SMILES IDX 48 57 62 59 83 60 50 61 34 62 35 63 43 64 36 65 42 66 44 67
REMARK SMILES IDX 41 68 37 69 38 70 39 71 40 72 66 73 67 74 75 75 68 76 74 77
REMARK SMILES IDX 76 78 73 79 69 80 70 81 71 82 72 83 51 84 52 85 60 86 53 87
REMARK SMILES IDX 59 88 61 89 58 90 54 91 55 92 56 93 57 94
REMARK H PARENT 17 6 11 13 22 28 81 47 49 58
REMARK Flexibility Score: inf
ROOT
ATOM      1  C   UNL A   1      35.245  20.900  25.737  1.00  0.00     0.023 C 
ENDROOT
BRANCH   1   2
ATOM      2  C   UNL A   1      33.745  20.933  25.446  1.00  0.00     0.116 C 
BRANCH   2   3
ATOM      3  N   UNL A   1      32.992  21.397  26.598  1.00  0.00    -0.356 N 
ATOM      4  C   UNL A   1      32.902  22.651  27.134  1.00  0.00     0.222 C 
ATOM      5  O   UNL A   1      32.231  22.810  28.154  1.00  0.00    -0.275 OA
ATOM      6  H   UNL A   1      32.468  20.705  27.063  1.00  0.00     0.163 HD
BRANCH   4   7
ATOM      7  C   UNL A   1      33.603  23.825  26.470  1.00  0.00     0.124 C 
BRANCH   7   8
ATOM      8  C   UNL A   1      32.662  24.647  25.577  1.00  0.00     0.088 C 
ATOM      9  C   UNL A   1      32.821  24.250  24.108  1.00  0.00     0.031 C 
BRANCH   8  10
ATOM     10  N   UNL A   1      31.262  24.576  26.001  1.00  0.00    -0.349 N 
ATOM     11  C   UNL A   1      30.326  25.579  26.063  1.00  0.00     0.257 C 
ATOM     12  O   UNL A   1      29.199  25.342  26.489  1.00  0.00    -0.269 OA
ATOM     13  H   UNL A   1      30.949  23.686  26.280  1.00  0.00     0.164 HD
BRANCH  11  14
ATOM     14  C   UNL A   1      30.711  26.947  25.635  1.00  0.00     0.111 A 
ATOM     15  C   UNL A   1      30.286  29.450  22.858  1.00  0.00     0.069 C 
ATOM     16  C   UNL A   1      30.839  28.773  24.094  1.00  0.00     0.062 A 
ATOM     17  N   UNL A   1      31.497  29.540  24.902  1.00  0.00    -0.175 NA
ATOM     18  C   UNL A   1      30.524  27.342  24.361  1.00  0.00    -0.010 A 
ATOM     19  N   UNL A   1      31.872  29.031  26.114  1.00  0.00    -0.232 N 
ATOM     20  C   UNL A   1      30.064  26.471  23.232  1.00  0.00     0.047 C 
ATOM     21  C   UNL A   1      32.682  29.912  26.935  1.00  0.00     0.178 C 
ATOM     22  C   UNL A   1      31.407  27.823  26.615  1.00  0.00     0.279 A 
ATOM     23  O   UNL A   1      31.554  27.469  27.783  1.00  0.00    -0.267 OA
ENDBRANCH  11  14
ENDBRANCH   8  10
ENDBRANCH   7   8
ENDBRANCH   4   7
ENDBRANCH   2   3
ENDBRANCH   1   2
BRANCH   1  24
ATOM     24  C   UNL A   1      36.112  21.457  24.615  1.00  0.00     0.023 C 
BRANCH  24  25
ATOM     25  C   UNL A   1      37.438  22.012  25.102  1.00  0.00     0.116 C 
BRANCH  25  26
ATOM     26  N   UNL A   1      38.396  20.976  25.465  1.00  0.00    -0.352 N 
ATOM     27  C   UNL A   1      39.533  21.092  26.236  1.00  0.00     0.251 C 
ATOM     28  H   UNL A   1      38.208  20.075  25.113  1.00  0.00     0.163 HD
ATOM     29  O   UNL A   1      40.274  20.132  26.392  1.00  0.00    -0.269 OA
BRANCH  27  30
ATOM     30  C   UNL A   1      39.864  22.412  26.809  1.00  0.00     0.039 A 
ATOM     31  C   UNL A   1      40.853  22.488  27.791  1.00  0.00     0.014 A 
ATOM     32  C   UNL A   1      39.279  23.572  26.296  1.00  0.00     0.014 A 
ATOM     33  C   UNL A   1      41.327  23.739  28.186  1.00  0.00     0.010 A 
ATOM     34  C   UNL A   1      39.818  24.811  26.621  1.00  0.00     0.010 A 
ATOM     35  C   UNL A   1      40.852  24.905  27.563  1.00  0.00    -0.014 A 
BRANCH  35  36
ATOM     36  C   UNL A   1      41.425  26.236  27.883  1.00  0.00     0.031 A 
ATOM     37  C   UNL A   1      42.820  26.573  27.439  1.00  0.00     0.074 A 
ATOM     38  C   UNL A   1      40.713  27.109  28.622  1.00  0.00     0.049 A 
ATOM     39  N   UNL A   1      43.527  27.645  27.684  1.00  0.00    -0.248 NA
ATOM     40  C   UNL A   1      43.527  25.554  26.647  1.00  0.00     0.031 C 
ATOM     41  C   UNL A   1      39.368  26.871  29.155  1.00  0.00     0.029 A 
ATOM     42  N   UNL A   1      41.015  28.376  29.049  1.00  0.00    -0.354 N 
ATOM     43  C   UNL A   1      44.764  27.424  27.091  1.00  0.00     0.074 A 
ATOM     44  C   UNL A   1      44.733  26.090  26.533  1.00  0.00     0.031 C 
ATOM     45  C   UNL A   1      38.943  27.975  29.791  1.00  0.00     0.029 A 
ATOM     46  C   UNL A   1      39.996  28.984  29.747  1.00  0.00     0.049 A 
ATOM     47  H   UNL A   1      41.881  28.812  28.873  1.00  0.00     0.167 HD
ATOM     48  C   UNL A   1      45.818  28.268  26.991  1.00  0.00     0.034 A 
ATOM     49  C   UNL A   1      39.920  30.217  30.282  1.00  0.00     0.034 A 
ATOM     50  C   UNL A   1      45.820  29.609  27.511  1.00  0.00     0.049 A 
ATOM     51  C   UNL A   1      41.096  31.145  30.148  1.00  0.00     0.074 A 
ATOM     52  C   UNL A   1      46.814  30.567  27.422  1.00  0.00     0.029 A 
ATOM     53  N   UNL A   1      44.768  30.187  28.209  1.00  0.00    -0.354 N 
ATOM     54  N   UNL A   1      42.256  30.922  29.575  1.00  0.00    -0.248 NA
ATOM     55  C   UNL A   1      40.958  32.487  30.729  1.00  0.00     0.031 C 
ATOM     56  C   UNL A   1      46.378  31.711  28.097  1.00  0.00     0.029 A 
ATOM     57  C   UNL A   1      45.094  31.483  28.565  1.00  0.00     0.049 A 
ATOM     58  H   UNL A   1      43.917  29.741  28.420  1.00  0.00     0.167 HD
ATOM     59  C   UNL A   1      42.977  32.103  29.708  1.00  0.00     0.074 A 
ATOM     60  C   UNL A   1      42.124  33.036  30.416  1.00  0.00     0.031 C 
ATOM     61  C   UNL A   1      44.229  32.391  29.277  1.00  0.00     0.034 A 
BRANCH  48  62
ATOM     62  C   UNL A   1      47.046  27.758  26.287  1.00  0.00     0.023 A 
ATOM     63  C   UNL A   1      47.253  27.996  24.918  1.00  0.00     0.031 A 
ATOM     64  C   UNL A   1      48.009  27.008  26.984  1.00  0.00     0.131 A 
ATOM     65  C   UNL A   1      48.361  27.432  24.272  1.00  0.00     0.055 A 
ATOM     66  C   UNL A   1      49.150  26.512  26.350  1.00  0.00     0.041 A 
ATOM     67  F   UNL A   1      47.850  26.736  28.288  1.00  0.00    -0.206 F 
ATOM     68  C   UNL A   1      49.325  26.712  24.983  1.00  0.00     0.022 A 
BRANCH  65  69
ATOM     69  S   UNL A   1      48.471  27.564  22.468  1.00  0.00     0.124 S 
ATOM     70  O   UNL A   1      49.726  28.292  22.305  1.00  0.00    -0.237 OA
ATOM     71  O   UNL A   1      48.485  26.168  22.046  1.00  0.00    -0.237 OA
ATOM     72  O   UNL A   1      47.269  28.313  22.106  1.00  0.00    -0.744 OA
ENDBRANCH  65  69
ENDBRANCH  48  62
BRANCH  49  73
ATOM     73  C   UNL A   1      38.677  30.654  30.973  1.00  0.00     0.023 A 
ATOM     74  C   UNL A   1      37.666  31.327  30.271  1.00  0.00     0.031 A 
ATOM     75  C   UNL A   1      38.479  30.397  32.341  1.00  0.00     0.131 A 
ATOM     76  C   UNL A   1      36.507  31.744  30.945  1.00  0.00     0.055 A 
ATOM     77  C   UNL A   1      37.311  30.786  32.999  1.00  0.00     0.041 A 
ATOM     78  F   UNL A   1      39.411  29.741  33.050  1.00  0.00    -0.206 F 
ATOM     79  C   UNL A   1      36.319  31.470  32.302  1.00  0.00     0.022 A 
BRANCH  76  80
ATOM     80  S   UNL A   1      35.250  32.669  30.023  1.00  0.00     0.124 S 
ATOM     81  O   UNL A   1      34.875  31.711  28.988  1.00  0.00    -0.237 OA
ATOM     82  O   UNL A   1      34.248  32.931  31.051  1.00  0.00    -0.237 OA
ATOM     83  O   UNL A   1      35.974  33.848  29.551  1.00  0.00    -0.744 OA
ENDBRANCH  76  80
ENDBRANCH  49  73
BRANCH  61  84
ATOM     84  C   UNL A   1      44.744  33.779  29.529  1.00  0.00     0.023 A 
ATOM     85  C   UNL A   1      44.543  34.811  28.599  1.00  0.00     0.031 A 
ATOM     86  C   UNL A   1      45.382  34.083  30.744  1.00  0.00     0.131 A 
ATOM     87  C   UNL A   1      44.994  36.105  28.894  1.00  0.00     0.055 A 
ATOM     88  C   UNL A   1      45.797  35.378  31.046  1.00  0.00     0.041 A 
ATOM     89  F   UNL A   1      45.587  33.126  31.663  1.00  0.00    -0.206 F 
ATOM     90  C   UNL A   1      45.604  36.398  30.118  1.00  0.00     0.022 A 
BRANCH  87  91
ATOM     91  S   UNL A   1      44.769  37.412  27.658  1.00  0.00     0.124 S 
ATOM     92  O   UNL A   1      43.511  37.019  27.030  1.00  0.00    -0.237 OA
ATOM     93  O   UNL A   1      44.722  38.621  28.475  1.00  0.00    -0.237 OA
ATOM     94  O   UNL A   1      45.952  37.287  26.809  1.00  0.00    -0.744 OA
ENDBRANCH  87  91
ENDBRANCH  61  84
ENDBRANCH  35  36
ENDBRANCH  27  30
ENDBRANCH  25  26
ENDBRANCH  24  25
ENDBRANCH   1  24
TORSDOF 17
ENDMDL
MODEL 2
REMARK VINA RESULT:     -12.0      5.071      7.829
REMARK SMILES Cc1nn(C)c(=O)c(C(=O)N[C@H](C)CC(=O)NCCCCNC(=O)c2ccc(-c3c4nc(c(-c5cc(S(=O)(=O)[O-])ccc5F)c5ccc([nH]5)c(-c5cc(S(=O)(=O)[O-])ccc5F)c5nc(c(-c6cc(S(=O)(=O)[O-])ccc6F)c6ccc3[nH]6)C=C5)C=C4)cc2)c1C
REMARK SMILES IDX 19 1 18 2 17 3 15 4 16 5 14 7 12 8 13 9 11 10 9 11 10 12
REMARK SMILES IDX 8 14 1 15 2 16 3 17 88 18 4 19 89 20 5 21 6 22 7 23 20 24
REMARK SMILES IDX 21 25 22 26 23 27 24 29 25 30 26 31 87 32 27 33 86 34 28 35
REMARK SMILES IDX 29 36 30 37 80 38 31 39 85 40 79 41 81 42 32 43 84 44 78 45
REMARK SMILES IDX 77 46 33 48 65 49 45 50 64 51 46 52 49 53 63 54 82 55 47 56
REMARK SMILES IDX 48 57 62 59 83 60 50 61 34 62 35 63 43 64 36 65 42 66 44 67
REMARK SMILES IDX 41 68 37 69 38 70 39 71 40 72 66 73 67 74 75 75 68 76 74 77
REMARK SMILES IDX 76 78 73 79 69 80 70 81 71 82 72 83 51 84 52 85 60 86 53 87
REMARK SMILES IDX 59 88 61 89 58 90 54 91 55 92 56 93 57 94
REMARK H PARENT 17 6 11 13 22 28 81 47 49 58
REMARK Flexibility Score: inf
ROOT
ATOM      1  C   UNL A   1      30.705  29.391  24.149  1.00  0.00     0.023 C 
ENDROOT
BRANCH   1   2
ATOM      2  C   UNL A   1      30.815  28.717  22.781  1.00  0.00     0.116 C 
BRANCH   2   3
ATOM      3  N   UNL A   1      32.188  28.351  22.479  1.00  0.00    -0.356 N 
ATOM      4  C   UNL A   1      32.701  27.152  22.071  1.00  0.00     0.222 C 
ATOM      5  O   UNL A   1      33.918  27.054  21.915  1.00  0.00    -0.275 OA
ATOM      6  H   UNL A   1      32.847  29.074  22.584  1.00  0.00     0.163 HD
BRANCH   4   7
ATOM      7  C   UNL A   1      31.781  25.971  21.801  1.00  0.00     0.124 C 
BRANCH   7   8
ATOM      8  C   UNL A   1      31.790  24.943  22.942  1.00  0.00     0.088 C 
ATOM      9  C   UNL A   1      30.741  25.293  23.999  1.00  0.00     0.031 C 
BRANCH   8  10
ATOM     10  N   UNL A   1      31.635  23.564  22.473  1.00  0.00    -0.349 N 
ATOM     11  C   UNL A   1      32.272  22.427  22.905  1.00  0.00     0.257 C 
ATOM     12  O   UNL A   1      32.046  21.351  22.360  1.00  0.00    -0.269 OA
ATOM     13  H   UNL A   1      30.984  23.435  21.747  1.00  0.00     0.164 HD
BRANCH  11  14
ATOM     14  C   UNL A   1      33.252  22.532  24.016  1.00  0.00     0.111 A 
ATOM     15  C   UNL A   1      33.753  21.730  27.658  1.00  0.00     0.069 C 
ATOM     16  C   UNL A   1      33.965  22.349  26.292  1.00  0.00     0.062 A 
ATOM     17  N   UNL A   1      35.162  22.783  26.058  1.00  0.00    -0.175 NA
ATOM     18  C   UNL A   1      32.864  22.333  25.290  1.00  0.00    -0.010 A 
ATOM     19  N   UNL A   1      35.463  23.193  24.789  1.00  0.00    -0.232 N 
ATOM     20  C   UNL A   1      31.454  22.131  25.756  1.00  0.00     0.047 C 
ATOM     21  C   UNL A   1      36.792  23.751  24.614  1.00  0.00     0.178 C 
ATOM     22  C   UNL A   1      34.637  22.972  23.696  1.00  0.00     0.279 A 
ATOM     23  O   UNL A   1      34.994  23.129  22.530  1.00  0.00    -0.267 OA
ENDBRANCH  11  14
ENDBRANCH   8  10
ENDBRANCH   7   8
ENDBRANCH   4   7
ENDBRANCH   2   3
ENDBRANCH   1   2
BRANCH   1  24
ATOM     24  C   UNL A   1      31.596  28.776  25.221  1.00  0.00     0.023 C 
BRANCH  24  25
ATOM     25  C   UNL A   1      32.747  29.678  25.632  1.00  0.00     0.116 C 
BRANCH  25  26
ATOM     26  N   UNL A   1      32.308  30.941  26.211  1.00  0.00    -0.352 N 
ATOM     27  C   UNL A   1      32.962  31.735  27.128  1.00  0.00     0.251 C 
ATOM     28  H   UNL A   1      31.431  31.270  25.909  1.00  0.00     0.163 HD
ATOM     29  O   UNL A   1      32.424  32.740  27.570  1.00  0.00    -0.269 OA
BRANCH  27  30
ATOM     30  C   UNL A   1      34.292  31.307  27.610  1.00  0.00     0.039 A 
ATOM     31  C   UNL A   1      35.265  32.280  27.845  1.00  0.00     0.014 A 
ATOM     32  C   UNL A   1      34.530  29.969  27.931  1.00  0.00     0.014 A 
ATOM     33  C   UNL A   1      36.444  31.921  28.498  1.00  0.00     0.010 A 
ATOM     34  C   UNL A   1      35.660  29.633  28.665  1.00  0.00     0.010 A 
ATOM     35  C   UNL A   1      36.624  30.608  28.962  1.00  0.00    -0.014 A 
BRANCH  35  36
ATOM     36  C   UNL A   1      37.817  30.232  29.762  1.00  0.00     0.031 A 
ATOM     37  C   UNL A   1      38.863  29.336  29.162  1.00  0.00     0.074 A 
ATOM     38  C   UNL A   1      37.922  30.646  31.039  1.00  0.00     0.049 A 
ATOM     39  N   UNL A   1      39.933  28.830  29.718  1.00  0.00    -0.248 NA
ATOM     40  C   UNL A   1      38.659  28.922  27.765  1.00  0.00     0.031 C 
ATOM     41  C   UNL A   1      36.941  31.476  31.746  1.00  0.00     0.029 A 
ATOM     42  N   UNL A   1      38.905  30.434  31.972  1.00  0.00    -0.354 N 
ATOM     43  C   UNL A   1      40.520  28.030  28.746  1.00  0.00     0.074 A 
ATOM     44  C   UNL A   1      39.652  28.063  27.589  1.00  0.00     0.031 C 
ATOM     45  C   UNL A   1      37.398  31.744  32.980  1.00  0.00     0.029 A 
ATOM     46  C   UNL A   1      38.681  31.076  33.169  1.00  0.00     0.049 A 
ATOM     47  H   UNL A   1      39.697  29.874  31.801  1.00  0.00     0.167 HD
ATOM     48  C   UNL A   1      41.693  27.355  28.799  1.00  0.00     0.034 A 
ATOM     49  C   UNL A   1      39.431  31.124  34.286  1.00  0.00     0.034 A 
ATOM     50  C   UNL A   1      42.569  27.366  29.940  1.00  0.00     0.049 A 
ATOM     51  C   UNL A   1      40.737  30.379  34.320  1.00  0.00     0.074 A 
ATOM     52  C   UNL A   1      43.804  26.760  30.084  1.00  0.00     0.029 A 
ATOM     53  N   UNL A   1      42.308  28.029  31.131  1.00  0.00    -0.354 N 
ATOM     54  N   UNL A   1      41.282  29.634  33.388  1.00  0.00    -0.248 NA
ATOM     55  C   UNL A   1      41.530  30.479  35.553  1.00  0.00     0.031 C 
ATOM     56  C   UNL A   1      44.272  27.025  31.375  1.00  0.00     0.029 A 
ATOM     57  C   UNL A   1      43.352  27.837  32.018  1.00  0.00     0.049 A 
ATOM     58  H   UNL A   1      41.499  28.558  31.317  1.00  0.00     0.167 HD
ATOM     59  C   UNL A   1      42.491  29.193  33.913  1.00  0.00     0.074 A 
ATOM     60  C   UNL A   1      42.597  29.754  35.244  1.00  0.00     0.031 C 
ATOM     61  C   UNL A   1      43.431  28.402  33.342  1.00  0.00     0.034 A 
BRANCH  48  62
ATOM     62  C   UNL A   1      42.086  26.558  27.586  1.00  0.00     0.023 A 
ATOM     63  C   UNL A   1      41.761  25.196  27.471  1.00  0.00     0.031 A 
ATOM     64  C   UNL A   1      42.812  27.157  26.542  1.00  0.00     0.131 A 
ATOM     65  C   UNL A   1      42.218  24.459  26.371  1.00  0.00     0.055 A 
ATOM     66  C   UNL A   1      43.201  26.434  25.412  1.00  0.00     0.041 A 
ATOM     67  F   UNL A   1      43.165  28.450  26.609  1.00  0.00    -0.206 F 
ATOM     68  C   UNL A   1      42.915  25.074  25.327  1.00  0.00     0.022 A 
BRANCH  65  69
ATOM     69  S   UNL A   1      41.981  22.663  26.373  1.00  0.00     0.124 S 
ATOM     70  O   UNL A   1      42.805  22.259  25.236  1.00  0.00    -0.237 OA
ATOM     71  O   UNL A   1      42.476  22.277  27.689  1.00  0.00    -0.237 OA
ATOM     72  O   UNL A   1      40.540  22.508  26.178  1.00  0.00    -0.744 OA
ENDBRANCH  65  69
ENDBRANCH  48  62
BRANCH  49  73
ATOM     73  C   UNL A   1      38.976  31.925  35.454  1.00  0.00     0.023 A 
ATOM     74  C   UNL A   1      38.306  31.313  36.524  1.00  0.00     0.031 A 
ATOM     75  C   UNL A   1      39.211  33.308  35.522  1.00  0.00     0.131 A 
ATOM     76  C   UNL A   1      37.871  32.087  37.610  1.00  0.00     0.055 A 
ATOM     77  C   UNL A   1      38.804  34.070  36.619  1.00  0.00     0.041 A 
ATOM     78  F   UNL A   1      39.863  33.935  34.530  1.00  0.00    -0.206 F 
ATOM     79  C   UNL A   1      38.124  33.460  37.669  1.00  0.00     0.022 A 
BRANCH  76  80
ATOM     80  S   UNL A   1      36.950  31.276  38.945  1.00  0.00     0.124 S 
ATOM     81  O   UNL A   1      35.729  32.074  38.990  1.00  0.00    -0.237 OA
ATOM     82  O   UNL A   1      36.812  29.915  38.438  1.00  0.00    -0.237 OA
ATOM     83  O   UNL A   1      37.832  31.419  40.102  1.00  0.00    -0.744 OA
ENDBRANCH  76  80
ENDBRANCH  49  73
BRANCH  61  84
ATOM     84  C   UNL A   1      44.673  28.120  34.138  1.00  0.00     0.023 A 
ATOM     85  C   UNL A   1      44.747  27.019  35.007  1.00  0.00     0.031 A 
ATOM     86  C   UNL A   1      45.814  28.923  33.971  1.00  0.00     0.131 A 
ATOM     87  C   UNL A   1      45.942  26.760  35.693  1.00  0.00     0.055 A 
ATOM     88  C   UNL A   1      47.009  28.639  34.629  1.00  0.00     0.041 A 
ATOM     89  F   UNL A   1      45.786  29.981  33.144  1.00  0.00    -0.206 F 
ATOM     90  C   UNL A   1      47.077  27.552  35.496  1.00  0.00     0.022 A 
BRANCH  87  91
ATOM     91  S   UNL A   1      46.000  25.363  36.847  1.00  0.00     0.124 S 
ATOM     92  O   UNL A   1      45.739  26.017  38.125  1.00  0.00    -0.237 OA
ATOM     93  O   UNL A   1      44.939  24.492  36.349  1.00  0.00    -0.237 OA
ATOM     94  O   UNL A   1      47.355  24.839  36.682  1.00  0.00    -0.744 OA
ENDBRANCH  87  91
ENDBRANCH  61  84
ENDBRANCH  35  36
ENDBRANCH  27  30
ENDBRANCH  25  26
ENDBRANCH  24  25
ENDBRANCH   1  24
TORSDOF 17
ENDMDL
MODEL 3
REMARK VINA RESULT:     -11.9      4.897     10.255
REMARK SMILES Cc1nn(C)c(=O)c(C(=O)N[C@H](C)CC(=O)NCCCCNC(=O)c2ccc(-c3c4nc(c(-c5cc(S(=O)(=O)[O-])ccc5F)c5ccc([nH]5)c(-c5cc(S(=O)(=O)[O-])ccc5F)c5nc(c(-c6cc(S(=O)(=O)[O-])ccc6F)c6ccc3[nH]6)C=C5)C=C4)cc2)c1C
REMARK SMILES IDX 19 1 18 2 17 3 15 4 16 5 14 7 12 8 13 9 11 10 9 11 10 12
REMARK SMILES IDX 8 14 1 15 2 16 3 17 88 18 4 19 89 20 5 21 6 22 7 23 20 24
REMARK SMILES IDX 21 25 22 26 23 27 24 29 25 30 26 31 87 32 27 33 86 34 28 35
REMARK SMILES IDX 29 36 30 37 80 38 31 39 85 40 79 41 81 42 32 43 84 44 78 45
REMARK SMILES IDX 77 46 33 48 65 49 45 50 64 51 46 52 49 53 63 54 82 55 47 56
REMARK SMILES IDX 48 57 62 59 83 60 50 61 34 62 35 63 43 64 36 65 42 66 44 67
REMARK SMILES IDX 41 68 37 69 38 70 39 71 40 72 66 73 67 74 75 75 68 76 74 77
REMARK SMILES IDX 76 78 73 79 69 80 70 81 71 82 72 83 51 84 52 85 60 86 53 87
REMARK SMILES IDX 59 88 61 89 58 90 54 91 55 92 56 93 57 94
REMARK H PARENT 17 6 11 13 22 28 81 47 49 58
REMARK Flexibility Score: inf
ROOT
ATOM      1  C   UNL A   1      31.080  29.434  24.253  1.00  0.00     0.023 C 
ENDROOT
BRANCH   1   2
ATOM      2  C   UNL A   1      31.007  28.135  23.450  1.00  0.00     0.116 C 
BRANCH   2   3
ATOM      3  N   UNL A   1      32.071  28.061  22.464  1.00  0.00    -0.356 N 
ATOM      4  C   UNL A   1      33.352  27.602  22.596  1.00  0.00     0.222 C 
ATOM      5  O   UNL A   1      34.107  27.675  21.627  1.00  0.00    -0.275 OA
ATOM      6  H   UNL A   1      31.836  28.390  21.567  1.00  0.00     0.163 HD
BRANCH   4   7
ATOM      7  C   UNL A   1      33.823  26.999  23.910  1.00  0.00     0.124 C 
BRANCH   7   8
ATOM      8  C   UNL A   1      33.570  25.486  23.989  1.00  0.00     0.088 C 
ATOM      9  C   UNL A   1      32.405  25.177  24.931  1.00  0.00     0.031 C 
BRANCH   8  10
ATOM     10  N   UNL A   1      33.373  24.868  22.675  1.00  0.00    -0.349 N 
ATOM     11  C   UNL A   1      33.671  23.592  22.267  1.00  0.00     0.257 C 
ATOM     12  O   UNL A   1      33.474  23.257  21.103  1.00  0.00    -0.269 OA
ATOM     13  H   UNL A   1      32.970  25.448  21.991  1.00  0.00     0.164 HD
BRANCH  11  14
ATOM     14  C   UNL A   1      34.258  22.644  23.247  1.00  0.00     0.111 A 
ATOM     15  C   UNL A   1      33.490  19.570  25.278  1.00  0.00     0.069 C 
ATOM     16  C   UNL A   1      34.194  20.821  24.796  1.00  0.00     0.062 A 
ATOM     17  N   UNL A   1      35.448  20.908  25.105  1.00  0.00    -0.175 NA
ATOM     18  C   UNL A   1      33.469  21.799  23.937  1.00  0.00    -0.010 A 
ATOM     19  N   UNL A   1      36.180  21.923  24.556  1.00  0.00    -0.232 N 
ATOM     20  C   UNL A   1      31.971  21.790  23.924  1.00  0.00     0.047 C 
ATOM     21  C   UNL A   1      37.555  22.016  25.012  1.00  0.00     0.178 C 
ATOM     22  C   UNL A   1      35.717  22.731  23.527  1.00  0.00     0.279 A 
ATOM     23  O   UNL A   1      36.438  23.486  22.878  1.00  0.00    -0.267 OA
ENDBRANCH  11  14
ENDBRANCH   8  10
ENDBRANCH   7   8
ENDBRANCH   4   7
ENDBRANCH   2   3
ENDBRANCH   1   2
BRANCH   1  24
ATOM     24  C   UNL A   1      31.499  29.248  25.706  1.00  0.00     0.023 C 
BRANCH  24  25
ATOM     25  C   UNL A   1      32.771  29.996  26.063  1.00  0.00     0.116 C 
BRANCH  25  26
ATOM     26  N   UNL A   1      32.523  31.339  26.570  1.00  0.00    -0.352 N 
ATOM     27  C   UNL A   1      33.332  32.115  27.372  1.00  0.00     0.251 C 
ATOM     28  H   UNL A   1      31.666  31.746  26.306  1.00  0.00     0.163 HD
ATOM     29  O   UNL A   1      32.946  33.205  27.769  1.00  0.00    -0.269 OA
BRANCH  27  30
ATOM     30  C   UNL A   1      34.641  31.570  27.790  1.00  0.00     0.039 A 
ATOM     31  C   UNL A   1      35.717  32.447  27.937  1.00  0.00     0.014 A 
ATOM     32  C   UNL A   1      34.767  30.223  28.139  1.00  0.00     0.014 A 
ATOM     33  C   UNL A   1      36.892  31.991  28.532  1.00  0.00     0.010 A 
ATOM     34  C   UNL A   1      35.901  29.797  28.817  1.00  0.00     0.010 A 
ATOM     35  C   UNL A   1      36.971  30.678  29.027  1.00  0.00    -0.014 A 
BRANCH  35  36
ATOM     36  C   UNL A   1      38.167  30.207  29.768  1.00  0.00     0.031 A 
ATOM     37  C   UNL A   1      38.411  30.686  31.171  1.00  0.00     0.074 A 
ATOM     38  C   UNL A   1      39.057  29.400  29.156  1.00  0.00     0.049 A 
ATOM     39  N   UNL A   1      39.431  30.455  31.956  1.00  0.00    -0.248 NA
ATOM     40  C   UNL A   1      37.393  31.573  31.754  1.00  0.00     0.031 C 
ATOM     41  C   UNL A   1      38.952  28.913  27.777  1.00  0.00     0.029 A 
ATOM     42  N   UNL A   1      40.222  28.841  29.614  1.00  0.00    -0.354 N 
ATOM     43  C   UNL A   1      39.185  31.178  33.116  1.00  0.00     0.074 A 
ATOM     44  C   UNL A   1      37.954  31.908  32.906  1.00  0.00     0.031 C 
ATOM     45  C   UNL A   1      39.981  28.088  27.522  1.00  0.00     0.029 A 
ATOM     46  C   UNL A   1      40.838  28.017  28.701  1.00  0.00     0.049 A 
ATOM     47  H   UNL A   1      40.584  29.014  30.514  1.00  0.00     0.167 HD
ATOM     48  C   UNL A   1      39.901  31.205  34.265  1.00  0.00     0.034 A 
ATOM     49  C   UNL A   1      41.962  27.283  28.806  1.00  0.00     0.034 A 
ATOM     50  C   UNL A   1      41.100  30.439  34.477  1.00  0.00     0.049 A 
ATOM     51  C   UNL A   1      42.736  27.316  30.096  1.00  0.00     0.074 A 
ATOM     52  C   UNL A   1      41.877  30.353  35.618  1.00  0.00     0.029 A 
ATOM     53  N   UNL A   1      41.690  29.616  33.528  1.00  0.00    -0.354 N 
ATOM     54  N   UNL A   1      42.483  28.000  31.187  1.00  0.00    -0.248 NA
ATOM     55  C   UNL A   1      43.944  26.483  30.171  1.00  0.00     0.031 C 
ATOM     56  C   UNL A   1      42.957  29.506  35.348  1.00  0.00     0.029 A 
ATOM     57  C   UNL A   1      42.826  29.027  34.054  1.00  0.00     0.049 A 
ATOM     58  H   UNL A   1      41.350  29.472  32.615  1.00  0.00     0.167 HD
ATOM     59  C   UNL A   1      43.489  27.663  32.087  1.00  0.00     0.074 A 
ATOM     60  C   UNL A   1      44.353  26.716  31.411  1.00  0.00     0.031 C 
ATOM     61  C   UNL A   1      43.674  28.092  33.358  1.00  0.00     0.034 A 
BRANCH  48  62
ATOM     62  C   UNL A   1      39.396  32.089  35.372  1.00  0.00     0.023 A 
ATOM     63  C   UNL A   1      39.843  33.415  35.508  1.00  0.00     0.031 A 
ATOM     64  C   UNL A   1      38.475  31.600  36.314  1.00  0.00     0.131 A 
ATOM     65  C   UNL A   1      39.422  34.184  36.601  1.00  0.00     0.055 A 
ATOM     66  C   UNL A   1      38.003  32.397  37.359  1.00  0.00     0.041 A 
ATOM     67  F   UNL A   1      38.031  30.336  36.241  1.00  0.00    -0.206 F 
ATOM     68  C   UNL A   1      38.486  33.693  37.514  1.00  0.00     0.022 A 
BRANCH  65  69
ATOM     69  S   UNL A   1      40.197  35.800  36.871  1.00  0.00     0.124 S 
ATOM     70  O   UNL A   1      39.719  36.132  38.210  1.00  0.00    -0.237 OA
ATOM     71  O   UNL A   1      41.618  35.495  36.758  1.00  0.00    -0.237 OA
ATOM     72  O   UNL A   1      39.649  36.626  35.796  1.00  0.00    -0.744 OA
ENDBRANCH  65  69
ENDBRANCH  48  62
BRANCH  49  73
ATOM     73  C   UNL A   1      42.410  26.438  27.667  1.00  0.00     0.023 A 
ATOM     74  C   UNL A   1      42.157  25.059  27.656  1.00  0.00     0.031 A 
ATOM     75  C   UNL A   1      43.089  26.998  26.571  1.00  0.00     0.131 A 
ATOM     76  C   UNL A   1      42.600  24.275  26.580  1.00  0.00     0.055 A 
ATOM     77  C   UNL A   1      43.501  26.220  25.488  1.00  0.00     0.041 A 
ATOM     78  F   UNL A   1      43.340  28.316  26.530  1.00  0.00    -0.206 F 
ATOM     79  C   UNL A   1      43.263  24.849  25.491  1.00  0.00     0.022 A 
BRANCH  76  80
ATOM     80  S   UNL A   1      42.315  22.486  26.628  1.00  0.00     0.124 S 
ATOM     81  O   UNL A   1      43.374  21.993  25.754  1.00  0.00    -0.237 OA
ATOM     82  O   UNL A   1      42.464  22.191  28.049  1.00  0.00    -0.237 OA
ATOM     83  O   UNL A   1      40.957  22.344  26.106  1.00  0.00    -0.744 OA
ENDBRANCH  76  80
ENDBRANCH  49  73
BRANCH  61  84
ATOM     84  C   UNL A   1      44.838  27.521  34.117  1.00  0.00     0.023 A 
ATOM     85  C   UNL A   1      44.732  26.301  34.804  1.00  0.00     0.031 A 
ATOM     86  C   UNL A   1      46.082  28.174  34.093  1.00  0.00     0.131 A 
ATOM     87  C   UNL A   1      45.856  25.776  35.457  1.00  0.00     0.055 A 
ATOM     88  C   UNL A   1      47.204  27.630  34.714  1.00  0.00     0.041 A 
ATOM     89  F   UNL A   1      46.227  29.339  33.441  1.00  0.00    -0.206 F 
ATOM     90  C   UNL A   1      47.094  26.424  35.402  1.00  0.00     0.022 A 
BRANCH  87  91
ATOM     91  S   UNL A   1      45.684  24.225  36.379  1.00  0.00     0.124 S 
ATOM     92  O   UNL A   1      46.548  23.326  35.621  1.00  0.00    -0.237 OA
ATOM     93  O   UNL A   1      46.158  24.590  37.711  1.00  0.00    -0.237 OA
ATOM     94  O   UNL A   1      44.255  23.933  36.293  1.00  0.00    -0.744 OA
ENDBRANCH  87  91
ENDBRANCH  61  84
ENDBRANCH  35  36
ENDBRANCH  27  30
ENDBRANCH  25  26
ENDBRANCH  24  25
ENDBRANCH   1  24
TORSDOF 17
ENDMDL
