MODEL 1
REMARK VINA RESULT:     -10.4      0.000      0.000
REMARK SMILES CCOC(=O)c1cnc(S[C@H](CC)C(=O)NCCCCNC(=O)c2ccc(-c3c4nc(c(-c5cc(S(=O)(=O)[O-])ccc5F)c5ccc([nH]5)c(-c5cc(S(=O)(=O)[O-])ccc5F)c5nc(c(-c6cc(S(=O)(=O)[O-])ccc6F)c6ccc3[nH]6)C=C5)C=C4)cc2)nc1N
REMARK SMILES IDX 17 1 16 2 14 3 15 4 11 6 10 7 9 8 6 9 7 10 88 11 8 12 87 13
REMARK SMILES IDX 4 14 5 15 3 16 2 17 1 18 89 19 12 22 13 23 18 24 19 25 20 26
REMARK SMILES IDX 21 27 22 28 23 30 24 31 25 32 86 33 26 34 85 35 27 36 28 37
REMARK SMILES IDX 29 38 79 39 30 40 84 41 78 42 80 43 31 44 83 45 77 46 76 47
REMARK SMILES IDX 32 49 64 50 44 51 63 52 45 53 48 54 62 55 81 56 46 57 47 58
REMARK SMILES IDX 61 60 82 61 49 62 33 63 34 64 42 65 35 66 41 67 43 68 40 69
REMARK SMILES IDX 36 70 37 71 38 72 39 73 65 74 66 75 74 76 67 77 73 78 75 79
REMARK SMILES IDX 72 80 68 81 69 82 70 83 71 84 50 85 51 86 59 87 52 88 58 89
REMARK SMILES IDX 60 90 57 91 53 92 54 93 55 94 56 95
REMARK H PARENT 16 5 89 20 89 21 21 29 80 48 48 59
REMARK Flexibility Score: inf
ROOT
ATOM      1  C   UNL A   1      32.608  26.540  26.399  1.00  0.00     0.116 C 
ENDROOT
BRANCH   1   2
ATOM      2  N   UNL A   1      31.968  25.330  26.887  1.00  0.00    -0.355 N 
ATOM      3  C   UNL A   1      32.144  24.027  26.522  1.00  0.00     0.233 C 
ATOM      4  O   UNL A   1      31.513  23.172  27.154  1.00  0.00    -0.274 OA
ATOM      5  H   UNL A   1      31.298  25.475  27.595  1.00  0.00     0.163 HD
BRANCH   3   6
ATOM      6  C   UNL A   1      33.065  23.617  25.368  1.00  0.00     0.143 C 
BRANCH   6   7
ATOM      7  S   UNL A   1      32.038  23.133  23.917  1.00  0.00    -0.073 SA
BRANCH   7   8
ATOM      8  C   UNL A   1      31.387  24.687  23.372  1.00  0.00     0.190 A 
ATOM      9  C   UNL A   1      30.664  27.231  22.826  1.00  0.00     0.120 A 
ATOM     10  C   UNL A   1      29.869  26.379  23.558  1.00  0.00     0.133 A 
ATOM     11  C   UNL A   1      31.850  26.704  22.354  1.00  0.00     0.142 A 
ATOM     12  N   UNL A   1      30.207  25.107  23.845  1.00  0.00    -0.230 NA
ATOM     13  N   UNL A   1      32.220  25.441  22.631  1.00  0.00    -0.205 NA
BRANCH   9  14
ATOM     14  C   UNL A   1      30.261  28.631  22.712  1.00  0.00     0.343 C 
ATOM     15  O   UNL A   1      31.060  29.521  22.446  1.00  0.00    -0.246 OA
BRANCH  14  16
ATOM     16  O   UNL A   1      28.946  28.787  22.995  1.00  0.00    -0.462 OA
BRANCH  16  17
ATOM     17  C   UNL A   1      28.438  30.121  22.818  1.00  0.00     0.230 C 
ATOM     18  C   UNL A   1      28.003  30.372  21.385  1.00  0.00     0.049 C 
ENDBRANCH  16  17
ENDBRANCH  14  16
ENDBRANCH   9  14
BRANCH  11  19
ATOM     19  N   UNL A   1      32.800  27.445  21.672  1.00  0.00    -0.383 N 
ATOM     20  H   UNL A   1      32.586  27.826  20.790  1.00  0.00     0.158 HD
ATOM     21  H   UNL A   1      33.688  27.592  22.069  1.00  0.00     0.158 HD
ENDBRANCH  11  19
ENDBRANCH   7   8
ENDBRANCH   6   7
BRANCH   6  22
ATOM     22  C   UNL A   1      34.060  22.507  25.755  1.00  0.00     0.021 C 
ATOM     23  C   UNL A   1      35.323  23.078  26.392  1.00  0.00     0.005 C 
ENDBRANCH   6  22
ENDBRANCH   3   6
ENDBRANCH   1   2
BRANCH   1  24
ATOM     24  C   UNL A   1      31.655  27.732  26.361  1.00  0.00     0.023 C 
BRANCH  24  25
ATOM     25  C   UNL A   1      32.110  28.958  27.151  1.00  0.00     0.023 C 
BRANCH  25  26
ATOM     26  C   UNL A   1      33.118  29.860  26.447  1.00  0.00     0.116 C 
BRANCH  26  27
ATOM     27  N   UNL A   1      33.037  31.249  26.869  1.00  0.00    -0.352 N 
ATOM     28  C   UNL A   1      33.886  31.971  27.672  1.00  0.00     0.251 C 
ATOM     29  H   UNL A   1      32.258  31.745  26.529  1.00  0.00     0.163 HD
ATOM     30  O   UNL A   1      33.572  33.111  28.006  1.00  0.00    -0.269 OA
BRANCH  28  31
ATOM     31  C   UNL A   1      35.147  31.370  28.162  1.00  0.00     0.039 A 
ATOM     32  C   UNL A   1      36.312  32.142  28.127  1.00  0.00     0.014 A 
ATOM     33  C   UNL A   1      35.192  30.061  28.651  1.00  0.00     0.014 A 
ATOM     34  C   UNL A   1      37.502  31.626  28.644  1.00  0.00     0.010 A 
ATOM     35  C   UNL A   1      36.362  29.575  29.232  1.00  0.00     0.010 A 
ATOM     36  C   UNL A   1      37.530  30.351  29.234  1.00  0.00    -0.014 A 
BRANCH  36  37
ATOM     37  C   UNL A   1      38.774  29.829  29.856  1.00  0.00     0.031 A 
ATOM     38  C   UNL A   1      39.224  30.334  31.201  1.00  0.00     0.074 A 
ATOM     39  C   UNL A   1      39.524  28.931  29.186  1.00  0.00     0.049 A 
ATOM     40  N   UNL A   1      40.285  30.010  31.894  1.00  0.00    -0.248 NA
ATOM     41  C   UNL A   1      38.384  31.362  31.833  1.00  0.00     0.031 C 
ATOM     42  C   UNL A   1      39.225  28.413  27.848  1.00  0.00     0.029 A 
ATOM     43  N   UNL A   1      40.689  28.296  29.534  1.00  0.00    -0.354 N 
ATOM     44  C   UNL A   1      40.248  30.798  33.040  1.00  0.00     0.074 A 
ATOM     45  C   UNL A   1      39.092  31.662  32.911  1.00  0.00     0.031 C 
ATOM     46  C   UNL A   1      40.165  27.517  27.504  1.00  0.00     0.029 A 
ATOM     47  C   UNL A   1      41.148  27.421  28.577  1.00  0.00     0.049 A 
ATOM     48  H   UNL A   1      41.154  28.453  30.388  1.00  0.00     0.167 HD
ATOM     49  C   UNL A   1      41.082  30.787  34.110  1.00  0.00     0.034 A 
ATOM     50  C   UNL A   1      42.236  26.627  28.568  1.00  0.00     0.034 A 
ATOM     51  C   UNL A   1      42.225  29.912  34.226  1.00  0.00     0.049 A 
ATOM     52  C   UNL A   1      43.139  26.617  29.774  1.00  0.00     0.074 A 
ATOM     53  C   UNL A   1      43.107  29.779  35.285  1.00  0.00     0.029 A 
ATOM     54  N   UNL A   1      42.649  29.022  33.247  1.00  0.00    -0.354 N 
ATOM     55  N   UNL A   1      43.055  27.325  30.876  1.00  0.00    -0.248 NA
ATOM     56  C   UNL A   1      44.272  25.684  29.740  1.00  0.00     0.031 C 
ATOM     57  C   UNL A   1      44.093  28.854  34.924  1.00  0.00     0.029 A 
ATOM     58  C   UNL A   1      43.790  28.355  33.667  1.00  0.00     0.049 A 
ATOM     59  H   UNL A   1      42.202  28.884  32.380  1.00  0.00     0.167 HD
ATOM     60  C   UNL A   1      44.111  26.903  31.678  1.00  0.00     0.074 A 
ATOM     61  C   UNL A   1      44.800  25.862  30.942  1.00  0.00     0.031 C 
ATOM     62  C   UNL A   1      44.480  27.334  32.913  1.00  0.00     0.034 A 
BRANCH  49  63
ATOM     63  C   UNL A   1      40.794  31.770  35.222  1.00  0.00     0.023 A 
ATOM     64  C   UNL A   1      39.786  31.531  36.172  1.00  0.00     0.031 A 
ATOM     65  C   UNL A   1      41.510  32.975  35.314  1.00  0.00     0.131 A 
ATOM     66  C   UNL A   1      39.465  32.517  37.118  1.00  0.00     0.055 A 
ATOM     67  C   UNL A   1      41.243  33.917  36.310  1.00  0.00     0.041 A 
ATOM     68  F   UNL A   1      42.472  33.269  34.425  1.00  0.00    -0.206 F 
ATOM     69  C   UNL A   1      40.204  33.698  37.211  1.00  0.00     0.022 A 
BRANCH  66  70
ATOM     70  S   UNL A   1      37.975  32.296  38.129  1.00  0.00     0.124 S 
ATOM     71  O   UNL A   1      38.525  32.353  39.481  1.00  0.00    -0.237 OA
ATOM     72  O   UNL A   1      37.150  33.429  37.726  1.00  0.00    -0.237 OA
ATOM     73  O   UNL A   1      37.476  30.984  37.723  1.00  0.00    -0.744 OA
ENDBRANCH  66  70
ENDBRANCH  49  63
BRANCH  50  74
ATOM     74  C   UNL A   1      42.533  25.765  27.388  1.00  0.00     0.023 A 
ATOM     75  C   UNL A   1      42.077  24.440  27.328  1.00  0.00     0.031 A 
ATOM     76  C   UNL A   1      43.312  26.246  26.321  1.00  0.00     0.131 A 
ATOM     77  C   UNL A   1      42.442  23.622  26.248  1.00  0.00     0.055 A 
ATOM     78  C   UNL A   1      43.633  25.443  25.224  1.00  0.00     0.041 A 
ATOM     79  F   UNL A   1      43.764  27.510  26.325  1.00  0.00    -0.206 F 
ATOM     80  C   UNL A   1      43.208  24.119  25.190  1.00  0.00     0.022 A 
BRANCH  77  81
ATOM     81  S   UNL A   1      41.965  21.873  26.282  1.00  0.00     0.124 S 
ATOM     82  O   UNL A   1      42.240  21.516  27.669  1.00  0.00    -0.237 OA
ATOM     83  O   UNL A   1      40.558  21.937  25.902  1.00  0.00    -0.237 OA
ATOM     84  O   UNL A   1      42.848  21.260  25.291  1.00  0.00    -0.744 OA
ENDBRANCH  77  81
ENDBRANCH  50  74
BRANCH  62  85
ATOM     85  C   UNL A   1      45.666  26.646  33.543  1.00  0.00     0.023 A 
ATOM     86  C   UNL A   1      45.518  25.474  34.307  1.00  0.00     0.031 A 
ATOM     87  C   UNL A   1      46.954  27.195  33.416  1.00  0.00     0.131 A 
ATOM     88  C   UNL A   1      46.626  24.931  34.975  1.00  0.00     0.055 A 
ATOM     89  C   UNL A   1      48.064  26.612  34.031  1.00  0.00     0.041 A 
ATOM     90  F   UNL A   1      47.153  28.312  32.700  1.00  0.00    -0.206 F 
ATOM     91  C   UNL A   1      47.900  25.484  34.830  1.00  0.00     0.022 A 
BRANCH  88  92
ATOM     92  S   UNL A   1      46.356  23.562  36.135  1.00  0.00     0.124 S 
ATOM     93  O   UNL A   1      46.803  22.411  35.357  1.00  0.00    -0.237 OA
ATOM     94  O   UNL A   1      47.204  23.939  37.261  1.00  0.00    -0.237 OA
ATOM     95  O   UNL A   1      44.918  23.613  36.397  1.00  0.00    -0.744 OA
ENDBRANCH  88  92
ENDBRANCH  62  85
ENDBRANCH  36  37
ENDBRANCH  28  31
ENDBRANCH  26  27
ENDBRANCH  25  26
ENDBRANCH  24  25
ENDBRANCH   1  24
TORSDOF 21
ENDMDL
MODEL 2
REMARK VINA RESULT:     -10.3      1.942      2.318
REMARK SMILES CCOC(=O)c1cnc(S[C@H](CC)C(=O)NCCCCNC(=O)c2ccc(-c3c4nc(c(-c5cc(S(=O)(=O)[O-])ccc5F)c5ccc([nH]5)c(-c5cc(S(=O)(=O)[O-])ccc5F)c5nc(c(-c6cc(S(=O)(=O)[O-])ccc6F)c6ccc3[nH]6)C=C5)C=C4)cc2)nc1N
REMARK SMILES IDX 17 1 16 2 14 3 15 4 11 6 10 7 9 8 6 9 7 10 88 11 8 12 87 13
REMARK SMILES IDX 4 14 5 15 3 16 2 17 1 18 89 19 12 22 13 23 18 24 19 25 20 26
REMARK SMILES IDX 21 27 22 28 23 30 24 31 25 32 86 33 26 34 85 35 27 36 28 37
REMARK SMILES IDX 29 38 79 39 30 40 84 41 78 42 80 43 31 44 83 45 77 46 76 47
REMARK SMILES IDX 32 49 64 50 44 51 63 52 45 53 48 54 62 55 81 56 46 57 47 58
REMARK SMILES IDX 61 60 82 61 49 62 33 63 34 64 42 65 35 66 41 67 43 68 40 69
REMARK SMILES IDX 36 70 37 71 38 72 39 73 65 74 66 75 74 76 67 77 73 78 75 79
REMARK SMILES IDX 72 80 68 81 69 82 70 83 71 84 50 85 51 86 59 87 52 88 58 89
REMARK SMILES IDX 60 90 57 91 53 92 54 93 55 94 56 95
REMARK H PARENT 16 5 89 20 89 21 21 29 80 48 48 59
REMARK Flexibility Score: inf
ROOT
ATOM      1  C   UNL A   1      31.932  26.709  26.509  1.00  0.00     0.116 C 
ENDROOT
BRANCH   1   2
ATOM      2  N   UNL A   1      31.727  25.303  26.812  1.00  0.00    -0.355 N 
ATOM      3  C   UNL A   1      32.147  24.185  26.151  1.00  0.00     0.233 C 
ATOM      4  O   UNL A   1      31.891  23.092  26.669  1.00  0.00    -0.274 OA
ATOM      5  H   UNL A   1      31.201  25.129  27.626  1.00  0.00     0.163 HD
BRANCH   3   6
ATOM      6  C   UNL A   1      32.887  24.255  24.811  1.00  0.00     0.143 C 
BRANCH   6   7
ATOM      7  S   UNL A   1      31.667  24.123  23.437  1.00  0.00    -0.073 SA
BRANCH   7   8
ATOM      8  C   UNL A   1      30.986  25.757  23.371  1.00  0.00     0.190 A 
ATOM      9  C   UNL A   1      29.739  28.109  22.921  1.00  0.00     0.120 A 
ATOM     10  C   UNL A   1      31.075  27.917  22.647  1.00  0.00     0.133 A 
ATOM     11  C   UNL A   1      29.069  27.035  23.472  1.00  0.00     0.142 A 
ATOM     12  N   UNL A   1      31.719  26.754  22.861  1.00  0.00    -0.230 NA
ATOM     13  N   UNL A   1      29.682  25.858  23.690  1.00  0.00    -0.205 NA
BRANCH   9  14
ATOM     14  C   UNL A   1      29.119  29.364  22.503  1.00  0.00     0.343 C 
ATOM     15  O   UNL A   1      28.429  29.448  21.494  1.00  0.00    -0.246 OA
BRANCH  14  16
ATOM     16  O   UNL A   1      29.462  30.381  23.330  1.00  0.00    -0.462 OA
BRANCH  16  17
ATOM     17  C   UNL A   1      28.755  31.613  23.108  1.00  0.00     0.230 C 
ATOM     18  C   UNL A   1      27.415  31.630  23.824  1.00  0.00     0.049 C 
ENDBRANCH  16  17
ENDBRANCH  14  16
ENDBRANCH   9  14
BRANCH  11  19
ATOM     19  N   UNL A   1      27.710  27.033  23.733  1.00  0.00    -0.383 N 
ATOM     20  H   UNL A   1      27.261  26.198  23.998  1.00  0.00     0.158 HD
ATOM     21  H   UNL A   1      27.191  27.866  23.654  1.00  0.00     0.158 HD
ENDBRANCH  11  19
ENDBRANCH   7   8
ENDBRANCH   6   7
BRANCH   6  22
ATOM     22  C   UNL A   1      34.003  23.202  24.682  1.00  0.00     0.021 C 
ATOM     23  C   UNL A   1      35.366  23.773  25.063  1.00  0.00     0.005 C 
ENDBRANCH   6  22
ENDBRANCH   3   6
ENDBRANCH   1   2
BRANCH   1  24
ATOM     24  C   UNL A   1      33.372  27.018  26.109  1.00  0.00     0.023 C 
BRANCH  24  25
ATOM     25  C   UNL A   1      33.840  28.443  26.401  1.00  0.00     0.023 C 
BRANCH  25  26
ATOM     26  C   UNL A   1      33.143  29.142  27.563  1.00  0.00     0.116 C 
BRANCH  26  27
ATOM     27  N   UNL A   1      33.331  30.584  27.561  1.00  0.00    -0.352 N 
ATOM     28  C   UNL A   1      34.413  31.327  27.963  1.00  0.00     0.251 C 
ATOM     29  H   UNL A   1      32.568  31.104  27.219  1.00  0.00     0.163 HD
ATOM     30  O   UNL A   1      34.325  32.552  27.989  1.00  0.00    -0.269 OA
BRANCH  28  31
ATOM     31  C   UNL A   1      35.661  30.659  28.398  1.00  0.00     0.039 A 
ATOM     32  C   UNL A   1      36.838  30.917  27.689  1.00  0.00     0.014 A 
ATOM     33  C   UNL A   1      35.681  29.786  29.489  1.00  0.00     0.014 A 
ATOM     34  C   UNL A   1      38.043  30.355  28.115  1.00  0.00     0.010 A 
ATOM     35  C   UNL A   1      36.896  29.284  29.957  1.00  0.00     0.010 A 
ATOM     36  C   UNL A   1      38.088  29.562  29.274  1.00  0.00    -0.014 A 
BRANCH  36  37
ATOM     37  C   UNL A   1      39.380  29.026  29.778  1.00  0.00     0.031 A 
ATOM     38  C   UNL A   1      40.065  29.667  30.956  1.00  0.00     0.074 A 
ATOM     39  C   UNL A   1      39.959  27.987  29.143  1.00  0.00     0.049 A 
ATOM     40  N   UNL A   1      41.199  29.352  31.526  1.00  0.00    -0.248 NA
ATOM     41  C   UNL A   1      39.399  30.836  31.547  1.00  0.00     0.031 C 
ATOM     42  C   UNL A   1      39.424  27.321  27.952  1.00  0.00     0.029 A 
ATOM     43  N   UNL A   1      41.123  27.310  29.405  1.00  0.00    -0.354 N 
ATOM     44  C   UNL A   1      41.389  30.287  32.539  1.00  0.00     0.074 A 
ATOM     45  C   UNL A   1      40.283  31.219  32.456  1.00  0.00     0.031 C 
ATOM     46  C   UNL A   1      40.241  26.313  27.608  1.00  0.00     0.029 A 
ATOM     47  C   UNL A   1      41.372  26.279  28.529  1.00  0.00     0.049 A 
ATOM     48  H   UNL A   1      41.723  27.540  30.151  1.00  0.00     0.167 HD
ATOM     49  C   UNL A   1      42.378  30.350  33.465  1.00  0.00     0.034 A 
ATOM     50  C   UNL A   1      42.394  25.404  28.477  1.00  0.00     0.034 A 
ATOM     51  C   UNL A   1      43.469  29.406  33.539  1.00  0.00     0.049 A 
ATOM     52  C   UNL A   1      43.471  25.480  29.526  1.00  0.00     0.074 A 
ATOM     53  C   UNL A   1      44.495  29.343  34.467  1.00  0.00     0.029 A 
ATOM     54  N   UNL A   1      43.678  28.360  32.648  1.00  0.00    -0.354 N 
ATOM     55  N   UNL A   1      43.604  26.334  30.515  1.00  0.00    -0.248 NA
ATOM     56  C   UNL A   1      44.525  24.460  29.463  1.00  0.00     0.031 C 
ATOM     57  C   UNL A   1      45.353  28.298  34.104  1.00  0.00     0.029 A 
ATOM     58  C   UNL A   1      44.828  27.663  32.990  1.00  0.00     0.049 A 
ATOM     59  H   UNL A   1      43.094  28.145  31.885  1.00  0.00     0.167 HD
ATOM     60  C   UNL A   1      44.744  25.936  31.207  1.00  0.00     0.074 A 
ATOM     61  C   UNL A   1      45.244  24.753  30.537  1.00  0.00     0.031 C 
ATOM     62  C   UNL A   1      45.327  26.497  32.299  1.00  0.00     0.034 A 
BRANCH  49  63
ATOM     63  C   UNL A   1      42.328  31.492  34.453  1.00  0.00     0.023 A 
ATOM     64  C   UNL A   1      41.427  31.494  35.533  1.00  0.00     0.031 A 
ATOM     65  C   UNL A   1      43.166  32.610  34.296  1.00  0.00     0.131 A 
ATOM     66  C   UNL A   1      41.325  32.623  36.361  1.00  0.00     0.055 A 
ATOM     67  C   UNL A   1      43.118  33.696  35.174  1.00  0.00     0.041 A 
ATOM     68  F   UNL A   1      44.034  32.676  33.274  1.00  0.00    -0.206 F 
ATOM     69  C   UNL A   1      42.182  33.713  36.204  1.00  0.00     0.022 A 
BRANCH  66  70
ATOM     70  S   UNL A   1      39.958  32.704  37.549  1.00  0.00     0.124 S 
ATOM     71  O   UNL A   1      40.653  32.482  38.815  1.00  0.00    -0.237 OA
ATOM     72  O   UNL A   1      39.433  34.049  37.336  1.00  0.00    -0.237 OA
ATOM     73  O   UNL A   1      39.075  31.617  37.133  1.00  0.00    -0.744 OA
ENDBRANCH  66  70
ENDBRANCH  49  63
BRANCH  50  74
ATOM     74  C   UNL A   1      42.449  24.370  27.403  1.00  0.00     0.023 A 
ATOM     75  C   UNL A   1      41.646  23.221  27.464  1.00  0.00     0.031 A 
ATOM     76  C   UNL A   1      43.336  24.501  26.320  1.00  0.00     0.131 A 
ATOM     77  C   UNL A   1      41.779  22.222  26.488  1.00  0.00     0.055 A 
ATOM     78  C   UNL A   1      43.430  23.526  25.324  1.00  0.00     0.041 A 
ATOM     79  F   UNL A   1      44.118  25.586  26.209  1.00  0.00    -0.206 F 
ATOM     80  C   UNL A   1      42.658  22.372  25.412  1.00  0.00     0.022 A 
BRANCH  77  81
ATOM     81  S   UNL A   1      40.839  20.684  26.686  1.00  0.00     0.124 S 
ATOM     82  O   UNL A   1      40.846  20.514  28.135  1.00  0.00    -0.237 OA
ATOM     83  O   UNL A   1      39.556  21.035  26.087  1.00  0.00    -0.237 OA
ATOM     84  O   UNL A   1      41.626  19.706  25.938  1.00  0.00    -0.744 OA
ENDBRANCH  77  81
ENDBRANCH  50  74
BRANCH  62  85
ATOM     85  C   UNL A   1      46.552  25.803  32.843  1.00  0.00     0.023 A 
ATOM     86  C   UNL A   1      47.830  26.033  32.304  1.00  0.00     0.031 A 
ATOM     87  C   UNL A   1      46.432  24.865  33.884  1.00  0.00     0.131 A 
ATOM     88  C   UNL A   1      48.925  25.282  32.757  1.00  0.00     0.055 A 
ATOM     89  C   UNL A   1      47.537  24.166  34.374  1.00  0.00     0.041 A 
ATOM     90  F   UNL A   1      45.236  24.605  34.435  1.00  0.00    -0.206 F 
ATOM     91  C   UNL A   1      48.789  24.360  33.798  1.00  0.00     0.022 A 
BRANCH  88  92
ATOM     92  S   UNL A   1      50.507  25.437  31.881  1.00  0.00     0.124 S 
ATOM     93  O   UNL A   1      51.378  25.976  32.920  1.00  0.00    -0.237 OA
ATOM     94  O   UNL A   1      50.774  24.060  31.477  1.00  0.00    -0.237 OA
ATOM     95  O   UNL A   1      50.204  26.357  30.786  1.00  0.00    -0.744 OA
ENDBRANCH  88  92
ENDBRANCH  62  85
ENDBRANCH  36  37
ENDBRANCH  28  31
ENDBRANCH  26  27
ENDBRANCH  25  26
ENDBRANCH  24  25
ENDBRANCH   1  24
TORSDOF 21
ENDMDL
MODEL 3
REMARK VINA RESULT:     -10.1      5.619     10.417
REMARK SMILES CCOC(=O)c1cnc(S[C@H](CC)C(=O)NCCCCNC(=O)c2ccc(-c3c4nc(c(-c5cc(S(=O)(=O)[O-])ccc5F)c5ccc([nH]5)c(-c5cc(S(=O)(=O)[O-])ccc5F)c5nc(c(-c6cc(S(=O)(=O)[O-])ccc6F)c6ccc3[nH]6)C=C5)C=C4)cc2)nc1N
REMARK SMILES IDX 17 1 16 2 14 3 15 4 11 6 10 7 9 8 6 9 7 10 88 11 8 12 87 13
REMARK SMILES IDX 4 14 5 15 3 16 2 17 1 18 89 19 12 22 13 23 18 24 19 25 20 26
REMARK SMILES IDX 21 27 22 28 23 30 24 31 25 32 86 33 26 34 85 35 27 36 28 37
REMARK SMILES IDX 29 38 79 39 30 40 84 41 78 42 80 43 31 44 83 45 77 46 76 47
REMARK SMILES IDX 32 49 64 50 44 51 63 52 45 53 48 54 62 55 81 56 46 57 47 58
REMARK SMILES IDX 61 60 82 61 49 62 33 63 34 64 42 65 35 66 41 67 43 68 40 69
REMARK SMILES IDX 36 70 37 71 38 72 39 73 65 74 66 75 74 76 67 77 73 78 75 79
REMARK SMILES IDX 72 80 68 81 69 82 70 83 71 84 50 85 51 86 59 87 52 88 58 89
REMARK SMILES IDX 60 90 57 91 53 92 54 93 55 94 56 95
REMARK H PARENT 16 5 89 20 89 21 21 29 80 48 48 59
REMARK Flexibility Score: inf
ROOT
ATOM      1  C   UNL A   1      36.484  22.190  25.603  1.00  0.00     0.116 C 
ENDROOT
BRANCH   1   2
ATOM      2  N   UNL A   1      35.995  22.611  24.302  1.00  0.00    -0.355 N 
ATOM      3  C   UNL A   1      34.993  23.479  23.972  1.00  0.00     0.233 C 
ATOM      4  O   UNL A   1      34.825  23.717  22.770  1.00  0.00    -0.274 OA
ATOM      5  H   UNL A   1      36.460  22.206  23.535  1.00  0.00     0.163 HD
BRANCH   3   6
ATOM      6  C   UNL A   1      34.089  24.126  25.026  1.00  0.00     0.143 C 
BRANCH   6   7
ATOM      7  S   UNL A   1      32.406  23.386  24.917  1.00  0.00    -0.073 SA
BRANCH   7   8
ATOM      8  C   UNL A   1      32.755  21.689  24.547  1.00  0.00     0.190 A 
ATOM      9  C   UNL A   1      32.864  19.043  24.020  1.00  0.00     0.120 A 
ATOM     10  C   UNL A   1      33.260  19.572  25.228  1.00  0.00     0.133 A 
ATOM     11  C   UNL A   1      32.433  19.947  23.070  1.00  0.00     0.142 A 
ATOM     12  N   UNL A   1      33.214  20.887  25.515  1.00  0.00    -0.230 NA
ATOM     13  N   UNL A   1      32.367  21.266  23.330  1.00  0.00    -0.205 NA
BRANCH   9  14
ATOM     14  C   UNL A   1      32.817  17.590  23.882  1.00  0.00     0.343 C 
ATOM     15  O   UNL A   1      32.913  17.033  22.794  1.00  0.00    -0.246 OA
BRANCH  14  16
ATOM     16  O   UNL A   1      32.596  16.989  25.075  1.00  0.00    -0.462 OA
BRANCH  16  17
ATOM     17  C   UNL A   1      33.359  15.793  25.307  1.00  0.00     0.230 C 
ATOM     18  C   UNL A   1      34.852  16.045  25.189  1.00  0.00     0.049 C 
ENDBRANCH  16  17
ENDBRANCH  14  16
ENDBRANCH   9  14
BRANCH  11  19
ATOM     19  N   UNL A   1      31.926  19.578  21.836  1.00  0.00    -0.383 N 
ATOM     20  H   UNL A   1      32.001  18.645  21.533  1.00  0.00     0.158 HD
ATOM     21  H   UNL A   1      31.490  20.249  21.262  1.00  0.00     0.158 HD
ENDBRANCH  11  19
ENDBRANCH   7   8
ENDBRANCH   6   7
BRANCH   6  22
ATOM     22  C   UNL A   1      34.042  25.661  24.920  1.00  0.00     0.021 C 
ATOM     23  C   UNL A   1      33.202  26.279  26.034  1.00  0.00     0.005 C 
ENDBRANCH   6  22
ENDBRANCH   3   6
ENDBRANCH   1   2
BRANCH   1  24
ATOM     24  C   UNL A   1      37.998  22.335  25.733  1.00  0.00     0.023 C 
BRANCH  24  25
ATOM     25  C   UNL A   1      38.809  21.101  25.342  1.00  0.00     0.023 C 
BRANCH  25  26
ATOM     26  C   UNL A   1      39.367  20.282  26.501  1.00  0.00     0.116 C 
BRANCH  26  27
ATOM     27  N   UNL A   1      40.458  19.405  26.110  1.00  0.00    -0.352 N 
ATOM     28  C   UNL A   1      41.801  19.672  26.002  1.00  0.00     0.251 C 
ATOM     29  H   UNL A   1      40.196  18.481  25.892  1.00  0.00     0.163 HD
ATOM     30  O   UNL A   1      42.549  18.815  25.538  1.00  0.00    -0.269 OA
BRANCH  28  31
ATOM     31  C   UNL A   1      42.337  20.993  26.402  1.00  0.00     0.039 A 
ATOM     32  C   UNL A   1      42.597  21.938  25.405  1.00  0.00     0.014 A 
ATOM     33  C   UNL A   1      42.586  21.306  27.741  1.00  0.00     0.014 A 
ATOM     34  C   UNL A   1      43.040  23.214  25.757  1.00  0.00     0.010 A 
ATOM     35  C   UNL A   1      42.958  22.603  28.096  1.00  0.00     0.010 A 
ATOM     36  C   UNL A   1      43.189  23.569  27.108  1.00  0.00    -0.014 A 
BRANCH  36  37
ATOM     37  C   UNL A   1      43.584  24.951  27.491  1.00  0.00     0.031 A 
ATOM     38  C   UNL A   1      45.033  25.359  27.487  1.00  0.00     0.074 A 
ATOM     39  C   UNL A   1      42.637  25.824  27.887  1.00  0.00     0.049 A 
ATOM     40  N   UNL A   1      45.569  26.509  27.803  1.00  0.00    -0.248 NA
ATOM     41  C   UNL A   1      46.006  24.326  27.107  1.00  0.00     0.031 C 
ATOM     42  C   UNL A   1      41.205  25.527  27.993  1.00  0.00     0.029 A 
ATOM     43  N   UNL A   1      42.731  27.137  28.275  1.00  0.00    -0.354 N 
ATOM     44  C   UNL A   1      46.943  26.339  27.670  1.00  0.00     0.074 A 
ATOM     45  C   UNL A   1      47.156  24.952  27.308  1.00  0.00     0.031 C 
ATOM     46  C   UNL A   1      40.555  26.634  28.387  1.00  0.00     0.029 A 
ATOM     47  C   UNL A   1      41.520  27.707  28.593  1.00  0.00     0.049 A 
ATOM     48  H   UNL A   1      43.585  27.624  28.322  1.00  0.00     0.167 HD
ATOM     49  C   UNL A   1      47.934  27.255  27.811  1.00  0.00     0.034 A 
ATOM     50  C   UNL A   1      41.223  28.956  29.002  1.00  0.00     0.034 A 
ATOM     51  C   UNL A   1      47.703  28.637  28.163  1.00  0.00     0.049 A 
ATOM     52  C   UNL A   1      42.335  29.962  29.134  1.00  0.00     0.074 A 
ATOM     53  C   UNL A   1      48.625  29.663  28.282  1.00  0.00     0.029 A 
ATOM     54  N   UNL A   1      46.461  29.186  28.458  1.00  0.00    -0.354 N 
ATOM     55  N   UNL A   1      43.624  29.800  28.944  1.00  0.00    -0.248 NA
ATOM     56  C   UNL A   1      41.947  31.326  29.515  1.00  0.00     0.031 C 
ATOM     57  C   UNL A   1      47.950  30.815  28.703  1.00  0.00     0.029 A 
ATOM     58  C   UNL A   1      46.596  30.529  28.780  1.00  0.00     0.049 A 
ATOM     59  H   UNL A   1      45.609  28.694  28.439  1.00  0.00     0.167 HD
ATOM     60  C   UNL A   1      44.198  31.050  29.159  1.00  0.00     0.074 A 
ATOM     61  C   UNL A   1      43.111  31.957  29.466  1.00  0.00     0.031 C 
ATOM     62  C   UNL A   1      45.505  31.417  29.106  1.00  0.00     0.034 A 
BRANCH  49  63
ATOM     63  C   UNL A   1      49.353  26.778  27.605  1.00  0.00     0.023 A 
ATOM     64  C   UNL A   1      50.263  26.692  28.674  1.00  0.00     0.031 A 
ATOM     65  C   UNL A   1      49.815  26.438  26.322  1.00  0.00     0.131 A 
ATOM     66  C   UNL A   1      51.604  26.360  28.429  1.00  0.00     0.055 A 
ATOM     67  C   UNL A   1      51.130  26.027  26.097  1.00  0.00     0.041 A 
ATOM     68  F   UNL A   1      48.999  26.518  25.258  1.00  0.00    -0.206 F 
ATOM     69  C   UNL A   1      52.039  26.001  27.152  1.00  0.00     0.022 A 
BRANCH  66  70
ATOM     70  S   UNL A   1      52.803  26.546  29.778  1.00  0.00     0.124 S 
ATOM     71  O   UNL A   1      52.267  25.625  30.778  1.00  0.00    -0.237 OA
ATOM     72  O   UNL A   1      54.055  26.146  29.145  1.00  0.00    -0.237 OA
ATOM     73  O   UNL A   1      52.705  27.960  30.131  1.00  0.00    -0.744 OA
ENDBRANCH  66  70
ENDBRANCH  49  63
BRANCH  50  74
ATOM     74  C   UNL A   1      39.813  29.335  29.306  1.00  0.00     0.023 A 
ATOM     75  C   UNL A   1      39.364  29.444  30.631  1.00  0.00     0.031 A 
ATOM     76  C   UNL A   1      38.885  29.556  28.273  1.00  0.00     0.131 A 
ATOM     77  C   UNL A   1      38.012  29.717  30.891  1.00  0.00     0.055 A 
ATOM     78  C   UNL A   1      37.552  29.875  28.537  1.00  0.00     0.041 A 
ATOM     79  F   UNL A   1      39.267  29.474  26.988  1.00  0.00    -0.206 F 
ATOM     80  C   UNL A   1      37.106  29.944  29.853  1.00  0.00     0.022 A 
BRANCH  77  81
ATOM     81  S   UNL A   1      37.438  29.696  32.612  1.00  0.00     0.124 S 
ATOM     82  O   UNL A   1      36.139  30.350  32.500  1.00  0.00    -0.237 OA
ATOM     83  O   UNL A   1      37.415  28.266  32.904  1.00  0.00    -0.237 OA
ATOM     84  O   UNL A   1      38.463  30.458  33.321  1.00  0.00    -0.744 OA
ENDBRANCH  77  81
ENDBRANCH  50  74
BRANCH  62  85
ATOM     85  C   UNL A   1      45.809  32.874  29.358  1.00  0.00     0.023 A 
ATOM     86  C   UNL A   1      45.737  33.831  28.330  1.00  0.00     0.031 A 
ATOM     87  C   UNL A   1      46.219  33.303  30.633  1.00  0.00     0.131 A 
ATOM     88  C   UNL A   1      46.141  35.152  28.575  1.00  0.00     0.055 A 
ATOM     89  C   UNL A   1      46.559  34.633  30.887  1.00  0.00     0.041 A 
ATOM     90  F   UNL A   1      46.307  32.433  31.651  1.00  0.00    -0.206 F 
ATOM     91  C   UNL A   1      46.538  35.562  29.850  1.00  0.00     0.022 A 
BRANCH  88  92
ATOM     92  S   UNL A   1      46.258  36.299  27.174  1.00  0.00     0.124 S 
ATOM     93  O   UNL A   1      46.871  35.463  26.147  1.00  0.00    -0.237 OA
ATOM     94  O   UNL A   1      44.861  36.661  26.952  1.00  0.00    -0.237 OA
ATOM     95  O   UNL A   1      47.104  37.377  27.683  1.00  0.00    -0.744 OA
ENDBRANCH  88  92
ENDBRANCH  62  85
ENDBRANCH  36  37
ENDBRANCH  28  31
ENDBRANCH  26  27
ENDBRANCH  25  26
ENDBRANCH  24  25
ENDBRANCH   1  24
TORSDOF 21
ENDMDL
