MODEL 1
REMARK VINA RESULT:      -8.7      0.000      0.000
REMARK SMILES COc1ccc(-c2noc(C[N@H+]3CCCC[C@@H]3C(=O)NCCCCNC(=O)c3ccc(-c4c5nc(c(-c6cc(S(=O)(=O)[O-])ccc6F)c6ccc([nH]6)c(-c6cc(S(=O)(=O)[O-])ccc6F)c6nc(c(-c7cc(S(=O)(=O)[O-])ccc7F)c7ccc4[nH]7)C=C6)C=C5)cc3)n2)cc1OC
REMARK SMILES IDX 22 1 21 2 20 3 18 4 19 5 17 7 12 8 13 9 14 11 16 12 15 13
REMARK SMILES IDX 11 14 10 15 7 16 8 17 91 18 9 19 6 20 3 21 4 22 93 23 5 24
REMARK SMILES IDX 92 25 2 26 1 27 94 28 95 29 23 30 24 31 25 32 26 33 27 35
REMARK SMILES IDX 28 36 29 37 90 38 30 39 89 40 31 41 32 42 33 43 83 44 34 45
REMARK SMILES IDX 88 46 82 47 84 48 35 49 87 50 81 51 80 52 36 54 68 55 48 56
REMARK SMILES IDX 67 57 49 58 52 59 66 60 85 61 50 62 51 63 65 65 86 66 53 67
REMARK SMILES IDX 37 68 38 69 46 70 39 71 45 72 47 73 44 74 40 75 41 76 42 77
REMARK SMILES IDX 43 78 69 79 70 80 78 81 71 82 77 83 79 84 76 85 72 86 73 87
REMARK SMILES IDX 74 88 75 89 54 90 55 91 63 92 56 93 62 94 64 95 61 96 57 97
REMARK SMILES IDX 58 98 59 99 60 100
REMARK H PARENT 20 6 12 10 25 34 84 53 52 64
REMARK Flexibility Score: inf
ROOT
ATOM      1  C   UNL A   1      36.627  33.223  28.725  1.00  0.00     0.023 C 
ENDROOT
BRANCH   1   2
ATOM      2  C   UNL A   1      36.637  33.878  30.105  1.00  0.00     0.116 C 
BRANCH   2   3
ATOM      3  N   UNL A   1      35.441  33.530  30.849  1.00  0.00    -0.351 N 
ATOM      4  C   UNL A   1      35.309  33.144  32.152  1.00  0.00     0.278 C 
ATOM      5  O   UNL A   1      34.178  32.861  32.559  1.00  0.00    -0.268 OA
ATOM      6  H   UNL A   1      34.600  33.581  30.339  1.00  0.00     0.163 HD
BRANCH   4   7
ATOM      7  C   UNL A   1      36.521  33.130  33.113  1.00  0.00     0.274 C 
ATOM      8  N   UNL A   1      36.607  31.810  33.796  1.00  0.00    -0.317 N 
ATOM      9  C   UNL A   1      37.623  31.766  34.851  1.00  0.00     0.263 C 
ATOM     10  H   UNL A   1      35.704  31.694  34.257  1.00  0.00     0.349 HD
ATOM     11  C   UNL A   1      37.456  32.908  35.851  1.00  0.00     0.062 C 
ATOM     12  C   UNL A   1      36.482  34.340  34.060  1.00  0.00     0.076 C 
ATOM     13  C   UNL A   1      37.547  34.252  35.143  1.00  0.00     0.012 C 
BRANCH   8  14
ATOM     14  C   UNL A   1      36.764  30.677  32.843  1.00  0.00     0.364 C 
BRANCH  14  15
ATOM     15  C   UNL A   1      37.938  29.779  33.071  1.00  0.00     0.282 A 
ATOM     16  C   UNL A   1      39.798  28.866  33.356  1.00  0.00     0.202 A 
ATOM     17  N   UNL A   1      38.991  27.832  33.082  1.00  0.00    -0.057 NA
ATOM     18  N   UNL A   1      39.183  30.095  33.345  1.00  0.00    -0.186 NA
ATOM     19  O   UNL A   1      37.741  28.435  32.938  1.00  0.00    -0.333 OA
BRANCH  16  20
ATOM     20  C   UNL A   1      41.185  28.720  33.733  1.00  0.00     0.027 A 
ATOM     21  C   UNL A   1      43.851  28.509  34.551  1.00  0.00     0.160 A 
ATOM     22  C   UNL A   1      43.308  27.577  33.651  1.00  0.00     0.051 A 
ATOM     23  C   UNL A   1      43.071  29.573  35.018  1.00  0.00     0.161 A 
ATOM     24  C   UNL A   1      41.972  27.670  33.255  1.00  0.00     0.016 A 
ATOM     25  C   UNL A   1      41.743  29.668  34.597  1.00  0.00     0.062 A 
BRANCH  21  26
ATOM     26  O   UNL A   1      45.181  28.407  34.860  1.00  0.00    -0.493 OA
ATOM     27  C   UNL A   1      45.384  27.988  36.211  1.00  0.00     0.278 C 
ENDBRANCH  21  26
BRANCH  23  28
ATOM     28  O   UNL A   1      43.435  30.605  35.837  1.00  0.00    -0.493 OA
ATOM     29  C   UNL A   1      42.653  30.843  36.995  1.00  0.00     0.278 C 
ENDBRANCH  23  28
ENDBRANCH  16  20
ENDBRANCH  14  15
ENDBRANCH   8  14
ENDBRANCH   4   7
ENDBRANCH   2   3
ENDBRANCH   1   2
BRANCH   1  30
ATOM     30  C   UNL A   1      35.230  33.031  28.134  1.00  0.00     0.023 C 
BRANCH  30  31
ATOM     31  C   UNL A   1      34.382  31.982  28.839  1.00  0.00     0.116 C 
BRANCH  31  32
ATOM     32  N   UNL A   1      33.982  30.900  27.956  1.00  0.00    -0.352 N 
ATOM     33  C   UNL A   1      34.755  29.891  27.429  1.00  0.00     0.251 C 
ATOM     34  H   UNL A   1      33.032  30.887  27.699  1.00  0.00     0.163 HD
ATOM     35  O   UNL A   1      34.298  29.158  26.564  1.00  0.00    -0.269 OA
BRANCH  33  36
ATOM     36  C   UNL A   1      36.148  29.731  27.900  1.00  0.00     0.039 A 
ATOM     37  C   UNL A   1      36.375  29.264  29.197  1.00  0.00     0.014 A 
ATOM     38  C   UNL A   1      37.223  30.016  27.054  1.00  0.00     0.014 A 
ATOM     39  C   UNL A   1      37.683  29.033  29.625  1.00  0.00     0.010 A 
ATOM     40  C   UNL A   1      38.518  29.702  27.452  1.00  0.00     0.010 A 
ATOM     41  C   UNL A   1      38.764  29.220  28.747  1.00  0.00    -0.014 A 
BRANCH  41  42
ATOM     42  C   UNL A   1      40.162  28.953  29.176  1.00  0.00     0.031 A 
ATOM     43  C   UNL A   1      40.907  29.987  29.978  1.00  0.00     0.074 A 
ATOM     44  C   UNL A   1      40.772  27.811  28.807  1.00  0.00     0.049 A 
ATOM     45  N   UNL A   1      42.148  29.978  30.393  1.00  0.00    -0.248 NA
ATOM     46  C   UNL A   1      40.166  31.208  30.329  1.00  0.00     0.031 C 
ATOM     47  C   UNL A   1      40.166  26.750  27.997  1.00  0.00     0.029 A 
ATOM     48  N   UNL A   1      42.041  27.348  29.057  1.00  0.00    -0.354 N 
ATOM     49  C   UNL A   1      42.338  31.194  31.042  1.00  0.00     0.074 A 
ATOM     50  C   UNL A   1      41.109  31.943  30.899  1.00  0.00     0.031 C 
ATOM     51  C   UNL A   1      41.050  25.751  27.848  1.00  0.00     0.029 A 
ATOM     52  C   UNL A   1      42.301  26.116  28.504  1.00  0.00     0.049 A 
ATOM     53  H   UNL A   1      42.701  27.852  29.585  1.00  0.00     0.167 HD
ATOM     54  C   UNL A   1      43.427  31.632  31.720  1.00  0.00     0.034 A 
ATOM     55  C   UNL A   1      43.423  25.369  28.516  1.00  0.00     0.034 A 
ATOM     56  C   UNL A   1      44.641  30.866  31.862  1.00  0.00     0.049 A 
ATOM     57  C   UNL A   1      44.634  25.890  29.253  1.00  0.00     0.074 A 
ATOM     58  C   UNL A   1      45.789  31.193  32.564  1.00  0.00     0.029 A 
ATOM     59  N   UNL A   1      44.869  29.622  31.288  1.00  0.00    -0.354 N 
ATOM     60  N   UNL A   1      44.783  27.022  29.902  1.00  0.00    -0.248 NA
ATOM     61  C   UNL A   1      45.820  25.027  29.270  1.00  0.00     0.031 C 
ATOM     62  C   UNL A   1      46.734  30.183  32.353  1.00  0.00     0.029 A 
ATOM     63  C   UNL A   1      46.148  29.182  31.595  1.00  0.00     0.049 A 
ATOM     64  H   UNL A   1      44.217  29.124  30.743  1.00  0.00     0.167 HD
ATOM     65  C   UNL A   1      46.067  26.986  30.439  1.00  0.00     0.074 A 
ATOM     66  C   UNL A   1      46.642  25.715  30.048  1.00  0.00     0.031 C 
ATOM     67  C   UNL A   1      46.712  27.913  31.194  1.00  0.00     0.034 A 
BRANCH  54  68
ATOM     68  C   UNL A   1      43.355  33.011  32.334  1.00  0.00     0.023 A 
ATOM     69  C   UNL A   1      42.780  33.229  33.599  1.00  0.00     0.031 A 
ATOM     70  C   UNL A   1      43.837  34.131  31.633  1.00  0.00     0.131 A 
ATOM     71  C   UNL A   1      42.626  34.537  34.085  1.00  0.00     0.055 A 
ATOM     72  C   UNL A   1      43.764  35.421  32.163  1.00  0.00     0.041 A 
ATOM     73  F   UNL A   1      44.376  33.993  30.411  1.00  0.00    -0.206 F 
ATOM     74  C   UNL A   1      43.140  35.632  33.388  1.00  0.00     0.022 A 
BRANCH  71  75
ATOM     75  S   UNL A   1      41.604  34.796  35.561  1.00  0.00     0.124 S 
ATOM     76  O   UNL A   1      42.616  35.089  36.573  1.00  0.00    -0.237 OA
ATOM     77  O   UNL A   1      40.755  35.914  35.164  1.00  0.00    -0.237 OA
ATOM     78  O   UNL A   1      40.916  33.518  35.730  1.00  0.00    -0.744 OA
ENDBRANCH  71  75
ENDBRANCH  54  68
BRANCH  55  79
ATOM     79  C   UNL A   1      43.470  24.055  27.811  1.00  0.00     0.023 A 
ATOM     80  C   UNL A   1      44.178  23.903  26.608  1.00  0.00     0.031 A 
ATOM     81  C   UNL A   1      42.766  22.942  28.305  1.00  0.00     0.131 A 
ATOM     82  C   UNL A   1      44.121  22.685  25.912  1.00  0.00     0.055 A 
ATOM     83  C   UNL A   1      42.762  21.715  27.640  1.00  0.00     0.041 A 
ATOM     84  F   UNL A   1      42.075  23.030  29.453  1.00  0.00    -0.206 F 
ATOM     85  C   UNL A   1      43.431  21.586  26.427  1.00  0.00     0.022 A 
BRANCH  82  86
ATOM     86  S   UNL A   1      44.884  22.589  24.268  1.00  0.00     0.124 S 
ATOM     87  O   UNL A   1      45.712  23.789  24.256  1.00  0.00    -0.237 OA
ATOM     88  O   UNL A   1      45.596  21.318  24.339  1.00  0.00    -0.237 OA
ATOM     89  O   UNL A   1      43.739  22.611  23.360  1.00  0.00    -0.744 OA
ENDBRANCH  82  86
ENDBRANCH  55  79
BRANCH  67  90
ATOM     90  C   UNL A   1      48.090  27.557  31.697  1.00  0.00     0.023 A 
ATOM     91  C   UNL A   1      49.256  27.920  31.000  1.00  0.00     0.031 A 
ATOM     92  C   UNL A   1      48.235  26.827  32.892  1.00  0.00     0.131 A 
ATOM     93  C   UNL A   1      50.510  27.500  31.471  1.00  0.00     0.055 A 
ATOM     94  C   UNL A   1      49.489  26.474  33.391  1.00  0.00     0.041 A 
ATOM     95  F   UNL A   1      47.158  26.450  33.598  1.00  0.00    -0.206 F 
ATOM     96  C   UNL A   1      50.636  26.797  32.671  1.00  0.00     0.022 A 
BRANCH  93  97
ATOM     97  S   UNL A   1      51.971  27.794  30.436  1.00  0.00     0.124 S 
ATOM     98  O   UNL A   1      52.632  28.883  31.147  1.00  0.00    -0.237 OA
ATOM     99  O   UNL A   1      52.647  26.503  30.477  1.00  0.00    -0.237 OA
ATOM    100  O   UNL A   1      51.404  28.156  29.138  1.00  0.00    -0.744 OA
ENDBRANCH  93  97
ENDBRANCH  67  90
ENDBRANCH  41  42
ENDBRANCH  33  36
ENDBRANCH  31  32
ENDBRANCH  30  31
ENDBRANCH   1  30
TORSDOF 19
ENDMDL
MODEL 2
REMARK VINA RESULT:      -8.6      7.053     13.128
REMARK SMILES COc1ccc(-c2noc(C[N@H+]3CCCC[C@@H]3C(=O)NCCCCNC(=O)c3ccc(-c4c5nc(c(-c6cc(S(=O)(=O)[O-])ccc6F)c6ccc([nH]6)c(-c6cc(S(=O)(=O)[O-])ccc6F)c6nc(c(-c7cc(S(=O)(=O)[O-])ccc7F)c7ccc4[nH]7)C=C6)C=C5)cc3)n2)cc1OC
REMARK SMILES IDX 22 1 21 2 20 3 18 4 19 5 17 7 12 8 13 9 14 11 16 12 15 13
REMARK SMILES IDX 11 14 10 15 7 16 8 17 91 18 9 19 6 20 3 21 4 22 93 23 5 24
REMARK SMILES IDX 92 25 2 26 1 27 94 28 95 29 23 30 24 31 25 32 26 33 27 35
REMARK SMILES IDX 28 36 29 37 90 38 30 39 89 40 31 41 32 42 33 43 83 44 34 45
REMARK SMILES IDX 88 46 82 47 84 48 35 49 87 50 81 51 80 52 36 54 68 55 48 56
REMARK SMILES IDX 67 57 49 58 52 59 66 60 85 61 50 62 51 63 65 65 86 66 53 67
REMARK SMILES IDX 37 68 38 69 46 70 39 71 45 72 47 73 44 74 40 75 41 76 42 77
REMARK SMILES IDX 43 78 69 79 70 80 78 81 71 82 77 83 79 84 76 85 72 86 73 87
REMARK SMILES IDX 74 88 75 89 54 90 55 91 63 92 56 93 62 94 64 95 61 96 57 97
REMARK SMILES IDX 58 98 59 99 60 100
REMARK H PARENT 20 6 12 10 25 34 84 53 52 64
REMARK Flexibility Score: inf
ROOT
ATOM      1  C   UNL A   1      47.266  37.575  27.718  1.00  0.00     0.023 C 
ENDROOT
BRANCH   1   2
ATOM      2  C   UNL A   1      46.037  38.297  28.271  1.00  0.00     0.116 C 
BRANCH   2   3
ATOM      3  N   UNL A   1      46.045  39.696  27.886  1.00  0.00    -0.351 N 
ATOM      4  C   UNL A   1      45.175  40.694  28.218  1.00  0.00     0.278 C 
ATOM      5  O   UNL A   1      45.367  41.813  27.735  1.00  0.00    -0.268 OA
ATOM      6  H   UNL A   1      46.788  39.965  27.299  1.00  0.00     0.163 HD
BRANCH   4   7
ATOM      7  C   UNL A   1      44.025  40.456  29.226  1.00  0.00     0.274 C 
ATOM      8  N   UNL A   1      42.720  40.777  28.586  1.00  0.00    -0.317 N 
ATOM      9  C   UNL A   1      41.590  40.744  29.519  1.00  0.00     0.263 C 
ATOM     10  H   UNL A   1      42.812  41.745  28.275  1.00  0.00     0.349 HD
ATOM     11  C   UNL A   1      41.844  41.611  30.750  1.00  0.00     0.062 C 
ATOM     12  C   UNL A   1      44.292  41.196  30.546  1.00  0.00     0.076 C 
ATOM     13  C   UNL A   1      43.094  41.144  31.482  1.00  0.00     0.012 C 
BRANCH   8  14
ATOM     14  C   UNL A   1      42.451  39.950  27.378  1.00  0.00     0.364 C 
BRANCH  14  15
ATOM     15  C   UNL A   1      42.099  40.696  26.130  1.00  0.00     0.282 A 
ATOM     16  C   UNL A   1      42.005  41.839  24.381  1.00  0.00     0.202 A 
ATOM     17  N   UNL A   1      40.720  41.731  24.742  1.00  0.00    -0.057 NA
ATOM     18  N   UNL A   1      42.895  41.221  25.226  1.00  0.00    -0.186 NA
ATOM     19  O   UNL A   1      40.777  40.930  25.883  1.00  0.00    -0.333 OA
BRANCH  16  20
ATOM     20  C   UNL A   1      42.440  42.465  23.153  1.00  0.00     0.027 A 
ATOM     21  C   UNL A   1      43.391  43.662  20.812  1.00  0.00     0.160 A 
ATOM     22  C   UNL A   1      42.057  43.230  20.898  1.00  0.00     0.051 A 
ATOM     23  C   UNL A   1      44.246  43.530  21.911  1.00  0.00     0.161 A 
ATOM     24  C   UNL A   1      41.585  42.615  22.060  1.00  0.00     0.016 A 
ATOM     25  C   UNL A   1      43.755  42.936  23.076  1.00  0.00     0.062 A 
BRANCH  21  26
ATOM     26  O   UNL A   1      43.785  44.311  19.672  1.00  0.00    -0.493 OA
ATOM     27  C   UNL A   1      42.926  44.020  18.569  1.00  0.00     0.278 C 
ENDBRANCH  21  26
BRANCH  23  28
ATOM     28  O   UNL A   1      45.542  43.945  22.042  1.00  0.00    -0.493 OA
ATOM     29  C   UNL A   1      45.786  45.150  22.745  1.00  0.00     0.278 C 
ENDBRANCH  23  28
ENDBRANCH  16  20
ENDBRANCH  14  15
ENDBRANCH   8  14
ENDBRANCH   4   7
ENDBRANCH   2   3
ENDBRANCH   1   2
BRANCH   1  30
ATOM     30  C   UNL A   1      47.068  36.985  26.322  1.00  0.00     0.023 C 
BRANCH  30  31
ATOM     31  C   UNL A   1      46.712  35.505  26.305  1.00  0.00     0.116 C 
BRANCH  31  32
ATOM     32  N   UNL A   1      45.715  35.181  25.298  1.00  0.00    -0.352 N 
ATOM     33  C   UNL A   1      44.453  34.661  25.474  1.00  0.00     0.251 C 
ATOM     34  H   UNL A   1      45.977  35.357  24.366  1.00  0.00     0.163 HD
ATOM     35  O   UNL A   1      43.805  34.288  24.508  1.00  0.00    -0.269 OA
BRANCH  33  36
ATOM     36  C   UNL A   1      43.914  34.533  26.846  1.00  0.00     0.039 A 
ATOM     37  C   UNL A   1      43.365  35.657  27.466  1.00  0.00     0.014 A 
ATOM     38  C   UNL A   1      43.926  33.300  27.504  1.00  0.00     0.014 A 
ATOM     39  C   UNL A   1      42.781  35.531  28.727  1.00  0.00     0.010 A 
ATOM     40  C   UNL A   1      43.266  33.158  28.719  1.00  0.00     0.010 A 
ATOM     41  C   UNL A   1      42.697  34.275  29.351  1.00  0.00    -0.014 A 
BRANCH  41  42
ATOM     42  C   UNL A   1      42.054  34.116  30.681  1.00  0.00     0.031 A 
ATOM     43  C   UNL A   1      42.899  33.793  31.885  1.00  0.00     0.074 A 
ATOM     44  C   UNL A   1      40.716  34.212  30.797  1.00  0.00     0.049 A 
ATOM     45  N   UNL A   1      42.529  33.551  33.117  1.00  0.00    -0.248 NA
ATOM     46  C   UNL A   1      44.350  33.698  31.666  1.00  0.00     0.031 C 
ATOM     47  C   UNL A   1      39.788  34.482  29.695  1.00  0.00     0.029 A 
ATOM     48  N   UNL A   1      39.898  34.089  31.893  1.00  0.00    -0.354 N 
ATOM     49  C   UNL A   1      43.699  33.263  33.813  1.00  0.00     0.074 A 
ATOM     50  C   UNL A   1      44.778  33.289  32.850  1.00  0.00     0.031 C 
ATOM     51  C   UNL A   1      38.537  34.537  30.178  1.00  0.00     0.029 A 
ATOM     52  C   UNL A   1      38.562  34.257  31.610  1.00  0.00     0.049 A 
ATOM     53  H   UNL A   1      40.237  33.899  32.798  1.00  0.00     0.167 HD
ATOM     54  C   UNL A   1      43.862  33.029  35.139  1.00  0.00     0.034 A 
ATOM     55  C   UNL A   1      37.481  34.184  32.411  1.00  0.00     0.034 A 
ATOM     56  C   UNL A   1      42.774  33.020  36.087  1.00  0.00     0.049 A 
ATOM     57  C   UNL A   1      37.683  33.894  33.879  1.00  0.00     0.074 A 
ATOM     58  C   UNL A   1      42.829  32.838  37.458  1.00  0.00     0.029 A 
ATOM     59  N   UNL A   1      41.434  33.193  35.764  1.00  0.00    -0.354 N 
ATOM     60  N   UNL A   1      38.800  33.670  34.531  1.00  0.00    -0.248 NA
ATOM     61  C   UNL A   1      36.479  33.860  34.718  1.00  0.00     0.031 C 
ATOM     62  C   UNL A   1      41.519  32.828  37.952  1.00  0.00     0.029 A 
ATOM     63  C   UNL A   1      40.652  33.094  36.904  1.00  0.00     0.049 A 
ATOM     64  H   UNL A   1      41.090  33.363  34.857  1.00  0.00     0.167 HD
ATOM     65  C   UNL A   1      38.435  33.511  35.866  1.00  0.00     0.074 A 
ATOM     66  C   UNL A   1      36.998  33.677  35.924  1.00  0.00     0.031 C 
ATOM     67  C   UNL A   1      39.217  33.258  36.948  1.00  0.00     0.034 A 
BRANCH  54  68
ATOM     68  C   UNL A   1      45.262  32.741  35.627  1.00  0.00     0.023 A 
ATOM     69  C   UNL A   1      46.092  33.757  36.134  1.00  0.00     0.031 A 
ATOM     70  C   UNL A   1      45.790  31.440  35.556  1.00  0.00     0.131 A 
ATOM     71  C   UNL A   1      47.426  33.474  36.470  1.00  0.00     0.055 A 
ATOM     72  C   UNL A   1      47.089  31.146  35.977  1.00  0.00     0.041 A 
ATOM     73  F   UNL A   1      45.056  30.431  35.060  1.00  0.00    -0.206 F 
ATOM     74  C   UNL A   1      47.920  32.169  36.421  1.00  0.00     0.022 A 
BRANCH  71  75
ATOM     75  S   UNL A   1      48.544  34.859  36.815  1.00  0.00     0.124 S 
ATOM     76  O   UNL A   1      48.180  35.802  35.760  1.00  0.00    -0.237 OA
ATOM     77  O   UNL A   1      48.166  35.239  38.171  1.00  0.00    -0.237 OA
ATOM     78  O   UNL A   1      49.874  34.267  36.679  1.00  0.00    -0.744 OA
ENDBRANCH  71  75
ENDBRANCH  54  68
BRANCH  55  79
ATOM     79  C   UNL A   1      36.109  34.382  31.857  1.00  0.00     0.023 A 
ATOM     80  C   UNL A   1      35.330  35.489  32.230  1.00  0.00     0.031 A 
ATOM     81  C   UNL A   1      35.538  33.441  30.982  1.00  0.00     0.131 A 
ATOM     82  C   UNL A   1      34.006  35.599  31.775  1.00  0.00     0.055 A 
ATOM     83  C   UNL A   1      34.242  33.585  30.485  1.00  0.00     0.041 A 
ATOM     84  F   UNL A   1      36.239  32.365  30.589  1.00  0.00    -0.206 F 
ATOM     85  C   UNL A   1      33.462  34.663  30.894  1.00  0.00     0.022 A 
BRANCH  82  86
ATOM     86  S   UNL A   1      32.971  36.935  32.435  1.00  0.00     0.124 S 
ATOM     87  O   UNL A   1      31.678  36.274  32.560  1.00  0.00    -0.237 OA
ATOM     88  O   UNL A   1      33.652  37.257  33.684  1.00  0.00    -0.237 OA
ATOM     89  O   UNL A   1      33.049  37.966  31.401  1.00  0.00    -0.744 OA
ENDBRANCH  82  86
ENDBRANCH  55  79
BRANCH  67  90
ATOM     90  C   UNL A   1      38.535  33.208  38.294  1.00  0.00     0.023 A 
ATOM     91  C   UNL A   1      38.670  34.242  39.238  1.00  0.00     0.031 A 
ATOM     92  C   UNL A   1      37.746  32.096  38.642  1.00  0.00     0.131 A 
ATOM     93  C   UNL A   1      38.077  34.114  40.503  1.00  0.00     0.055 A 
ATOM     94  C   UNL A   1      37.101  32.008  39.876  1.00  0.00     0.041 A 
ATOM     95  F   UNL A   1      37.584  31.077  37.783  1.00  0.00    -0.206 F 
ATOM     96  C   UNL A   1      37.277  33.013  40.821  1.00  0.00     0.022 A 
BRANCH  93  97
ATOM     97  S   UNL A   1      38.452  35.358  41.770  1.00  0.00     0.124 S 
ATOM     98  O   UNL A   1      37.362  35.161  42.720  1.00  0.00    -0.237 OA
ATOM     99  O   UNL A   1      39.775  34.949  42.226  1.00  0.00    -0.237 OA
ATOM    100  O   UNL A   1      38.412  36.620  41.034  1.00  0.00    -0.744 OA
ENDBRANCH  93  97
ENDBRANCH  67  90
ENDBRANCH  41  42
ENDBRANCH  33  36
ENDBRANCH  31  32
ENDBRANCH  30  31
ENDBRANCH   1  30
TORSDOF 19
ENDMDL
MODEL 3
REMARK VINA RESULT:      -8.5      4.166     13.189
REMARK SMILES COc1ccc(-c2noc(C[N@H+]3CCCC[C@@H]3C(=O)NCCCCNC(=O)c3ccc(-c4c5nc(c(-c6cc(S(=O)(=O)[O-])ccc6F)c6ccc([nH]6)c(-c6cc(S(=O)(=O)[O-])ccc6F)c6nc(c(-c7cc(S(=O)(=O)[O-])ccc7F)c7ccc4[nH]7)C=C6)C=C5)cc3)n2)cc1OC
REMARK SMILES IDX 22 1 21 2 20 3 18 4 19 5 17 7 12 8 13 9 14 11 16 12 15 13
REMARK SMILES IDX 11 14 10 15 7 16 8 17 91 18 9 19 6 20 3 21 4 22 93 23 5 24
REMARK SMILES IDX 92 25 2 26 1 27 94 28 95 29 23 30 24 31 25 32 26 33 27 35
REMARK SMILES IDX 28 36 29 37 90 38 30 39 89 40 31 41 32 42 33 43 83 44 34 45
REMARK SMILES IDX 88 46 82 47 84 48 35 49 87 50 81 51 80 52 36 54 68 55 48 56
REMARK SMILES IDX 67 57 49 58 52 59 66 60 85 61 50 62 51 63 65 65 86 66 53 67
REMARK SMILES IDX 37 68 38 69 46 70 39 71 45 72 47 73 44 74 40 75 41 76 42 77
REMARK SMILES IDX 43 78 69 79 70 80 78 81 71 82 77 83 79 84 76 85 72 86 73 87
REMARK SMILES IDX 74 88 75 89 54 90 55 91 63 92 56 93 62 94 64 95 61 96 57 97
REMARK SMILES IDX 58 98 59 99 60 100
REMARK H PARENT 20 6 12 10 25 34 84 53 52 64
REMARK Flexibility Score: inf
ROOT
ATOM      1  C   UNL A   1      48.927  26.314  31.816  1.00  0.00     0.023 C 
ENDROOT
BRANCH   1   2
ATOM      2  C   UNL A   1      48.605  25.804  30.412  1.00  0.00     0.116 C 
BRANCH   2   3
ATOM      3  N   UNL A   1      49.218  26.649  29.404  1.00  0.00    -0.351 N 
ATOM      4  C   UNL A   1      48.685  27.689  28.699  1.00  0.00     0.278 C 
ATOM      5  O   UNL A   1      49.397  28.243  27.857  1.00  0.00    -0.268 OA
ATOM      6  H   UNL A   1      50.158  26.440  29.198  1.00  0.00     0.163 HD
BRANCH   4   7
ATOM      7  C   UNL A   1      47.259  28.212  28.994  1.00  0.00     0.274 C 
ATOM      8  N   UNL A   1      46.564  28.526  27.716  1.00  0.00    -0.317 N 
ATOM      9  C   UNL A   1      45.270  29.188  27.904  1.00  0.00     0.263 C 
ATOM     10  H   UNL A   1      47.170  29.201  27.247  1.00  0.00     0.349 HD
ATOM     11  C   UNL A   1      45.385  30.419  28.800  1.00  0.00     0.062 C 
ATOM     12  C   UNL A   1      47.298  29.370  30.004  1.00  0.00     0.076 C 
ATOM     13  C   UNL A   1      45.939  30.034  30.165  1.00  0.00     0.012 C 
BRANCH   8  14
ATOM     14  C   UNL A   1      46.443  27.344  26.819  1.00  0.00     0.364 C 
BRANCH  14  15
ATOM     15  C   UNL A   1      46.910  27.532  25.410  1.00  0.00     0.282 A 
ATOM     16  C   UNL A   1      47.928  27.685  23.590  1.00  0.00     0.202 A 
ATOM     17  N   UNL A   1      46.792  28.356  23.360  1.00  0.00    -0.057 NA
ATOM     18  N   UNL A   1      48.045  27.168  24.858  1.00  0.00    -0.186 NA
ATOM     19  O   UNL A   1      46.092  28.216  24.558  1.00  0.00    -0.333 OA
BRANCH  16  20
ATOM     20  C   UNL A   1      48.922  27.423  22.574  1.00  0.00     0.027 A 
ATOM     21  C   UNL A   1      50.919  26.889  20.691  1.00  0.00     0.160 A 
ATOM     22  C   UNL A   1      49.580  27.019  20.288  1.00  0.00     0.051 A 
ATOM     23  C   UNL A   1      51.271  27.062  22.034  1.00  0.00     0.161 A 
ATOM     24  C   UNL A   1      48.578  27.268  21.230  1.00  0.00     0.016 A 
ATOM     25  C   UNL A   1      50.263  27.334  22.962  1.00  0.00     0.062 A 
BRANCH  21  26
ATOM     26  O   UNL A   1      51.868  26.704  19.721  1.00  0.00    -0.493 OA
ATOM     27  C   UNL A   1      51.937  27.813  18.825  1.00  0.00     0.278 C 
ENDBRANCH  21  26
BRANCH  23  28
ATOM     28  O   UNL A   1      52.513  27.040  22.604  1.00  0.00    -0.493 OA
ATOM     29  C   UNL A   1      52.864  28.101  23.475  1.00  0.00     0.278 C 
ENDBRANCH  23  28
ENDBRANCH  16  20
ENDBRANCH  14  15
ENDBRANCH   8  14
ENDBRANCH   4   7
ENDBRANCH   2   3
ENDBRANCH   1   2
BRANCH   1  30
ATOM     30  C   UNL A   1      49.366  25.223  32.792  1.00  0.00     0.023 C 
BRANCH  30  31
ATOM     31  C   UNL A   1      48.269  24.730  33.726  1.00  0.00     0.116 C 
BRANCH  31  32
ATOM     32  N   UNL A   1      48.452  25.187  35.093  1.00  0.00    -0.352 N 
ATOM     33  C   UNL A   1      47.767  26.169  35.770  1.00  0.00     0.251 C 
ATOM     34  H   UNL A   1      49.161  24.733  35.603  1.00  0.00     0.163 HD
ATOM     35  O   UNL A   1      48.161  26.548  36.863  1.00  0.00    -0.269 OA
BRANCH  33  36
ATOM     36  C   UNL A   1      46.574  26.778  35.140  1.00  0.00     0.039 A 
ATOM     37  C   UNL A   1      46.726  27.947  34.391  1.00  0.00     0.014 A 
ATOM     38  C   UNL A   1      45.318  26.180  35.268  1.00  0.00     0.014 A 
ATOM     39  C   UNL A   1      45.623  28.485  33.726  1.00  0.00     0.010 A 
ATOM     40  C   UNL A   1      44.242  26.668  34.535  1.00  0.00     0.010 A 
ATOM     41  C   UNL A   1      44.379  27.834  33.766  1.00  0.00    -0.014 A 
BRANCH  41  42
ATOM     42  C   UNL A   1      43.200  28.377  33.042  1.00  0.00     0.031 A 
ATOM     43  C   UNL A   1      42.956  27.982  31.610  1.00  0.00     0.074 A 
ATOM     44  C   UNL A   1      42.384  29.259  33.652  1.00  0.00     0.049 A 
ATOM     45  N   UNL A   1      42.028  28.392  30.783  1.00  0.00    -0.248 NA
ATOM     46  C   UNL A   1      43.902  27.022  31.020  1.00  0.00     0.031 C 
ATOM     47  C   UNL A   1      42.541  29.747  35.025  1.00  0.00     0.029 A 
ATOM     48  N   UNL A   1      41.261  29.905  33.199  1.00  0.00    -0.354 N 
ATOM     49  C   UNL A   1      42.287  27.751  29.576  1.00  0.00     0.074 A 
ATOM     50  C   UNL A   1      43.500  26.985  29.760  1.00  0.00     0.031 C 
ATOM     51  C   UNL A   1      41.534  30.589  35.309  1.00  0.00     0.029 A 
ATOM     52  C   UNL A   1      40.689  30.741  34.130  1.00  0.00     0.049 A 
ATOM     53  H   UNL A   1      40.899  29.781  32.292  1.00  0.00     0.167 HD
ATOM     54  C   UNL A   1      41.563  27.775  28.430  1.00  0.00     0.034 A 
ATOM     55  C   UNL A   1      39.611  31.546  34.040  1.00  0.00     0.034 A 
ATOM     56  C   UNL A   1      40.348  28.537  28.270  1.00  0.00     0.049 A 
ATOM     57  C   UNL A   1      38.836  31.579  32.744  1.00  0.00     0.074 A 
ATOM     58  C   UNL A   1      39.511  28.601  27.169  1.00  0.00     0.029 A 
ATOM     59  N   UNL A   1      39.799  29.373  29.234  1.00  0.00    -0.354 N 
ATOM     60  N   UNL A   1      39.067  30.931  31.626  1.00  0.00    -0.248 NA
ATOM     61  C   UNL A   1      37.649  32.442  32.706  1.00  0.00     0.031 C 
ATOM     62  C   UNL A   1      38.499  29.528  27.441  1.00  0.00     0.029 A 
ATOM     63  C   UNL A   1      38.651  29.977  28.743  1.00  0.00     0.049 A 
ATOM     64  H   UNL A   1      40.169  29.514  30.135  1.00  0.00     0.167 HD
ATOM     65  C   UNL A   1      38.029  31.277  30.765  1.00  0.00     0.074 A 
ATOM     66  C   UNL A   1      37.167  32.180  31.500  1.00  0.00     0.031 C 
ATOM     67  C   UNL A   1      37.802  30.880  29.486  1.00  0.00     0.034 A 
BRANCH  54  68
ATOM     68  C   UNL A   1      42.086  26.974  27.261  1.00  0.00     0.023 A 
ATOM     69  C   UNL A   1      42.057  25.568  27.256  1.00  0.00     0.031 A 
ATOM     70  C   UNL A   1      42.651  27.621  26.147  1.00  0.00     0.131 A 
ATOM     71  C   UNL A   1      42.656  24.856  26.205  1.00  0.00     0.055 A 
ATOM     72  C   UNL A   1      43.164  26.908  25.061  1.00  0.00     0.041 A 
ATOM     73  F   UNL A   1      42.729  28.960  26.102  1.00  0.00    -0.206 F 
ATOM     74  C   UNL A   1      43.184  25.517  25.094  1.00  0.00     0.022 A 
BRANCH  71  75
ATOM     75  S   UNL A   1      42.878  23.066  26.388  1.00  0.00     0.124 S 
ATOM     76  O   UNL A   1      44.249  22.988  26.887  1.00  0.00    -0.237 OA
ATOM     77  O   UNL A   1      41.830  22.714  27.340  1.00  0.00    -0.237 OA
ATOM     78  O   UNL A   1      42.687  22.556  25.031  1.00  0.00    -0.744 OA
ENDBRANCH  71  75
ENDBRANCH  54  68
BRANCH  55  79
ATOM     79  C   UNL A   1      39.194  32.390  35.197  1.00  0.00     0.023 A 
ATOM     80  C   UNL A   1      39.666  33.704  35.342  1.00  0.00     0.031 A 
ATOM     81  C   UNL A   1      38.354  31.879  36.203  1.00  0.00     0.131 A 
ATOM     82  C   UNL A   1      39.341  34.442  36.492  1.00  0.00     0.055 A 
ATOM     83  C   UNL A   1      37.985  32.637  37.315  1.00  0.00     0.041 A 
ATOM     84  F   UNL A   1      37.871  30.629  36.113  1.00  0.00    -0.206 F 
ATOM     85  C   UNL A   1      38.493  33.923  37.471  1.00  0.00     0.022 A 
BRANCH  82  86
ATOM     86  S   UNL A   1      40.128  36.059  36.736  1.00  0.00     0.124 S 
ATOM     87  O   UNL A   1      39.738  36.765  35.521  1.00  0.00    -0.237 OA
ATOM     88  O   UNL A   1      39.504  36.515  37.973  1.00  0.00    -0.237 OA
ATOM     89  O   UNL A   1      41.549  35.733  36.840  1.00  0.00    -0.744 OA
ENDBRANCH  82  86
ENDBRANCH  55  79
BRANCH  67  90
ATOM     90  C   UNL A   1      36.538  31.374  28.824  1.00  0.00     0.023 A 
ATOM     91  C   UNL A   1      35.510  30.498  28.429  1.00  0.00     0.031 A 
ATOM     92  C   UNL A   1      36.366  32.748  28.574  1.00  0.00     0.131 A 
ATOM     93  C   UNL A   1      34.388  30.999  27.752  1.00  0.00     0.055 A 
ATOM     94  C   UNL A   1      35.216  33.247  27.962  1.00  0.00     0.041 A 
ATOM     95  F   UNL A   1      37.315  33.630  28.925  1.00  0.00    -0.206 F 
ATOM     96  C   UNL A   1      34.225  32.369  27.533  1.00  0.00     0.022 A 
BRANCH  93  97
ATOM     97  S   UNL A   1      33.191  29.823  27.062  1.00  0.00     0.124 S 
ATOM     98  O   UNL A   1      33.482  29.896  25.634  1.00  0.00    -0.237 OA
ATOM     99  O   UNL A   1      33.561  28.577  27.724  1.00  0.00    -0.237 OA
ATOM    100  O   UNL A   1      31.898  30.376  27.460  1.00  0.00    -0.744 OA
ENDBRANCH  93  97
ENDBRANCH  67  90
ENDBRANCH  41  42
ENDBRANCH  33  36
ENDBRANCH  31  32
ENDBRANCH  30  31
ENDBRANCH   1  30
TORSDOF 19
ENDMDL
