MODEL 1
REMARK VINA RESULT:     -12.4      0.000      0.000
REMARK SMILES Nc1c(N2CCC(C(=O)NCCCCNC(=O)c3ccc(-c4c5nc(c(-c6cc(S(=O)(=O)[O-])ccc6F)c6ccc([nH]6)c(-c6cc(S(=O)(=O)[O-])ccc6F)c6nc(c(-c7cc(S(=O)(=O)[O-])ccc7F)c7ccc4[nH]7)C=C6)C=C5)cc3)CC2)ncnc1N1CCN(c2ccccc2)CC1
REMARK SMILES IDX 12 1 11 2 10 3 8 4 9 5 7 7 4 8 5 9 82 10 6 11 81 12 3 13
REMARK SMILES IDX 2 14 86 15 83 16 85 17 84 18 1 19 87 22 88 23 98 24 89 25
REMARK SMILES IDX 97 26 90 27 91 28 92 29 96 30 93 31 95 32 94 33 13 34 14 35
REMARK SMILES IDX 15 36 16 37 17 39 18 40 19 41 80 42 20 43 79 44 21 45 22 46
REMARK SMILES IDX 23 47 73 48 24 49 78 50 72 51 74 52 25 53 77 54 71 55 70 56
REMARK SMILES IDX 26 58 58 59 38 60 57 61 39 62 42 63 56 64 75 65 40 66 41 67
REMARK SMILES IDX 55 69 76 70 43 71 27 72 28 73 36 74 29 75 35 76 37 77 34 78
REMARK SMILES IDX 30 79 31 80 32 81 33 82 59 83 60 84 68 85 61 86 67 87 69 88
REMARK SMILES IDX 66 89 62 90 63 91 64 92 65 93 44 94 45 95 53 96 46 97 52 98
REMARK SMILES IDX 54 99 51 100 47 101 48 102 49 103 50 104
REMARK H PARENT 10 6 1 20 1 21 15 38 74 57 42 68
REMARK Flexibility Score: inf
ROOT
ATOM      1  C   UNL A   1      36.771  20.545  25.511  1.00  0.00     0.023 C 
ENDROOT
BRANCH   1   2
ATOM      2  C   UNL A   1      35.615  20.359  24.531  1.00  0.00     0.116 C 
BRANCH   2   3
ATOM      3  N   UNL A   1      34.875  19.132  24.789  1.00  0.00    -0.356 N 
ATOM      4  C   UNL A   1      33.564  18.936  25.099  1.00  0.00     0.223 C 
ATOM      5  O   UNL A   1      33.171  17.781  25.277  1.00  0.00    -0.275 OA
ATOM      6  H   UNL A   1      35.411  18.310  24.730  1.00  0.00     0.163 HD
BRANCH   4   7
ATOM      7  C   UNL A   1      32.588  20.097  25.196  1.00  0.00     0.082 C 
ATOM      8  N   UNL A   1      32.295  22.901  25.185  1.00  0.00    -0.355 N 
ATOM      9  C   UNL A   1      32.129  22.271  26.474  1.00  0.00     0.119 C 
ATOM     10  C   UNL A   1      31.850  22.207  23.994  1.00  0.00     0.119 C 
ATOM     11  C   UNL A   1      32.807  20.912  26.482  1.00  0.00     0.035 C 
ATOM     12  C   UNL A   1      32.581  20.884  23.877  1.00  0.00     0.035 C 
BRANCH   8  13
ATOM     13  C   UNL A   1      32.841  24.169  25.105  1.00  0.00     0.157 A 
ATOM     14  C   UNL A   1      32.096  25.218  24.558  1.00  0.00     0.118 A 
ATOM     15  C   UNL A   1      32.754  26.449  24.416  1.00  0.00     0.157 A 
ATOM     16  N   UNL A   1      34.113  24.337  25.506  1.00  0.00    -0.217 NA
ATOM     17  N   UNL A   1      34.045  26.616  24.740  1.00  0.00    -0.217 NA
ATOM     18  C   UNL A   1      34.649  25.550  25.289  1.00  0.00     0.226 A 
BRANCH  14  19
ATOM     19  N   UNL A   1      30.727  25.088  24.251  1.00  0.00    -0.393 N 
ATOM     20  H   UNL A   1      30.449  24.628  23.427  1.00  0.00     0.156 HD
ATOM     21  H   UNL A   1      30.048  25.458  24.862  1.00  0.00     0.156 HD
ENDBRANCH  14  19
BRANCH  15  22
ATOM     22  N   UNL A   1      32.043  27.506  23.878  1.00  0.00    -0.351 N 
ATOM     23  C   UNL A   1      31.855  27.612  22.435  1.00  0.00     0.139 C 
ATOM     24  C   UNL A   1      32.033  28.780  24.605  1.00  0.00     0.139 C 
ATOM     25  C   UNL A   1      30.479  28.282  22.178  1.00  0.00     0.138 C 
ATOM     26  C   UNL A   1      30.680  29.483  24.369  1.00  0.00     0.138 C 
ATOM     27  N   UNL A   1      30.369  29.553  22.926  1.00  0.00    -0.368 N 
BRANCH  27  28
ATOM     28  C   UNL A   1      29.493  30.542  22.515  1.00  0.00     0.037 A 
ATOM     29  C   UNL A   1      28.862  30.530  21.266  1.00  0.00     0.026 A 
ATOM     30  C   UNL A   1      29.234  31.624  23.368  1.00  0.00     0.026 A 
ATOM     31  C   UNL A   1      28.005  31.568  20.882  1.00  0.00     0.002 A 
ATOM     32  C   UNL A   1      28.392  32.669  22.987  1.00  0.00     0.002 A 
ATOM     33  C   UNL A   1      27.776  32.640  21.740  1.00  0.00     0.000 A 
ENDBRANCH  27  28
ENDBRANCH  15  22
ENDBRANCH   8  13
ENDBRANCH   4   7
ENDBRANCH   2   3
ENDBRANCH   1   2
BRANCH   1  34
ATOM     34  C   UNL A   1      38.139  20.148  24.963  1.00  0.00     0.023 C 
BRANCH  34  35
ATOM     35  C   UNL A   1      39.310  20.407  25.903  1.00  0.00     0.116 C 
BRANCH  35  36
ATOM     36  N   UNL A   1      40.236  19.286  25.978  1.00  0.00    -0.352 N 
ATOM     37  C   UNL A   1      41.599  19.306  26.141  1.00  0.00     0.251 C 
ATOM     38  H   UNL A   1      39.829  18.393  25.901  1.00  0.00     0.163 HD
ATOM     39  O   UNL A   1      42.245  18.267  26.050  1.00  0.00    -0.269 OA
BRANCH  37  40
ATOM     40  C   UNL A   1      42.277  20.594  26.391  1.00  0.00     0.039 A 
ATOM     41  C   UNL A   1      42.645  21.385  25.301  1.00  0.00     0.014 A 
ATOM     42  C   UNL A   1      42.507  21.034  27.698  1.00  0.00     0.014 A 
ATOM     43  C   UNL A   1      43.182  22.654  25.524  1.00  0.00     0.010 A 
ATOM     44  C   UNL A   1      42.981  22.324  27.917  1.00  0.00     0.010 A 
ATOM     45  C   UNL A   1      43.319  23.147  26.832  1.00  0.00    -0.014 A 
BRANCH  45  46
ATOM     46  C   UNL A   1      43.829  24.517  27.085  1.00  0.00     0.031 A 
ATOM     47  C   UNL A   1      42.896  25.578  27.596  1.00  0.00     0.074 A 
ATOM     48  C   UNL A   1      45.116  24.813  26.817  1.00  0.00     0.049 A 
ATOM     49  N   UNL A   1      43.126  26.848  27.806  1.00  0.00    -0.248 NA
ATOM     50  C   UNL A   1      41.516  25.159  27.887  1.00  0.00     0.031 C 
ATOM     51  C   UNL A   1      46.111  23.871  26.298  1.00  0.00     0.029 A 
ATOM     52  N   UNL A   1      45.810  25.989  26.946  1.00  0.00    -0.354 N 
ATOM     53  C   UNL A   1      41.922  27.381  28.248  1.00  0.00     0.074 A 
ATOM     54  C   UNL A   1      40.950  26.309  28.223  1.00  0.00     0.031 C 
ATOM     55  C   UNL A   1      47.294  24.497  26.190  1.00  0.00     0.029 A 
ATOM     56  C   UNL A   1      47.136  25.892  26.589  1.00  0.00     0.049 A 
ATOM     57  H   UNL A   1      45.398  26.824  27.265  1.00  0.00     0.167 HD
ATOM     58  C   UNL A   1      41.656  28.644  28.663  1.00  0.00     0.034 A 
ATOM     59  C   UNL A   1      48.109  26.823  26.583  1.00  0.00     0.034 A 
ATOM     60  C   UNL A   1      42.635  29.699  28.705  1.00  0.00     0.049 A 
ATOM     61  C   UNL A   1      47.781  28.227  27.014  1.00  0.00     0.074 A 
ATOM     62  C   UNL A   1      42.476  31.005  29.135  1.00  0.00     0.029 A 
ATOM     63  N   UNL A   1      43.958  29.569  28.306  1.00  0.00    -0.354 N 
ATOM     64  N   UNL A   1      46.634  28.716  27.421  1.00  0.00    -0.248 NA
ATOM     65  C   UNL A   1      48.878  29.205  26.981  1.00  0.00     0.031 C 
ATOM     66  C   UNL A   1      43.690  31.676  28.953  1.00  0.00     0.029 A 
ATOM     67  C   UNL A   1      44.621  30.774  28.462  1.00  0.00     0.049 A 
ATOM     68  H   UNL A   1      44.365  28.741  27.961  1.00  0.00     0.167 HD
ATOM     69  C   UNL A   1      46.875  30.056  27.710  1.00  0.00     0.074 A 
ATOM     70  C   UNL A   1      48.276  30.296  27.436  1.00  0.00     0.031 C 
ATOM     71  C   UNL A   1      46.014  31.000  28.166  1.00  0.00     0.034 A 
BRANCH  58  72
ATOM     72  C   UNL A   1      40.246  28.947  29.094  1.00  0.00     0.023 A 
ATOM     73  C   UNL A   1      39.879  28.933  30.450  1.00  0.00     0.031 A 
ATOM     74  C   UNL A   1      39.258  29.249  28.142  1.00  0.00     0.131 A 
ATOM     75  C   UNL A   1      38.545  29.163  30.815  1.00  0.00     0.055 A 
ATOM     76  C   UNL A   1      37.946  29.541  28.515  1.00  0.00     0.041 A 
ATOM     77  F   UNL A   1      39.553  29.255  26.832  1.00  0.00    -0.206 F 
ATOM     78  C   UNL A   1      37.581  29.490  29.857  1.00  0.00     0.022 A 
BRANCH  75  79
ATOM     79  S   UNL A   1      38.066  28.943  32.549  1.00  0.00     0.124 S 
ATOM     80  O   UNL A   1      39.127  29.672  33.239  1.00  0.00    -0.237 OA
ATOM     81  O   UNL A   1      36.741  29.550  32.594  1.00  0.00    -0.237 OA
ATOM     82  O   UNL A   1      38.093  27.493  32.729  1.00  0.00    -0.744 OA
ENDBRANCH  75  79
ENDBRANCH  58  72
BRANCH  59  83
ATOM     83  C   UNL A   1      49.487  26.461  26.151  1.00  0.00     0.023 A 
ATOM     84  C   UNL A   1      49.988  26.895  24.915  1.00  0.00     0.031 A 
ATOM     85  C   UNL A   1      50.317  25.673  26.966  1.00  0.00     0.131 A 
ATOM     86  C   UNL A   1      51.278  26.517  24.514  1.00  0.00     0.055 A 
ATOM     87  C   UNL A   1      51.612  25.327  26.578  1.00  0.00     0.041 A 
ATOM     88  F   UNL A   1      49.884  25.242  28.161  1.00  0.00    -0.206 F 
ATOM     89  C   UNL A   1      52.098  25.744  25.342  1.00  0.00     0.022 A 
BRANCH  86  90
ATOM     90  S   UNL A   1      51.866  27.026  22.876  1.00  0.00     0.124 S 
ATOM     91  O   UNL A   1      52.415  28.348  23.156  1.00  0.00    -0.237 OA
ATOM     92  O   UNL A   1      52.836  25.982  22.560  1.00  0.00    -0.237 OA
ATOM     93  O   UNL A   1      50.654  27.012  22.060  1.00  0.00    -0.744 OA
ENDBRANCH  86  90
ENDBRANCH  59  83
BRANCH  71  94
ATOM     94  C   UNL A   1      46.571  32.373  28.421  1.00  0.00     0.023 A 
ATOM     95  C   UNL A   1      46.697  33.314  27.386  1.00  0.00     0.031 A 
ATOM     96  C   UNL A   1      46.942  32.755  29.722  1.00  0.00     0.131 A 
ATOM     97  C   UNL A   1      47.209  34.589  27.666  1.00  0.00     0.055 A 
ATOM     98  C   UNL A   1      47.410  34.038  30.002  1.00  0.00     0.041 A 
ATOM     99  F   UNL A   1      46.835  31.890  30.743  1.00  0.00    -0.206 F 
ATOM    100  C   UNL A   1      47.551  34.962  28.970  1.00  0.00     0.022 A 
BRANCH  97 101
ATOM    101  S   UNL A   1      47.446  35.755  26.298  1.00  0.00     0.124 S 
ATOM    102  O   UNL A   1      48.530  36.594  26.801  1.00  0.00    -0.237 OA
ATOM    103  O   UNL A   1      47.787  34.873  25.186  1.00  0.00    -0.237 OA
ATOM    104  O   UNL A   1      46.149  36.419  26.184  1.00  0.00    -0.744 OA
ENDBRANCH  97 101
ENDBRANCH  71  94
ENDBRANCH  45  46
ENDBRANCH  37  40
ENDBRANCH  35  36
ENDBRANCH  34  35
ENDBRANCH   1  34
TORSDOF 18
ENDMDL
MODEL 2
REMARK VINA RESULT:     -12.2      5.136      8.319
REMARK SMILES Nc1c(N2CCC(C(=O)NCCCCNC(=O)c3ccc(-c4c5nc(c(-c6cc(S(=O)(=O)[O-])ccc6F)c6ccc([nH]6)c(-c6cc(S(=O)(=O)[O-])ccc6F)c6nc(c(-c7cc(S(=O)(=O)[O-])ccc7F)c7ccc4[nH]7)C=C6)C=C5)cc3)CC2)ncnc1N1CCN(c2ccccc2)CC1
REMARK SMILES IDX 12 1 11 2 10 3 8 4 9 5 7 7 4 8 5 9 82 10 6 11 81 12 3 13
REMARK SMILES IDX 2 14 86 15 83 16 85 17 84 18 1 19 87 22 88 23 98 24 89 25
REMARK SMILES IDX 97 26 90 27 91 28 92 29 96 30 93 31 95 32 94 33 13 34 14 35
REMARK SMILES IDX 15 36 16 37 17 39 18 40 19 41 80 42 20 43 79 44 21 45 22 46
REMARK SMILES IDX 23 47 73 48 24 49 78 50 72 51 74 52 25 53 77 54 71 55 70 56
REMARK SMILES IDX 26 58 58 59 38 60 57 61 39 62 42 63 56 64 75 65 40 66 41 67
REMARK SMILES IDX 55 69 76 70 43 71 27 72 28 73 36 74 29 75 35 76 37 77 34 78
REMARK SMILES IDX 30 79 31 80 32 81 33 82 59 83 60 84 68 85 61 86 67 87 69 88
REMARK SMILES IDX 66 89 62 90 63 91 64 92 65 93 44 94 45 95 53 96 46 97 52 98
REMARK SMILES IDX 54 99 51 100 47 101 48 102 49 103 50 104
REMARK H PARENT 10 6 1 20 1 21 15 38 74 57 42 68
REMARK Flexibility Score: inf
ROOT
ATOM      1  C   UNL A   1      41.514  20.788  27.029  1.00  0.00     0.023 C 
ENDROOT
BRANCH   1   2
ATOM      2  C   UNL A   1      40.034  21.148  26.922  1.00  0.00     0.116 C 
BRANCH   2   3
ATOM      3  N   UNL A   1      39.319  20.248  26.028  1.00  0.00    -0.356 N 
ATOM      4  C   UNL A   1      38.157  20.420  25.339  1.00  0.00     0.223 C 
ATOM      5  O   UNL A   1      37.749  19.490  24.639  1.00  0.00    -0.275 OA
ATOM      6  H   UNL A   1      39.746  19.371  25.901  1.00  0.00     0.163 HD
BRANCH   4   7
ATOM      7  C   UNL A   1      37.387  21.729  25.396  1.00  0.00     0.082 C 
ATOM      8  N   UNL A   1      35.053  23.094  24.599  1.00  0.00    -0.355 N 
ATOM      9  C   UNL A   1      36.263  23.496  23.920  1.00  0.00     0.119 C 
ATOM     10  C   UNL A   1      35.119  22.700  25.992  1.00  0.00     0.119 C 
ATOM     11  C   UNL A   1      37.305  22.395  24.013  1.00  0.00     0.035 C 
ATOM     12  C   UNL A   1      36.059  21.520  26.139  1.00  0.00     0.035 C 
BRANCH   8  13
ATOM     13  C   UNL A   1      33.845  23.123  23.927  1.00  0.00     0.157 A 
ATOM     14  C   UNL A   1      33.110  24.311  23.860  1.00  0.00     0.118 A 
ATOM     15  C   UNL A   1      31.849  24.236  23.250  1.00  0.00     0.157 A 
ATOM     16  N   UNL A   1      33.382  21.974  23.406  1.00  0.00    -0.217 NA
ATOM     17  N   UNL A   1      31.338  23.083  22.793  1.00  0.00    -0.217 NA
ATOM     18  C   UNL A   1      32.147  22.016  22.878  1.00  0.00     0.226 A 
BRANCH  14  19
ATOM     19  N   UNL A   1      33.636  25.546  24.289  1.00  0.00    -0.393 N 
ATOM     20  H   UNL A   1      34.236  25.581  25.068  1.00  0.00     0.156 HD
ATOM     21  H   UNL A   1      33.403  26.374  23.809  1.00  0.00     0.156 HD
ENDBRANCH  14  19
BRANCH  15  22
ATOM     22  N   UNL A   1      31.099  25.396  23.169  1.00  0.00    -0.351 N 
ATOM     23  C   UNL A   1      29.746  25.440  23.714  1.00  0.00     0.139 C 
ATOM     24  C   UNL A   1      31.354  26.312  22.053  1.00  0.00     0.139 C 
ATOM     25  C   UNL A   1      29.481  26.880  24.227  1.00  0.00     0.138 C 
ATOM     26  C   UNL A   1      31.095  27.759  22.522  1.00  0.00     0.138 C 
ATOM     27  N   UNL A   1      29.771  27.873  23.171  1.00  0.00    -0.368 N 
BRANCH  27  28
ATOM     28  C   UNL A   1      29.186  29.126  23.198  1.00  0.00     0.037 A 
ATOM     29  C   UNL A   1      27.950  29.402  22.603  1.00  0.00     0.026 A 
ATOM     30  C   UNL A   1      29.859  30.183  23.827  1.00  0.00     0.026 A 
ATOM     31  C   UNL A   1      27.409  30.692  22.631  1.00  0.00     0.002 A 
ATOM     32  C   UNL A   1      29.333  31.474  23.847  1.00  0.00     0.002 A 
ATOM     33  C   UNL A   1      28.105  31.730  23.247  1.00  0.00     0.000 A 
ENDBRANCH  27  28
ENDBRANCH  15  22
ENDBRANCH   8  13
ENDBRANCH   4   7
ENDBRANCH   2   3
ENDBRANCH   1   2
BRANCH   1  34
ATOM     34  C   UNL A   1      42.379  21.306  25.883  1.00  0.00     0.023 C 
BRANCH  34  35
ATOM     35  C   UNL A   1      42.103  22.746  25.467  1.00  0.00     0.116 C 
BRANCH  35  36
ATOM     36  N   UNL A   1      43.238  23.372  24.805  1.00  0.00    -0.352 N 
ATOM     37  C   UNL A   1      43.861  24.558  25.105  1.00  0.00     0.251 C 
ATOM     38  H   UNL A   1      43.607  22.879  24.037  1.00  0.00     0.163 HD
ATOM     39  O   UNL A   1      44.725  25.006  24.357  1.00  0.00    -0.269 OA
BRANCH  37  40
ATOM     40  C   UNL A   1      43.455  25.301  26.315  1.00  0.00     0.039 A 
ATOM     41  C   UNL A   1      43.606  26.689  26.337  1.00  0.00     0.014 A 
ATOM     42  C   UNL A   1      42.888  24.631  27.403  1.00  0.00     0.014 A 
ATOM     43  C   UNL A   1      43.121  27.415  27.426  1.00  0.00     0.010 A 
ATOM     44  C   UNL A   1      42.347  25.362  28.457  1.00  0.00     0.010 A 
ATOM     45  C   UNL A   1      42.456  26.761  28.476  1.00  0.00    -0.014 A 
BRANCH  45  46
ATOM     46  C   UNL A   1      41.879  27.523  29.610  1.00  0.00     0.031 A 
ATOM     47  C   UNL A   1      40.586  28.268  29.429  1.00  0.00     0.074 A 
ATOM     48  C   UNL A   1      42.537  27.577  30.785  1.00  0.00     0.049 A 
ATOM     49  N   UNL A   1      39.960  29.051  30.268  1.00  0.00    -0.248 NA
ATOM     50  C   UNL A   1      39.923  28.130  28.123  1.00  0.00     0.031 C 
ATOM     51  C   UNL A   1      43.810  26.912  31.073  1.00  0.00     0.029 A 
ATOM     52  N   UNL A   1      42.226  28.217  31.957  1.00  0.00    -0.354 N 
ATOM     53  C   UNL A   1      38.834  29.504  29.592  1.00  0.00     0.074 A 
ATOM     54  C   UNL A   1      38.892  28.952  28.255  1.00  0.00     0.031 C 
ATOM     55  C   UNL A   1      44.150  27.149  32.351  1.00  0.00     0.029 A 
ATOM     56  C   UNL A   1      43.146  28.014  32.960  1.00  0.00     0.049 A 
ATOM     57  H   UNL A   1      41.419  28.770  32.070  1.00  0.00     0.167 HD
ATOM     58  C   UNL A   1      37.829  30.287  30.052  1.00  0.00     0.034 A 
ATOM     59  C   UNL A   1      43.176  28.477  34.225  1.00  0.00     0.034 A 
ATOM     60  C   UNL A   1      37.768  30.815  31.391  1.00  0.00     0.049 A 
ATOM     61  C   UNL A   1      42.066  29.375  34.702  1.00  0.00     0.074 A 
ATOM     62  C   UNL A   1      36.780  31.595  31.965  1.00  0.00     0.029 A 
ATOM     63  N   UNL A   1      38.734  30.613  32.366  1.00  0.00    -0.354 N 
ATOM     64  N   UNL A   1      41.012  29.801  34.046  1.00  0.00    -0.248 NA
ATOM     65  C   UNL A   1      42.151  29.858  36.088  1.00  0.00     0.031 C 
ATOM     66  C   UNL A   1      37.170  31.902  33.274  1.00  0.00     0.029 A 
ATOM     67  C   UNL A   1      38.375  31.267  33.532  1.00  0.00     0.049 A 
ATOM     68  H   UNL A   1      39.555  30.082  32.247  1.00  0.00     0.167 HD
ATOM     69  C   UNL A   1      40.300  30.588  34.945  1.00  0.00     0.074 A 
ATOM     70  C   UNL A   1      41.039  30.573  36.190  1.00  0.00     0.031 C 
ATOM     71  C   UNL A   1      39.135  31.257  34.758  1.00  0.00     0.034 A 
BRANCH  58  72
ATOM     72  C   UNL A   1      36.721  30.625  29.091  1.00  0.00     0.023 A 
ATOM     73  C   UNL A   1      35.837  29.638  28.622  1.00  0.00     0.031 A 
ATOM     74  C   UNL A   1      36.547  31.943  28.635  1.00  0.00     0.131 A 
ATOM     75  C   UNL A   1      34.852  29.974  27.682  1.00  0.00     0.055 A 
ATOM     76  C   UNL A   1      35.524  32.284  27.751  1.00  0.00     0.041 A 
ATOM     77  F   UNL A   1      37.377  32.918  29.038  1.00  0.00    -0.206 F 
ATOM     78  C   UNL A   1      34.675  31.295  27.261  1.00  0.00     0.022 A 
BRANCH  75  79
ATOM     79  S   UNL A   1      33.860  28.646  26.949  1.00  0.00     0.124 S 
ATOM     80  O   UNL A   1      33.298  29.314  25.777  1.00  0.00    -0.237 OA
ATOM     81  O   UNL A   1      34.856  27.615  26.680  1.00  0.00    -0.237 OA
ATOM     82  O   UNL A   1      32.896  28.321  27.997  1.00  0.00    -0.744 OA
ENDBRANCH  75  79
ENDBRANCH  58  72
BRANCH  59  83
ATOM     83  C   UNL A   1      44.296  28.104  35.131  1.00  0.00     0.023 A 
ATOM     84  C   UNL A   1      44.105  27.170  36.160  1.00  0.00     0.031 A 
ATOM     85  C   UNL A   1      45.569  28.680  34.985  1.00  0.00     0.131 A 
ATOM     86  C   UNL A   1      45.166  26.856  37.023  1.00  0.00     0.055 A 
ATOM     87  C   UNL A   1      46.631  28.339  35.824  1.00  0.00     0.041 A 
ATOM     88  F   UNL A   1      45.802  29.572  34.008  1.00  0.00    -0.206 F 
ATOM     89  C   UNL A   1      46.431  27.427  36.855  1.00  0.00     0.022 A 
BRANCH  86  90
ATOM     90  S   UNL A   1      44.864  25.705  38.392  1.00  0.00     0.124 S 
ATOM     91  O   UNL A   1      44.636  24.453  37.682  1.00  0.00    -0.237 OA
ATOM     92  O   UNL A   1      46.109  25.798  39.149  1.00  0.00    -0.237 OA
ATOM     93  O   UNL A   1      43.693  26.270  39.059  1.00  0.00    -0.744 OA
ENDBRANCH  86  90
ENDBRANCH  59  83
BRANCH  71  94
ATOM     94  C   UNL A   1      38.577  32.008  35.934  1.00  0.00     0.023 A 
ATOM     95  C   UNL A   1      37.960  31.340  37.004  1.00  0.00     0.031 A 
ATOM     96  C   UNL A   1      38.699  33.407  36.001  1.00  0.00     0.131 A 
ATOM     97  C   UNL A   1      37.464  32.076  38.090  1.00  0.00     0.055 A 
ATOM     98  C   UNL A   1      38.242  34.130  37.102  1.00  0.00     0.041 A 
ATOM     99  F   UNL A   1      39.285  34.089  35.003  1.00  0.00    -0.206 F 
ATOM    100  C   UNL A   1      37.615  33.465  38.153  1.00  0.00     0.022 A 
BRANCH  97 101
ATOM    101  S   UNL A   1      36.592  31.198  39.416  1.00  0.00     0.124 S 
ATOM    102  O   UNL A   1      36.122  30.001  38.726  1.00  0.00    -0.237 OA
ATOM    103  O   UNL A   1      37.646  30.991  40.405  1.00  0.00    -0.237 OA
ATOM    104  O   UNL A   1      35.545  32.135  39.817  1.00  0.00    -0.744 OA
ENDBRANCH  97 101
ENDBRANCH  71  94
ENDBRANCH  45  46
ENDBRANCH  37  40
ENDBRANCH  35  36
ENDBRANCH  34  35
ENDBRANCH   1  34
TORSDOF 18
ENDMDL
MODEL 3
REMARK VINA RESULT:     -12.2      5.841     11.506
REMARK SMILES Nc1c(N2CCC(C(=O)NCCCCNC(=O)c3ccc(-c4c5nc(c(-c6cc(S(=O)(=O)[O-])ccc6F)c6ccc([nH]6)c(-c6cc(S(=O)(=O)[O-])ccc6F)c6nc(c(-c7cc(S(=O)(=O)[O-])ccc7F)c7ccc4[nH]7)C=C6)C=C5)cc3)CC2)ncnc1N1CCN(c2ccccc2)CC1
REMARK SMILES IDX 12 1 11 2 10 3 8 4 9 5 7 7 4 8 5 9 82 10 6 11 81 12 3 13
REMARK SMILES IDX 2 14 86 15 83 16 85 17 84 18 1 19 87 22 88 23 98 24 89 25
REMARK SMILES IDX 97 26 90 27 91 28 92 29 96 30 93 31 95 32 94 33 13 34 14 35
REMARK SMILES IDX 15 36 16 37 17 39 18 40 19 41 80 42 20 43 79 44 21 45 22 46
REMARK SMILES IDX 23 47 73 48 24 49 78 50 72 51 74 52 25 53 77 54 71 55 70 56
REMARK SMILES IDX 26 58 58 59 38 60 57 61 39 62 42 63 56 64 75 65 40 66 41 67
REMARK SMILES IDX 55 69 76 70 43 71 27 72 28 73 36 74 29 75 35 76 37 77 34 78
REMARK SMILES IDX 30 79 31 80 32 81 33 82 59 83 60 84 68 85 61 86 67 87 69 88
REMARK SMILES IDX 66 89 62 90 63 91 64 92 65 93 44 94 45 95 53 96 46 97 52 98
REMARK SMILES IDX 54 99 51 100 47 101 48 102 49 103 50 104
REMARK H PARENT 10 6 1 20 1 21 15 38 74 57 42 68
REMARK Flexibility Score: inf
ROOT
ATOM      1  C   UNL A   1      34.716  34.747  28.803  1.00  0.00     0.023 C 
ENDROOT
BRANCH   1   2
ATOM      2  C   UNL A   1      33.758  34.659  29.989  1.00  0.00     0.116 C 
BRANCH   2   3
ATOM      3  N   UNL A   1      34.263  35.378  31.150  1.00  0.00    -0.356 N 
ATOM      4  C   UNL A   1      35.133  34.991  32.124  1.00  0.00     0.223 C 
ATOM      5  O   UNL A   1      35.405  35.795  33.018  1.00  0.00    -0.275 OA
ATOM      6  H   UNL A   1      33.920  36.295  31.246  1.00  0.00     0.163 HD
BRANCH   4   7
ATOM      7  C   UNL A   1      35.784  33.618  32.107  1.00  0.00     0.082 C 
ATOM      8  N   UNL A   1      37.921  32.041  33.053  1.00  0.00    -0.355 N 
ATOM      9  C   UNL A   1      38.007  32.423  31.663  1.00  0.00     0.119 C 
ATOM     10  C   UNL A   1      36.621  31.773  33.636  1.00  0.00     0.119 C 
ATOM     11  C   UNL A   1      37.151  33.650  31.404  1.00  0.00     0.035 C 
ATOM     12  C   UNL A   1      35.749  33.007  33.516  1.00  0.00     0.035 C 
BRANCH   8  13
ATOM     13  C   UNL A   1      39.075  31.902  33.801  1.00  0.00     0.157 A 
ATOM     14  C   UNL A   1      39.819  30.720  33.727  1.00  0.00     0.118 A 
ATOM     15  C   UNL A   1      40.919  30.613  34.591  1.00  0.00     0.157 A 
ATOM     16  N   UNL A   1      39.414  32.901  34.635  1.00  0.00    -0.217 NA
ATOM     17  N   UNL A   1      41.228  31.567  35.482  1.00  0.00    -0.217 NA
ATOM     18  C   UNL A   1      40.467  32.671  35.439  1.00  0.00     0.226 A 
BRANCH  14  19
ATOM     19  N   UNL A   1      39.548  29.720  32.771  1.00  0.00    -0.393 N 
ATOM     20  H   UNL A   1      38.904  29.892  32.048  1.00  0.00     0.156 HD
ATOM     21  H   UNL A   1      40.004  28.849  32.827  1.00  0.00     0.156 HD
ENDBRANCH  14  19
BRANCH  15  22
ATOM     22  N   UNL A   1      41.674  29.456  34.539  1.00  0.00    -0.351 N 
ATOM     23  C   UNL A   1      41.549  28.446  35.585  1.00  0.00     0.139 C 
ATOM     24  C   UNL A   1      42.977  29.504  33.869  1.00  0.00     0.139 C 
ATOM     25  C   UNL A   1      41.791  27.054  34.941  1.00  0.00     0.138 C 
ATOM     26  C   UNL A   1      43.259  28.134  33.219  1.00  0.00     0.138 C 
ATOM     27  N   UNL A   1      43.067  27.039  34.194  1.00  0.00    -0.368 N 
BRANCH  27  28
ATOM     28  C   UNL A   1      43.728  25.850  33.949  1.00  0.00     0.037 A 
ATOM     29  C   UNL A   1      43.758  24.791  34.863  1.00  0.00     0.026 A 
ATOM     30  C   UNL A   1      44.425  25.690  32.742  1.00  0.00     0.026 A 
ATOM     31  C   UNL A   1      44.464  23.616  34.583  1.00  0.00     0.002 A 
ATOM     32  C   UNL A   1      45.142  24.528  32.461  1.00  0.00     0.002 A 
ATOM     33  C   UNL A   1      45.162  23.488  33.385  1.00  0.00     0.000 A 
ENDBRANCH  27  28
ENDBRANCH  15  22
ENDBRANCH   8  13
ENDBRANCH   4   7
ENDBRANCH   2   3
ENDBRANCH   1   2
BRANCH   1  34
ATOM     34  C   UNL A   1      35.062  33.404  28.165  1.00  0.00     0.023 C 
BRANCH  34  35
ATOM     35  C   UNL A   1      34.858  32.191  29.064  1.00  0.00     0.116 C 
BRANCH  35  36
ATOM     36  N   UNL A   1      34.323  31.040  28.352  1.00  0.00    -0.352 N 
ATOM     37  C   UNL A   1      34.988  29.935  27.881  1.00  0.00     0.251 C 
ATOM     38  H   UNL A   1      33.353  31.057  28.185  1.00  0.00     0.163 HD
ATOM     39  O   UNL A   1      34.401  29.115  27.181  1.00  0.00    -0.269 OA
BRANCH  37  40
ATOM     40  C   UNL A   1      36.421  29.767  28.197  1.00  0.00     0.039 A 
ATOM     41  C   UNL A   1      36.782  29.298  29.461  1.00  0.00     0.014 A 
ATOM     42  C   UNL A   1      37.397  30.030  27.231  1.00  0.00     0.014 A 
ATOM     43  C   UNL A   1      38.124  29.025  29.735  1.00  0.00     0.010 A 
ATOM     44  C   UNL A   1      38.724  29.695  27.484  1.00  0.00     0.010 A 
ATOM     45  C   UNL A   1      39.099  29.186  28.737  1.00  0.00    -0.014 A 
BRANCH  45  46
ATOM     46  C   UNL A   1      40.519  28.841  28.991  1.00  0.00     0.031 A 
ATOM     47  C   UNL A   1      41.432  29.853  29.624  1.00  0.00     0.074 A 
ATOM     48  C   UNL A   1      40.993  27.636  28.617  1.00  0.00     0.049 A 
ATOM     49  N   UNL A   1      42.716  29.774  29.858  1.00  0.00    -0.248 NA
ATOM     50  C   UNL A   1      40.823  31.131  30.025  1.00  0.00     0.031 C 
ATOM     51  C   UNL A   1      40.206  26.580  27.975  1.00  0.00     0.029 A 
ATOM     52  N   UNL A   1      42.248  27.095  28.724  1.00  0.00    -0.354 N 
ATOM     53  C   UNL A   1      43.070  30.991  30.428  1.00  0.00     0.074 A 
ATOM     54  C   UNL A   1      41.877  31.810  30.453  1.00  0.00     0.031 C 
ATOM     55  C   UNL A   1      40.989  25.506  27.782  1.00  0.00     0.029 A 
ATOM     56  C   UNL A   1      42.340  25.809  28.244  1.00  0.00     0.049 A 
ATOM     57  H   UNL A   1      43.013  27.582  29.109  1.00  0.00     0.167 HD
ATOM     58  C   UNL A   1      44.275  31.380  30.910  1.00  0.00     0.034 A 
ATOM     59  C   UNL A   1      43.394  24.972  28.181  1.00  0.00     0.034 A 
ATOM     60  C   UNL A   1      45.453  30.550  30.900  1.00  0.00     0.049 A 
ATOM     61  C   UNL A   1      44.731  25.441  28.691  1.00  0.00     0.074 A 
ATOM     62  C   UNL A   1      46.714  30.840  31.389  1.00  0.00     0.029 A 
ATOM     63  N   UNL A   1      45.511  29.267  30.376  1.00  0.00    -0.354 N 
ATOM     64  N   UNL A   1      45.050  26.598  29.220  1.00  0.00    -0.248 NA
ATOM     65  C   UNL A   1      45.849  24.492  28.593  1.00  0.00     0.031 C 
ATOM     66  C   UNL A   1      47.548  29.748  31.121  1.00  0.00     0.029 A 
ATOM     67  C   UNL A   1      46.792  28.757  30.515  1.00  0.00     0.049 A 
ATOM     68  H   UNL A   1      44.755  28.788  29.966  1.00  0.00     0.167 HD
ATOM     69  C   UNL A   1      46.403  26.510  29.533  1.00  0.00     0.074 A 
ATOM     70  C   UNL A   1      46.837  25.186  29.140  1.00  0.00     0.031 C 
ATOM     71  C   UNL A   1      47.211  27.441  30.100  1.00  0.00     0.034 A 
BRANCH  58  72
ATOM     72  C   UNL A   1      44.374  32.770  31.480  1.00  0.00     0.023 A 
ATOM     73  C   UNL A   1      44.424  32.988  32.867  1.00  0.00     0.031 A 
ATOM     74  C   UNL A   1      44.416  33.888  30.630  1.00  0.00     0.131 A 
ATOM     75  C   UNL A   1      44.458  34.298  33.367  1.00  0.00     0.055 A 
ATOM     76  C   UNL A   1      44.516  35.187  31.131  1.00  0.00     0.041 A 
ATOM     77  F   UNL A   1      44.352  33.735  29.297  1.00  0.00    -0.206 F 
ATOM     78  C   UNL A   1      44.528  35.397  32.507  1.00  0.00     0.022 A 
BRANCH  75  79
ATOM     79  S   UNL A   1      44.321  34.550  35.156  1.00  0.00     0.124 S 
ATOM     80  O   UNL A   1      44.922  33.322  35.671  1.00  0.00    -0.237 OA
ATOM     81  O   UNL A   1      45.088  35.772  35.366  1.00  0.00    -0.237 OA
ATOM     82  O   UNL A   1      42.881  34.673  35.375  1.00  0.00    -0.744 OA
ENDBRANCH  75  79
ENDBRANCH  58  72
BRANCH  59  83
ATOM     83  C   UNL A   1      43.232  23.607  27.612  1.00  0.00     0.023 A 
ATOM     84  C   UNL A   1      43.907  23.233  26.440  1.00  0.00     0.031 A 
ATOM     85  C   UNL A   1      42.397  22.660  28.229  1.00  0.00     0.131 A 
ATOM     86  C   UNL A   1      43.716  21.952  25.904  1.00  0.00     0.055 A 
ATOM     87  C   UNL A   1      42.237  21.374  27.710  1.00  0.00     0.041 A 
ATOM     88  F   UNL A   1      41.739  22.968  29.357  1.00  0.00    -0.206 F 
ATOM     89  C   UNL A   1      42.894  21.015  26.537  1.00  0.00     0.022 A 
BRANCH  86  90
ATOM     90  S   UNL A   1      44.540  21.528  24.345  1.00  0.00     0.124 S 
ATOM     91  O   UNL A   1      44.197  20.118  24.202  1.00  0.00    -0.237 OA
ATOM     92  O   UNL A   1      43.902  22.443  23.403  1.00  0.00    -0.237 OA
ATOM     93  O   UNL A   1      45.949  21.805  24.618  1.00  0.00    -0.744 OA
ENDBRANCH  86  90
ENDBRANCH  59  83
BRANCH  71  94
ATOM     94  C   UNL A   1      48.640  27.050  30.351  1.00  0.00     0.023 A 
ATOM     95  C   UNL A   1      49.012  26.334  31.501  1.00  0.00     0.031 A 
ATOM     96  C   UNL A   1      49.634  27.363  29.408  1.00  0.00     0.131 A 
ATOM     97  C   UNL A   1      50.354  25.976  31.693  1.00  0.00     0.055 A 
ATOM     98  C   UNL A   1      50.960  26.968  29.584  1.00  0.00     0.041 A 
ATOM     99  F   UNL A   1      49.326  28.043  28.292  1.00  0.00    -0.206 F 
ATOM    100  C   UNL A   1      51.327  26.274  30.735  1.00  0.00     0.022 A 
BRANCH  97 101
ATOM    101  S   UNL A   1      50.822  25.132  33.228  1.00  0.00     0.124 S 
ATOM    102  O   UNL A   1      51.141  26.255  34.104  1.00  0.00    -0.237 OA
ATOM    103  O   UNL A   1      49.612  24.387  33.563  1.00  0.00    -0.237 OA
ATOM    104  O   UNL A   1      51.963  24.309  32.833  1.00  0.00    -0.744 OA
ENDBRANCH  97 101
ENDBRANCH  71  94
ENDBRANCH  45  46
ENDBRANCH  37  40
ENDBRANCH  35  36
ENDBRANCH  34  35
ENDBRANCH   1  34
TORSDOF 18
ENDMDL
