MODEL 1
REMARK VINA RESULT:     -13.4      0.000      0.000
REMARK SMILES Cn1cc(S(=O)(=O)N2CCC(C(=O)NCCCNC(=O)c3ccc(-c4c5nc(c(-c6cc(S(=O)(=O)[O-])ccc6F)c6ccc([nH]6)c(-c6cc(S(=O)(=O)[O-])ccc6F)c6nc(c(-c7cc(S(=O)(=O)[O-])ccc7F)c7ccc4[nH]7)C=C6)C=C5)cc3)CC2)cc1C(=O)N1CCCCC1
REMARK SMILES IDX 16 1 15 2 14 3 12 4 13 5 11 7 8 8 9 9 85 10 10 11 84 12 5 13
REMARK SMILES IDX 6 14 7 15 4 16 1 17 2 18 3 19 87 20 86 21 88 22 89 23 90 24
REMARK SMILES IDX 91 25 95 26 92 27 94 28 93 29 17 30 18 31 19 32 20 34 21 35
REMARK SMILES IDX 22 36 83 37 23 38 82 39 24 40 25 41 26 42 76 43 27 44 81 45
REMARK SMILES IDX 75 46 77 47 28 48 80 49 74 50 73 51 29 53 61 54 41 55 60 56
REMARK SMILES IDX 42 57 45 58 59 59 78 60 43 61 44 62 58 64 79 65 46 66 30 67
REMARK SMILES IDX 31 68 39 69 32 70 38 71 40 72 37 73 33 74 34 75 35 76 36 77
REMARK SMILES IDX 62 78 63 79 71 80 64 81 70 82 72 83 69 84 65 85 66 86 67 87
REMARK SMILES IDX 68 88 47 89 48 90 56 91 49 92 55 93 57 94 54 95 50 96 51 97
REMARK SMILES IDX 52 98 53 99
REMARK H PARENT 14 6 18 33 77 52 45 63
REMARK Flexibility Score: inf
ROOT
ATOM      1  C   UNL A   1      31.711  32.127  26.800  1.00  0.00     0.042 C 
ENDROOT
BRANCH   1   2
ATOM      2  C   UNL A   1      31.958  30.662  26.463  1.00  0.00     0.117 C 
BRANCH   2   3
ATOM      3  N   UNL A   1      31.590  30.343  25.092  1.00  0.00    -0.356 N 
ATOM      4  C   UNL A   1      31.204  29.180  24.508  1.00  0.00     0.223 C 
ATOM      5  O   UNL A   1      30.959  29.199  23.299  1.00  0.00    -0.275 OA
ATOM      6  H   UNL A   1      31.628  31.110  24.476  1.00  0.00     0.163 HD
BRANCH   4   7
ATOM      7  C   UNL A   1      31.036  27.896  25.299  1.00  0.00     0.081 C 
ATOM      8  N   UNL A   1      31.440  25.088  25.749  1.00  0.00    -0.198 NA
ATOM      9  C   UNL A   1      30.085  25.567  25.373  1.00  0.00     0.103 C 
ATOM     10  C   UNL A   1      32.242  26.050  26.535  1.00  0.00     0.103 C 
ATOM     11  C   UNL A   1      30.194  26.852  24.567  1.00  0.00     0.030 C 
ATOM     12  C   UNL A   1      32.382  27.367  25.794  1.00  0.00     0.030 C 
BRANCH   8  13
ATOM     13  S   UNL A   1      31.517  23.469  26.287  1.00  0.00     0.244 S 
ATOM     14  O   UNL A   1      30.484  22.704  25.620  1.00  0.00    -0.207 OA
ATOM     15  O   UNL A   1      31.661  23.465  27.726  1.00  0.00    -0.207 OA
BRANCH  13  16
ATOM     16  C   UNL A   1      32.985  22.727  25.736  1.00  0.00     0.101 A 
ATOM     17  C   UNL A   1      35.886  22.661  23.598  1.00  0.00     0.150 C 
ATOM     18  N   UNL A   1      34.868  22.394  24.590  1.00  0.00    -0.345 N 
ATOM     19  C   UNL A   1      33.954  23.346  24.975  1.00  0.00     0.107 A 
ATOM     20  C   UNL A   1      34.544  21.171  25.150  1.00  0.00     0.108 A 
ATOM     21  C   UNL A   1      33.389  21.386  25.892  1.00  0.00     0.055 A 
BRANCH  20  22
ATOM     22  C   UNL A   1      35.100  19.856  24.875  1.00  0.00     0.270 C 
ATOM     23  O   UNL A   1      36.319  19.685  24.887  1.00  0.00    -0.267 OA
ATOM     24  N   UNL A   1      34.244  18.788  24.642  1.00  0.00    -0.337 N 
ATOM     25  C   UNL A   1      34.707  17.447  24.984  1.00  0.00     0.120 C 
ATOM     26  C   UNL A   1      32.966  18.881  23.941  1.00  0.00     0.120 C 
ATOM     27  C   UNL A   1      34.709  16.523  23.776  1.00  0.00     0.022 C 
ATOM     28  C   UNL A   1      32.934  17.952  22.724  1.00  0.00     0.022 C 
ATOM     29  C   UNL A   1      33.342  16.526  23.099  1.00  0.00     0.004 C 
ENDBRANCH  20  22
ENDBRANCH  13  16
ENDBRANCH   8  13
ENDBRANCH   4   7
ENDBRANCH   2   3
ENDBRANCH   1   2
BRANCH   1  30
ATOM     30  C   UNL A   1      32.887  32.798  27.496  1.00  0.00     0.118 C 
BRANCH  30  31
ATOM     31  N   UNL A   1      32.613  34.189  27.831  1.00  0.00    -0.352 N 
ATOM     32  C   UNL A   1      33.154  34.985  28.812  1.00  0.00     0.251 C 
ATOM     33  H   UNL A   1      31.935  34.627  27.265  1.00  0.00     0.163 HD
ATOM     34  O   UNL A   1      32.629  36.063  29.071  1.00  0.00    -0.269 OA
BRANCH  32  35
ATOM     35  C   UNL A   1      34.343  34.531  29.563  1.00  0.00     0.039 A 
ATOM     36  C   UNL A   1      34.171  33.912  30.803  1.00  0.00     0.014 A 
ATOM     37  C   UNL A   1      35.628  34.722  29.049  1.00  0.00     0.014 A 
ATOM     38  C   UNL A   1      35.281  33.409  31.488  1.00  0.00     0.010 A 
ATOM     39  C   UNL A   1      36.721  34.152  29.690  1.00  0.00     0.010 A 
ATOM     40  C   UNL A   1      36.559  33.486  30.915  1.00  0.00    -0.014 A 
BRANCH  40  41
ATOM     41  C   UNL A   1      37.750  32.883  31.566  1.00  0.00     0.031 A 
ATOM     42  C   UNL A   1      38.454  31.726  30.911  1.00  0.00     0.074 A 
ATOM     43  C   UNL A   1      38.131  33.306  32.788  1.00  0.00     0.049 A 
ATOM     44  N   UNL A   1      39.396  30.953  31.384  1.00  0.00    -0.248 NA
ATOM     45  C   UNL A   1      38.009  31.373  29.555  1.00  0.00     0.031 C 
ATOM     46  C   UNL A   1      37.503  34.395  33.541  1.00  0.00     0.029 A 
ATOM     47  N   UNL A   1      39.122  32.855  33.623  1.00  0.00    -0.354 N 
ATOM     48  C   UNL A   1      39.639  30.004  30.397  1.00  0.00     0.074 A 
ATOM     49  C   UNL A   1      38.707  30.273  29.320  1.00  0.00     0.031 C 
ATOM     50  C   UNL A   1      38.131  34.533  34.719  1.00  0.00     0.029 A 
ATOM     51  C   UNL A   1      39.168  33.512  34.830  1.00  0.00     0.049 A 
ATOM     52  H   UNL A   1      39.741  32.129  33.381  1.00  0.00     0.167 HD
ATOM     53  C   UNL A   1      40.563  29.012  30.382  1.00  0.00     0.034 A 
ATOM     54  C   UNL A   1      39.941  33.301  35.914  1.00  0.00     0.034 A 
ATOM     55  C   UNL A   1      41.501  28.775  31.453  1.00  0.00     0.049 A 
ATOM     56  C   UNL A   1      40.949  32.183  35.883  1.00  0.00     0.074 A 
ATOM     57  C   UNL A   1      42.525  27.846  31.513  1.00  0.00     0.029 A 
ATOM     58  N   UNL A   1      41.524  29.470  32.654  1.00  0.00    -0.354 N 
ATOM     59  N   UNL A   1      41.190  31.314  34.927  1.00  0.00    -0.248 NA
ATOM     60  C   UNL A   1      41.789  32.016  37.076  1.00  0.00     0.031 C 
ATOM     61  C   UNL A   1      43.133  27.944  32.770  1.00  0.00     0.029 A 
ATOM     62  C   UNL A   1      42.526  28.973  33.473  1.00  0.00     0.049 A 
ATOM     63  H   UNL A   1      40.918  30.209  32.891  1.00  0.00     0.167 HD
ATOM     64  C   UNL A   1      42.225  30.513  35.396  1.00  0.00     0.074 A 
ATOM     65  C   UNL A   1      42.568  31.006  36.715  1.00  0.00     0.031 C 
ATOM     66  C   UNL A   1      42.842  29.468  34.791  1.00  0.00     0.034 A 
BRANCH  53  67
ATOM     67  C   UNL A   1      40.579  28.098  29.180  1.00  0.00     0.023 A 
ATOM     68  C   UNL A   1      41.525  28.248  28.152  1.00  0.00     0.031 A 
ATOM     69  C   UNL A   1      39.611  27.088  29.042  1.00  0.00     0.131 A 
ATOM     70  C   UNL A   1      41.437  27.459  26.997  1.00  0.00     0.055 A 
ATOM     71  C   UNL A   1      39.576  26.251  27.924  1.00  0.00     0.041 A 
ATOM     72  F   UNL A   1      38.670  26.910  29.983  1.00  0.00    -0.206 F 
ATOM     73  C   UNL A   1      40.482  26.444  26.886  1.00  0.00     0.022 A 
BRANCH  70  74
ATOM     74  S   UNL A   1      42.494  27.871  25.583  1.00  0.00     0.124 S 
ATOM     75  O   UNL A   1      41.790  29.017  25.013  1.00  0.00    -0.237 OA
ATOM     76  O   UNL A   1      43.774  28.160  26.220  1.00  0.00    -0.237 OA
ATOM     77  O   UNL A   1      42.463  26.659  24.766  1.00  0.00    -0.744 OA
ENDBRANCH  70  74
ENDBRANCH  53  67
BRANCH  54  78
ATOM     78  C   UNL A   1      39.777  34.144  37.130  1.00  0.00     0.023 A 
ATOM     79  C   UNL A   1      39.123  33.647  38.268  1.00  0.00     0.031 A 
ATOM     80  C   UNL A   1      40.245  35.469  37.161  1.00  0.00     0.131 A 
ATOM     81  C   UNL A   1      38.920  34.481  39.377  1.00  0.00     0.055 A 
ATOM     82  C   UNL A   1      40.080  36.282  38.284  1.00  0.00     0.041 A 
ATOM     83  F   UNL A   1      40.884  35.989  36.101  1.00  0.00    -0.206 F 
ATOM     84  C   UNL A   1      39.404  35.792  39.397  1.00  0.00     0.022 A 
BRANCH  81  85
ATOM     85  S   UNL A   1      37.952  33.848  40.774  1.00  0.00     0.124 S 
ATOM     86  O   UNL A   1      38.943  33.049  41.486  1.00  0.00    -0.237 OA
ATOM     87  O   UNL A   1      37.529  35.080  41.431  1.00  0.00    -0.237 OA
ATOM     88  O   UNL A   1      36.882  33.088  40.130  1.00  0.00    -0.744 OA
ENDBRANCH  81  85
ENDBRANCH  54  78
BRANCH  66  89
ATOM     89  C   UNL A   1      43.975  28.819  35.542  1.00  0.00     0.023 A 
ATOM     90  C   UNL A   1      43.758  27.741  36.416  1.00  0.00     0.031 A 
ATOM     91  C   UNL A   1      45.289  29.295  35.385  1.00  0.00     0.131 A 
ATOM     92  C   UNL A   1      44.834  27.198  37.134  1.00  0.00     0.055 A 
ATOM     93  C   UNL A   1      46.363  28.720  36.065  1.00  0.00     0.041 A 
ATOM     94  F   UNL A   1      45.548  30.325  34.562  1.00  0.00    -0.206 F 
ATOM     95  C   UNL A   1      46.136  27.672  36.953  1.00  0.00     0.022 A 
BRANCH  92  96
ATOM     96  S   UNL A   1      44.502  25.900  38.355  1.00  0.00     0.124 S 
ATOM     97  O   UNL A   1      43.724  24.942  37.576  1.00  0.00    -0.237 OA
ATOM     98  O   UNL A   1      45.845  25.473  38.733  1.00  0.00    -0.237 OA
ATOM     99  O   UNL A   1      43.758  26.596  39.403  1.00  0.00    -0.744 OA
ENDBRANCH  92  96
ENDBRANCH  66  89
ENDBRANCH  40  41
ENDBRANCH  32  35
ENDBRANCH  30  31
ENDBRANCH   1  30
TORSDOF 16
ENDMDL
MODEL 2
REMARK VINA RESULT:     -13.0      2.228      2.673
REMARK SMILES Cn1cc(S(=O)(=O)N2CCC(C(=O)NCCCNC(=O)c3ccc(-c4c5nc(c(-c6cc(S(=O)(=O)[O-])ccc6F)c6ccc([nH]6)c(-c6cc(S(=O)(=O)[O-])ccc6F)c6nc(c(-c7cc(S(=O)(=O)[O-])ccc7F)c7ccc4[nH]7)C=C6)C=C5)cc3)CC2)cc1C(=O)N1CCCCC1
REMARK SMILES IDX 16 1 15 2 14 3 12 4 13 5 11 7 8 8 9 9 85 10 10 11 84 12 5 13
REMARK SMILES IDX 6 14 7 15 4 16 1 17 2 18 3 19 87 20 86 21 88 22 89 23 90 24
REMARK SMILES IDX 91 25 95 26 92 27 94 28 93 29 17 30 18 31 19 32 20 34 21 35
REMARK SMILES IDX 22 36 83 37 23 38 82 39 24 40 25 41 26 42 76 43 27 44 81 45
REMARK SMILES IDX 75 46 77 47 28 48 80 49 74 50 73 51 29 53 61 54 41 55 60 56
REMARK SMILES IDX 42 57 45 58 59 59 78 60 43 61 44 62 58 64 79 65 46 66 30 67
REMARK SMILES IDX 31 68 39 69 32 70 38 71 40 72 37 73 33 74 34 75 35 76 36 77
REMARK SMILES IDX 62 78 63 79 71 80 64 81 70 82 72 83 69 84 65 85 66 86 67 87
REMARK SMILES IDX 68 88 47 89 48 90 56 91 49 92 55 93 57 94 54 95 50 96 51 97
REMARK SMILES IDX 52 98 53 99
REMARK H PARENT 14 6 18 33 77 52 45 63
REMARK Flexibility Score: inf
ROOT
ATOM      1  C   UNL A   1      31.330  32.027  26.555  1.00  0.00     0.042 C 
ENDROOT
BRANCH   1   2
ATOM      2  C   UNL A   1      31.450  30.710  25.800  1.00  0.00     0.117 C 
BRANCH   2   3
ATOM      3  N   UNL A   1      30.646  30.696  24.587  1.00  0.00    -0.356 N 
ATOM      4  C   UNL A   1      30.440  29.734  23.651  1.00  0.00     0.223 C 
ATOM      5  O   UNL A   1      29.702  30.006  22.701  1.00  0.00    -0.275 OA
ATOM      6  H   UNL A   1      30.165  31.537  24.413  1.00  0.00     0.163 HD
BRANCH   4   7
ATOM      7  C   UNL A   1      31.054  28.351  23.766  1.00  0.00     0.081 C 
ATOM      8  N   UNL A   1      32.525  26.103  22.748  1.00  0.00    -0.198 NA
ATOM      9  C   UNL A   1      31.061  25.967  22.960  1.00  0.00     0.103 C 
ATOM     10  C   UNL A   1      33.204  27.024  23.684  1.00  0.00     0.103 C 
ATOM     11  C   UNL A   1      30.391  27.327  22.846  1.00  0.00     0.030 C 
ATOM     12  C   UNL A   1      32.576  28.405  23.635  1.00  0.00     0.030 C 
BRANCH   8  13
ATOM     13  S   UNL A   1      33.355  24.644  22.434  1.00  0.00     0.244 S 
ATOM     14  O   UNL A   1      34.726  24.782  22.877  1.00  0.00    -0.207 OA
ATOM     15  O   UNL A   1      33.025  24.203  21.096  1.00  0.00    -0.207 OA
BRANCH  13  16
ATOM     16  C   UNL A   1      32.732  23.376  23.438  1.00  0.00     0.101 A 
ATOM     17  C   UNL A   1      30.594  22.205  26.094  1.00  0.00     0.150 C 
ATOM     18  N   UNL A   1      31.532  22.330  25.000  1.00  0.00    -0.345 N 
ATOM     19  C   UNL A   1      31.600  23.461  24.221  1.00  0.00     0.107 A 
ATOM     20  C   UNL A   1      32.573  21.475  24.685  1.00  0.00     0.108 A 
ATOM     21  C   UNL A   1      33.301  22.110  23.688  1.00  0.00     0.055 A 
BRANCH  20  22
ATOM     22  C   UNL A   1      33.013  20.269  25.371  1.00  0.00     0.270 C 
ATOM     23  O   UNL A   1      33.651  20.352  26.420  1.00  0.00    -0.267 OA
ATOM     24  N   UNL A   1      32.668  19.027  24.856  1.00  0.00    -0.337 N 
ATOM     25  C   UNL A   1      32.538  17.909  25.783  1.00  0.00     0.120 C 
ATOM     26  C   UNL A   1      32.568  18.713  23.432  1.00  0.00     0.120 C 
ATOM     27  C   UNL A   1      33.485  16.771  25.436  1.00  0.00     0.022 C 
ATOM     28  C   UNL A   1      33.504  17.562  23.054  1.00  0.00     0.022 C 
ATOM     29  C   UNL A   1      33.311  16.358  23.977  1.00  0.00     0.004 C 
ENDBRANCH  20  22
ENDBRANCH  13  16
ENDBRANCH   8  13
ENDBRANCH   4   7
ENDBRANCH   2   3
ENDBRANCH   1   2
BRANCH   1  30
ATOM     30  C   UNL A   1      32.633  32.480  27.199  1.00  0.00     0.118 C 
BRANCH  30  31
ATOM     31  N   UNL A   1      32.557  33.844  27.706  1.00  0.00    -0.352 N 
ATOM     32  C   UNL A   1      33.284  34.460  28.696  1.00  0.00     0.251 C 
ATOM     33  H   UNL A   1      31.879  34.412  27.272  1.00  0.00     0.163 HD
ATOM     34  O   UNL A   1      32.915  35.549  29.126  1.00  0.00    -0.269 OA
BRANCH  32  35
ATOM     35  C   UNL A   1      34.484  33.802  29.254  1.00  0.00     0.039 A 
ATOM     36  C   UNL A   1      35.748  34.297  28.924  1.00  0.00     0.014 A 
ATOM     37  C   UNL A   1      34.364  32.694  30.096  1.00  0.00     0.014 A 
ATOM     38  C   UNL A   1      36.887  33.734  29.507  1.00  0.00     0.010 A 
ATOM     39  C   UNL A   1      35.489  32.187  30.736  1.00  0.00     0.010 A 
ATOM     40  C   UNL A   1      36.763  32.704  30.451  1.00  0.00    -0.014 A 
BRANCH  40  41
ATOM     41  C   UNL A   1      37.940  32.141  31.160  1.00  0.00     0.031 A 
ATOM     42  C   UNL A   1      38.720  31.016  30.536  1.00  0.00     0.074 A 
ATOM     43  C   UNL A   1      38.242  32.571  32.402  1.00  0.00     0.049 A 
ATOM     44  N   UNL A   1      39.665  30.275  31.054  1.00  0.00    -0.248 NA
ATOM     45  C   UNL A   1      38.359  30.656  29.158  1.00  0.00     0.031 C 
ATOM     46  C   UNL A   1      37.536  33.631  33.126  1.00  0.00     0.029 A 
ATOM     47  N   UNL A   1      39.205  32.151  33.285  1.00  0.00    -0.354 N 
ATOM     48  C   UNL A   1      39.993  29.343  30.076  1.00  0.00     0.074 A 
ATOM     49  C   UNL A   1      39.109  29.584  28.954  1.00  0.00     0.031 C 
ATOM     50  C   UNL A   1      38.097  33.784  34.336  1.00  0.00     0.029 A 
ATOM     51  C   UNL A   1      39.164  32.802  34.496  1.00  0.00     0.049 A 
ATOM     52  H   UNL A   1      39.862  31.450  33.072  1.00  0.00     0.167 HD
ATOM     53  C   UNL A   1      40.953  28.386  30.105  1.00  0.00     0.034 A 
ATOM     54  C   UNL A   1      39.888  32.612  35.617  1.00  0.00     0.034 A 
ATOM     55  C   UNL A   1      41.843  28.177  31.222  1.00  0.00     0.049 A 
ATOM     56  C   UNL A   1      40.937  31.533  35.633  1.00  0.00     0.074 A 
ATOM     57  C   UNL A   1      42.898  27.287  31.330  1.00  0.00     0.029 A 
ATOM     58  N   UNL A   1      41.779  28.865  32.426  1.00  0.00    -0.354 N 
ATOM     59  N   UNL A   1      41.259  30.680  34.687  1.00  0.00    -0.248 NA
ATOM     60  C   UNL A   1      41.720  31.389  36.867  1.00  0.00     0.031 C 
ATOM     61  C   UNL A   1      43.435  27.398  32.617  1.00  0.00     0.029 A 
ATOM     62  C   UNL A   1      42.756  28.400  33.293  1.00  0.00     0.049 A 
ATOM     63  H   UNL A   1      41.134  29.578  32.634  1.00  0.00     0.167 HD
ATOM     64  C   UNL A   1      42.298  29.915  35.206  1.00  0.00     0.074 A 
ATOM     65  C   UNL A   1      42.554  30.412  36.543  1.00  0.00     0.031 C 
ATOM     66  C   UNL A   1      42.984  28.897  34.628  1.00  0.00     0.034 A 
BRANCH  53  67
ATOM     67  C   UNL A   1      41.066  27.481  28.902  1.00  0.00     0.023 A 
ATOM     68  C   UNL A   1      42.080  27.650  27.944  1.00  0.00     0.031 A 
ATOM     69  C   UNL A   1      40.122  26.461  28.689  1.00  0.00     0.131 A 
ATOM     70  C   UNL A   1      42.083  26.868  26.780  1.00  0.00     0.055 A 
ATOM     71  C   UNL A   1      40.177  25.631  27.566  1.00  0.00     0.041 A 
ATOM     72  F   UNL A   1      39.120  26.264  29.560  1.00  0.00    -0.206 F 
ATOM     73  C   UNL A   1      41.152  25.843  26.596  1.00  0.00     0.022 A 
BRANCH  70  74
ATOM     74  S   UNL A   1      43.232  27.303  25.446  1.00  0.00     0.124 S 
ATOM     75  O   UNL A   1      43.605  25.986  24.938  1.00  0.00    -0.237 OA
ATOM     76  O   UNL A   1      42.400  28.116  24.566  1.00  0.00    -0.237 OA
ATOM     77  O   UNL A   1      44.301  28.024  26.136  1.00  0.00    -0.744 OA
ENDBRANCH  70  74
ENDBRANCH  53  67
BRANCH  54  78
ATOM     78  C   UNL A   1      39.630  33.441  36.827  1.00  0.00     0.023 A 
ATOM     79  C   UNL A   1      40.416  34.568  37.108  1.00  0.00     0.031 A 
ATOM     80  C   UNL A   1      38.613  33.100  37.735  1.00  0.00     0.131 A 
ATOM     81  C   UNL A   1      40.200  35.295  38.288  1.00  0.00     0.055 A 
ATOM     82  C   UNL A   1      38.372  33.852  38.887  1.00  0.00     0.041 A 
ATOM     83  F   UNL A   1      37.828  32.034  37.508  1.00  0.00    -0.206 F 
ATOM     84  C   UNL A   1      39.175  34.951  39.175  1.00  0.00     0.022 A 
BRANCH  81  85
ATOM     85  S   UNL A   1      41.323  36.663  38.685  1.00  0.00     0.124 S 
ATOM     86  O   UNL A   1      42.134  36.084  39.749  1.00  0.00    -0.237 OA
ATOM     87  O   UNL A   1      41.998  36.879  37.410  1.00  0.00    -0.237 OA
ATOM     88  O   UNL A   1      40.420  37.735  39.099  1.00  0.00    -0.744 OA
ENDBRANCH  81  85
ENDBRANCH  54  78
BRANCH  66  89
ATOM     89  C   UNL A   1      44.101  28.286  35.434  1.00  0.00     0.023 A 
ATOM     90  C   UNL A   1      45.415  28.774  35.359  1.00  0.00     0.031 A 
ATOM     91  C   UNL A   1      43.841  27.196  36.283  1.00  0.00     0.131 A 
ATOM     92  C   UNL A   1      46.435  28.145  36.090  1.00  0.00     0.055 A 
ATOM     93  C   UNL A   1      44.849  26.604  37.043  1.00  0.00     0.041 A 
ATOM     94  F   UNL A   1      42.600  26.693  36.387  1.00  0.00    -0.206 F 
ATOM     95  C   UNL A   1      46.156  27.072  36.942  1.00  0.00     0.022 A 
BRANCH  92  96
ATOM     96  S   UNL A   1      48.144  28.707  35.868  1.00  0.00     0.124 S 
ATOM     97  O   UNL A   1      48.004  30.155  35.988  1.00  0.00    -0.237 OA
ATOM     98  O   UNL A   1      48.839  28.041  36.964  1.00  0.00    -0.237 OA
ATOM     99  O   UNL A   1      48.493  28.228  34.532  1.00  0.00    -0.744 OA
ENDBRANCH  92  96
ENDBRANCH  66  89
ENDBRANCH  40  41
ENDBRANCH  32  35
ENDBRANCH  30  31
ENDBRANCH   1  30
TORSDOF 16
ENDMDL
MODEL 3
REMARK VINA RESULT:     -13.0      1.526      7.695
REMARK SMILES Cn1cc(S(=O)(=O)N2CCC(C(=O)NCCCNC(=O)c3ccc(-c4c5nc(c(-c6cc(S(=O)(=O)[O-])ccc6F)c6ccc([nH]6)c(-c6cc(S(=O)(=O)[O-])ccc6F)c6nc(c(-c7cc(S(=O)(=O)[O-])ccc7F)c7ccc4[nH]7)C=C6)C=C5)cc3)CC2)cc1C(=O)N1CCCCC1
REMARK SMILES IDX 16 1 15 2 14 3 12 4 13 5 11 7 8 8 9 9 85 10 10 11 84 12 5 13
REMARK SMILES IDX 6 14 7 15 4 16 1 17 2 18 3 19 87 20 86 21 88 22 89 23 90 24
REMARK SMILES IDX 91 25 95 26 92 27 94 28 93 29 17 30 18 31 19 32 20 34 21 35
REMARK SMILES IDX 22 36 83 37 23 38 82 39 24 40 25 41 26 42 76 43 27 44 81 45
REMARK SMILES IDX 75 46 77 47 28 48 80 49 74 50 73 51 29 53 61 54 41 55 60 56
REMARK SMILES IDX 42 57 45 58 59 59 78 60 43 61 44 62 58 64 79 65 46 66 30 67
REMARK SMILES IDX 31 68 39 69 32 70 38 71 40 72 37 73 33 74 34 75 35 76 36 77
REMARK SMILES IDX 62 78 63 79 71 80 64 81 70 82 72 83 69 84 65 85 66 86 67 87
REMARK SMILES IDX 68 88 47 89 48 90 56 91 49 92 55 93 57 94 54 95 50 96 51 97
REMARK SMILES IDX 52 98 53 99
REMARK H PARENT 14 6 18 33 77 52 45 63
REMARK Flexibility Score: inf
ROOT
ATOM      1  C   UNL A   1      31.466  31.954  26.744  1.00  0.00     0.042 C 
ENDROOT
BRANCH   1   2
ATOM      2  C   UNL A   1      31.601  30.671  25.934  1.00  0.00     0.117 C 
BRANCH   2   3
ATOM      3  N   UNL A   1      30.781  30.690  24.732  1.00  0.00    -0.356 N 
ATOM      4  C   UNL A   1      30.543  29.745  23.786  1.00  0.00     0.223 C 
ATOM      5  O   UNL A   1      29.798  30.046  22.849  1.00  0.00    -0.275 OA
ATOM      6  H   UNL A   1      30.315  31.543  24.576  1.00  0.00     0.163 HD
BRANCH   4   7
ATOM      7  C   UNL A   1      31.128  28.348  23.875  1.00  0.00     0.081 C 
ATOM      8  N   UNL A   1      32.585  26.105  22.826  1.00  0.00    -0.198 NA
ATOM      9  C   UNL A   1      31.114  25.990  22.996  1.00  0.00     0.103 C 
ATOM     10  C   UNL A   1      33.256  26.985  23.807  1.00  0.00     0.103 C 
ATOM     11  C   UNL A   1      30.471  27.365  22.907  1.00  0.00     0.030 C 
ATOM     12  C   UNL A   1      32.654  28.378  23.784  1.00  0.00     0.030 C 
BRANCH   8  13
ATOM     13  S   UNL A   1      33.397  24.642  22.489  1.00  0.00     0.244 S 
ATOM     14  O   UNL A   1      34.773  24.759  22.926  1.00  0.00    -0.207 OA
ATOM     15  O   UNL A   1      33.055  24.221  21.148  1.00  0.00    -0.207 OA
BRANCH  13  16
ATOM     16  C   UNL A   1      32.766  23.367  23.481  1.00  0.00     0.101 A 
ATOM     17  C   UNL A   1      30.617  22.185  26.123  1.00  0.00     0.150 C 
ATOM     18  N   UNL A   1      31.558  22.315  25.032  1.00  0.00    -0.345 N 
ATOM     19  C   UNL A   1      31.633  23.452  24.262  1.00  0.00     0.107 A 
ATOM     20  C   UNL A   1      32.595  21.456  24.711  1.00  0.00     0.108 A 
ATOM     21  C   UNL A   1      33.328  22.097  23.720  1.00  0.00     0.055 A 
BRANCH  20  22
ATOM     22  C   UNL A   1      33.027  20.243  25.387  1.00  0.00     0.270 C 
ATOM     23  O   UNL A   1      33.667  20.313  26.436  1.00  0.00    -0.267 OA
ATOM     24  N   UNL A   1      32.673  19.007  24.862  1.00  0.00    -0.337 N 
ATOM     25  C   UNL A   1      32.536  17.883  25.781  1.00  0.00     0.120 C 
ATOM     26  C   UNL A   1      32.570  18.705  23.436  1.00  0.00     0.120 C 
ATOM     27  C   UNL A   1      33.476  16.741  25.423  1.00  0.00     0.022 C 
ATOM     28  C   UNL A   1      33.497  17.551  23.048  1.00  0.00     0.022 C 
ATOM     29  C   UNL A   1      33.297  16.340  23.962  1.00  0.00     0.004 C 
ENDBRANCH  20  22
ENDBRANCH  13  16
ENDBRANCH   8  13
ENDBRANCH   4   7
ENDBRANCH   2   3
ENDBRANCH   1   2
BRANCH   1  30
ATOM     30  C   UNL A   1      32.781  32.440  27.338  1.00  0.00     0.118 C 
BRANCH  30  31
ATOM     31  N   UNL A   1      32.768  33.869  27.620  1.00  0.00    -0.352 N 
ATOM     32  C   UNL A   1      33.436  34.585  28.583  1.00  0.00     0.251 C 
ATOM     33  H   UNL A   1      32.191  34.405  27.027  1.00  0.00     0.163 HD
ATOM     34  O   UNL A   1      33.119  35.751  28.797  1.00  0.00    -0.269 OA
BRANCH  32  35
ATOM     35  C   UNL A   1      34.511  33.945  29.372  1.00  0.00     0.039 A 
ATOM     36  C   UNL A   1      34.169  33.071  30.406  1.00  0.00     0.014 A 
ATOM     37  C   UNL A   1      35.853  34.213  29.097  1.00  0.00     0.014 A 
ATOM     38  C   UNL A   1      35.174  32.400  31.108  1.00  0.00     0.010 A 
ATOM     39  C   UNL A   1      36.849  33.486  29.740  1.00  0.00     0.010 A 
ATOM     40  C   UNL A   1      36.520  32.569  30.750  1.00  0.00    -0.014 A 
BRANCH  40  41
ATOM     41  C   UNL A   1      37.611  31.806  31.409  1.00  0.00     0.031 A 
ATOM     42  C   UNL A   1      38.083  32.210  32.778  1.00  0.00     0.074 A 
ATOM     43  C   UNL A   1      38.240  30.823  30.735  1.00  0.00     0.049 A 
ATOM     44  N   UNL A   1      39.122  31.793  33.454  1.00  0.00    -0.248 NA
ATOM     45  C   UNL A   1      37.299  33.251  33.460  1.00  0.00     0.031 C 
ATOM     46  C   UNL A   1      37.897  30.364  29.387  1.00  0.00     0.029 A 
ATOM     47  N   UNL A   1      39.318  30.047  31.084  1.00  0.00    -0.354 N 
ATOM     48  C   UNL A   1      39.133  32.538  34.628  1.00  0.00     0.074 A 
ATOM     49  C   UNL A   1      38.024  33.467  34.546  1.00  0.00     0.031 C 
ATOM     50  C   UNL A   1      38.740  29.383  29.028  1.00  0.00     0.029 A 
ATOM     51  C   UNL A   1      39.714  29.177  30.095  1.00  0.00     0.049 A 
ATOM     52  H   UNL A   1      39.765  30.108  31.959  1.00  0.00     0.167 HD
ATOM     53  C   UNL A   1      39.980  32.445  35.683  1.00  0.00     0.034 A 
ATOM     54  C   UNL A   1      40.759  28.327  30.043  1.00  0.00     0.034 A 
ATOM     55  C   UNL A   1      41.063  31.496  35.760  1.00  0.00     0.049 A 
ATOM     56  C   UNL A   1      41.696  28.252  31.219  1.00  0.00     0.074 A 
ATOM     57  C   UNL A   1      41.936  31.264  36.809  1.00  0.00     0.029 A 
ATOM     58  N   UNL A   1      41.425  30.622  34.743  1.00  0.00    -0.354 N 
ATOM     59  N   UNL A   1      41.674  28.940  32.337  1.00  0.00    -0.248 NA
ATOM     60  C   UNL A   1      42.799  27.287  31.125  1.00  0.00     0.031 C 
ATOM     61  C   UNL A   1      42.858  30.291  36.407  1.00  0.00     0.029 A 
ATOM     62  C   UNL A   1      42.525  29.871  35.129  1.00  0.00     0.049 A 
ATOM     63  H   UNL A   1      40.968  30.547  33.875  1.00  0.00     0.167 HD
ATOM     64  C   UNL A   1      42.746  28.473  33.090  1.00  0.00     0.074 A 
ATOM     65  C   UNL A   1      43.389  27.440  32.302  1.00  0.00     0.031 C 
ATOM     66  C   UNL A   1      43.160  28.857  34.323  1.00  0.00     0.034 A 
BRANCH  53  67
ATOM     67  C   UNL A   1      39.776  33.415  36.822  1.00  0.00     0.023 A 
ATOM     68  C   UNL A   1      39.184  33.018  38.033  1.00  0.00     0.031 A 
ATOM     69  C   UNL A   1      40.144  34.765  36.680  1.00  0.00     0.131 A 
ATOM     70  C   UNL A   1      38.904  33.972  39.022  1.00  0.00     0.055 A 
ATOM     71  C   UNL A   1      39.935  35.695  37.701  1.00  0.00     0.041 A 
ATOM     72  F   UNL A   1      40.696  35.206  35.540  1.00  0.00    -0.206 F 
ATOM     73  C   UNL A   1      39.296  35.304  38.874  1.00  0.00     0.022 A 
BRANCH  70  74
ATOM     74  S   UNL A   1      37.891  33.474  40.442  1.00  0.00     0.124 S 
ATOM     75  O   UNL A   1      37.733  34.743  41.149  1.00  0.00    -0.237 OA
ATOM     76  O   UNL A   1      36.692  32.944  39.804  1.00  0.00    -0.237 OA
ATOM     77  O   UNL A   1      38.723  32.486  41.127  1.00  0.00    -0.744 OA
ENDBRANCH  70  74
ENDBRANCH  53  67
BRANCH  54  78
ATOM     78  C   UNL A   1      40.994  27.499  28.829  1.00  0.00     0.023 A 
ATOM     79  C   UNL A   1      42.000  27.836  27.911  1.00  0.00     0.031 A 
ATOM     80  C   UNL A   1      40.195  26.375  28.552  1.00  0.00     0.131 A 
ATOM     81  C   UNL A   1      42.160  27.081  26.739  1.00  0.00     0.055 A 
ATOM     82  C   UNL A   1      40.386  25.601  27.406  1.00  0.00     0.041 A 
ATOM     83  F   UNL A   1      39.224  26.007  29.402  1.00  0.00    -0.206 F 
ATOM     84  C   UNL A   1      41.366  25.959  26.486  1.00  0.00     0.022 A 
BRANCH  81  85
ATOM     85  S   UNL A   1      43.379  27.628  25.513  1.00  0.00     0.124 S 
ATOM     86  O   UNL A   1      43.960  28.793  26.169  1.00  0.00    -0.237 OA
ATOM     87  O   UNL A   1      44.242  26.457  25.402  1.00  0.00    -0.237 OA
ATOM     88  O   UNL A   1      42.568  27.916  24.332  1.00  0.00    -0.744 OA
ENDBRANCH  81  85
ENDBRANCH  54  78
BRANCH  66  89
ATOM     89  C   UNL A   1      44.342  28.124  34.902  1.00  0.00     0.023 A 
ATOM     90  C   UNL A   1      44.188  26.918  35.605  1.00  0.00     0.031 A 
ATOM     91  C   UNL A   1      45.638  28.648  34.752  1.00  0.00     0.131 A 
ATOM     92  C   UNL A   1      45.310  26.293  36.171  1.00  0.00     0.055 A 
ATOM     93  C   UNL A   1      46.756  27.998  35.276  1.00  0.00     0.041 A 
ATOM     94  F   UNL A   1      45.837  29.799  34.089  1.00  0.00    -0.206 F 
ATOM     95  C   UNL A   1      46.594  26.819  35.998  1.00  0.00     0.022 A 
BRANCH  92  96
ATOM     96  S   UNL A   1      45.065  24.813  37.189  1.00  0.00     0.124 S 
ATOM     97  O   UNL A   1      46.438  24.426  37.495  1.00  0.00    -0.237 OA
ATOM     98  O   UNL A   1      44.282  25.327  38.308  1.00  0.00    -0.237 OA
ATOM     99  O   UNL A   1      44.347  23.900  36.301  1.00  0.00    -0.744 OA
ENDBRANCH  92  96
ENDBRANCH  66  89
ENDBRANCH  40  41
ENDBRANCH  32  35
ENDBRANCH  30  31
ENDBRANCH   1  30
TORSDOF 16
ENDMDL
