MODEL 1
REMARK VINA RESULT:     -11.4      0.000      0.000
REMARK SMILES CN(CCc1ccccn1)C(=O)NC1(CC(=O)NCCCNC(=O)c2ccc(-c3c4nc(c(-c5cc(S(=O)(=O)[O-])ccc5F)c5ccc([nH]5)c(-c5cc(S(=O)(=O)[O-])ccc5F)c5nc(c(-c6cc(S(=O)(=O)[O-])ccc6F)c6ccc3[nH]6)C=C5)C=C4)cc2)CCC1
REMARK SMILES IDX 16 1 17 2 18 3 15 5 14 6 88 7 90 8 89 9 13 10 11 11 12 12
REMARK SMILES IDX 2 14 1 15 3 16 4 17 5 18 6 19 10 20 7 21 9 22 8 23 19 24
REMARK SMILES IDX 20 25 21 26 22 27 23 28 24 30 25 31 26 32 87 33 27 34 86 35
REMARK SMILES IDX 28 36 29 37 30 38 80 39 31 40 85 41 79 42 81 43 32 44 84 45
REMARK SMILES IDX 78 46 77 47 33 49 65 50 45 51 64 52 46 53 49 54 63 55 82 56
REMARK SMILES IDX 47 57 48 58 62 60 83 61 50 62 34 63 35 64 43 65 36 66 42 67
REMARK SMILES IDX 44 68 41 69 37 70 38 71 39 72 40 73 66 74 67 75 75 76 68 77
REMARK SMILES IDX 74 78 76 79 73 80 69 81 70 82 71 83 72 84 51 85 52 86 60 87
REMARK SMILES IDX 53 88 59 89 61 90 58 91 54 92 55 93 56 94 57 95
REMARK H PARENT 18 4 13 13 22 29 81 48 49 59
REMARK Flexibility Score: inf
ROOT
ATOM      1  C   UNL A   1      31.550  26.568  25.827  1.00  0.00     0.222 C 
ATOM      2  O   UNL A   1      31.186  26.191  26.944  1.00  0.00    -0.275 OA
ATOM      3  N   UNL A   1      30.981  27.698  25.327  1.00  0.00    -0.356 N 
ATOM      4  H   UNL A   1      30.218  28.044  25.845  1.00  0.00     0.163 HD
ENDROOT
BRANCH   1   5
ATOM      5  C   UNL A   1      32.649  25.838  25.081  1.00  0.00     0.128 C 
BRANCH   5   6
ATOM      6  C   UNL A   1      32.283  24.561  24.306  1.00  0.00     0.051 C 
ATOM      7  C   UNL A   1      33.402  24.097  23.318  1.00  0.00     0.029 C 
ATOM      8  C   UNL A   1      31.403  24.732  23.010  1.00  0.00     0.029 C 
ATOM      9  C   UNL A   1      32.667  24.762  22.160  1.00  0.00     0.005 C 
BRANCH   6  10
ATOM     10  N   UNL A   1      31.668  23.522  25.182  1.00  0.00    -0.332 N 
ATOM     11  C   UNL A   1      32.104  22.916  26.323  1.00  0.00     0.317 C 
ATOM     12  O   UNL A   1      31.333  22.937  27.285  1.00  0.00    -0.249 OA
ATOM     13  H   UNL A   1      30.781  23.217  24.881  1.00  0.00     0.165 HD
BRANCH  11  14
ATOM     14  N   UNL A   1      33.294  22.231  26.343  1.00  0.00    -0.327 N 
ATOM     15  C   UNL A   1      34.462  22.948  26.829  1.00  0.00     0.148 C 
BRANCH  14  16
ATOM     16  C   UNL A   1      33.418  20.779  26.299  1.00  0.00     0.127 C 
BRANCH  16  17
ATOM     17  C   UNL A   1      33.414  20.096  24.911  1.00  0.00     0.078 C 
BRANCH  17  18
ATOM     18  C   UNL A   1      33.385  18.590  24.853  1.00  0.00     0.042 A 
ATOM     19  C   UNL A   1      34.146  17.867  23.934  1.00  0.00     0.024 A 
ATOM     20  N   UNL A   1      32.554  17.976  25.729  1.00  0.00    -0.261 NA
ATOM     21  C   UNL A   1      33.987  16.483  23.864  1.00  0.00     0.003 A 
ATOM     22  C   UNL A   1      32.411  16.637  25.632  1.00  0.00     0.111 A 
ATOM     23  C   UNL A   1      33.091  15.854  24.717  1.00  0.00     0.020 A 
ENDBRANCH  17  18
ENDBRANCH  16  17
ENDBRANCH  14  16
ENDBRANCH  11  14
ENDBRANCH   6  10
ENDBRANCH   5   6
ENDBRANCH   1   5
BRANCH   3  24
ATOM     24  C   UNL A   1      31.325  28.469  24.152  1.00  0.00     0.117 C 
BRANCH  24  25
ATOM     25  C   UNL A   1      32.414  29.499  24.446  1.00  0.00     0.042 C 
BRANCH  25  26
ATOM     26  C   UNL A   1      32.675  29.713  25.927  1.00  0.00     0.118 C 
BRANCH  26  27
ATOM     27  N   UNL A   1      32.592  31.123  26.271  1.00  0.00    -0.352 N 
ATOM     28  C   UNL A   1      33.266  31.857  27.213  1.00  0.00     0.251 C 
ATOM     29  H   UNL A   1      31.942  31.638  25.739  1.00  0.00     0.163 HD
ATOM     30  O   UNL A   1      32.778  32.926  27.575  1.00  0.00    -0.269 OA
BRANCH  28  31
ATOM     31  C   UNL A   1      34.559  31.401  27.783  1.00  0.00     0.039 A 
ATOM     32  C   UNL A   1      34.669  30.073  28.211  1.00  0.00     0.014 A 
ATOM     33  C   UNL A   1      35.621  32.281  28.005  1.00  0.00     0.014 A 
ATOM     34  C   UNL A   1      35.831  29.635  28.851  1.00  0.00     0.010 A 
ATOM     35  C   UNL A   1      36.816  31.821  28.554  1.00  0.00     0.010 A 
ATOM     36  C   UNL A   1      36.919  30.505  29.022  1.00  0.00    -0.014 A 
BRANCH  36  37
ATOM     37  C   UNL A   1      38.135  30.083  29.762  1.00  0.00     0.031 A 
ATOM     38  C   UNL A   1      38.369  30.587  31.165  1.00  0.00     0.074 A 
ATOM     39  C   UNL A   1      39.041  29.286  29.165  1.00  0.00     0.049 A 
ATOM     40  N   UNL A   1      39.392  30.394  31.958  1.00  0.00    -0.248 NA
ATOM     41  C   UNL A   1      37.328  31.457  31.734  1.00  0.00     0.031 C 
ATOM     42  C   UNL A   1      38.940  28.770  27.797  1.00  0.00     0.029 A 
ATOM     43  N   UNL A   1      40.224  28.770  29.628  1.00  0.00    -0.354 N 
ATOM     44  C   UNL A   1      39.128  31.136  33.106  1.00  0.00     0.074 A 
ATOM     45  C   UNL A   1      37.883  31.835  32.875  1.00  0.00     0.031 C 
ATOM     46  C   UNL A   1      40.002  27.988  27.543  1.00  0.00     0.029 A 
ATOM     47  C   UNL A   1      40.877  27.977  28.712  1.00  0.00     0.049 A 
ATOM     48  H   UNL A   1      40.573  28.949  30.530  1.00  0.00     0.167 HD
ATOM     49  C   UNL A   1      39.844  31.208  34.256  1.00  0.00     0.034 A 
ATOM     50  C   UNL A   1      42.048  27.319  28.805  1.00  0.00     0.034 A 
ATOM     51  C   UNL A   1      41.068  30.478  34.476  1.00  0.00     0.049 A 
ATOM     52  C   UNL A   1      42.815  27.391  30.101  1.00  0.00     0.074 A 
ATOM     53  C   UNL A   1      41.858  30.434  35.612  1.00  0.00     0.029 A 
ATOM     54  N   UNL A   1      41.682  29.659  33.536  1.00  0.00    -0.354 N 
ATOM     55  N   UNL A   1      42.534  28.066  31.192  1.00  0.00    -0.248 NA
ATOM     56  C   UNL A   1      44.046  26.596  30.184  1.00  0.00     0.031 C 
ATOM     57  C   UNL A   1      42.973  29.632  35.341  1.00  0.00     0.029 A 
ATOM     58  C   UNL A   1      42.845  29.118  34.060  1.00  0.00     0.049 A 
ATOM     59  H   UNL A   1      41.340  29.488  32.628  1.00  0.00     0.167 HD
ATOM     60  C   UNL A   1      43.537  27.750  32.103  1.00  0.00     0.074 A 
ATOM     61  C   UNL A   1      44.419  26.812  31.437  1.00  0.00     0.031 C 
ATOM     62  C   UNL A   1      43.713  28.188  33.376  1.00  0.00     0.034 A 
BRANCH  49  63
ATOM     63  C   UNL A   1      39.324  32.122  35.343  1.00  0.00     0.023 A 
ATOM     64  C   UNL A   1      39.698  33.476  35.414  1.00  0.00     0.031 A 
ATOM     65  C   UNL A   1      38.477  31.624  36.350  1.00  0.00     0.131 A 
ATOM     66  C   UNL A   1      39.301  34.260  36.508  1.00  0.00     0.055 A 
ATOM     67  C   UNL A   1      38.014  32.433  37.391  1.00  0.00     0.041 A 
ATOM     68  F   UNL A   1      38.099  30.337  36.351  1.00  0.00    -0.206 F 
ATOM     69  C   UNL A   1      38.440  33.755  37.484  1.00  0.00     0.022 A 
BRANCH  66  70
ATOM     70  S   UNL A   1      40.051  35.899  36.717  1.00  0.00     0.124 S 
ATOM     71  O   UNL A   1      39.659  36.561  35.475  1.00  0.00    -0.237 OA
ATOM     72  O   UNL A   1      39.412  36.387  37.932  1.00  0.00    -0.237 OA
ATOM     73  O   UNL A   1      41.480  35.608  36.835  1.00  0.00    -0.744 OA
ENDBRANCH  66  70
ENDBRANCH  49  63
BRANCH  50  74
ATOM     74  C   UNL A   1      42.560  26.525  27.653  1.00  0.00     0.023 A 
ATOM     75  C   UNL A   1      42.154  25.197  27.454  1.00  0.00     0.031 A 
ATOM     76  C   UNL A   1      43.481  27.077  26.745  1.00  0.00     0.131 A 
ATOM     77  C   UNL A   1      42.702  24.448  26.400  1.00  0.00     0.055 A 
ATOM     78  C   UNL A   1      43.986  26.344  25.670  1.00  0.00     0.041 A 
ATOM     79  F   UNL A   1      43.891  28.348  26.883  1.00  0.00    -0.206 F 
ATOM     80  C   UNL A   1      43.606  25.017  25.500  1.00  0.00     0.022 A 
BRANCH  77  81
ATOM     81  S   UNL A   1      42.267  22.692  26.265  1.00  0.00     0.124 S 
ATOM     82  O   UNL A   1      40.811  22.739  26.331  1.00  0.00    -0.237 OA
ATOM     83  O   UNL A   1      42.841  22.337  24.972  1.00  0.00    -0.237 OA
ATOM     84  O   UNL A   1      42.925  22.090  27.423  1.00  0.00    -0.744 OA
ENDBRANCH  77  81
ENDBRANCH  50  74
BRANCH  62  85
ATOM     85  C   UNL A   1      44.879  27.611  34.138  1.00  0.00     0.023 A 
ATOM     86  C   UNL A   1      44.769  26.412  34.863  1.00  0.00     0.031 A 
ATOM     87  C   UNL A   1      46.112  28.285  34.154  1.00  0.00     0.131 A 
ATOM     88  C   UNL A   1      45.853  25.958  35.628  1.00  0.00     0.055 A 
ATOM     89  C   UNL A   1      47.208  27.795  34.867  1.00  0.00     0.041 A 
ATOM     90  F   UNL A   1      46.273  29.434  33.478  1.00  0.00    -0.206 F 
ATOM     91  C   UNL A   1      47.076  26.634  35.622  1.00  0.00     0.022 A 
BRANCH  88  92
ATOM     92  S   UNL A   1      45.611  24.525  36.713  1.00  0.00     0.124 S 
ATOM     93  O   UNL A   1      45.635  25.139  38.037  1.00  0.00    -0.237 OA
ATOM     94  O   UNL A   1      44.317  24.015  36.272  1.00  0.00    -0.237 OA
ATOM     95  O   UNL A   1      46.754  23.667  36.407  1.00  0.00    -0.744 OA
ENDBRANCH  88  92
ENDBRANCH  62  85
ENDBRANCH  36  37
ENDBRANCH  28  31
ENDBRANCH  26  27
ENDBRANCH  25  26
ENDBRANCH  24  25
ENDBRANCH   3  24
TORSDOF 19
ENDMDL
MODEL 2
REMARK VINA RESULT:     -11.4      1.590      7.624
REMARK SMILES CN(CCc1ccccn1)C(=O)NC1(CC(=O)NCCCNC(=O)c2ccc(-c3c4nc(c(-c5cc(S(=O)(=O)[O-])ccc5F)c5ccc([nH]5)c(-c5cc(S(=O)(=O)[O-])ccc5F)c5nc(c(-c6cc(S(=O)(=O)[O-])ccc6F)c6ccc3[nH]6)C=C5)C=C4)cc2)CCC1
REMARK SMILES IDX 16 1 17 2 18 3 15 5 14 6 88 7 90 8 89 9 13 10 11 11 12 12
REMARK SMILES IDX 2 14 1 15 3 16 4 17 5 18 6 19 10 20 7 21 9 22 8 23 19 24
REMARK SMILES IDX 20 25 21 26 22 27 23 28 24 30 25 31 26 32 87 33 27 34 86 35
REMARK SMILES IDX 28 36 29 37 30 38 80 39 31 40 85 41 79 42 81 43 32 44 84 45
REMARK SMILES IDX 78 46 77 47 33 49 65 50 45 51 64 52 46 53 49 54 63 55 82 56
REMARK SMILES IDX 47 57 48 58 62 60 83 61 50 62 34 63 35 64 43 65 36 66 42 67
REMARK SMILES IDX 44 68 41 69 37 70 38 71 39 72 40 73 66 74 67 75 75 76 68 77
REMARK SMILES IDX 74 78 76 79 73 80 69 81 70 82 71 83 72 84 51 85 52 86 60 87
REMARK SMILES IDX 53 88 59 89 61 90 58 91 54 92 55 93 56 94 57 95
REMARK H PARENT 18 4 13 13 22 29 81 48 49 59
REMARK Flexibility Score: inf
ROOT
ATOM      1  C   UNL A   1      30.418  26.230  24.548  1.00  0.00     0.222 C 
ATOM      2  O   UNL A   1      29.809  25.962  25.587  1.00  0.00    -0.275 OA
ATOM      3  N   UNL A   1      30.833  27.514  24.375  1.00  0.00    -0.356 N 
ATOM      4  H   UNL A   1      30.486  28.156  25.036  1.00  0.00     0.163 HD
ENDROOT
BRANCH   1   5
ATOM      5  C   UNL A   1      30.758  25.147  23.544  1.00  0.00     0.128 C 
BRANCH   5   6
ATOM      6  C   UNL A   1      31.737  24.040  23.967  1.00  0.00     0.051 C 
ATOM      7  C   UNL A   1      33.237  24.431  23.761  1.00  0.00     0.029 C 
ATOM      8  C   UNL A   1      32.035  22.901  22.919  1.00  0.00     0.029 C 
ATOM      9  C   UNL A   1      33.265  23.666  22.443  1.00  0.00     0.005 C 
BRANCH   6  10
ATOM     10  N   UNL A   1      31.364  23.418  25.271  1.00  0.00    -0.332 N 
ATOM     11  C   UNL A   1      32.079  23.183  26.407  1.00  0.00     0.317 C 
ATOM     12  O   UNL A   1      31.590  23.600  27.460  1.00  0.00    -0.249 OA
ATOM     13  H   UNL A   1      30.426  23.123  25.320  1.00  0.00     0.165 HD
BRANCH  11  14
ATOM     14  N   UNL A   1      33.224  22.426  26.372  1.00  0.00    -0.327 N 
ATOM     15  C   UNL A   1      34.463  23.081  26.759  1.00  0.00     0.148 C 
BRANCH  14  16
ATOM     16  C   UNL A   1      33.257  20.968  26.365  1.00  0.00     0.127 C 
BRANCH  16  17
ATOM     17  C   UNL A   1      33.179  20.251  24.997  1.00  0.00     0.078 C 
BRANCH  17  18
ATOM     18  C   UNL A   1      33.329  18.751  24.964  1.00  0.00     0.042 A 
ATOM     19  C   UNL A   1      34.409  18.126  24.341  1.00  0.00     0.024 A 
ATOM     20  N   UNL A   1      32.337  18.041  25.553  1.00  0.00    -0.261 NA
ATOM     21  C   UNL A   1      34.426  16.734  24.254  1.00  0.00     0.003 A 
ATOM     22  C   UNL A   1      32.373  16.695  25.444  1.00  0.00     0.111 A 
ATOM     23  C   UNL A   1      33.382  16.001  24.801  1.00  0.00     0.020 A 
ENDBRANCH  17  18
ENDBRANCH  16  17
ENDBRANCH  14  16
ENDBRANCH  11  14
ENDBRANCH   6  10
ENDBRANCH   5   6
ENDBRANCH   1   5
BRANCH   3  24
ATOM     24  C   UNL A   1      31.706  28.080  23.369  1.00  0.00     0.117 C 
BRANCH  24  25
ATOM     25  C   UNL A   1      32.749  29.013  23.980  1.00  0.00     0.042 C 
BRANCH  25  26
ATOM     26  C   UNL A   1      32.638  29.156  25.489  1.00  0.00     0.118 C 
BRANCH  26  27
ATOM     27  N   UNL A   1      32.351  30.532  25.861  1.00  0.00    -0.352 N 
ATOM     28  C   UNL A   1      32.878  31.321  26.851  1.00  0.00     0.251 C 
ATOM     29  H   UNL A   1      31.663  30.971  25.310  1.00  0.00     0.163 HD
ATOM     30  O   UNL A   1      32.235  32.304  27.213  1.00  0.00    -0.269 OA
BRANCH  28  31
ATOM     31  C   UNL A   1      34.193  31.025  27.472  1.00  0.00     0.039 A 
ATOM     32  C   UNL A   1      34.468  29.707  27.859  1.00  0.00     0.014 A 
ATOM     33  C   UNL A   1      35.110  32.033  27.780  1.00  0.00     0.014 A 
ATOM     34  C   UNL A   1      35.650  29.408  28.543  1.00  0.00     0.010 A 
ATOM     35  C   UNL A   1      36.331  31.721  28.374  1.00  0.00     0.010 A 
ATOM     36  C   UNL A   1      36.595  30.413  28.801  1.00  0.00    -0.014 A 
BRANCH  36  37
ATOM     37  C   UNL A   1      37.822  30.132  29.589  1.00  0.00     0.031 A 
ATOM     38  C   UNL A   1      38.902  29.256  29.004  1.00  0.00     0.074 A 
ATOM     39  C   UNL A   1      37.948  30.629  30.833  1.00  0.00     0.049 A 
ATOM     40  N   UNL A   1      40.016  28.836  29.547  1.00  0.00    -0.248 NA
ATOM     41  C   UNL A   1      38.677  28.754  27.639  1.00  0.00     0.031 C 
ATOM     42  C   UNL A   1      36.949  31.454  31.517  1.00  0.00     0.029 A 
ATOM     43  N   UNL A   1      38.963  30.512  31.747  1.00  0.00    -0.354 N 
ATOM     44  C   UNL A   1      40.610  28.004  28.601  1.00  0.00     0.074 A 
ATOM     45  C   UNL A   1      39.698  27.927  27.480  1.00  0.00     0.031 C 
ATOM     46  C   UNL A   1      37.416  31.793  32.730  1.00  0.00     0.029 A 
ATOM     47  C   UNL A   1      38.725  31.179  32.926  1.00  0.00     0.049 A 
ATOM     48  H   UNL A   1      39.786  29.999  31.576  1.00  0.00     0.167 HD
ATOM     49  C   UNL A   1      41.815  27.383  28.650  1.00  0.00     0.034 A 
ATOM     50  C   UNL A   1      39.479  31.282  34.038  1.00  0.00     0.034 A 
ATOM     51  C   UNL A   1      42.723  27.498  29.765  1.00  0.00     0.049 A 
ATOM     52  C   UNL A   1      40.826  30.607  34.063  1.00  0.00     0.074 A 
ATOM     53  C   UNL A   1      43.987  26.955  29.913  1.00  0.00     0.029 A 
ATOM     54  N   UNL A   1      42.460  28.211  30.929  1.00  0.00    -0.354 N 
ATOM     55  N   UNL A   1      41.391  29.855  33.145  1.00  0.00    -0.248 NA
ATOM     56  C   UNL A   1      41.644  30.809  35.264  1.00  0.00     0.031 C 
ATOM     57  C   UNL A   1      44.466  27.295  31.184  1.00  0.00     0.029 A 
ATOM     58  C   UNL A   1      43.531  28.110  31.804  1.00  0.00     0.049 A 
ATOM     59  H   UNL A   1      41.633  28.715  31.108  1.00  0.00     0.167 HD
ATOM     60  C   UNL A   1      42.645  29.523  33.647  1.00  0.00     0.074 A 
ATOM     61  C   UNL A   1      42.758  30.170  34.939  1.00  0.00     0.031 C 
ATOM     62  C   UNL A   1      43.620  28.759  33.090  1.00  0.00     0.034 A 
BRANCH  49  63
ATOM     63  C   UNL A   1      42.199  26.514  27.473  1.00  0.00     0.023 A 
ATOM     64  C   UNL A   1      41.815  25.163  27.394  1.00  0.00     0.031 A 
ATOM     65  C   UNL A   1      42.996  27.029  26.436  1.00  0.00     0.131 A 
ATOM     66  C   UNL A   1      42.298  24.354  26.354  1.00  0.00     0.055 A 
ATOM     67  C   UNL A   1      43.402  26.240  25.357  1.00  0.00     0.041 A 
ATOM     68  F   UNL A   1      43.412  28.305  26.461  1.00  0.00    -0.206 F 
ATOM     69  C   UNL A   1      43.068  24.889  25.320  1.00  0.00     0.022 A 
BRANCH  66  70
ATOM     70  S   UNL A   1      42.033  22.562  26.457  1.00  0.00     0.124 S 
ATOM     71  O   UNL A   1      40.579  22.475  26.349  1.00  0.00    -0.237 OA
ATOM     72  O   UNL A   1      42.790  22.064  25.315  1.00  0.00    -0.237 OA
ATOM     73  O   UNL A   1      42.576  22.211  27.768  1.00  0.00    -0.744 OA
ENDBRANCH  66  70
ENDBRANCH  49  63
BRANCH  50  74
ATOM     74  C   UNL A   1      38.990  32.063  35.209  1.00  0.00     0.023 A 
ATOM     75  C   UNL A   1      38.428  31.420  36.323  1.00  0.00     0.031 A 
ATOM     76  C   UNL A   1      39.058  33.468  35.224  1.00  0.00     0.131 A 
ATOM     77  C   UNL A   1      37.914  32.180  37.385  1.00  0.00     0.055 A 
ATOM     78  C   UNL A   1      38.590  34.218  36.303  1.00  0.00     0.041 A 
ATOM     79  F   UNL A   1      39.599  34.131  34.189  1.00  0.00    -0.206 F 
ATOM     80  C   UNL A   1      38.002  33.574  37.388  1.00  0.00     0.022 A 
BRANCH  77  81
ATOM     81  S   UNL A   1      37.061  31.320  38.736  1.00  0.00     0.124 S 
ATOM     82  O   UNL A   1      35.824  32.084  38.842  1.00  0.00    -0.237 OA
ATOM     83  O   UNL A   1      36.938  29.968  38.202  1.00  0.00    -0.237 OA
ATOM     84  O   UNL A   1      37.982  31.462  39.863  1.00  0.00    -0.744 OA
ENDBRANCH  77  81
ENDBRANCH  50  74
BRANCH  62  85
ATOM     85  C   UNL A   1      44.908  28.631  33.864  1.00  0.00     0.023 A 
ATOM     86  C   UNL A   1      45.113  27.597  34.794  1.00  0.00     0.031 A 
ATOM     87  C   UNL A   1      45.935  29.574  33.681  1.00  0.00     0.131 A 
ATOM     88  C   UNL A   1      46.291  27.568  35.554  1.00  0.00     0.055 A 
ATOM     89  C   UNL A   1      47.131  29.503  34.397  1.00  0.00     0.041 A 
ATOM     90  F   UNL A   1      45.791  30.581  32.806  1.00  0.00    -0.206 F 
ATOM     91  C   UNL A   1      47.308  28.506  35.351  1.00  0.00     0.022 A 
BRANCH  88  92
ATOM     92  S   UNL A   1      46.435  26.347  36.887  1.00  0.00     0.124 S 
ATOM     93  O   UNL A   1      45.042  26.161  37.280  1.00  0.00    -0.237 OA
ATOM     94  O   UNL A   1      47.062  25.217  36.209  1.00  0.00    -0.237 OA
ATOM     95  O   UNL A   1      47.274  27.019  37.878  1.00  0.00    -0.744 OA
ENDBRANCH  88  92
ENDBRANCH  62  85
ENDBRANCH  36  37
ENDBRANCH  28  31
ENDBRANCH  26  27
ENDBRANCH  25  26
ENDBRANCH  24  25
ENDBRANCH   3  24
TORSDOF 19
ENDMDL
MODEL 3
REMARK VINA RESULT:     -11.2      2.477      3.023
REMARK SMILES CN(CCc1ccccn1)C(=O)NC1(CC(=O)NCCCNC(=O)c2ccc(-c3c4nc(c(-c5cc(S(=O)(=O)[O-])ccc5F)c5ccc([nH]5)c(-c5cc(S(=O)(=O)[O-])ccc5F)c5nc(c(-c6cc(S(=O)(=O)[O-])ccc6F)c6ccc3[nH]6)C=C5)C=C4)cc2)CCC1
REMARK SMILES IDX 16 1 17 2 18 3 15 5 14 6 88 7 90 8 89 9 13 10 11 11 12 12
REMARK SMILES IDX 2 14 1 15 3 16 4 17 5 18 6 19 10 20 7 21 9 22 8 23 19 24
REMARK SMILES IDX 20 25 21 26 22 27 23 28 24 30 25 31 26 32 87 33 27 34 86 35
REMARK SMILES IDX 28 36 29 37 30 38 80 39 31 40 85 41 79 42 81 43 32 44 84 45
REMARK SMILES IDX 78 46 77 47 33 49 65 50 45 51 64 52 46 53 49 54 63 55 82 56
REMARK SMILES IDX 47 57 48 58 62 60 83 61 50 62 34 63 35 64 43 65 36 66 42 67
REMARK SMILES IDX 44 68 41 69 37 70 38 71 39 72 40 73 66 74 67 75 75 76 68 77
REMARK SMILES IDX 74 78 76 79 73 80 69 81 70 82 71 83 72 84 51 85 52 86 60 87
REMARK SMILES IDX 53 88 59 89 61 90 58 91 54 92 55 93 56 94 57 95
REMARK H PARENT 18 4 13 13 22 29 81 48 49 59
REMARK Flexibility Score: inf
ROOT
ATOM      1  C   UNL A   1      33.088  26.797  25.108  1.00  0.00     0.222 C 
ATOM      2  O   UNL A   1      33.932  26.191  24.444  1.00  0.00    -0.275 OA
ATOM      3  N   UNL A   1      32.834  28.091  24.772  1.00  0.00    -0.356 N 
ATOM      4  H   UNL A   1      33.452  28.479  24.112  1.00  0.00     0.163 HD
ENDROOT
BRANCH   1   5
ATOM      5  C   UNL A   1      32.309  26.096  26.203  1.00  0.00     0.128 C 
BRANCH   5   6
ATOM      6  C   UNL A   1      31.163  25.156  25.797  1.00  0.00     0.051 C 
ATOM      7  C   UNL A   1      30.978  25.040  24.249  1.00  0.00     0.029 C 
ATOM      8  C   UNL A   1      29.706  25.758  25.785  1.00  0.00     0.029 C 
ATOM      9  C   UNL A   1      29.848  26.062  24.298  1.00  0.00     0.005 C 
BRANCH   6  10
ATOM     10  N   UNL A   1      31.161  23.888  26.584  1.00  0.00    -0.332 N 
ATOM     11  C   UNL A   1      32.122  22.944  26.792  1.00  0.00     0.317 C 
ATOM     12  O   UNL A   1      32.357  22.650  27.968  1.00  0.00    -0.249 OA
ATOM     13  H   UNL A   1      30.308  23.697  27.036  1.00  0.00     0.165 HD
BRANCH  11  14
ATOM     14  N   UNL A   1      32.707  22.290  25.736  1.00  0.00    -0.327 N 
ATOM     15  C   UNL A   1      34.091  22.619  25.438  1.00  0.00     0.148 C 
BRANCH  14  16
ATOM     16  C   UNL A   1      32.212  21.049  25.151  1.00  0.00     0.127 C 
BRANCH  16  17
ATOM     17  C   UNL A   1      33.197  20.207  24.306  1.00  0.00     0.078 C 
BRANCH  17  18
ATOM     18  C   UNL A   1      33.253  18.719  24.542  1.00  0.00     0.042 A 
ATOM     19  C   UNL A   1      34.113  17.885  23.828  1.00  0.00     0.024 A 
ATOM     20  N   UNL A   1      32.397  18.231  25.471  1.00  0.00    -0.261 NA
ATOM     21  C   UNL A   1      34.034  16.506  24.021  1.00  0.00     0.003 A 
ATOM     22  C   UNL A   1      32.332  16.891  25.630  1.00  0.00     0.111 A 
ATOM     23  C   UNL A   1      33.115  15.995  24.927  1.00  0.00     0.020 A 
ENDBRANCH  17  18
ENDBRANCH  16  17
ENDBRANCH  14  16
ENDBRANCH  11  14
ENDBRANCH   6  10
ENDBRANCH   5   6
ENDBRANCH   1   5
BRANCH   3  24
ATOM     24  C   UNL A   1      31.795  28.984  25.238  1.00  0.00     0.117 C 
BRANCH  24  25
ATOM     25  C   UNL A   1      32.120  29.569  26.610  1.00  0.00     0.042 C 
BRANCH  25  26
ATOM     26  C   UNL A   1      33.578  29.960  26.782  1.00  0.00     0.118 C 
BRANCH  26  27
ATOM     27  N   UNL A   1      33.695  31.263  27.418  1.00  0.00    -0.352 N 
ATOM     28  C   UNL A   1      34.533  31.704  28.409  1.00  0.00     0.251 C 
ATOM     29  H   UNL A   1      33.068  31.943  27.079  1.00  0.00     0.163 HD
ATOM     30  O   UNL A   1      34.210  32.711  29.036  1.00  0.00    -0.269 OA
BRANCH  28  31
ATOM     31  C   UNL A   1      35.807  31.011  28.724  1.00  0.00     0.039 A 
ATOM     32  C   UNL A   1      35.757  29.826  29.469  1.00  0.00     0.014 A 
ATOM     33  C   UNL A   1      37.049  31.562  28.400  1.00  0.00     0.014 A 
ATOM     34  C   UNL A   1      36.938  29.202  29.877  1.00  0.00     0.010 A 
ATOM     35  C   UNL A   1      38.226  30.889  28.721  1.00  0.00     0.010 A 
ATOM     36  C   UNL A   1      38.185  29.725  29.501  1.00  0.00    -0.014 A 
BRANCH  36  37
ATOM     37  C   UNL A   1      39.452  29.121  29.984  1.00  0.00     0.031 A 
ATOM     38  C   UNL A   1      40.129  29.683  31.209  1.00  0.00     0.074 A 
ATOM     39  C   UNL A   1      40.010  28.102  29.304  1.00  0.00     0.049 A 
ATOM     40  N   UNL A   1      41.269  29.347  31.757  1.00  0.00    -0.248 NA
ATOM     41  C   UNL A   1      39.449  30.800  31.884  1.00  0.00     0.031 C 
ATOM     42  C   UNL A   1      39.467  27.503  28.083  1.00  0.00     0.029 A 
ATOM     43  N   UNL A   1      41.158  27.389  29.541  1.00  0.00    -0.354 N 
ATOM     44  C   UNL A   1      41.452  30.225  32.823  1.00  0.00     0.074 A 
ATOM     45  C   UNL A   1      40.340  31.149  32.799  1.00  0.00     0.031 C 
ATOM     46  C   UNL A   1      40.265  26.495  27.694  1.00  0.00     0.029 A 
ATOM     47  C   UNL A   1      41.394  26.400  28.613  1.00  0.00     0.049 A 
ATOM     48  H   UNL A   1      41.755  27.567  30.302  1.00  0.00     0.167 HD
ATOM     49  C   UNL A   1      42.442  30.242  33.750  1.00  0.00     0.034 A 
ATOM     50  C   UNL A   1      42.409  25.519  28.517  1.00  0.00     0.034 A 
ATOM     51  C   UNL A   1      43.526  29.291  33.773  1.00  0.00     0.049 A 
ATOM     52  C   UNL A   1      43.485  25.538  29.572  1.00  0.00     0.074 A 
ATOM     53  C   UNL A   1      44.561  29.179  34.685  1.00  0.00     0.029 A 
ATOM     54  N   UNL A   1      43.715  28.283  32.835  1.00  0.00    -0.354 N 
ATOM     55  N   UNL A   1      43.624  26.350  30.597  1.00  0.00    -0.248 NA
ATOM     56  C   UNL A   1      44.528  24.511  29.470  1.00  0.00     0.031 C 
ATOM     57  C   UNL A   1      45.401  28.138  34.271  1.00  0.00     0.029 A 
ATOM     58  C   UNL A   1      44.854  27.555  33.138  1.00  0.00     0.049 A 
ATOM     59  H   UNL A   1      43.124  28.110  32.066  1.00  0.00     0.167 HD
ATOM     60  C   UNL A   1      44.753  25.908  31.279  1.00  0.00     0.074 A 
ATOM     61  C   UNL A   1      45.245  24.751  30.558  1.00  0.00     0.031 C 
ATOM     62  C   UNL A   1      45.330  26.407  32.402  1.00  0.00     0.034 A 
BRANCH  49  63
ATOM     63  C   UNL A   1      42.398  31.336  34.794  1.00  0.00     0.023 A 
ATOM     64  C   UNL A   1      43.046  32.570  34.602  1.00  0.00     0.031 A 
ATOM     65  C   UNL A   1      41.736  31.128  36.018  1.00  0.00     0.131 A 
ATOM     66  C   UNL A   1      43.093  33.509  35.643  1.00  0.00     0.055 A 
ATOM     67  C   UNL A   1      41.714  32.103  37.018  1.00  0.00     0.041 A 
ATOM     68  F   UNL A   1      41.116  29.966  36.271  1.00  0.00    -0.206 F 
ATOM     69  C   UNL A   1      42.409  33.296  36.841  1.00  0.00     0.022 A 
BRANCH  66  70
ATOM     70  S   UNL A   1      44.189  34.944  35.465  1.00  0.00     0.124 S 
ATOM     71  O   UNL A   1      45.487  34.365  35.803  1.00  0.00    -0.237 OA
ATOM     72  O   UNL A   1      43.999  35.316  34.069  1.00  0.00    -0.237 OA
ATOM     73  O   UNL A   1      43.666  35.897  36.443  1.00  0.00    -0.744 OA
ENDBRANCH  66  70
ENDBRANCH  49  63
BRANCH  50  74
ATOM     74  C   UNL A   1      42.451  24.539  27.396  1.00  0.00     0.023 A 
ATOM     75  C   UNL A   1      41.656  23.382  27.418  1.00  0.00     0.031 A 
ATOM     76  C   UNL A   1      43.303  24.733  26.294  1.00  0.00     0.131 A 
ATOM     77  C   UNL A   1      41.763  22.440  26.382  1.00  0.00     0.055 A 
ATOM     78  C   UNL A   1      43.370  23.818  25.243  1.00  0.00     0.041 A 
ATOM     79  F   UNL A   1      44.074  25.830  26.219  1.00  0.00    -0.206 F 
ATOM     80  C   UNL A   1      42.606  22.656  25.290  1.00  0.00     0.022 A 
BRANCH  77  81
ATOM     81  S   UNL A   1      40.833  20.889  26.521  1.00  0.00     0.124 S 
ATOM     82  O   UNL A   1      41.658  19.975  25.739  1.00  0.00    -0.237 OA
ATOM     83  O   UNL A   1      40.822  20.672  27.963  1.00  0.00    -0.237 OA
ATOM     84  O   UNL A   1      39.536  21.217  25.932  1.00  0.00    -0.744 OA
ENDBRANCH  77  81
ENDBRANCH  50  74
BRANCH  62  85
ATOM     85  C   UNL A   1      46.527  25.664  32.939  1.00  0.00     0.023 A 
ATOM     86  C   UNL A   1      47.819  25.870  32.424  1.00  0.00     0.031 A 
ATOM     87  C   UNL A   1      46.366  24.719  33.967  1.00  0.00     0.131 A 
ATOM     88  C   UNL A   1      48.888  25.094  32.893  1.00  0.00     0.055 A 
ATOM     89  C   UNL A   1      47.445  23.993  34.473  1.00  0.00     0.041 A 
ATOM     90  F   UNL A   1      45.155  24.483  34.495  1.00  0.00    -0.206 F 
ATOM     91  C   UNL A   1      48.712  24.168  33.925  1.00  0.00     0.022 A 
BRANCH  88  92
ATOM     92  S   UNL A   1      50.495  25.239  32.065  1.00  0.00     0.124 S 
ATOM     93  O   UNL A   1      51.303  25.902  33.083  1.00  0.00    -0.237 OA
ATOM     94  O   UNL A   1      50.832  23.846  31.793  1.00  0.00    -0.237 OA
ATOM     95  O   UNL A   1      50.200  26.048  30.883  1.00  0.00    -0.744 OA
ENDBRANCH  88  92
ENDBRANCH  62  85
ENDBRANCH  36  37
ENDBRANCH  28  31
ENDBRANCH  26  27
ENDBRANCH  25  26
ENDBRANCH  24  25
ENDBRANCH   3  24
TORSDOF 19
ENDMDL
