MODEL 1
REMARK VINA RESULT:     -11.9      0.000      0.000
REMARK SMILES Cc1sc(-c2ccco2)nc1C(=O)N[C@@H](C(=O)NCCCNC(=O)c1ccc(-c2c3nc(c(-c4cc(S(=O)(=O)[O-])ccc4F)c4ccc([nH]4)c(-c4cc(S(=O)(=O)[O-])ccc4F)c4nc(c(-c5cc(S(=O)(=O)[O-])ccc5F)c5ccc2[nH]5)C=C4)C=C3)cc1)C(C)C
REMARK SMILES IDX 20 1 19 2 18 3 16 4 17 5 15 7 14 8 12 9 13 10 11 12 1 13
REMARK SMILES IDX 2 14 3 15 4 16 10 17 5 18 6 19 9 20 7 21 8 22 88 23 89 24
REMARK SMILES IDX 90 25 21 26 22 27 23 28 24 30 25 31 26 32 87 33 27 34 86 35
REMARK SMILES IDX 28 36 29 37 30 38 80 39 31 40 85 41 79 42 81 43 32 44 84 45
REMARK SMILES IDX 78 46 77 47 33 49 65 50 45 51 64 52 46 53 49 54 63 55 82 56
REMARK SMILES IDX 47 57 48 58 62 60 83 61 50 62 34 63 35 64 43 65 36 66 42 67
REMARK SMILES IDX 44 68 41 69 37 70 38 71 39 72 40 73 66 74 67 75 75 76 68 77
REMARK SMILES IDX 74 78 76 79 73 80 69 81 70 82 71 83 72 84 51 85 52 86 60 87
REMARK SMILES IDX 53 88 59 89 61 90 58 91 54 92 55 93 56 94 57 95
REMARK H PARENT 18 6 14 11 22 29 81 48 49 59
REMARK Flexibility Score: inf
ROOT
ATOM      1  C   UNL A   1      36.735  22.784  24.410  1.00  0.00     0.042 C 
ENDROOT
BRANCH   1   2
ATOM      2  C   UNL A   1      35.307  22.275  24.515  1.00  0.00     0.117 C 
BRANCH   2   3
ATOM      3  N   UNL A   1      35.008  21.761  25.837  1.00  0.00    -0.354 N 
ATOM      4  C   UNL A   1      33.806  21.528  26.444  1.00  0.00     0.242 C 
ATOM      5  O   UNL A   1      33.833  21.109  27.603  1.00  0.00    -0.273 OA
ATOM      6  H   UNL A   1      35.797  21.546  26.385  1.00  0.00     0.163 HD
BRANCH   4   7
ATOM      7  C   UNL A   1      32.487  21.649  25.635  1.00  0.00     0.174 C 
BRANCH   7   8
ATOM      8  N   UNL A   1      31.395  22.080  26.483  1.00  0.00    -0.339 N 
ATOM      9  C   UNL A   1      30.694  23.249  26.634  1.00  0.00     0.271 C 
ATOM     10  O   UNL A   1      29.820  23.165  27.506  1.00  0.00    -0.267 OA
ATOM     11  H   UNL A   1      31.086  21.372  27.093  1.00  0.00     0.164 HD
BRANCH   9  12
ATOM     12  C   UNL A   1      30.881  24.535  25.892  1.00  0.00     0.142 A 
ATOM     13  C   UNL A   1      30.386  24.361  23.244  1.00  0.00     0.059 C 
ATOM     14  C   UNL A   1      30.708  24.967  24.567  1.00  0.00     0.035 A 
ATOM     15  S   UNL A   1      30.946  26.687  24.476  1.00  0.00    -0.115 S 
ATOM     16  C   UNL A   1      31.568  26.693  26.049  1.00  0.00     0.160 A 
ATOM     17  N   UNL A   1      31.461  25.558  26.689  1.00  0.00    -0.227 NA
BRANCH  16  18
ATOM     18  C   UNL A   1      32.223  27.853  26.564  1.00  0.00     0.162 A 
ATOM     19  C   UNL A   1      33.582  28.063  26.740  1.00  0.00     0.053 A 
ATOM     20  O   UNL A   1      31.555  29.010  26.884  1.00  0.00    -0.462 OA
ATOM     21  C   UNL A   1      33.744  29.406  27.158  1.00  0.00     0.043 A 
ATOM     22  C   UNL A   1      32.480  29.930  27.253  1.00  0.00     0.196 A 
ENDBRANCH  16  18
ENDBRANCH   9  12
ENDBRANCH   7   8
BRANCH   7  23
ATOM     23  C   UNL A   1      32.152  20.370  24.828  1.00  0.00     0.015 C 
ATOM     24  C   UNL A   1      32.351  20.562  23.318  1.00  0.00     0.010 C 
ATOM     25  C   UNL A   1      33.052  19.212  25.290  1.00  0.00     0.010 C 
ENDBRANCH   7  23
ENDBRANCH   4   7
ENDBRANCH   2   3
ENDBRANCH   1   2
BRANCH   1  26
ATOM     26  C   UNL A   1      37.363  23.021  25.774  1.00  0.00     0.118 C 
BRANCH  26  27
ATOM     27  N   UNL A   1      38.434  22.073  26.055  1.00  0.00    -0.352 N 
ATOM     28  C   UNL A   1      39.712  22.308  26.489  1.00  0.00     0.251 C 
ATOM     29  H   UNL A   1      38.205  21.126  25.913  1.00  0.00     0.163 HD
ATOM     30  O   UNL A   1      40.528  21.385  26.476  1.00  0.00    -0.269 OA
BRANCH  28  31
ATOM     31  C   UNL A   1      40.109  23.655  26.948  1.00  0.00     0.039 A 
ATOM     32  C   UNL A   1      39.998  24.731  26.065  1.00  0.00     0.014 A 
ATOM     33  C   UNL A   1      40.607  23.859  28.239  1.00  0.00     0.014 A 
ATOM     34  C   UNL A   1      40.351  26.012  26.488  1.00  0.00     0.010 A 
ATOM     35  C   UNL A   1      40.864  25.148  28.689  1.00  0.00     0.010 A 
ATOM     36  C   UNL A   1      40.767  26.235  27.811  1.00  0.00    -0.014 A 
BRANCH  36  37
ATOM     37  C   UNL A   1      41.163  27.589  28.274  1.00  0.00     0.031 A 
ATOM     38  C   UNL A   1      42.614  27.996  28.235  1.00  0.00     0.074 A 
ATOM     39  C   UNL A   1      40.233  28.429  28.766  1.00  0.00     0.049 A 
ATOM     40  N   UNL A   1      43.177  29.104  28.642  1.00  0.00    -0.248 NA
ATOM     41  C   UNL A   1      43.561  27.007  27.697  1.00  0.00     0.031 C 
ATOM     42  C   UNL A   1      38.805  28.129  28.894  1.00  0.00     0.029 A 
ATOM     43  N   UNL A   1      40.347  29.708  29.250  1.00  0.00    -0.354 N 
ATOM     44  C   UNL A   1      44.541  28.938  28.425  1.00  0.00     0.074 A 
ATOM     45  C   UNL A   1      44.725  27.594  27.924  1.00  0.00     0.031 C 
ATOM     46  C   UNL A   1      38.172  29.206  29.389  1.00  0.00     0.029 A 
ATOM     47  C   UNL A   1      39.152  30.254  29.655  1.00  0.00     0.049 A 
ATOM     48  H   UNL A   1      41.205  30.189  29.301  1.00  0.00     0.167 HD
ATOM     49  C   UNL A   1      45.544  29.834  28.598  1.00  0.00     0.034 A 
ATOM     50  C   UNL A   1      38.879  31.462  30.186  1.00  0.00     0.034 A 
ATOM     51  C   UNL A   1      45.337  31.176  29.085  1.00  0.00     0.049 A 
ATOM     52  C   UNL A   1      40.012  32.441  30.375  1.00  0.00     0.074 A 
ATOM     53  C   UNL A   1      46.270  32.184  29.265  1.00  0.00     0.029 A 
ATOM     54  N   UNL A   1      44.110  31.701  29.472  1.00  0.00    -0.354 N 
ATOM     55  N   UNL A   1      41.292  32.286  30.123  1.00  0.00    -0.248 NA
ATOM     56  C   UNL A   1      39.657  33.765  30.898  1.00  0.00     0.031 C 
ATOM     57  C   UNL A   1      45.620  33.290  29.822  1.00  0.00     0.029 A 
ATOM     58  C   UNL A   1      44.266  33.008  29.910  1.00  0.00     0.049 A 
ATOM     59  H   UNL A   1      43.254  31.216  29.441  1.00  0.00     0.167 HD
ATOM     60  C   UNL A   1      41.886  33.511  30.420  1.00  0.00     0.074 A 
ATOM     61  C   UNL A   1      40.821  34.393  30.850  1.00  0.00     0.031 C 
ATOM     62  C   UNL A   1      43.193  33.875  30.341  1.00  0.00     0.034 A 
BRANCH  49  63
ATOM     63  C   UNL A   1      46.949  29.373  28.279  1.00  0.00     0.023 A 
ATOM     64  C   UNL A   1      47.340  29.041  26.969  1.00  0.00     0.031 A 
ATOM     65  C   UNL A   1      47.901  29.224  29.303  1.00  0.00     0.131 A 
ATOM     66  C   UNL A   1      48.612  28.496  26.732  1.00  0.00     0.055 A 
ATOM     67  C   UNL A   1      49.196  28.769  29.046  1.00  0.00     0.041 A 
ATOM     68  F   UNL A   1      47.584  29.501  30.578  1.00  0.00    -0.206 F 
ATOM     69  C   UNL A   1      49.552  28.384  27.756  1.00  0.00     0.022 A 
BRANCH  66  70
ATOM     70  S   UNL A   1      48.958  27.786  25.098  1.00  0.00     0.124 S 
ATOM     71  O   UNL A   1      50.204  28.462  24.742  1.00  0.00    -0.237 OA
ATOM     72  O   UNL A   1      49.062  26.362  25.388  1.00  0.00    -0.237 OA
ATOM     73  O   UNL A   1      47.797  28.179  24.302  1.00  0.00    -0.744 OA
ENDBRANCH  66  70
ENDBRANCH  49  63
BRANCH  50  74
ATOM     74  C   UNL A   1      37.484  31.827  30.570  1.00  0.00     0.023 A 
ATOM     75  C   UNL A   1      36.625  32.462  29.659  1.00  0.00     0.031 A 
ATOM     76  C   UNL A   1      37.006  31.588  31.871  1.00  0.00     0.131 A 
ATOM     77  C   UNL A   1      35.355  32.890  30.077  1.00  0.00     0.055 A 
ATOM     78  C   UNL A   1      35.719  31.962  32.263  1.00  0.00     0.041 A 
ATOM     79  F   UNL A   1      37.783  30.978  32.779  1.00  0.00    -0.206 F 
ATOM     80  C   UNL A   1      34.891  32.632  31.368  1.00  0.00     0.022 A 
BRANCH  77  81
ATOM     81  S   UNL A   1      34.352  33.877  28.931  1.00  0.00     0.124 S 
ATOM     82  O   UNL A   1      35.327  34.845  28.443  1.00  0.00    -0.237 OA
ATOM     83  O   UNL A   1      33.910  32.871  27.972  1.00  0.00    -0.237 OA
ATOM     84  O   UNL A   1      33.301  34.425  29.786  1.00  0.00    -0.744 OA
ENDBRANCH  77  81
ENDBRANCH  50  74
BRANCH  62  85
ATOM     85  C   UNL A   1      43.523  35.314  30.667  1.00  0.00     0.023 A 
ATOM     86  C   UNL A   1      43.737  35.749  31.986  1.00  0.00     0.031 A 
ATOM     87  C   UNL A   1      43.584  36.273  29.639  1.00  0.00     0.131 A 
ATOM     88  C   UNL A   1      43.921  37.114  32.251  1.00  0.00     0.055 A 
ATOM     89  C   UNL A   1      43.842  37.618  29.901  1.00  0.00     0.041 A 
ATOM     90  F   UNL A   1      43.386  35.918  28.359  1.00  0.00    -0.206 F 
ATOM     91  C   UNL A   1      43.993  38.049  31.216  1.00  0.00     0.022 A 
BRANCH  88  92
ATOM     92  S   UNL A   1      43.924  37.671  33.977  1.00  0.00     0.124 S 
ATOM     93  O   UNL A   1      42.498  37.820  34.252  1.00  0.00    -0.237 OA
ATOM     94  O   UNL A   1      44.593  36.567  34.659  1.00  0.00    -0.237 OA
ATOM     95  O   UNL A   1      44.681  38.920  33.933  1.00  0.00    -0.744 OA
ENDBRANCH  88  92
ENDBRANCH  62  85
ENDBRANCH  36  37
ENDBRANCH  28  31
ENDBRANCH  26  27
ENDBRANCH   1  26
TORSDOF 17
ENDMDL
MODEL 2
REMARK VINA RESULT:     -11.8      2.418      2.962
REMARK SMILES Cc1sc(-c2ccco2)nc1C(=O)N[C@@H](C(=O)NCCCNC(=O)c1ccc(-c2c3nc(c(-c4cc(S(=O)(=O)[O-])ccc4F)c4ccc([nH]4)c(-c4cc(S(=O)(=O)[O-])ccc4F)c4nc(c(-c5cc(S(=O)(=O)[O-])ccc5F)c5ccc2[nH]5)C=C4)C=C3)cc1)C(C)C
REMARK SMILES IDX 20 1 19 2 18 3 16 4 17 5 15 7 14 8 12 9 13 10 11 12 1 13
REMARK SMILES IDX 2 14 3 15 4 16 10 17 5 18 6 19 9 20 7 21 8 22 88 23 89 24
REMARK SMILES IDX 90 25 21 26 22 27 23 28 24 30 25 31 26 32 87 33 27 34 86 35
REMARK SMILES IDX 28 36 29 37 30 38 80 39 31 40 85 41 79 42 81 43 32 44 84 45
REMARK SMILES IDX 78 46 77 47 33 49 65 50 45 51 64 52 46 53 49 54 63 55 82 56
REMARK SMILES IDX 47 57 48 58 62 60 83 61 50 62 34 63 35 64 43 65 36 66 42 67
REMARK SMILES IDX 44 68 41 69 37 70 38 71 39 72 40 73 66 74 67 75 75 76 68 77
REMARK SMILES IDX 74 78 76 79 73 80 69 81 70 82 71 83 72 84 51 85 52 86 60 87
REMARK SMILES IDX 53 88 59 89 61 90 58 91 54 92 55 93 56 94 57 95
REMARK H PARENT 18 6 14 11 22 29 81 48 49 59
REMARK Flexibility Score: inf
ROOT
ATOM      1  C   UNL A   1      36.276  21.780  25.369  1.00  0.00     0.042 C 
ENDROOT
BRANCH   1   2
ATOM      2  C   UNL A   1      35.768  23.024  26.079  1.00  0.00     0.117 C 
BRANCH   2   3
ATOM      3  N   UNL A   1      34.797  22.704  27.107  1.00  0.00    -0.354 N 
ATOM      4  C   UNL A   1      33.446  22.916  27.144  1.00  0.00     0.242 C 
ATOM      5  O   UNL A   1      32.851  22.569  28.166  1.00  0.00    -0.273 OA
ATOM      6  H   UNL A   1      35.169  22.265  27.906  1.00  0.00     0.163 HD
BRANCH   4   7
ATOM      7  C   UNL A   1      32.703  23.431  25.883  1.00  0.00     0.174 C 
BRANCH   7   8
ATOM      8  N   UNL A   1      31.376  23.903  26.220  1.00  0.00    -0.339 N 
ATOM      9  C   UNL A   1      30.677  25.061  25.992  1.00  0.00     0.271 C 
ATOM     10  O   UNL A   1      29.540  25.028  26.478  1.00  0.00    -0.267 OA
ATOM     11  H   UNL A   1      30.856  23.242  26.732  1.00  0.00     0.164 HD
BRANCH   9  12
ATOM     12  C   UNL A   1      31.136  26.282  25.260  1.00  0.00     0.142 A 
ATOM     13  C   UNL A   1      33.562  27.182  26.032  1.00  0.00     0.059 C 
ATOM     14  C   UNL A   1      32.295  27.076  25.253  1.00  0.00     0.035 A 
ATOM     15  S   UNL A   1      32.193  28.251  23.976  1.00  0.00    -0.115 S 
ATOM     16  C   UNL A   1      30.559  27.876  23.751  1.00  0.00     0.160 A 
ATOM     17  N   UNL A   1      30.131  26.844  24.429  1.00  0.00    -0.227 NA
BRANCH  16  18
ATOM     18  C   UNL A   1      29.732  28.705  22.932  1.00  0.00     0.162 A 
ATOM     19  C   UNL A   1      28.369  28.929  23.040  1.00  0.00     0.053 A 
ATOM     20  O   UNL A   1      30.230  29.503  21.930  1.00  0.00    -0.462 OA
ATOM     21  C   UNL A   1      28.033  29.919  22.085  1.00  0.00     0.043 A 
ATOM     22  C   UNL A   1      29.196  30.216  21.421  1.00  0.00     0.196 A 
ENDBRANCH  16  18
ENDBRANCH   9  12
ENDBRANCH   7   8
BRANCH   7  23
ATOM     23  C   UNL A   1      32.699  22.407  24.722  1.00  0.00     0.015 C 
ATOM     24  C   UNL A   1      32.188  21.027  25.160  1.00  0.00     0.010 C 
ATOM     25  C   UNL A   1      31.798  22.914  23.583  1.00  0.00     0.010 C 
ENDBRANCH   7  23
ENDBRANCH   4   7
ENDBRANCH   2   3
ENDBRANCH   1   2
BRANCH   1  26
ATOM     26  C   UNL A   1      37.756  21.873  25.033  1.00  0.00     0.118 C 
BRANCH  26  27
ATOM     27  N   UNL A   1      38.544  20.885  25.759  1.00  0.00    -0.352 N 
ATOM     28  C   UNL A   1      39.668  21.059  26.522  1.00  0.00     0.251 C 
ATOM     29  H   UNL A   1      38.221  19.958  25.691  1.00  0.00     0.163 HD
ATOM     30  O   UNL A   1      40.302  20.068  26.890  1.00  0.00    -0.269 OA
BRANCH  28  31
ATOM     31  C   UNL A   1      40.123  22.417  26.883  1.00  0.00     0.039 A 
ATOM     32  C   UNL A   1      41.131  22.562  27.838  1.00  0.00     0.014 A 
ATOM     33  C   UNL A   1      39.548  23.549  26.296  1.00  0.00     0.014 A 
ATOM     34  C   UNL A   1      41.585  23.838  28.177  1.00  0.00     0.010 A 
ATOM     35  C   UNL A   1      40.068  24.810  26.561  1.00  0.00     0.010 A 
ATOM     36  C   UNL A   1      41.072  24.971  27.525  1.00  0.00    -0.014 A 
BRANCH  36  37
ATOM     37  C   UNL A   1      41.531  26.337  27.884  1.00  0.00     0.031 A 
ATOM     38  C   UNL A   1      42.924  26.777  27.513  1.00  0.00     0.074 A 
ATOM     39  C   UNL A   1      40.718  27.159  28.574  1.00  0.00     0.049 A 
ATOM     40  N   UNL A   1      43.538  27.901  27.780  1.00  0.00    -0.248 NA
ATOM     41  C   UNL A   1      43.747  25.807  26.774  1.00  0.00     0.031 C 
ATOM     42  C   UNL A   1      39.365  26.827  29.026  1.00  0.00     0.029 A 
ATOM     43  N   UNL A   1      40.908  28.443  29.017  1.00  0.00    -0.354 N 
ATOM     44  C   UNL A   1      44.820  27.765  27.256  1.00  0.00     0.074 A 
ATOM     45  C   UNL A   1      44.917  26.423  26.728  1.00  0.00     0.031 C 
ATOM     46  C   UNL A   1      38.836  27.891  29.652  1.00  0.00     0.029 A 
ATOM     47  C   UNL A   1      39.825  28.964  29.685  1.00  0.00     0.049 A 
ATOM     48  H   UNL A   1      41.743  28.945  28.870  1.00  0.00     0.167 HD
ATOM     49  C   UNL A   1      45.814  28.686  27.193  1.00  0.00     0.034 A 
ATOM     50  C   UNL A   1      39.651  30.169  30.262  1.00  0.00     0.034 A 
ATOM     51  C   UNL A   1      45.691  30.026  27.713  1.00  0.00     0.049 A 
ATOM     52  C   UNL A   1      40.773  31.175  30.185  1.00  0.00     0.074 A 
ATOM     53  C   UNL A   1      46.615  31.056  27.673  1.00  0.00     0.029 A 
ATOM     54  N   UNL A   1      44.572  30.525  28.370  1.00  0.00    -0.354 N 
ATOM     55  N   UNL A   1      41.965  31.049  29.648  1.00  0.00    -0.248 NA
ATOM     56  C   UNL A   1      40.515  32.494  30.775  1.00  0.00     0.031 C 
ATOM     57  C   UNL A   1      46.084  32.151  28.364  1.00  0.00     0.029 A 
ATOM     58  C   UNL A   1      44.793  31.838  28.759  1.00  0.00     0.049 A 
ATOM     59  H   UNL A   1      43.744  30.020  28.536  1.00  0.00     0.167 HD
ATOM     60  C   UNL A   1      42.582  32.289  29.800  1.00  0.00     0.074 A 
ATOM     61  C   UNL A   1      41.622  33.148  30.460  1.00  0.00     0.031 C 
ATOM     62  C   UNL A   1      43.826  32.683  29.423  1.00  0.00     0.034 A 
BRANCH  49  63
ATOM     63  C   UNL A   1      47.120  28.256  26.562  1.00  0.00     0.023 A 
ATOM     64  C   UNL A   1      47.295  28.234  25.167  1.00  0.00     0.031 A 
ATOM     65  C   UNL A   1      48.190  27.822  27.363  1.00  0.00     0.131 A 
ATOM     66  C   UNL A   1      48.474  27.709  24.615  1.00  0.00     0.055 A 
ATOM     67  C   UNL A   1      49.397  27.387  26.809  1.00  0.00     0.041 A 
ATOM     68  F   UNL A   1      48.079  27.796  28.701  1.00  0.00    -0.206 F 
ATOM     69  C   UNL A   1      49.537  27.311  25.426  1.00  0.00     0.022 A 
BRANCH  66  70
ATOM     70  S   UNL A   1      48.530  27.401  22.827  1.00  0.00     0.124 S 
ATOM     71  O   UNL A   1      48.345  25.953  22.772  1.00  0.00    -0.237 OA
ATOM     72  O   UNL A   1      47.421  28.207  22.333  1.00  0.00    -0.237 OA
ATOM     73  O   UNL A   1      49.861  27.866  22.442  1.00  0.00    -0.744 OA
ENDBRANCH  66  70
ENDBRANCH  49  63
BRANCH  50  74
ATOM     74  C   UNL A   1      38.373  30.504  30.955  1.00  0.00     0.023 A 
ATOM     75  C   UNL A   1      37.359  31.217  30.297  1.00  0.00     0.031 A 
ATOM     76  C   UNL A   1      38.167  30.155  32.302  1.00  0.00     0.131 A 
ATOM     77  C   UNL A   1      36.210  31.612  31.002  1.00  0.00     0.055 A 
ATOM     78  C   UNL A   1      36.996  30.498  32.981  1.00  0.00     0.041 A 
ATOM     79  F   UNL A   1      39.101  29.467  32.976  1.00  0.00    -0.206 F 
ATOM     80  C   UNL A   1      36.016  31.246  32.335  1.00  0.00     0.022 A 
BRANCH  77  81
ATOM     81  S   UNL A   1      35.014  32.697  30.175  1.00  0.00     0.124 S 
ATOM     82  O   UNL A   1      34.537  31.841  29.094  1.00  0.00    -0.237 OA
ATOM     83  O   UNL A   1      34.062  32.970  31.245  1.00  0.00    -0.237 OA
ATOM     84  O   UNL A   1      35.824  33.839  29.756  1.00  0.00    -0.744 OA
ENDBRANCH  77  81
ENDBRANCH  50  74
BRANCH  62  85
ATOM     85  C   UNL A   1      44.187  34.131  29.662  1.00  0.00     0.023 A 
ATOM     86  C   UNL A   1      43.728  35.162  28.825  1.00  0.00     0.031 A 
ATOM     87  C   UNL A   1      45.040  34.477  30.727  1.00  0.00     0.131 A 
ATOM     88  C   UNL A   1      44.186  36.475  29.016  1.00  0.00     0.055 A 
ATOM     89  C   UNL A   1      45.433  35.796  30.957  1.00  0.00     0.041 A 
ATOM     90  F   UNL A   1      45.513  33.536  31.559  1.00  0.00    -0.206 F 
ATOM     91  C   UNL A   1      45.021  36.801  30.087  1.00  0.00     0.022 A 
BRANCH  88  92
ATOM     92  S   UNL A   1      43.789  37.724  27.762  1.00  0.00     0.124 S 
ATOM     93  O   UNL A   1      42.947  38.651  28.513  1.00  0.00    -0.237 OA
ATOM     94  O   UNL A   1      45.109  38.222  27.390  1.00  0.00    -0.237 OA
ATOM     95  O   UNL A   1      43.099  36.961  26.724  1.00  0.00    -0.744 OA
ENDBRANCH  88  92
ENDBRANCH  62  85
ENDBRANCH  36  37
ENDBRANCH  28  31
ENDBRANCH  26  27
ENDBRANCH   1  26
TORSDOF 17
ENDMDL
MODEL 3
REMARK VINA RESULT:     -11.6      1.635      2.126
REMARK SMILES Cc1sc(-c2ccco2)nc1C(=O)N[C@@H](C(=O)NCCCNC(=O)c1ccc(-c2c3nc(c(-c4cc(S(=O)(=O)[O-])ccc4F)c4ccc([nH]4)c(-c4cc(S(=O)(=O)[O-])ccc4F)c4nc(c(-c5cc(S(=O)(=O)[O-])ccc5F)c5ccc2[nH]5)C=C4)C=C3)cc1)C(C)C
REMARK SMILES IDX 20 1 19 2 18 3 16 4 17 5 15 7 14 8 12 9 13 10 11 12 1 13
REMARK SMILES IDX 2 14 3 15 4 16 10 17 5 18 6 19 9 20 7 21 8 22 88 23 89 24
REMARK SMILES IDX 90 25 21 26 22 27 23 28 24 30 25 31 26 32 87 33 27 34 86 35
REMARK SMILES IDX 28 36 29 37 30 38 80 39 31 40 85 41 79 42 81 43 32 44 84 45
REMARK SMILES IDX 78 46 77 47 33 49 65 50 45 51 64 52 46 53 49 54 63 55 82 56
REMARK SMILES IDX 47 57 48 58 62 60 83 61 50 62 34 63 35 64 43 65 36 66 42 67
REMARK SMILES IDX 44 68 41 69 37 70 38 71 39 72 40 73 66 74 67 75 75 76 68 77
REMARK SMILES IDX 74 78 76 79 73 80 69 81 70 82 71 83 72 84 51 85 52 86 60 87
REMARK SMILES IDX 53 88 59 89 61 90 58 91 54 92 55 93 56 94 57 95
REMARK H PARENT 18 6 14 11 22 29 81 48 49 59
REMARK Flexibility Score: inf
ROOT
ATOM      1  C   UNL A   1      36.681  22.550  24.485  1.00  0.00     0.042 C 
ENDROOT
BRANCH   1   2
ATOM      2  C   UNL A   1      35.168  22.564  24.630  1.00  0.00     0.117 C 
BRANCH   2   3
ATOM      3  N   UNL A   1      34.755  22.515  26.019  1.00  0.00    -0.354 N 
ATOM      4  C   UNL A   1      33.672  23.075  26.639  1.00  0.00     0.242 C 
ATOM      5  O   UNL A   1      33.569  22.901  27.855  1.00  0.00    -0.273 OA
ATOM      6  H   UNL A   1      35.347  21.996  26.610  1.00  0.00     0.163 HD
BRANCH   4   7
ATOM      7  C   UNL A   1      32.562  23.762  25.800  1.00  0.00     0.174 C 
BRANCH   7   8
ATOM      8  N   UNL A   1      32.060  24.942  26.473  1.00  0.00    -0.339 N 
ATOM      9  C   UNL A   1      31.674  26.194  26.067  1.00  0.00     0.271 C 
ATOM     10  O   UNL A   1      31.303  26.903  27.010  1.00  0.00    -0.267 OA
ATOM     11  H   UNL A   1      31.977  24.818  27.446  1.00  0.00     0.164 HD
BRANCH   9  12
ATOM     12  C   UNL A   1      31.666  26.747  24.676  1.00  0.00     0.142 A 
ATOM     13  C   UNL A   1      33.703  25.877  23.133  1.00  0.00     0.059 C 
ATOM     14  C   UNL A   1      32.443  26.574  23.519  1.00  0.00     0.035 A 
ATOM     15  S   UNL A   1      31.711  27.420  22.189  1.00  0.00    -0.115 S 
ATOM     16  C   UNL A   1      30.657  28.202  23.256  1.00  0.00     0.160 A 
ATOM     17  N   UNL A   1      30.694  27.766  24.488  1.00  0.00    -0.227 NA
BRANCH  16  18
ATOM     18  C   UNL A   1      29.862  29.303  22.812  1.00  0.00     0.162 A 
ATOM     19  C   UNL A   1      29.151  30.212  23.581  1.00  0.00     0.053 A 
ATOM     20  O   UNL A   1      29.771  29.678  21.494  1.00  0.00    -0.462 OA
ATOM     21  C   UNL A   1      28.632  31.187  22.697  1.00  0.00     0.043 A 
ATOM     22  C   UNL A   1      29.017  30.803  21.437  1.00  0.00     0.196 A 
ENDBRANCH  16  18
ENDBRANCH   9  12
ENDBRANCH   7   8
BRANCH   7  23
ATOM     23  C   UNL A   1      31.435  22.789  25.373  1.00  0.00     0.015 C 
ATOM     24  C   UNL A   1      30.296  22.727  26.399  1.00  0.00     0.010 C 
ATOM     25  C   UNL A   1      30.845  23.236  24.025  1.00  0.00     0.010 C 
ENDBRANCH   7  23
ENDBRANCH   4   7
ENDBRANCH   2   3
ENDBRANCH   1   2
BRANCH   1  26
ATOM     26  C   UNL A   1      37.388  22.804  25.807  1.00  0.00     0.118 C 
BRANCH  26  27
ATOM     27  N   UNL A   1      38.512  21.899  26.009  1.00  0.00    -0.352 N 
ATOM     28  C   UNL A   1      39.798  22.180  26.388  1.00  0.00     0.251 C 
ATOM     29  H   UNL A   1      38.318  20.947  25.851  1.00  0.00     0.163 HD
ATOM     30  O   UNL A   1      40.653  21.295  26.309  1.00  0.00    -0.269 OA
BRANCH  28  31
ATOM     31  C   UNL A   1      40.158  23.530  26.866  1.00  0.00     0.039 A 
ATOM     32  C   UNL A   1      40.684  23.676  28.151  1.00  0.00     0.014 A 
ATOM     33  C   UNL A   1      39.962  24.656  26.059  1.00  0.00     0.014 A 
ATOM     34  C   UNL A   1      41.046  24.943  28.611  1.00  0.00     0.010 A 
ATOM     35  C   UNL A   1      40.413  25.900  26.480  1.00  0.00     0.010 A 
ATOM     36  C   UNL A   1      40.934  26.063  27.771  1.00  0.00    -0.014 A 
BRANCH  36  37
ATOM     37  C   UNL A   1      41.298  27.421  28.248  1.00  0.00     0.031 A 
ATOM     38  C   UNL A   1      42.746  27.838  28.276  1.00  0.00     0.074 A 
ATOM     39  C   UNL A   1      40.340  28.256  28.694  1.00  0.00     0.049 A 
ATOM     40  N   UNL A   1      43.282  28.951  28.706  1.00  0.00    -0.248 NA
ATOM     41  C   UNL A   1      43.725  26.854  27.785  1.00  0.00     0.031 C 
ATOM     42  C   UNL A   1      38.910  27.946  28.756  1.00  0.00     0.029 A 
ATOM     43  N   UNL A   1      40.422  29.537  29.178  1.00  0.00    -0.354 N 
ATOM     44  C   UNL A   1      44.656  28.795  28.553  1.00  0.00     0.074 A 
ATOM     45  C   UNL A   1      44.872  27.451  28.065  1.00  0.00     0.031 C 
ATOM     46  C   UNL A   1      38.247  29.019  29.218  1.00  0.00     0.029 A 
ATOM     47  C   UNL A   1      39.205  30.075  29.526  1.00  0.00     0.049 A 
ATOM     48  H   UNL A   1      41.273  30.024  29.268  1.00  0.00     0.167 HD
ATOM     49  C   UNL A   1      45.643  29.698  28.769  1.00  0.00     0.034 A 
ATOM     50  C   UNL A   1      38.900  31.283  30.040  1.00  0.00     0.034 A 
ATOM     51  C   UNL A   1      45.404  31.041  29.242  1.00  0.00     0.049 A 
ATOM     52  C   UNL A   1      40.015  32.270  30.278  1.00  0.00     0.074 A 
ATOM     53  C   UNL A   1      46.320  32.055  29.462  1.00  0.00     0.029 A 
ATOM     54  N   UNL A   1      44.156  31.557  29.570  1.00  0.00    -0.354 N 
ATOM     55  N   UNL A   1      41.307  32.124  30.087  1.00  0.00    -0.248 NA
ATOM     56  C   UNL A   1      39.626  33.593  30.780  1.00  0.00     0.031 C 
ATOM     57  C   UNL A   1      45.637  33.158  29.986  1.00  0.00     0.029 A 
ATOM     58  C   UNL A   1      44.282  32.866  30.011  1.00  0.00     0.049 A 
ATOM     59  H   UNL A   1      43.306  31.066  29.501  1.00  0.00     0.167 HD
ATOM     60  C   UNL A   1      41.878  33.353  30.408  1.00  0.00     0.074 A 
ATOM     61  C   UNL A   1      40.788  34.229  30.785  1.00  0.00     0.031 C 
ATOM     62  C   UNL A   1      43.184  33.727  30.388  1.00  0.00     0.034 A 
BRANCH  49  63
ATOM     63  C   UNL A   1      47.065  29.247  28.518  1.00  0.00     0.023 A 
ATOM     64  C   UNL A   1      47.548  29.014  27.218  1.00  0.00     0.031 A 
ATOM     65  C   UNL A   1      47.937  29.007  29.594  1.00  0.00     0.131 A 
ATOM     66  C   UNL A   1      48.830  28.474  27.031  1.00  0.00     0.055 A 
ATOM     67  C   UNL A   1      49.246  28.557  29.396  1.00  0.00     0.041 A 
ATOM     68  F   UNL A   1      47.530  29.187  30.860  1.00  0.00    -0.206 F 
ATOM     69  C   UNL A   1      49.693  28.271  28.109  1.00  0.00     0.022 A 
BRANCH  66  70
ATOM     70  S   UNL A   1      49.291  27.890  25.376  1.00  0.00     0.124 S 
ATOM     71  O   UNL A   1      49.588  26.482  25.633  1.00  0.00    -0.237 OA
ATOM     72  O   UNL A   1      48.086  28.157  24.600  1.00  0.00    -0.237 OA
ATOM     73  O   UNL A   1      50.449  28.711  25.033  1.00  0.00    -0.744 OA
ENDBRANCH  66  70
ENDBRANCH  49  63
BRANCH  50  74
ATOM     74  C   UNL A   1      37.486  31.638  30.357  1.00  0.00     0.023 A 
ATOM     75  C   UNL A   1      36.594  32.031  29.347  1.00  0.00     0.031 A 
ATOM     76  C   UNL A   1      37.019  31.635  31.684  1.00  0.00     0.131 A 
ATOM     77  C   UNL A   1      35.301  32.463  29.683  1.00  0.00     0.055 A 
ATOM     78  C   UNL A   1      35.713  32.008  32.007  1.00  0.00     0.041 A 
ATOM     79  F   UNL A   1      37.828  31.261  32.688  1.00  0.00    -0.206 F 
ATOM     80  C   UNL A   1      34.850  32.441  31.004  1.00  0.00     0.022 A 
BRANCH  77  81
ATOM     81  S   UNL A   1      34.246  33.146  28.375  1.00  0.00     0.124 S 
ATOM     82  O   UNL A   1      33.350  34.008  29.136  1.00  0.00    -0.237 OA
ATOM     83  O   UNL A   1      35.218  33.823  27.524  1.00  0.00    -0.237 OA
ATOM     84  O   UNL A   1      33.624  31.961  27.787  1.00  0.00    -0.744 OA
ENDBRANCH  77  81
ENDBRANCH  50  74
BRANCH  62  85
ATOM     85  C   UNL A   1      43.488  35.169  30.725  1.00  0.00     0.023 A 
ATOM     86  C   UNL A   1      43.491  35.641  32.049  1.00  0.00     0.031 A 
ATOM     87  C   UNL A   1      43.740  36.094  29.696  1.00  0.00     0.131 A 
ATOM     88  C   UNL A   1      43.659  37.010  32.304  1.00  0.00     0.055 A 
ATOM     89  C   UNL A   1      43.982  37.443  29.960  1.00  0.00     0.041 A 
ATOM     90  F   UNL A   1      43.748  35.704  28.411  1.00  0.00    -0.206 F 
ATOM     91  C   UNL A   1      43.923  37.911  31.269  1.00  0.00     0.022 A 
BRANCH  88  92
ATOM     92  S   UNL A   1      43.390  37.620  33.991  1.00  0.00     0.124 S 
ATOM     93  O   UNL A   1      42.969  38.997  33.753  1.00  0.00    -0.237 OA
ATOM     94  O   UNL A   1      42.359  36.715  34.487  1.00  0.00    -0.237 OA
ATOM     95  O   UNL A   1      44.700  37.472  34.621  1.00  0.00    -0.744 OA
ENDBRANCH  88  92
ENDBRANCH  62  85
ENDBRANCH  36  37
ENDBRANCH  28  31
ENDBRANCH  26  27
ENDBRANCH   1  26
TORSDOF 17
ENDMDL
