MODEL 1
REMARK VINA RESULT:     -10.7      0.000      0.000
REMARK SMILES O=C(NCCCNC(=O)c1ccc(CSCc2ccccc2Cl)o1)c1ccc(-c2c3nc(c(-c4cc(S(=O)(=O)[O-])ccc4F)c4ccc([nH]4)c(-c4cc(S(=O)(=O)[O-])ccc4F)c4nc(c(-c5cc(S(=O)(=O)[O-])ccc5F)c5ccc2[nH]5)C=C4)C=C3)cc1
REMARK SMILES IDX 5 1 4 2 3 3 1 4 2 5 25 7 26 8 87 9 27 10 86 11 28 12 29 13
REMARK SMILES IDX 30 14 80 15 31 16 85 17 79 18 81 19 32 20 84 21 78 22 77 23
REMARK SMILES IDX 33 25 65 26 45 27 64 28 46 29 49 30 63 31 82 32 47 33 48 34
REMARK SMILES IDX 62 36 83 37 50 38 34 39 35 40 43 41 36 42 42 43 44 44 41 45
REMARK SMILES IDX 37 46 38 47 39 48 40 49 66 50 67 51 75 52 68 53 74 54 76 55
REMARK SMILES IDX 73 56 69 57 70 58 71 59 72 60 51 61 52 62 60 63 53 64 59 65
REMARK SMILES IDX 61 66 58 67 54 68 55 69 56 70 57 71 6 72 7 73 8 74 9 76
REMARK SMILES IDX 10 77 11 78 24 79 12 80 13 81 14 82 15 83 16 84 17 85 18 86
REMARK SMILES IDX 22 87 19 88 21 89 23 90 20 91
REMARK H PARENT 3 6 81 24 49 35 7 75
REMARK Flexibility Score: inf
ROOT
ATOM      1  C   UNL A   1      35.149  33.567  27.918  1.00  0.00     0.042 C 
ENDROOT
BRANCH   1   2
ATOM      2  C   UNL A   1      34.498  32.519  28.804  1.00  0.00     0.118 C 
BRANCH   2   3
ATOM      3  N   UNL A   1      33.964  31.400  28.034  1.00  0.00    -0.352 N 
ATOM      4  O   UNL A   1      34.020  29.557  26.751  1.00  0.00    -0.269 OA
ATOM      5  C   UNL A   1      34.587  30.263  27.581  1.00  0.00     0.251 C 
ATOM      6  H   UNL A   1      33.010  31.473  27.803  1.00  0.00     0.163 HD
BRANCH   5   7
ATOM      7  C   UNL A   1      35.926  29.890  28.086  1.00  0.00     0.039 A 
ATOM      8  C   UNL A   1      36.074  29.318  29.351  1.00  0.00     0.014 A 
ATOM      9  C   UNL A   1      37.043  30.067  27.264  1.00  0.00     0.014 A 
ATOM     10  C   UNL A   1      37.344  29.053  29.850  1.00  0.00     0.010 A 
ATOM     11  C   UNL A   1      38.311  29.702  27.729  1.00  0.00     0.010 A 
ATOM     12  C   UNL A   1      38.472  29.205  29.031  1.00  0.00    -0.014 A 
BRANCH  12  13
ATOM     13  C   UNL A   1      39.789  28.728  29.520  1.00  0.00     0.031 A 
ATOM     14  C   UNL A   1      40.495  29.415  30.653  1.00  0.00     0.074 A 
ATOM     15  C   UNL A   1      40.340  27.655  28.917  1.00  0.00     0.049 A 
ATOM     16  N   UNL A   1      41.664  29.149  31.173  1.00  0.00    -0.248 NA
ATOM     17  C   UNL A   1      39.805  30.555  31.278  1.00  0.00     0.031 C 
ATOM     18  C   UNL A   1      39.736  26.917  27.801  1.00  0.00     0.029 A 
ATOM     19  N   UNL A   1      41.520  26.995  29.145  1.00  0.00    -0.354 N 
ATOM     20  C   UNL A   1      41.866  30.097  32.169  1.00  0.00     0.074 A 
ATOM     21  C   UNL A   1      40.701  30.959  32.170  1.00  0.00     0.031 C 
ATOM     22  C   UNL A   1      40.534  25.895  27.464  1.00  0.00     0.029 A 
ATOM     23  C   UNL A   1      41.742  25.952  28.276  1.00  0.00     0.049 A 
ATOM     24  H   UNL A   1      42.147  27.243  29.862  1.00  0.00     0.167 HD
ATOM     25  C   UNL A   1      42.929  30.230  33.001  1.00  0.00     0.034 A 
ATOM     26  C   UNL A   1      42.817  25.156  28.116  1.00  0.00     0.034 A 
ATOM     27  C   UNL A   1      44.071  29.347  32.987  1.00  0.00     0.049 A 
ATOM     28  C   UNL A   1      44.002  25.365  29.018  1.00  0.00     0.074 A 
ATOM     29  C   UNL A   1      45.162  29.340  33.840  1.00  0.00     0.029 A 
ATOM     30  N   UNL A   1      44.284  28.331  32.065  1.00  0.00    -0.354 N 
ATOM     31  N   UNL A   1      44.151  26.232  29.993  1.00  0.00    -0.248 NA
ATOM     32  C   UNL A   1      45.164  24.495  28.799  1.00  0.00     0.031 C 
ATOM     33  C   UNL A   1      46.069  28.378  33.384  1.00  0.00     0.029 A 
ATOM     34  C   UNL A   1      45.512  27.729  32.294  1.00  0.00     0.049 A 
ATOM     35  H   UNL A   1      43.655  28.074  31.353  1.00  0.00     0.167 HD
ATOM     36  C   UNL A   1      45.421  26.002  30.511  1.00  0.00     0.074 A 
ATOM     37  C   UNL A   1      45.983  24.899  29.759  1.00  0.00     0.031 C 
ATOM     38  C   UNL A   1      46.065  26.644  31.517  1.00  0.00     0.034 A 
BRANCH  25  39
ATOM     39  C   UNL A   1      42.940  31.396  33.959  1.00  0.00     0.023 A 
ATOM     40  C   UNL A   1      42.276  31.357  35.197  1.00  0.00     0.031 A 
ATOM     41  C   UNL A   1      43.654  32.563  33.631  1.00  0.00     0.131 A 
ATOM     42  C   UNL A   1      42.304  32.479  36.041  1.00  0.00     0.055 A 
ATOM     43  C   UNL A   1      43.733  33.650  34.503  1.00  0.00     0.041 A 
ATOM     44  F   UNL A   1      44.291  32.665  32.453  1.00  0.00    -0.206 F 
ATOM     45  C   UNL A   1      43.047  33.616  35.713  1.00  0.00     0.022 A 
BRANCH  42  46
ATOM     46  S   UNL A   1      41.271  32.473  37.533  1.00  0.00     0.124 S 
ATOM     47  O   UNL A   1      42.020  31.578  38.409  1.00  0.00    -0.237 OA
ATOM     48  O   UNL A   1      41.260  33.881  37.915  1.00  0.00    -0.237 OA
ATOM     49  O   UNL A   1      39.991  31.945  37.061  1.00  0.00    -0.744 OA
ENDBRANCH  42  46
ENDBRANCH  25  39
BRANCH  26  50
ATOM     50  C   UNL A   1      42.850  24.147  27.018  1.00  0.00     0.023 A 
ATOM     51  C   UNL A   1      42.189  22.916  27.142  1.00  0.00     0.031 A 
ATOM     52  C   UNL A   1      43.585  24.385  25.841  1.00  0.00     0.131 A 
ATOM     53  C   UNL A   1      42.314  21.953  26.130  1.00  0.00     0.055 A 
ATOM     54  C   UNL A   1      43.654  23.449  24.810  1.00  0.00     0.041 A 
ATOM     55  F   UNL A   1      44.237  25.547  25.671  1.00  0.00    -0.206 F 
ATOM     56  C   UNL A   1      43.028  22.216  24.959  1.00  0.00     0.022 A 
BRANCH  53  57
ATOM     57  S   UNL A   1      41.618  20.303  26.416  1.00  0.00     0.124 S 
ATOM     58  O   UNL A   1      42.052  20.029  27.780  1.00  0.00    -0.237 OA
ATOM     59  O   UNL A   1      40.191  20.543  26.233  1.00  0.00    -0.237 OA
ATOM     60  O   UNL A   1      42.250  19.485  25.383  1.00  0.00    -0.744 OA
ENDBRANCH  53  57
ENDBRANCH  26  50
BRANCH  38  61
ATOM     61  C   UNL A   1      47.443  26.146  31.865  1.00  0.00     0.023 A 
ATOM     62  C   UNL A   1      47.649  25.224  32.906  1.00  0.00     0.031 A 
ATOM     63  C   UNL A   1      48.565  26.607  31.154  1.00  0.00     0.131 A 
ATOM     64  C   UNL A   1      48.953  24.826  33.237  1.00  0.00     0.055 A 
ATOM     65  C   UNL A   1      49.854  26.163  31.450  1.00  0.00     0.041 A 
ATOM     66  F   UNL A   1      48.423  27.492  30.154  1.00  0.00    -0.206 F 
ATOM     67  C   UNL A   1      50.054  25.276  32.504  1.00  0.00     0.022 A 
BRANCH  64  68
ATOM     68  S   UNL A   1      49.197  23.766  34.688  1.00  0.00     0.124 S 
ATOM     69  O   UNL A   1      50.488  23.150  34.399  1.00  0.00    -0.237 OA
ATOM     70  O   UNL A   1      49.181  24.727  35.786  1.00  0.00    -0.237 OA
ATOM     71  O   UNL A   1      48.053  22.857  34.645  1.00  0.00    -0.744 OA
ENDBRANCH  64  68
ENDBRANCH  38  61
ENDBRANCH  12  13
ENDBRANCH   5   7
ENDBRANCH   2   3
ENDBRANCH   1   2
BRANCH   1  72
ATOM     72  C   UNL A   1      35.154  34.957  28.535  1.00  0.00     0.118 C 
BRANCH  72  73
ATOM     73  N   UNL A   1      33.901  35.665  28.313  1.00  0.00    -0.349 N 
ATOM     74  C   UNL A   1      32.945  36.061  29.217  1.00  0.00     0.286 C 
ATOM     75  H   UNL A   1      33.711  35.893  27.375  1.00  0.00     0.163 HD
ATOM     76  O   UNL A   1      31.870  36.462  28.752  1.00  0.00    -0.266 OA
BRANCH  74  77
ATOM     77  C   UNL A   1      33.232  36.003  30.632  1.00  0.00     0.191 A 
ATOM     78  C   UNL A   1      33.280  36.971  31.622  1.00  0.00     0.056 A 
ATOM     79  O   UNL A   1      33.485  34.781  31.196  1.00  0.00    -0.455 OA
ATOM     80  C   UNL A   1      33.706  36.330  32.805  1.00  0.00     0.047 A 
ATOM     81  C   UNL A   1      33.753  34.985  32.518  1.00  0.00     0.114 A 
BRANCH  81  82
ATOM     82  C   UNL A   1      34.028  33.794  33.354  1.00  0.00     0.145 C 
BRANCH  82  83
ATOM     83  S   UNL A   1      35.616  33.872  34.248  1.00  0.00    -0.149 SA
BRANCH  83  84
ATOM     84  C   UNL A   1      36.597  32.608  33.356  1.00  0.00     0.107 C 
BRANCH  84  85
ATOM     85  C   UNL A   1      37.475  33.157  32.255  1.00  0.00    -0.019 A 
ATOM     86  C   UNL A   1      37.261  32.733  30.927  1.00  0.00     0.006 A 
ATOM     87  C   UNL A   1      38.543  34.038  32.493  1.00  0.00     0.045 A 
ATOM     88  C   UNL A   1      38.027  33.234  29.873  1.00  0.00     0.000 A 
ATOM     89  C   UNL A   1      39.284  34.570  31.430  1.00  0.00     0.021 A 
ATOM     90  Cl  UNL A   1      39.060  34.470  34.084  1.00  0.00    -0.084 Cl
ATOM     91  C   UNL A   1      39.021  34.174  30.121  1.00  0.00     0.002 A 
ENDBRANCH  84  85
ENDBRANCH  83  84
ENDBRANCH  82  83
ENDBRANCH  81  82
ENDBRANCH  74  77
ENDBRANCH  72  73
ENDBRANCH   1  72
TORSDOF 17
ENDMDL
MODEL 2
REMARK VINA RESULT:     -10.3      4.000      9.763
REMARK SMILES O=C(NCCCNC(=O)c1ccc(CSCc2ccccc2Cl)o1)c1ccc(-c2c3nc(c(-c4cc(S(=O)(=O)[O-])ccc4F)c4ccc([nH]4)c(-c4cc(S(=O)(=O)[O-])ccc4F)c4nc(c(-c5cc(S(=O)(=O)[O-])ccc5F)c5ccc2[nH]5)C=C4)C=C3)cc1
REMARK SMILES IDX 5 1 4 2 3 3 1 4 2 5 25 7 26 8 87 9 27 10 86 11 28 12 29 13
REMARK SMILES IDX 30 14 80 15 31 16 85 17 79 18 81 19 32 20 84 21 78 22 77 23
REMARK SMILES IDX 33 25 65 26 45 27 64 28 46 29 49 30 63 31 82 32 47 33 48 34
REMARK SMILES IDX 62 36 83 37 50 38 34 39 35 40 43 41 36 42 42 43 44 44 41 45
REMARK SMILES IDX 37 46 38 47 39 48 40 49 66 50 67 51 75 52 68 53 74 54 76 55
REMARK SMILES IDX 73 56 69 57 70 58 71 59 72 60 51 61 52 62 60 63 53 64 59 65
REMARK SMILES IDX 61 66 58 67 54 68 55 69 56 70 57 71 6 72 7 73 8 74 9 76
REMARK SMILES IDX 10 77 11 78 24 79 12 80 13 81 14 82 15 83 16 84 17 85 18 86
REMARK SMILES IDX 22 87 19 88 21 89 23 90 20 91
REMARK H PARENT 3 6 81 24 49 35 7 75
REMARK Flexibility Score: inf
ROOT
ATOM      1  C   UNL A   1      31.120  32.004  26.558  1.00  0.00     0.042 C 
ENDROOT
BRANCH   1   2
ATOM      2  C   UNL A   1      32.504  32.528  26.901  1.00  0.00     0.118 C 
BRANCH   2   3
ATOM      3  N   UNL A   1      32.463  33.883  27.440  1.00  0.00    -0.352 N 
ATOM      4  O   UNL A   1      32.828  35.535  28.918  1.00  0.00    -0.269 OA
ATOM      5  C   UNL A   1      33.179  34.448  28.467  1.00  0.00     0.251 C 
ATOM      6  H   UNL A   1      31.821  34.486  26.999  1.00  0.00     0.163 HD
BRANCH   5   7
ATOM      7  C   UNL A   1      34.361  33.755  29.025  1.00  0.00     0.039 A 
ATOM      8  C   UNL A   1      35.651  34.199  28.728  1.00  0.00     0.014 A 
ATOM      9  C   UNL A   1      34.176  32.680  29.898  1.00  0.00     0.014 A 
ATOM     10  C   UNL A   1      36.754  33.489  29.186  1.00  0.00     0.010 A 
ATOM     11  C   UNL A   1      35.289  32.029  30.443  1.00  0.00     0.010 A 
ATOM     12  C   UNL A   1      36.586  32.421  30.079  1.00  0.00    -0.014 A 
BRANCH  12  13
ATOM     13  C   UNL A   1      37.784  31.810  30.706  1.00  0.00     0.031 A 
ATOM     14  C   UNL A   1      38.599  30.776  29.985  1.00  0.00     0.074 A 
ATOM     15  C   UNL A   1      38.122  32.208  31.949  1.00  0.00     0.049 A 
ATOM     16  N   UNL A   1      39.647  30.118  30.405  1.00  0.00    -0.248 NA
ATOM     17  C   UNL A   1      38.180  30.428  28.619  1.00  0.00     0.031 C 
ATOM     18  C   UNL A   1      37.392  33.206  32.741  1.00  0.00     0.029 A 
ATOM     19  N   UNL A   1      39.156  31.835  32.769  1.00  0.00    -0.354 N 
ATOM     20  C   UNL A   1      40.003  29.261  29.371  1.00  0.00     0.074 A 
ATOM     21  C   UNL A   1      39.044  29.471  28.305  1.00  0.00     0.031 C 
ATOM     22  C   UNL A   1      38.015  33.383  33.913  1.00  0.00     0.029 A 
ATOM     23  C   UNL A   1      39.135  32.455  33.997  1.00  0.00     0.049 A 
ATOM     24  H   UNL A   1      39.847  31.186  32.504  1.00  0.00     0.167 HD
ATOM     25  C   UNL A   1      41.034  28.381  29.324  1.00  0.00     0.034 A 
ATOM     26  C   UNL A   1      39.902  32.269  35.089  1.00  0.00     0.034 A 
ATOM     27  C   UNL A   1      41.983  28.203  30.398  1.00  0.00     0.049 A 
ATOM     28  C   UNL A   1      41.003  31.246  35.023  1.00  0.00     0.074 A 
ATOM     29  C   UNL A   1      43.112  27.402  30.421  1.00  0.00     0.029 A 
ATOM     30  N   UNL A   1      41.905  28.813  31.642  1.00  0.00    -0.354 N 
ATOM     31  N   UNL A   1      41.359  30.485  34.014  1.00  0.00    -0.248 NA
ATOM     32  C   UNL A   1      41.803  31.054  36.238  1.00  0.00     0.031 C 
ATOM     33  C   UNL A   1      43.667  27.465  31.704  1.00  0.00     0.029 A 
ATOM     34  C   UNL A   1      42.932  28.364  32.459  1.00  0.00     0.049 A 
ATOM     35  H   UNL A   1      41.220  29.469  31.907  1.00  0.00     0.167 HD
ATOM     36  C   UNL A   1      42.433  29.730  34.473  1.00  0.00     0.074 A 
ATOM     37  C   UNL A   1      42.683  30.149  35.837  1.00  0.00     0.031 C 
ATOM     38  C   UNL A   1      43.150  28.777  33.825  1.00  0.00     0.034 A 
BRANCH  25  39
ATOM     39  C   UNL A   1      41.166  27.506  28.102  1.00  0.00     0.023 A 
ATOM     40  C   UNL A   1      40.812  26.146  28.111  1.00  0.00     0.031 A 
ATOM     41  C   UNL A   1      41.634  28.057  26.895  1.00  0.00     0.131 A 
ATOM     42  C   UNL A   1      40.973  25.374  26.948  1.00  0.00     0.055 A 
ATOM     43  C   UNL A   1      41.729  27.301  25.726  1.00  0.00     0.041 A 
ATOM     44  F   UNL A   1      42.005  29.346  26.831  1.00  0.00    -0.206 F 
ATOM     45  C   UNL A   1      41.406  25.947  25.750  1.00  0.00     0.022 A 
BRANCH  42  46
ATOM     46  S   UNL A   1      40.704  23.582  27.049  1.00  0.00     0.124 S 
ATOM     47  O   UNL A   1      41.553  23.094  25.965  1.00  0.00    -0.237 OA
ATOM     48  O   UNL A   1      41.153  23.271  28.401  1.00  0.00    -0.237 OA
ATOM     49  O   UNL A   1      39.267  23.437  26.818  1.00  0.00    -0.744 OA
ENDBRANCH  42  46
ENDBRANCH  25  39
BRANCH  26  50
ATOM     50  C   UNL A   1      39.609  33.008  36.350  1.00  0.00     0.023 A 
ATOM     51  C   UNL A   1      38.773  32.463  37.335  1.00  0.00     0.031 A 
ATOM     52  C   UNL A   1      40.131  34.298  36.567  1.00  0.00     0.131 A 
ATOM     53  C   UNL A   1      38.445  33.222  38.469  1.00  0.00     0.055 A 
ATOM     54  C   UNL A   1      39.852  35.023  37.726  1.00  0.00     0.041 A 
ATOM     55  F   UNL A   1      40.936  34.868  35.656  1.00  0.00    -0.206 F 
ATOM     56  C   UNL A   1      38.990  34.490  38.678  1.00  0.00     0.022 A 
BRANCH  53  57
ATOM     57  S   UNL A   1      37.203  32.568  39.617  1.00  0.00     0.124 S 
ATOM     58  O   UNL A   1      37.196  33.587  40.660  1.00  0.00    -0.237 OA
ATOM     59  O   UNL A   1      36.015  32.506  38.773  1.00  0.00    -0.237 OA
ATOM     60  O   UNL A   1      37.755  31.274  40.012  1.00  0.00    -0.744 OA
ENDBRANCH  53  57
ENDBRANCH  26  50
BRANCH  38  61
ATOM     61  C   UNL A   1      44.282  28.144  34.591  1.00  0.00     0.023 A 
ATOM     62  C   UNL A   1      44.101  26.957  35.321  1.00  0.00     0.031 A 
ATOM     63  C   UNL A   1      45.555  28.742  34.599  1.00  0.00     0.131 A 
ATOM     64  C   UNL A   1      45.164  26.428  36.067  1.00  0.00     0.055 A 
ATOM     65  C   UNL A   1      46.624  28.179  35.297  1.00  0.00     0.041 A 
ATOM     66  F   UNL A   1      45.779  29.879  33.922  1.00  0.00    -0.206 F 
ATOM     67  C   UNL A   1      46.429  27.022  36.045  1.00  0.00     0.022 A 
BRANCH  64  68
ATOM     68  S   UNL A   1      44.853  24.990  37.128  1.00  0.00     0.124 S 
ATOM     69  O   UNL A   1      43.696  25.429  37.901  1.00  0.00    -0.237 OA
ATOM     70  O   UNL A   1      44.606  23.930  36.155  1.00  0.00    -0.237 OA
ATOM     71  O   UNL A   1      46.093  24.853  37.890  1.00  0.00    -0.744 OA
ENDBRANCH  64  68
ENDBRANCH  38  61
ENDBRANCH  12  13
ENDBRANCH   5   7
ENDBRANCH   2   3
ENDBRANCH   1   2
BRANCH   1  72
ATOM     72  C   UNL A   1      31.131  30.948  25.464  1.00  0.00     0.118 C 
BRANCH  72  73
ATOM     73  N   UNL A   1      30.054  31.136  24.503  1.00  0.00    -0.349 N 
ATOM     74  C   UNL A   1      29.738  30.402  23.385  1.00  0.00     0.286 C 
ATOM     75  H   UNL A   1      29.466  31.904  24.680  1.00  0.00     0.163 HD
ATOM     76  O   UNL A   1      28.900  30.891  22.615  1.00  0.00    -0.266 OA
BRANCH  74  77
ATOM     77  C   UNL A   1      30.371  29.121  23.167  1.00  0.00     0.191 A 
ATOM     78  C   UNL A   1      31.546  28.749  22.539  1.00  0.00     0.056 A 
ATOM     79  O   UNL A   1      29.771  28.002  23.682  1.00  0.00    -0.455 OA
ATOM     80  C   UNL A   1      31.597  27.339  22.559  1.00  0.00     0.047 A 
ATOM     81  C   UNL A   1      30.531  26.927  23.325  1.00  0.00     0.114 A 
BRANCH  81  82
ATOM     82  C   UNL A   1      30.097  25.593  23.800  1.00  0.00     0.145 C 
BRANCH  82  83
ATOM     83  S   UNL A   1      29.755  25.523  25.591  1.00  0.00    -0.149 SA
BRANCH  83  84
ATOM     84  C   UNL A   1      31.434  25.254  26.270  1.00  0.00     0.107 C 
BRANCH  84  85
ATOM     85  C   UNL A   1      32.245  26.516  26.456  1.00  0.00    -0.019 A 
ATOM     86  C   UNL A   1      31.748  27.539  27.288  1.00  0.00     0.006 A 
ATOM     87  C   UNL A   1      33.462  26.750  25.792  1.00  0.00     0.045 A 
ATOM     88  C   UNL A   1      32.475  28.710  27.514  1.00  0.00     0.000 A 
ATOM     89  C   UNL A   1      34.208  27.907  26.050  1.00  0.00     0.021 A 
ATOM     90  Cl  UNL A   1      34.084  25.687  24.580  1.00  0.00    -0.084 Cl
ATOM     91  C   UNL A   1      33.719  28.882  26.915  1.00  0.00     0.002 A 
ENDBRANCH  84  85
ENDBRANCH  83  84
ENDBRANCH  82  83
ENDBRANCH  81  82
ENDBRANCH  74  77
ENDBRANCH  72  73
ENDBRANCH   1  72
TORSDOF 17
ENDMDL
MODEL 3
REMARK VINA RESULT:     -10.2      5.721     11.039
REMARK SMILES O=C(NCCCNC(=O)c1ccc(CSCc2ccccc2Cl)o1)c1ccc(-c2c3nc(c(-c4cc(S(=O)(=O)[O-])ccc4F)c4ccc([nH]4)c(-c4cc(S(=O)(=O)[O-])ccc4F)c4nc(c(-c5cc(S(=O)(=O)[O-])ccc5F)c5ccc2[nH]5)C=C4)C=C3)cc1
REMARK SMILES IDX 5 1 4 2 3 3 1 4 2 5 25 7 26 8 87 9 27 10 86 11 28 12 29 13
REMARK SMILES IDX 30 14 80 15 31 16 85 17 79 18 81 19 32 20 84 21 78 22 77 23
REMARK SMILES IDX 33 25 65 26 45 27 64 28 46 29 49 30 63 31 82 32 47 33 48 34
REMARK SMILES IDX 62 36 83 37 50 38 34 39 35 40 43 41 36 42 42 43 44 44 41 45
REMARK SMILES IDX 37 46 38 47 39 48 40 49 66 50 67 51 75 52 68 53 74 54 76 55
REMARK SMILES IDX 73 56 69 57 70 58 71 59 72 60 51 61 52 62 60 63 53 64 59 65
REMARK SMILES IDX 61 66 58 67 54 68 55 69 56 70 57 71 6 72 7 73 8 74 9 76
REMARK SMILES IDX 10 77 11 78 24 79 12 80 13 81 14 82 15 83 16 84 17 85 18 86
REMARK SMILES IDX 22 87 19 88 21 89 23 90 20 91
REMARK H PARENT 3 6 81 24 49 35 7 75
REMARK Flexibility Score: inf
ROOT
ATOM      1  C   UNL A   1      35.637  21.845  24.402  1.00  0.00     0.042 C 
ENDROOT
BRANCH   1   2
ATOM      2  C   UNL A   1      37.149  21.913  24.271  1.00  0.00     0.118 C 
BRANCH   2   3
ATOM      3  N   UNL A   1      37.817  20.861  25.029  1.00  0.00    -0.352 N 
ATOM      4  O   UNL A   1      39.478  19.866  26.167  1.00  0.00    -0.269 OA
ATOM      5  C   UNL A   1      38.949  20.914  25.804  1.00  0.00     0.251 C 
ATOM      6  H   UNL A   1      37.390  19.976  24.975  1.00  0.00     0.163 HD
BRANCH   5   7
ATOM      7  C   UNL A   1      39.527  22.217  26.199  1.00  0.00     0.039 A 
ATOM      8  C   UNL A   1      40.873  22.319  26.555  1.00  0.00     0.014 A 
ATOM      9  C   UNL A   1      38.726  23.362  26.162  1.00  0.00     0.014 A 
ATOM     10  C   UNL A   1      41.383  23.530  27.008  1.00  0.00     0.010 A 
ATOM     11  C   UNL A   1      39.269  24.601  26.518  1.00  0.00     0.010 A 
ATOM     12  C   UNL A   1      40.599  24.691  26.957  1.00  0.00    -0.014 A 
BRANCH  12  13
ATOM     13  C   UNL A   1      41.228  26.001  27.257  1.00  0.00     0.031 A 
ATOM     14  C   UNL A   1      42.586  26.353  26.723  1.00  0.00     0.074 A 
ATOM     15  C   UNL A   1      40.543  26.872  28.026  1.00  0.00     0.049 A 
ATOM     16  N   UNL A   1      43.290  27.436  26.923  1.00  0.00    -0.248 NA
ATOM     17  C   UNL A   1      43.245  25.359  25.863  1.00  0.00     0.031 C 
ATOM     18  C   UNL A   1      39.215  26.624  28.599  1.00  0.00     0.029 A 
ATOM     19  N   UNL A   1      40.856  28.134  28.461  1.00  0.00    -0.354 N 
ATOM     20  C   UNL A   1      44.484  27.250  26.236  1.00  0.00     0.074 A 
ATOM     21  C   UNL A   1      44.415  25.938  25.626  1.00  0.00     0.031 C 
ATOM     22  C   UNL A   1      38.819  27.706  29.283  1.00  0.00     0.029 A 
ATOM     23  C   UNL A   1      39.894  28.690  29.272  1.00  0.00     0.049 A 
ATOM     24  H   UNL A   1      41.689  28.598  28.216  1.00  0.00     0.167 HD
ATOM     25  C   UNL A   1      45.535  28.100  26.132  1.00  0.00     0.034 A 
ATOM     26  C   UNL A   1      39.890  29.843  29.969  1.00  0.00     0.034 A 
ATOM     27  C   UNL A   1      45.570  29.409  26.740  1.00  0.00     0.049 A 
ATOM     28  C   UNL A   1      41.095  30.738  29.875  1.00  0.00     0.074 A 
ATOM     29  C   UNL A   1      46.548  30.383  26.628  1.00  0.00     0.029 A 
ATOM     30  N   UNL A   1      44.599  29.920  27.591  1.00  0.00    -0.354 N 
ATOM     31  N   UNL A   1      42.192  30.570  29.174  1.00  0.00    -0.248 NA
ATOM     32  C   UNL A   1      41.066  31.974  30.666  1.00  0.00     0.031 C 
ATOM     33  C   UNL A   1      46.208  31.444  27.474  1.00  0.00     0.029 A 
ATOM     34  C   UNL A   1      44.981  31.170  28.055  1.00  0.00     0.049 A 
ATOM     35  H   UNL A   1      43.761  29.463  27.831  1.00  0.00     0.167 HD
ATOM     36  C   UNL A   1      42.979  31.687  29.432  1.00  0.00     0.074 A 
ATOM     37  C   UNL A   1      42.219  32.532  30.330  1.00  0.00     0.031 C 
ATOM     38  C   UNL A   1      44.219  31.988  28.969  1.00  0.00     0.034 A 
BRANCH  25  39
ATOM     39  C   UNL A   1      46.756  27.630  25.379  1.00  0.00     0.023 A 
ATOM     40  C   UNL A   1      46.987  27.971  24.036  1.00  0.00     0.031 A 
ATOM     41  C   UNL A   1      47.721  26.843  26.034  1.00  0.00     0.131 A 
ATOM     42  C   UNL A   1      48.132  27.491  23.380  1.00  0.00     0.055 A 
ATOM     43  C   UNL A   1      48.888  26.423  25.396  1.00  0.00     0.041 A 
ATOM     44  F   UNL A   1      47.543  26.469  27.312  1.00  0.00    -0.206 F 
ATOM     45  C   UNL A   1      49.095  26.739  24.057  1.00  0.00     0.022 A 
BRANCH  42  46
ATOM     46  S   UNL A   1      48.298  27.775  21.595  1.00  0.00     0.124 S 
ATOM     47  O   UNL A   1      46.979  28.303  21.255  1.00  0.00    -0.237 OA
ATOM     48  O   UNL A   1      49.403  28.725  21.528  1.00  0.00    -0.237 OA
ATOM     49  O   UNL A   1      48.584  26.445  21.060  1.00  0.00    -0.744 OA
ENDBRANCH  42  46
ENDBRANCH  25  39
BRANCH  26  50
ATOM     50  C   UNL A   1      38.748  30.176  30.867  1.00  0.00     0.023 A 
ATOM     51  C   UNL A   1      37.671  30.953  30.416  1.00  0.00     0.031 A 
ATOM     52  C   UNL A   1      38.741  29.756  32.211  1.00  0.00     0.131 A 
ATOM     53  C   UNL A   1      36.656  31.325  31.311  1.00  0.00     0.055 A 
ATOM     54  C   UNL A   1      37.698  30.075  33.080  1.00  0.00     0.041 A 
ATOM     55  F   UNL A   1      39.747  29.011  32.696  1.00  0.00    -0.206 F 
ATOM     56  C   UNL A   1      36.654  30.879  32.635  1.00  0.00     0.022 A 
BRANCH  53  57
ATOM     57  S   UNL A   1      35.391  32.495  30.747  1.00  0.00     0.124 S 
ATOM     58  O   UNL A   1      34.351  32.317  31.752  1.00  0.00    -0.237 OA
ATOM     59  O   UNL A   1      36.113  33.762  30.787  1.00  0.00    -0.237 OA
ATOM     60  O   UNL A   1      35.056  32.012  29.409  1.00  0.00    -0.744 OA
ENDBRANCH  53  57
ENDBRANCH  26  50
BRANCH  38  61
ATOM     61  C   UNL A   1      44.810  33.298  29.418  1.00  0.00     0.023 A 
ATOM     62  C   UNL A   1      45.625  33.383  30.560  1.00  0.00     0.031 A 
ATOM     63  C   UNL A   1      44.545  34.479  28.702  1.00  0.00     0.131 A 
ATOM     64  C   UNL A   1      46.111  34.630  30.979  1.00  0.00     0.055 A 
ATOM     65  C   UNL A   1      45.079  35.707  29.091  1.00  0.00     0.041 A 
ATOM     66  F   UNL A   1      43.768  34.454  27.607  1.00  0.00    -0.206 F 
ATOM     67  C   UNL A   1      45.858  35.789  30.242  1.00  0.00     0.022 A 
BRANCH  64  68
ATOM     68  S   UNL A   1      47.021  34.728  32.545  1.00  0.00     0.124 S 
ATOM     69  O   UNL A   1      46.468  35.939  33.141  1.00  0.00    -0.237 OA
ATOM     70  O   UNL A   1      46.659  33.473  33.198  1.00  0.00    -0.237 OA
ATOM     71  O   UNL A   1      48.417  34.825  32.124  1.00  0.00    -0.744 OA
ENDBRANCH  64  68
ENDBRANCH  38  61
ENDBRANCH  12  13
ENDBRANCH   5   7
ENDBRANCH   2   3
ENDBRANCH   1   2
BRANCH   1  72
ATOM     72  C   UNL A   1      35.174  21.123  25.657  1.00  0.00     0.118 C 
BRANCH  72  73
ATOM     73  N   UNL A   1      34.169  20.109  25.373  1.00  0.00    -0.349 N 
ATOM     74  C   UNL A   1      32.799  20.214  25.348  1.00  0.00     0.286 C 
ATOM     75  H   UNL A   1      34.525  19.214  25.168  1.00  0.00     0.163 HD
ATOM     76  O   UNL A   1      32.160  19.156  25.285  1.00  0.00    -0.266 OA
BRANCH  74  77
ATOM     77  C   UNL A   1      32.182  21.520  25.385  1.00  0.00     0.191 A 
ATOM     78  C   UNL A   1      31.933  22.413  26.413  1.00  0.00     0.056 A 
ATOM     79  O   UNL A   1      31.758  22.074  24.205  1.00  0.00    -0.455 OA
ATOM     80  C   UNL A   1      31.215  23.493  25.857  1.00  0.00     0.047 A 
ATOM     81  C   UNL A   1      31.190  23.279  24.498  1.00  0.00     0.114 A 
BRANCH  81  82
ATOM     82  C   UNL A   1      30.681  24.090  23.368  1.00  0.00     0.145 C 
BRANCH  82  83
ATOM     83  S   UNL A   1      30.075  25.740  23.858  1.00  0.00    -0.149 SA
BRANCH  83  84
ATOM     84  C   UNL A   1      31.577  26.762  23.625  1.00  0.00     0.107 C 
BRANCH  84  85
ATOM     85  C   UNL A   1      32.111  27.391  24.891  1.00  0.00    -0.019 A 
ATOM     86  C   UNL A   1      31.364  27.286  26.082  1.00  0.00     0.006 A 
ATOM     87  C   UNL A   1      33.304  28.134  24.935  1.00  0.00     0.045 A 
ATOM     88  C   UNL A   1      31.830  27.826  27.282  1.00  0.00     0.000 A 
ATOM     89  C   UNL A   1      33.789  28.640  26.147  1.00  0.00     0.021 A 
ATOM     90  Cl  UNL A   1      34.208  28.531  23.517  1.00  0.00    -0.084 Cl
ATOM     91  C   UNL A   1      33.057  28.480  27.320  1.00  0.00     0.002 A 
ENDBRANCH  84  85
ENDBRANCH  83  84
ENDBRANCH  82  83
ENDBRANCH  81  82
ENDBRANCH  74  77
ENDBRANCH  72  73
ENDBRANCH   1  72
TORSDOF 17
ENDMDL
