MODEL 1
REMARK VINA RESULT:     -12.0      0.000      0.000
REMARK SMILES CC[NH2+][C@@]1(C(=O)NCCCNC(=O)c2ccc(-c3c4nc(c(-c5cc(S(=O)(=O)[O-])ccc5F)c5ccc([nH]5)c(-c5cc(S(=O)(=O)[O-])ccc5F)c5nc(c(-c6cc(S(=O)(=O)[O-])ccc6F)c6ccc3[nH]6)C=C5)C=C4)cc2)CC[C@H](Oc2ccc3c(c2)OCO3)C1
REMARK SMILES IDX 9 1 8 2 7 3 5 4 6 5 4 7 77 8 90 9 78 10 79 11 3 12 2 15 1 16
REMARK SMILES IDX 80 17 81 18 82 19 86 20 83 21 85 22 84 23 87 24 89 25 88 26
REMARK SMILES IDX 10 27 11 28 12 29 13 31 14 32 15 33 76 34 16 35 75 36 17 37
REMARK SMILES IDX 18 38 19 39 69 40 20 41 74 42 68 43 70 44 21 45 73 46 67 47
REMARK SMILES IDX 66 48 22 50 54 51 34 52 53 53 35 54 38 55 52 56 71 57 36 58
REMARK SMILES IDX 37 59 51 61 72 62 39 63 23 64 24 65 32 66 25 67 31 68 33 69
REMARK SMILES IDX 30 70 26 71 27 72 28 73 29 74 55 75 56 76 64 77 57 78 63 79
REMARK SMILES IDX 65 80 62 81 58 82 59 83 60 84 61 85 40 86 41 87 49 88 42 89
REMARK SMILES IDX 48 90 50 91 47 92 43 93 44 94 45 95 46 96
REMARK H PARENT 7 6 3 13 3 14 11 30 70 49 38 60
REMARK Flexibility Score: inf
ROOT
ATOM      1  C   UNL A   1      31.403  32.018  26.459  1.00  0.00     0.042 C 
ENDROOT
BRANCH   1   2
ATOM      2  C   UNL A   1      31.416  30.501  26.321  1.00  0.00     0.118 C 
BRANCH   2   3
ATOM      3  N   UNL A   1      32.742  29.932  26.465  1.00  0.00    -0.351 N 
ATOM      4  C   UNL A   1      33.400  28.941  25.814  1.00  0.00     0.281 C 
ATOM      5  O   UNL A   1      34.595  28.814  26.131  1.00  0.00    -0.268 OA
ATOM      6  H   UNL A   1      33.273  30.351  27.182  1.00  0.00     0.163 HD
BRANCH   4   7
ATOM      7  C   UNL A   1      32.802  28.039  24.665  1.00  0.00     0.179 C 
ATOM      8  C   UNL A   1      33.100  28.730  23.308  1.00  0.00     0.083 C 
ATOM      9  C   UNL A   1      31.285  27.779  24.653  1.00  0.00     0.124 C 
ATOM     10  C   UNL A   1      31.780  29.331  22.843  1.00  0.00     0.052 C 
ATOM     11  C   UNL A   1      30.761  28.297  23.304  1.00  0.00     0.180 C 
BRANCH   7  12
ATOM     12  N   UNL A   1      33.580  26.753  24.663  1.00  0.00    -0.334 N 
ATOM     13  H   UNL A   1      34.566  26.973  24.803  1.00  0.00     0.347 HD
ATOM     14  H   UNL A   1      33.198  26.174  25.410  1.00  0.00     0.347 HD
BRANCH  12  15
ATOM     15  C   UNL A   1      33.452  25.980  23.417  1.00  0.00     0.257 C 
ATOM     16  C   UNL A   1      33.036  24.549  23.736  1.00  0.00     0.071 C 
ENDBRANCH  12  15
ENDBRANCH   7  12
BRANCH  11  17
ATOM     17  O   UNL A   1      29.367  28.581  23.396  1.00  0.00    -0.490 OA
BRANCH  17  18
ATOM     18  C   UNL A   1      28.859  29.786  23.019  1.00  0.00     0.123 A 
ATOM     19  C   UNL A   1      28.954  30.931  23.826  1.00  0.00     0.050 A 
ATOM     20  C   UNL A   1      28.416  29.890  21.697  1.00  0.00     0.097 A 
ATOM     21  C   UNL A   1      28.560  32.182  23.336  1.00  0.00     0.054 A 
ATOM     22  C   UNL A   1      28.048  31.137  21.233  1.00  0.00     0.169 A 
ATOM     23  C   UNL A   1      28.123  32.252  22.031  1.00  0.00     0.166 A 
ATOM     24  O   UNL A   1      27.621  31.429  19.976  1.00  0.00    -0.453 OA
ATOM     25  O   UNL A   1      27.775  33.388  21.370  1.00  0.00    -0.454 OA
ATOM     26  C   UNL A   1      27.600  32.872  20.032  1.00  0.00     0.468 C 
ENDBRANCH  17  18
ENDBRANCH  11  17
ENDBRANCH   4   7
ENDBRANCH   2   3
ENDBRANCH   1   2
BRANCH   1  27
ATOM     27  C   UNL A   1      32.720  32.606  26.948  1.00  0.00     0.118 C 
BRANCH  27  28
ATOM     28  N   UNL A   1      32.567  33.880  27.639  1.00  0.00    -0.352 N 
ATOM     29  C   UNL A   1      33.174  34.497  28.708  1.00  0.00     0.251 C 
ATOM     30  H   UNL A   1      31.856  34.435  27.243  1.00  0.00     0.163 HD
ATOM     31  O   UNL A   1      32.677  35.554  29.085  1.00  0.00    -0.269 OA
BRANCH  29  32
ATOM     32  C   UNL A   1      34.349  33.948  29.442  1.00  0.00     0.039 A 
ATOM     33  C   UNL A   1      35.629  34.353  29.026  1.00  0.00     0.014 A 
ATOM     34  C   UNL A   1      34.260  33.011  30.466  1.00  0.00     0.014 A 
ATOM     35  C   UNL A   1      36.783  33.900  29.681  1.00  0.00     0.010 A 
ATOM     36  C   UNL A   1      35.395  32.623  31.177  1.00  0.00     0.010 A 
ATOM     37  C   UNL A   1      36.669  33.055  30.788  1.00  0.00    -0.014 A 
BRANCH  37  38
ATOM     38  C   UNL A   1      37.855  32.514  31.501  1.00  0.00     0.031 A 
ATOM     39  C   UNL A   1      38.613  31.368  30.891  1.00  0.00     0.074 A 
ATOM     40  C   UNL A   1      38.189  32.973  32.721  1.00  0.00     0.049 A 
ATOM     41  N   UNL A   1      39.572  30.638  31.397  1.00  0.00    -0.248 NA
ATOM     42  C   UNL A   1      38.191  30.962  29.542  1.00  0.00     0.031 C 
ATOM     43  C   UNL A   1      37.509  34.053  33.433  1.00  0.00     0.029 A 
ATOM     44  N   UNL A   1      39.171  32.567  33.589  1.00  0.00    -0.354 N 
ATOM     45  C   UNL A   1      39.857  29.673  30.436  1.00  0.00     0.074 A 
ATOM     46  C   UNL A   1      38.908  29.866  29.359  1.00  0.00     0.031 C 
ATOM     47  C   UNL A   1      38.104  34.236  34.625  1.00  0.00     0.029 A 
ATOM     48  C   UNL A   1      39.176  33.257  34.779  1.00  0.00     0.049 A 
ATOM     49  H   UNL A   1      39.813  31.850  33.380  1.00  0.00     0.167 HD
ATOM     50  C   UNL A   1      40.834  28.732  30.435  1.00  0.00     0.034 A 
ATOM     51  C   UNL A   1      39.948  33.101  35.874  1.00  0.00     0.034 A 
ATOM     52  C   UNL A   1      41.769  28.554  31.520  1.00  0.00     0.049 A 
ATOM     53  C   UNL A   1      41.000  32.019  35.879  1.00  0.00     0.074 A 
ATOM     54  C   UNL A   1      42.824  27.666  31.616  1.00  0.00     0.029 A 
ATOM     55  N   UNL A   1      41.750  29.277  32.707  1.00  0.00    -0.354 N 
ATOM     56  N   UNL A   1      41.290  31.142  34.946  1.00  0.00    -0.248 NA
ATOM     57  C   UNL A   1      41.830  31.913  37.086  1.00  0.00     0.031 C 
ATOM     58  C   UNL A   1      43.404  27.810  32.883  1.00  0.00     0.029 A 
ATOM     59  C   UNL A   1      42.756  28.837  33.552  1.00  0.00     0.049 A 
ATOM     60  H   UNL A   1      41.113  29.999  32.917  1.00  0.00     0.167 HD
ATOM     61  C   UNL A   1      42.362  30.403  35.441  1.00  0.00     0.074 A 
ATOM     62  C   UNL A   1      42.666  30.942  36.752  1.00  0.00     0.031 C 
ATOM     63  C   UNL A   1      43.041  29.380  34.860  1.00  0.00     0.034 A 
BRANCH  50  64
ATOM     64  C   UNL A   1      40.897  27.819  29.232  1.00  0.00     0.023 A 
ATOM     65  C   UNL A   1      41.828  28.038  28.199  1.00  0.00     0.031 A 
ATOM     66  C   UNL A   1      39.960  26.786  29.063  1.00  0.00     0.131 A 
ATOM     67  C   UNL A   1      41.717  27.327  26.995  1.00  0.00     0.055 A 
ATOM     68  C   UNL A   1      39.925  26.009  27.902  1.00  0.00     0.041 A 
ATOM     69  F   UNL A   1      39.037  26.537  30.004  1.00  0.00    -0.206 F 
ATOM     70  C   UNL A   1      40.789  26.296  26.848  1.00  0.00     0.022 A 
BRANCH  67  71
ATOM     71  S   UNL A   1      42.658  27.919  25.560  1.00  0.00     0.124 S 
ATOM     72  O   UNL A   1      42.730  26.713  24.739  1.00  0.00    -0.237 OA
ATOM     73  O   UNL A   1      41.812  28.991  25.049  1.00  0.00    -0.237 OA
ATOM     74  O   UNL A   1      43.931  28.347  26.138  1.00  0.00    -0.744 OA
ENDBRANCH  67  71
ENDBRANCH  50  64
BRANCH  51  75
ATOM     75  C   UNL A   1      39.765  33.986  37.057  1.00  0.00     0.023 A 
ATOM     76  C   UNL A   1      39.106  33.518  38.205  1.00  0.00     0.031 A 
ATOM     77  C   UNL A   1      40.213  35.318  37.049  1.00  0.00     0.131 A 
ATOM     78  C   UNL A   1      38.877  34.386  39.284  1.00  0.00     0.055 A 
ATOM     79  C   UNL A   1      40.022  36.166  38.142  1.00  0.00     0.041 A 
ATOM     80  F   UNL A   1      40.855  35.812  35.978  1.00  0.00    -0.206 F 
ATOM     81  C   UNL A   1      39.341  35.703  39.265  1.00  0.00     0.022 A 
BRANCH  78  82
ATOM     82  S   UNL A   1      37.915  33.780  40.696  1.00  0.00     0.124 S 
ATOM     83  O   UNL A   1      36.857  33.027  40.032  1.00  0.00    -0.237 OA
ATOM     84  O   UNL A   1      38.904  32.991  41.423  1.00  0.00    -0.237 OA
ATOM     85  O   UNL A   1      37.485  35.004  41.366  1.00  0.00    -0.744 OA
ENDBRANCH  78  82
ENDBRANCH  51  75
BRANCH  63  86
ATOM     86  C   UNL A   1      44.216  28.817  35.622  1.00  0.00     0.023 A 
ATOM     87  C   UNL A   1      44.075  27.751  36.527  1.00  0.00     0.031 A 
ATOM     88  C   UNL A   1      45.499  29.362  35.437  1.00  0.00     0.131 A 
ATOM     89  C   UNL A   1      45.190  27.295  37.249  1.00  0.00     0.055 A 
ATOM     90  C   UNL A   1      46.614  28.868  36.114  1.00  0.00     0.041 A 
ATOM     91  F   UNL A   1      45.691  30.384  34.586  1.00  0.00    -0.206 F 
ATOM     92  C   UNL A   1      46.461  27.836  37.036  1.00  0.00     0.022 A 
BRANCH  89  93
ATOM     93  S   UNL A   1      44.944  26.038  38.533  1.00  0.00     0.124 S 
ATOM     94  O   UNL A   1      46.252  26.005  39.180  1.00  0.00    -0.237 OA
ATOM     95  O   UNL A   1      43.856  26.606  39.323  1.00  0.00    -0.237 OA
ATOM     96  O   UNL A   1      44.597  24.837  37.775  1.00  0.00    -0.744 OA
ENDBRANCH  89  93
ENDBRANCH  63  86
ENDBRANCH  37  38
ENDBRANCH  29  32
ENDBRANCH  27  28
ENDBRANCH   1  27
TORSDOF 17
ENDMDL
MODEL 2
REMARK VINA RESULT:     -11.9      5.671     10.476
REMARK SMILES CC[NH2+][C@@]1(C(=O)NCCCNC(=O)c2ccc(-c3c4nc(c(-c5cc(S(=O)(=O)[O-])ccc5F)c5ccc([nH]5)c(-c5cc(S(=O)(=O)[O-])ccc5F)c5nc(c(-c6cc(S(=O)(=O)[O-])ccc6F)c6ccc3[nH]6)C=C5)C=C4)cc2)CC[C@H](Oc2ccc3c(c2)OCO3)C1
REMARK SMILES IDX 9 1 8 2 7 3 5 4 6 5 4 7 77 8 90 9 78 10 79 11 3 12 2 15 1 16
REMARK SMILES IDX 80 17 81 18 82 19 86 20 83 21 85 22 84 23 87 24 89 25 88 26
REMARK SMILES IDX 10 27 11 28 12 29 13 31 14 32 15 33 76 34 16 35 75 36 17 37
REMARK SMILES IDX 18 38 19 39 69 40 20 41 74 42 68 43 70 44 21 45 73 46 67 47
REMARK SMILES IDX 66 48 22 50 54 51 34 52 53 53 35 54 38 55 52 56 71 57 36 58
REMARK SMILES IDX 37 59 51 61 72 62 39 63 23 64 24 65 32 66 25 67 31 68 33 69
REMARK SMILES IDX 30 70 26 71 27 72 28 73 29 74 55 75 56 76 64 77 57 78 63 79
REMARK SMILES IDX 65 80 62 81 58 82 59 83 60 84 61 85 40 86 41 87 49 88 42 89
REMARK SMILES IDX 48 90 50 91 47 92 43 93 44 94 45 95 46 96
REMARK H PARENT 7 6 3 13 3 14 11 30 70 49 38 60
REMARK Flexibility Score: inf
ROOT
ATOM      1  C   UNL A   1      35.350  23.081  24.233  1.00  0.00     0.042 C 
ENDROOT
BRANCH   1   2
ATOM      2  C   UNL A   1      34.168  24.042  24.197  1.00  0.00     0.118 C 
BRANCH   2   3
ATOM      3  N   UNL A   1      33.915  24.577  22.874  1.00  0.00    -0.351 N 
ATOM      4  C   UNL A   1      33.291  25.696  22.431  1.00  0.00     0.281 C 
ATOM      5  O   UNL A   1      33.383  25.893  21.207  1.00  0.00    -0.268 OA
ATOM      6  H   UNL A   1      34.268  24.011  22.148  1.00  0.00     0.163 HD
BRANCH   4   7
ATOM      7  C   UNL A   1      32.569  26.768  23.337  1.00  0.00     0.179 C 
ATOM      8  C   UNL A   1      31.650  26.013  24.335  1.00  0.00     0.083 C 
ATOM      9  C   UNL A   1      31.653  27.801  22.658  1.00  0.00     0.124 C 
ATOM     10  C   UNL A   1      30.228  26.210  23.829  1.00  0.00     0.052 C 
ATOM     11  C   UNL A   1      30.260  27.634  23.288  1.00  0.00     0.180 C 
BRANCH   7  12
ATOM     12  N   UNL A   1      33.632  27.435  24.165  1.00  0.00    -0.334 N 
ATOM     13  H   UNL A   1      33.673  26.969  25.071  1.00  0.00     0.347 HD
ATOM     14  H   UNL A   1      34.505  27.357  23.644  1.00  0.00     0.347 HD
BRANCH  12  15
ATOM     15  C   UNL A   1      33.397  28.870  24.392  1.00  0.00     0.257 C 
ATOM     16  C   UNL A   1      33.189  29.130  25.879  1.00  0.00     0.071 C 
ENDBRANCH  12  15
ENDBRANCH   7  12
BRANCH  11  17
ATOM     17  O   UNL A   1      29.260  28.144  22.408  1.00  0.00    -0.490 OA
BRANCH  17  18
ATOM     18  C   UNL A   1      28.861  29.443  22.459  1.00  0.00     0.123 A 
ATOM     19  C   UNL A   1      29.178  30.288  23.535  1.00  0.00     0.050 A 
ATOM     20  C   UNL A   1      28.291  29.968  21.295  1.00  0.00     0.097 A 
ATOM     21  C   UNL A   1      28.884  31.656  23.476  1.00  0.00     0.054 A 
ATOM     22  C   UNL A   1      28.026  31.321  21.256  1.00  0.00     0.169 A 
ATOM     23  C   UNL A   1      28.319  32.142  22.317  1.00  0.00     0.166 A 
ATOM     24  O   UNL A   1      27.502  32.005  20.204  1.00  0.00    -0.453 OA
ATOM     25  O   UNL A   1      28.038  33.447  22.057  1.00  0.00    -0.454 OA
ATOM     26  C   UNL A   1      27.658  33.364  20.667  1.00  0.00     0.468 C 
ENDBRANCH  17  18
ENDBRANCH  11  17
ENDBRANCH   4   7
ENDBRANCH   2   3
ENDBRANCH   1   2
BRANCH   1  27
ATOM     27  C   UNL A   1      35.510  22.347  25.557  1.00  0.00     0.118 C 
BRANCH  27  28
ATOM     28  N   UNL A   1      36.568  21.345  25.543  1.00  0.00    -0.352 N 
ATOM     29  C   UNL A   1      37.931  21.354  25.728  1.00  0.00     0.251 C 
ATOM     30  H   UNL A   1      36.223  20.443  25.354  1.00  0.00     0.163 HD
ATOM     31  O   UNL A   1      38.520  20.299  25.513  1.00  0.00    -0.269 OA
BRANCH  29  32
ATOM     32  C   UNL A   1      38.720  22.554  26.127  1.00  0.00     0.039 A 
ATOM     33  C   UNL A   1      39.897  22.347  26.866  1.00  0.00     0.014 A 
ATOM     34  C   UNL A   1      38.329  23.864  25.871  1.00  0.00     0.014 A 
ATOM     35  C   UNL A   1      40.707  23.423  27.258  1.00  0.00     0.010 A 
ATOM     36  C   UNL A   1      39.171  24.932  26.182  1.00  0.00     0.010 A 
ATOM     37  C   UNL A   1      40.363  24.726  26.886  1.00  0.00    -0.014 A 
BRANCH  37  38
ATOM     38  C   UNL A   1      41.161  25.907  27.300  1.00  0.00     0.031 A 
ATOM     39  C   UNL A   1      40.509  26.970  28.142  1.00  0.00     0.074 A 
ATOM     40  C   UNL A   1      42.418  26.079  26.849  1.00  0.00     0.049 A 
ATOM     41  N   UNL A   1      40.954  28.149  28.489  1.00  0.00    -0.248 NA
ATOM     42  C   UNL A   1      39.148  26.674  28.611  1.00  0.00     0.031 C 
ATOM     43  C   UNL A   1      43.145  25.139  25.998  1.00  0.00     0.029 A 
ATOM     44  N   UNL A   1      43.295  27.118  27.024  1.00  0.00    -0.354 N 
ATOM     45  C   UNL A   1      39.919  28.745  29.202  1.00  0.00     0.074 A 
ATOM     46  C   UNL A   1      38.801  27.826  29.160  1.00  0.00     0.031 C 
ATOM     47  C   UNL A   1      44.366  25.638  25.736  1.00  0.00     0.029 A 
ATOM     48  C   UNL A   1      44.489  26.951  26.362  1.00  0.00     0.049 A 
ATOM     49  H   UNL A   1      43.090  27.910  27.573  1.00  0.00     0.167 HD
ATOM     50  C   UNL A   1      39.908  29.934  29.856  1.00  0.00     0.034 A 
ATOM     51  C   UNL A   1      45.552  27.774  26.261  1.00  0.00     0.034 A 
ATOM     52  C   UNL A   1      41.032  30.837  29.884  1.00  0.00     0.049 A 
ATOM     53  C   UNL A   1      45.509  29.114  26.953  1.00  0.00     0.074 A 
ATOM     54  C   UNL A   1      41.155  32.046  30.544  1.00  0.00     0.029 A 
ATOM     55  N   UNL A   1      42.230  30.631  29.210  1.00  0.00    -0.354 N 
ATOM     56  N   UNL A   1      44.542  29.649  27.663  1.00  0.00    -0.248 NA
ATOM     57  C   UNL A   1      46.705  29.958  26.832  1.00  0.00     0.031 C 
ATOM     58  C   UNL A   1      42.400  32.599  30.220  1.00  0.00     0.029 A 
ATOM     59  C   UNL A   1      43.085  31.702  29.414  1.00  0.00     0.049 A 
ATOM     60  H   UNL A   1      42.440  29.838  28.665  1.00  0.00     0.167 HD
ATOM     61  C   UNL A   1      45.029  30.877  28.104  1.00  0.00     0.074 A 
ATOM     62  C   UNL A   1      46.375  31.000  27.582  1.00  0.00     0.031 C 
ATOM     63  C   UNL A   1      44.423  31.813  28.879  1.00  0.00     0.034 A 
BRANCH  50  64
ATOM     64  C   UNL A   1      38.622  30.313  30.554  1.00  0.00     0.023 A 
ATOM     65  C   UNL A   1      37.594  30.992  29.873  1.00  0.00     0.031 A 
ATOM     66  C   UNL A   1      38.459  30.090  31.932  1.00  0.00     0.131 A 
ATOM     67  C   UNL A   1      36.519  31.535  30.591  1.00  0.00     0.055 A 
ATOM     68  C   UNL A   1      37.331  30.541  32.622  1.00  0.00     0.041 A 
ATOM     69  F   UNL A   1      39.410  29.462  32.641  1.00  0.00    -0.206 F 
ATOM     70  C   UNL A   1      36.365  31.292  31.956  1.00  0.00     0.022 A 
BRANCH  67  71
ATOM     71  S   UNL A   1      35.449  32.738  29.752  1.00  0.00     0.124 S 
ATOM     72  O   UNL A   1      36.379  33.837  29.505  1.00  0.00    -0.237 OA
ATOM     73  O   UNL A   1      35.006  31.999  28.576  1.00  0.00    -0.237 OA
ATOM     74  O   UNL A   1      34.411  33.021  30.741  1.00  0.00    -0.744 OA
ENDBRANCH  67  71
ENDBRANCH  50  64
BRANCH  51  75
ATOM     75  C   UNL A   1      46.752  27.364  25.479  1.00  0.00     0.023 A 
ATOM     76  C   UNL A   1      46.933  27.813  24.161  1.00  0.00     0.031 A 
ATOM     77  C   UNL A   1      47.714  26.494  26.020  1.00  0.00     0.131 A 
ATOM     78  C   UNL A   1      48.031  27.360  23.413  1.00  0.00     0.055 A 
ATOM     79  C   UNL A   1      48.827  26.080  25.286  1.00  0.00     0.041 A 
ATOM     80  F   UNL A   1      47.589  26.042  27.278  1.00  0.00    -0.206 F 
ATOM     81  C   UNL A   1      48.984  26.506  23.970  1.00  0.00     0.022 A 
BRANCH  78  82
ATOM     82  S   UNL A   1      48.164  27.864  21.676  1.00  0.00     0.124 S 
ATOM     83  O   UNL A   1      48.294  26.577  21.003  1.00  0.00    -0.237 OA
ATOM     84  O   UNL A   1      46.905  28.572  21.467  1.00  0.00    -0.237 OA
ATOM     85  O   UNL A   1      49.358  28.704  21.656  1.00  0.00    -0.744 OA
ENDBRANCH  78  82
ENDBRANCH  51  75
BRANCH  63  86
ATOM     86  C   UNL A   1      45.238  33.027  29.252  1.00  0.00     0.023 A 
ATOM     87  C   UNL A   1      45.212  34.206  28.487  1.00  0.00     0.031 A 
ATOM     88  C   UNL A   1      46.058  32.998  30.395  1.00  0.00     0.131 A 
ATOM     89  C   UNL A   1      46.028  35.291  28.848  1.00  0.00     0.055 A 
ATOM     90  C   UNL A   1      46.822  34.099  30.781  1.00  0.00     0.041 A 
ATOM     91  F   UNL A   1      46.122  31.896  31.162  1.00  0.00    -0.206 F 
ATOM     92  C   UNL A   1      46.819  35.250  29.999  1.00  0.00     0.022 A 
BRANCH  89  93
ATOM     93  S   UNL A   1      46.103  36.730  27.747  1.00  0.00     0.124 S 
ATOM     94  O   UNL A   1      44.786  37.329  27.938  1.00  0.00    -0.237 OA
ATOM     95  O   UNL A   1      47.230  37.481  28.292  1.00  0.00    -0.237 OA
ATOM     96  O   UNL A   1      46.331  36.142  26.429  1.00  0.00    -0.744 OA
ENDBRANCH  89  93
ENDBRANCH  63  86
ENDBRANCH  37  38
ENDBRANCH  29  32
ENDBRANCH  27  28
ENDBRANCH   1  27
TORSDOF 17
ENDMDL
MODEL 3
REMARK VINA RESULT:     -11.7      6.342      9.874
REMARK SMILES CC[NH2+][C@@]1(C(=O)NCCCNC(=O)c2ccc(-c3c4nc(c(-c5cc(S(=O)(=O)[O-])ccc5F)c5ccc([nH]5)c(-c5cc(S(=O)(=O)[O-])ccc5F)c5nc(c(-c6cc(S(=O)(=O)[O-])ccc6F)c6ccc3[nH]6)C=C5)C=C4)cc2)CC[C@H](Oc2ccc3c(c2)OCO3)C1
REMARK SMILES IDX 9 1 8 2 7 3 5 4 6 5 4 7 77 8 90 9 78 10 79 11 3 12 2 15 1 16
REMARK SMILES IDX 80 17 81 18 82 19 86 20 83 21 85 22 84 23 87 24 89 25 88 26
REMARK SMILES IDX 10 27 11 28 12 29 13 31 14 32 15 33 76 34 16 35 75 36 17 37
REMARK SMILES IDX 18 38 19 39 69 40 20 41 74 42 68 43 70 44 21 45 73 46 67 47
REMARK SMILES IDX 66 48 22 50 54 51 34 52 53 53 35 54 38 55 52 56 71 57 36 58
REMARK SMILES IDX 37 59 51 61 72 62 39 63 23 64 24 65 32 66 25 67 31 68 33 69
REMARK SMILES IDX 30 70 26 71 27 72 28 73 29 74 55 75 56 76 64 77 57 78 63 79
REMARK SMILES IDX 65 80 62 81 58 82 59 83 60 84 61 85 40 86 41 87 49 88 42 89
REMARK SMILES IDX 48 90 50 91 47 92 43 93 44 94 45 95 46 96
REMARK H PARENT 7 6 3 13 3 14 11 30 70 49 38 60
REMARK Flexibility Score: inf
ROOT
ATOM      1  C   UNL A   1      36.876  22.151  24.201  1.00  0.00     0.042 C 
ENDROOT
BRANCH   1   2
ATOM      2  C   UNL A   1      35.517  22.725  23.821  1.00  0.00     0.118 C 
BRANCH   2   3
ATOM      3  N   UNL A   1      35.213  23.962  24.513  1.00  0.00    -0.351 N 
ATOM      4  C   UNL A   1      34.246  24.317  25.395  1.00  0.00     0.281 C 
ATOM      5  O   UNL A   1      34.380  25.451  25.886  1.00  0.00    -0.268 OA
ATOM      6  H   UNL A   1      35.835  24.695  24.297  1.00  0.00     0.163 HD
BRANCH   4   7
ATOM      7  C   UNL A   1      33.067  23.391  25.890  1.00  0.00     0.179 C 
ATOM      8  C   UNL A   1      33.628  22.440  26.981  1.00  0.00     0.083 C 
ATOM      9  C   UNL A   1      32.387  22.464  24.868  1.00  0.00     0.124 C 
ATOM     10  C   UNL A   1      33.761  21.074  26.321  1.00  0.00     0.052 C 
ATOM     11  C   UNL A   1      32.549  21.030  25.398  1.00  0.00     0.180 C 
BRANCH   7  12
ATOM     12  N   UNL A   1      32.068  24.278  26.578  1.00  0.00    -0.334 N 
ATOM     13  H   UNL A   1      32.034  24.020  27.564  1.00  0.00     0.347 HD
ATOM     14  H   UNL A   1      32.377  25.240  26.436  1.00  0.00     0.347 HD
BRANCH  12  15
ATOM     15  C   UNL A   1      30.707  24.183  26.028  1.00  0.00     0.257 C 
ATOM     16  C   UNL A   1      30.111  25.577  25.876  1.00  0.00     0.071 C 
ENDBRANCH  12  15
ENDBRANCH   7  12
BRANCH  11  17
ATOM     17  O   UNL A   1      32.434  20.095  24.327  1.00  0.00    -0.490 OA
BRANCH  17  18
ATOM     18  C   UNL A   1      32.982  18.852  24.404  1.00  0.00     0.123 A 
ATOM     19  C   UNL A   1      34.364  18.629  24.305  1.00  0.00     0.050 A 
ATOM     20  C   UNL A   1      32.127  17.817  24.794  1.00  0.00     0.097 A 
ATOM     21  C   UNL A   1      34.899  17.357  24.547  1.00  0.00     0.054 A 
ATOM     22  C   UNL A   1      32.680  16.578  25.041  1.00  0.00     0.169 A 
ATOM     23  C   UNL A   1      34.031  16.357  24.925  1.00  0.00     0.166 A 
ATOM     24  O   UNL A   1      32.010  15.468  25.453  1.00  0.00    -0.453 OA
ATOM     25  O   UNL A   1      34.382  15.089  25.270  1.00  0.00    -0.454 OA
ATOM     26  C   UNL A   1      33.113  14.583  25.740  1.00  0.00     0.468 C 
ENDBRANCH  17  18
ENDBRANCH  11  17
ENDBRANCH   4   7
ENDBRANCH   2   3
ENDBRANCH   1   2
BRANCH   1  27
ATOM     27  C   UNL A   1      37.175  22.207  25.693  1.00  0.00     0.118 C 
BRANCH  27  28
ATOM     28  N   UNL A   1      38.360  21.451  26.077  1.00  0.00    -0.352 N 
ATOM     29  C   UNL A   1      39.609  21.762  26.565  1.00  0.00     0.251 C 
ATOM     30  H   UNL A   1      38.238  20.481  25.958  1.00  0.00     0.163 HD
ATOM     31  O   UNL A   1      40.407  20.834  26.657  1.00  0.00    -0.269 OA
BRANCH  29  32
ATOM     32  C   UNL A   1      40.049  23.135  26.941  1.00  0.00     0.039 A 
ATOM     33  C   UNL A   1      39.649  24.199  26.114  1.00  0.00     0.014 A 
ATOM     34  C   UNL A   1      40.882  23.419  28.017  1.00  0.00     0.014 A 
ATOM     35  C   UNL A   1      40.002  25.523  26.413  1.00  0.00     0.010 A 
ATOM     36  C   UNL A   1      41.165  24.739  28.369  1.00  0.00     0.010 A 
ATOM     37  C   UNL A   1      40.737  25.805  27.568  1.00  0.00    -0.014 A 
BRANCH  37  38
ATOM     38  C   UNL A   1      41.170  27.181  27.919  1.00  0.00     0.031 A 
ATOM     39  C   UNL A   1      42.602  27.577  27.687  1.00  0.00     0.074 A 
ATOM     40  C   UNL A   1      40.323  28.032  28.528  1.00  0.00     0.049 A 
ATOM     41  N   UNL A   1      43.239  28.658  28.055  1.00  0.00    -0.248 NA
ATOM     42  C   UNL A   1      43.437  26.591  26.986  1.00  0.00     0.031 C 
ATOM     43  C   UNL A   1      38.923  27.751  28.840  1.00  0.00     0.029 A 
ATOM     44  N   UNL A   1      40.527  29.297  29.017  1.00  0.00    -0.354 N 
ATOM     45  C   UNL A   1      44.556  28.474  27.648  1.00  0.00     0.074 A 
ATOM     46  C   UNL A   1      44.636  27.143  27.083  1.00  0.00     0.031 C 
ATOM     47  C   UNL A   1      38.388  28.820  29.456  1.00  0.00     0.029 A 
ATOM     48  C   UNL A   1      39.418  29.841  29.622  1.00  0.00     0.049 A 
ATOM     49  H   UNL A   1      41.387  29.772  28.942  1.00  0.00     0.167 HD
ATOM     50  C   UNL A   1      45.598  29.341  27.711  1.00  0.00     0.034 A 
ATOM     51  C   UNL A   1      39.260  31.022  30.253  1.00  0.00     0.034 A 
ATOM     52  C   UNL A   1      45.499  30.663  28.280  1.00  0.00     0.049 A 
ATOM     53  C   UNL A   1      40.439  31.958  30.359  1.00  0.00     0.074 A 
ATOM     54  C   UNL A   1      46.470  31.644  28.363  1.00  0.00     0.029 A 
ATOM     55  N   UNL A   1      44.357  31.185  28.876  1.00  0.00    -0.354 N 
ATOM     56  N   UNL A   1      41.670  31.793  29.929  1.00  0.00    -0.248 NA
ATOM     57  C   UNL A   1      40.203  33.242  31.031  1.00  0.00     0.031 C 
ATOM     58  C   UNL A   1      45.935  32.733  29.062  1.00  0.00     0.029 A 
ATOM     59  C   UNL A   1      44.607  32.461  29.354  1.00  0.00     0.049 A 
ATOM     60  H   UNL A   1      43.495  30.715  28.948  1.00  0.00     0.167 HD
ATOM     61  C   UNL A   1      42.344  32.969  30.248  1.00  0.00     0.074 A 
ATOM     62  C   UNL A   1      41.382  33.833  30.902  1.00  0.00     0.031 C 
ATOM     63  C   UNL A   1      43.638  33.308  30.011  1.00  0.00     0.034 A 
BRANCH  50  64
ATOM     64  C   UNL A   1      46.924  28.851  27.176  1.00  0.00     0.023 A 
ATOM     65  C   UNL A   1      47.121  28.643  25.797  1.00  0.00     0.031 A 
ATOM     66  C   UNL A   1      47.964  28.491  28.049  1.00  0.00     0.131 A 
ATOM     67  C   UNL A   1      48.269  27.974  25.348  1.00  0.00     0.055 A 
ATOM     68  C   UNL A   1      49.152  27.922  27.582  1.00  0.00     0.041 A 
ATOM     69  F   UNL A   1      47.831  28.649  29.375  1.00  0.00    -0.206 F 
ATOM     70  C   UNL A   1      49.299  27.636  26.227  1.00  0.00     0.022 A 
BRANCH  67  71
ATOM     71  S   UNL A   1      48.293  27.366  23.638  1.00  0.00     0.124 S 
ATOM     72  O   UNL A   1      49.638  27.745  23.211  1.00  0.00    -0.237 OA
ATOM     73  O   UNL A   1      48.055  25.939  23.808  1.00  0.00    -0.237 OA
ATOM     74  O   UNL A   1      47.212  28.110  22.995  1.00  0.00    -0.744 OA
ENDBRANCH  67  71
ENDBRANCH  50  64
BRANCH  51  75
ATOM     75  C   UNL A   1      37.941  31.397  30.833  1.00  0.00     0.023 A 
ATOM     76  C   UNL A   1      36.984  32.068  30.056  1.00  0.00     0.031 A 
ATOM     77  C   UNL A   1      37.629  31.122  32.175  1.00  0.00     0.131 A 
ATOM     78  C   UNL A   1      35.774  32.480  30.638  1.00  0.00     0.055 A 
ATOM     79  C   UNL A   1      36.406  31.494  32.738  1.00  0.00     0.041 A 
ATOM     80  F   UNL A   1      38.507  30.476  32.958  1.00  0.00    -0.206 F 
ATOM     81  C   UNL A   1      35.474  32.187  31.969  1.00  0.00     0.022 A 
BRANCH  78  82
ATOM     82  S   UNL A   1      34.618  33.453  29.636  1.00  0.00     0.124 S 
ATOM     83  O   UNL A   1      34.015  32.424  28.796  1.00  0.00    -0.237 OA
ATOM     84  O   UNL A   1      33.752  34.039  30.654  1.00  0.00    -0.237 OA
ATOM     85  O   UNL A   1      35.484  34.400  28.940  1.00  0.00    -0.744 OA
ENDBRANCH  78  82
ENDBRANCH  51  75
BRANCH  63  86
ATOM     86  C   UNL A   1      44.067  34.697  30.417  1.00  0.00     0.023 A 
ATOM     87  C   UNL A   1      43.814  35.820  29.610  1.00  0.00     0.031 A 
ATOM     88  C   UNL A   1      44.745  34.895  31.633  1.00  0.00     0.131 A 
ATOM     89  C   UNL A   1      44.278  37.084  30.008  1.00  0.00     0.055 A 
ATOM     90  C   UNL A   1      45.153  36.161  32.051  1.00  0.00     0.041 A 
ATOM     91  F   UNL A   1      45.015  33.856  32.442  1.00  0.00    -0.206 F 
ATOM     92  C   UNL A   1      44.931  37.264  31.232  1.00  0.00     0.022 A 
BRANCH  89  93
ATOM     93  S   UNL A   1      44.089  38.482  28.869  1.00  0.00     0.124 S 
ATOM     94  O   UNL A   1      42.763  38.242  28.309  1.00  0.00    -0.237 OA
ATOM     95  O   UNL A   1      44.205  39.631  29.762  1.00  0.00    -0.237 OA
ATOM     96  O   UNL A   1      45.197  38.313  27.931  1.00  0.00    -0.744 OA
ENDBRANCH  89  93
ENDBRANCH  63  86
ENDBRANCH  37  38
ENDBRANCH  29  32
ENDBRANCH  27  28
ENDBRANCH   1  27
TORSDOF 17
ENDMDL
