MODEL 1
REMARK VINA RESULT:     -11.8      0.000      0.000
REMARK SMILES CCc1cc(Oc2cncc(C(=O)NCCCNC(=O)c3ccc(-c4c5nc(c(-c6cc(S(=O)(=O)[O-])ccc6F)c6ccc([nH]6)c(-c6cc(S(=O)(=O)[O-])ccc6F)c6nc(c(-c7cc(S(=O)(=O)[O-])ccc7F)c7ccc4[nH]7)C=C6)C=C5)cc3)n2)ccc1Cl
REMARK SMILES IDX 16 1 15 2 14 3 12 4 13 5 11 7 7 8 8 9 84 10 9 11 10 12 6 13
REMARK SMILES IDX 5 14 3 15 4 16 87 17 86 18 88 19 85 20 2 21 1 22 17 23 18 24
REMARK SMILES IDX 19 25 20 27 21 28 22 29 83 30 23 31 82 32 24 33 25 34 26 35
REMARK SMILES IDX 76 36 27 37 81 38 75 39 77 40 28 41 80 42 74 43 73 44 29 46
REMARK SMILES IDX 61 47 41 48 60 49 42 50 45 51 59 52 78 53 43 54 44 55 58 57
REMARK SMILES IDX 79 58 46 59 30 60 31 61 39 62 32 63 38 64 40 65 37 66 33 67
REMARK SMILES IDX 34 68 35 69 36 70 62 71 63 72 71 73 64 74 70 75 72 76 69 77
REMARK SMILES IDX 65 78 66 79 67 80 68 81 47 82 48 83 56 84 49 85 55 86 57 87
REMARK SMILES IDX 54 88 50 89 51 90 52 91 53 92
REMARK H PARENT 14 6 18 26 77 45 45 56
REMARK Flexibility Score: inf
ROOT
ATOM      1  C   UNL A   1      33.888  28.828  24.307  1.00  0.00     0.042 C 
ENDROOT
BRANCH   1   2
ATOM      2  C   UNL A   1      32.945  28.948  23.115  1.00  0.00     0.118 C 
BRANCH   2   3
ATOM      3  N   UNL A   1      33.261  27.984  22.072  1.00  0.00    -0.351 N 
ATOM      4  C   UNL A   1      33.007  26.633  21.993  1.00  0.00     0.271 C 
ATOM      5  O   UNL A   1      33.313  26.042  20.956  1.00  0.00    -0.267 OA
ATOM      6  H   UNL A   1      33.734  28.359  21.295  1.00  0.00     0.163 HD
BRANCH   4   7
ATOM      7  C   UNL A   1      32.342  25.876  23.089  1.00  0.00     0.150 A 
ATOM      8  C   UNL A   1      32.415  24.651  25.021  1.00  0.00     0.238 A 
ATOM      9  C   UNL A   1      31.026  24.676  25.095  1.00  0.00     0.179 A 
ATOM     10  N   UNL A   1      33.098  25.258  24.029  1.00  0.00    -0.205 NA
ATOM     11  N   UNL A   1      30.259  25.253  24.140  1.00  0.00    -0.257 NA
ATOM     12  C   UNL A   1      30.952  25.847  23.132  1.00  0.00     0.145 A 
BRANCH   8  13
ATOM     13  O   UNL A   1      33.179  24.093  26.014  1.00  0.00    -0.437 OA
BRANCH  13  14
ATOM     14  C   UNL A   1      34.007  23.041  25.688  1.00  0.00     0.129 A 
ATOM     15  C   UNL A   1      36.346  22.312  25.571  1.00  0.00    -0.026 A 
ATOM     16  C   UNL A   1      35.377  23.302  25.827  1.00  0.00     0.052 A 
ATOM     17  C   UNL A   1      35.898  21.035  25.197  1.00  0.00     0.044 A 
ATOM     18  C   UNL A   1      34.534  20.787  25.008  1.00  0.00     0.024 A 
ATOM     19  Cl  UNL A   1      36.972  19.699  24.999  1.00  0.00    -0.084 Cl
ATOM     20  C   UNL A   1      33.590  21.789  25.238  1.00  0.00     0.049 A 
BRANCH  15  21
ATOM     21  C   UNL A   1      37.806  22.670  25.732  1.00  0.00     0.034 C 
ATOM     22  C   UNL A   1      38.044  24.080  26.263  1.00  0.00     0.009 C 
ENDBRANCH  15  21
ENDBRANCH  13  14
ENDBRANCH   8  13
ENDBRANCH   4   7
ENDBRANCH   2   3
ENDBRANCH   1   2
BRANCH   1  23
ATOM     23  C   UNL A   1      33.160  28.838  25.650  1.00  0.00     0.118 C 
BRANCH  23  24
ATOM     24  N   UNL A   1      32.664  30.166  25.999  1.00  0.00    -0.352 N 
ATOM     25  C   UNL A   1      33.131  31.061  26.931  1.00  0.00     0.251 C 
ATOM     26  H   UNL A   1      31.876  30.466  25.490  1.00  0.00     0.163 HD
ATOM     27  O   UNL A   1      32.449  32.039  27.229  1.00  0.00    -0.269 OA
BRANCH  25  28
ATOM     28  C   UNL A   1      34.439  30.836  27.579  1.00  0.00     0.039 A 
ATOM     29  C   UNL A   1      35.351  31.893  27.668  1.00  0.00     0.014 A 
ATOM     30  C   UNL A   1      34.767  29.578  28.090  1.00  0.00     0.014 A 
ATOM     31  C   UNL A   1      36.564  31.707  28.336  1.00  0.00     0.010 A 
ATOM     32  C   UNL A   1      35.945  29.414  28.810  1.00  0.00     0.010 A 
ATOM     33  C   UNL A   1      36.854  30.477  28.944  1.00  0.00    -0.014 A 
BRANCH  33  34
ATOM     34  C   UNL A   1      38.101  30.247  29.718  1.00  0.00     0.031 A 
ATOM     35  C   UNL A   1      39.110  29.255  29.209  1.00  0.00     0.074 A 
ATOM     36  C   UNL A   1      38.267  30.831  30.920  1.00  0.00     0.049 A 
ATOM     37  N   UNL A   1      40.138  28.727  29.820  1.00  0.00    -0.248 NA
ATOM     38  C   UNL A   1      38.904  28.764  27.838  1.00  0.00     0.031 C 
ATOM     39  C   UNL A   1      37.353  31.802  31.525  1.00  0.00     0.029 A 
ATOM     40  N   UNL A   1      39.250  30.669  31.866  1.00  0.00    -0.354 N 
ATOM     41  C   UNL A   1      40.683  27.816  28.922  1.00  0.00     0.074 A 
ATOM     42  C   UNL A   1      39.842  27.835  27.744  1.00  0.00     0.031 C 
ATOM     43  C   UNL A   1      37.817  32.148  32.736  1.00  0.00     0.029 A 
ATOM     44  C   UNL A   1      39.027  31.382  33.022  1.00  0.00     0.049 A 
ATOM     45  H   UNL A   1      40.040  30.097  31.730  1.00  0.00     0.167 HD
ATOM     46  C   UNL A   1      41.789  27.043  29.067  1.00  0.00     0.034 A 
ATOM     47  C   UNL A   1      39.698  31.390  34.191  1.00  0.00     0.034 A 
ATOM     48  C   UNL A   1      42.623  27.056  30.244  1.00  0.00     0.049 A 
ATOM     49  C   UNL A   1      40.912  30.507  34.340  1.00  0.00     0.074 A 
ATOM     50  C   UNL A   1      43.788  26.348  30.484  1.00  0.00     0.029 A 
ATOM     51  N   UNL A   1      42.381  27.818  31.379  1.00  0.00    -0.354 N 
ATOM     52  N   UNL A   1      41.423  29.656  33.480  1.00  0.00    -0.248 NA
ATOM     53  C   UNL A   1      41.643  30.588  35.612  1.00  0.00     0.031 C 
ATOM     54  C   UNL A   1      44.218  26.638  31.783  1.00  0.00     0.029 A 
ATOM     55  C   UNL A   1      43.363  27.583  32.328  1.00  0.00     0.049 A 
ATOM     56  H   UNL A   1      41.622  28.436  31.494  1.00  0.00     0.167 HD
ATOM     57  C   UNL A   1      42.559  29.135  34.093  1.00  0.00     0.074 A 
ATOM     58  C   UNL A   1      42.655  29.761  35.395  1.00  0.00     0.031 C 
ATOM     59  C   UNL A   1      43.450  28.229  33.617  1.00  0.00     0.034 A 
BRANCH  46  60
ATOM     60  C   UNL A   1      42.130  26.100  27.938  1.00  0.00     0.023 A 
ATOM     61  C   UNL A   1      41.700  24.762  27.937  1.00  0.00     0.031 A 
ATOM     62  C   UNL A   1      42.927  26.535  26.865  1.00  0.00     0.131 A 
ATOM     63  C   UNL A   1      42.138  23.886  26.934  1.00  0.00     0.055 A 
ATOM     64  C   UNL A   1      43.289  25.679  25.822  1.00  0.00     0.041 A 
ATOM     65  F   UNL A   1      43.386  27.795  26.819  1.00  0.00    -0.206 F 
ATOM     66  C   UNL A   1      42.908  24.341  25.860  1.00  0.00     0.022 A 
BRANCH  63  67
ATOM     67  S   UNL A   1      41.814  22.113  27.132  1.00  0.00     0.124 S 
ATOM     68  O   UNL A   1      40.500  22.125  27.773  1.00  0.00    -0.237 OA
ATOM     69  O   UNL A   1      41.849  21.629  25.758  1.00  0.00    -0.237 OA
ATOM     70  O   UNL A   1      42.910  21.656  27.984  1.00  0.00    -0.744 OA
ENDBRANCH  63  67
ENDBRANCH  46  60
BRANCH  47  71
ATOM     71  C   UNL A   1      39.234  32.243  35.322  1.00  0.00     0.023 A 
ATOM     72  C   UNL A   1      39.682  33.565  35.459  1.00  0.00     0.031 A 
ATOM     73  C   UNL A   1      38.362  31.736  36.302  1.00  0.00     0.131 A 
ATOM     74  C   UNL A   1      39.293  34.324  36.574  1.00  0.00     0.055 A 
ATOM     75  C   UNL A   1      37.936  32.513  37.382  1.00  0.00     0.041 A 
ATOM     76  F   UNL A   1      37.898  30.479  36.216  1.00  0.00    -0.206 F 
ATOM     77  C   UNL A   1      38.413  33.811  37.530  1.00  0.00     0.022 A 
BRANCH  74  78
ATOM     78  S   UNL A   1      40.019  35.971  36.797  1.00  0.00     0.124 S 
ATOM     79  O   UNL A   1      39.252  36.483  37.927  1.00  0.00    -0.237 OA
ATOM     80  O   UNL A   1      41.418  35.651  37.061  1.00  0.00    -0.237 OA
ATOM     81  O   UNL A   1      39.764  36.632  35.519  1.00  0.00    -0.744 OA
ENDBRANCH  74  78
ENDBRANCH  47  71
BRANCH  59  82
ATOM     82  C   UNL A   1      44.653  27.924  34.472  1.00  0.00     0.023 A 
ATOM     83  C   UNL A   1      44.667  26.862  35.391  1.00  0.00     0.031 A 
ATOM     84  C   UNL A   1      45.817  28.702  34.333  1.00  0.00     0.131 A 
ATOM     85  C   UNL A   1      45.816  26.625  36.161  1.00  0.00     0.055 A 
ATOM     86  C   UNL A   1      46.972  28.432  35.068  1.00  0.00     0.041 A 
ATOM     87  F   UNL A   1      45.853  29.728  33.468  1.00  0.00    -0.206 F 
ATOM     88  C   UNL A   1      46.972  27.392  35.993  1.00  0.00     0.022 A 
BRANCH  85  89
ATOM     89  S   UNL A   1      45.770  25.325  37.425  1.00  0.00     0.124 S 
ATOM     90  O   UNL A   1      46.355  24.191  36.716  1.00  0.00    -0.237 OA
ATOM     91  O   UNL A   1      46.584  25.896  38.494  1.00  0.00    -0.237 OA
ATOM     92  O   UNL A   1      44.347  25.196  37.734  1.00  0.00    -0.744 OA
ENDBRANCH  85  89
ENDBRANCH  59  82
ENDBRANCH  33  34
ENDBRANCH  25  28
ENDBRANCH  23  24
ENDBRANCH   1  23
TORSDOF 16
ENDMDL
MODEL 2
REMARK VINA RESULT:     -11.7      4.493     10.570
REMARK SMILES CCc1cc(Oc2cncc(C(=O)NCCCNC(=O)c3ccc(-c4c5nc(c(-c6cc(S(=O)(=O)[O-])ccc6F)c6ccc([nH]6)c(-c6cc(S(=O)(=O)[O-])ccc6F)c6nc(c(-c7cc(S(=O)(=O)[O-])ccc7F)c7ccc4[nH]7)C=C6)C=C5)cc3)n2)ccc1Cl
REMARK SMILES IDX 16 1 15 2 14 3 12 4 13 5 11 7 7 8 8 9 84 10 9 11 10 12 6 13
REMARK SMILES IDX 5 14 3 15 4 16 87 17 86 18 88 19 85 20 2 21 1 22 17 23 18 24
REMARK SMILES IDX 19 25 20 27 21 28 22 29 83 30 23 31 82 32 24 33 25 34 26 35
REMARK SMILES IDX 76 36 27 37 81 38 75 39 77 40 28 41 80 42 74 43 73 44 29 46
REMARK SMILES IDX 61 47 41 48 60 49 42 50 45 51 59 52 78 53 43 54 44 55 58 57
REMARK SMILES IDX 79 58 46 59 30 60 31 61 39 62 32 63 38 64 40 65 37 66 33 67
REMARK SMILES IDX 34 68 35 69 36 70 62 71 63 72 71 73 64 74 70 75 72 76 69 77
REMARK SMILES IDX 65 78 66 79 67 80 68 81 47 82 48 83 56 84 49 85 55 86 57 87
REMARK SMILES IDX 54 88 50 89 51 90 52 91 53 92
REMARK H PARENT 14 6 18 26 77 45 45 56
REMARK Flexibility Score: inf
ROOT
ATOM      1  C   UNL A   1      35.611  33.423  28.183  1.00  0.00     0.042 C 
ENDROOT
BRANCH   1   2
ATOM      2  C   UNL A   1      35.447  34.876  28.616  1.00  0.00     0.118 C 
BRANCH   2   3
ATOM      3  N   UNL A   1      34.095  35.362  28.387  1.00  0.00    -0.351 N 
ATOM      4  C   UNL A   1      33.180  35.912  29.256  1.00  0.00     0.271 C 
ATOM      5  O   UNL A   1      32.112  36.322  28.797  1.00  0.00    -0.267 OA
ATOM      6  H   UNL A   1      33.783  35.286  27.456  1.00  0.00     0.163 HD
BRANCH   4   7
ATOM      7  C   UNL A   1      33.450  36.068  30.712  1.00  0.00     0.150 A 
ATOM      8  C   UNL A   1      34.241  35.277  32.709  1.00  0.00     0.238 A 
ATOM      9  C   UNL A   1      34.034  36.523  33.290  1.00  0.00     0.179 A 
ATOM     10  N   UNL A   1      33.967  35.029  31.411  1.00  0.00    -0.205 NA
ATOM     11  N   UNL A   1      33.479  37.557  32.613  1.00  0.00    -0.257 NA
ATOM     12  C   UNL A   1      33.186  37.296  31.311  1.00  0.00     0.145 A 
BRANCH   8  13
ATOM     13  O   UNL A   1      34.836  34.251  33.397  1.00  0.00    -0.437 OA
BRANCH  13  14
ATOM     14  C   UNL A   1      36.212  34.167  33.382  1.00  0.00     0.129 A 
ATOM     15  C   UNL A   1      38.162  33.709  31.967  1.00  0.00    -0.026 A 
ATOM     16  C   UNL A   1      36.767  33.797  32.150  1.00  0.00     0.052 A 
ATOM     17  C   UNL A   1      38.990  34.032  33.053  1.00  0.00     0.044 A 
ATOM     18  C   UNL A   1      38.436  34.352  34.298  1.00  0.00     0.024 A 
ATOM     19  Cl  UNL A   1      40.708  34.107  32.917  1.00  0.00    -0.084 Cl
ATOM     20  C   UNL A   1      37.052  34.405  34.468  1.00  0.00     0.049 A 
BRANCH  15  21
ATOM     21  C   UNL A   1      38.688  33.294  30.611  1.00  0.00     0.034 C 
ATOM     22  C   UNL A   1      39.043  34.462  29.698  1.00  0.00     0.009 C 
ENDBRANCH  15  21
ENDBRANCH  13  14
ENDBRANCH   8  13
ENDBRANCH   4   7
ENDBRANCH   2   3
ENDBRANCH   1   2
BRANCH   1  23
ATOM     23  C   UNL A   1      35.022  32.431  29.184  1.00  0.00     0.118 C 
BRANCH  23  24
ATOM     24  N   UNL A   1      34.382  31.295  28.525  1.00  0.00    -0.352 N 
ATOM     25  C   UNL A   1      34.920  30.100  28.115  1.00  0.00     0.251 C 
ATOM     26  H   UNL A   1      33.419  31.403  28.347  1.00  0.00     0.163 HD
ATOM     27  O   UNL A   1      34.267  29.358  27.386  1.00  0.00    -0.269 OA
BRANCH  25  28
ATOM     28  C   UNL A   1      36.283  29.721  28.539  1.00  0.00     0.039 A 
ATOM     29  C   UNL A   1      36.476  29.166  29.809  1.00  0.00     0.014 A 
ATOM     30  C   UNL A   1      37.371  29.922  27.687  1.00  0.00     0.014 A 
ATOM     31  C   UNL A   1      37.751  28.745  30.195  1.00  0.00     0.010 A 
ATOM     32  C   UNL A   1      38.625  29.444  28.048  1.00  0.00     0.010 A 
ATOM     33  C   UNL A   1      38.828  28.846  29.303  1.00  0.00    -0.014 A 
BRANCH  33  34
ATOM     34  C   UNL A   1      40.190  28.357  29.641  1.00  0.00     0.031 A 
ATOM     35  C   UNL A   1      41.011  29.108  30.653  1.00  0.00     0.074 A 
ATOM     36  C   UNL A   1      40.726  27.326  28.959  1.00  0.00     0.049 A 
ATOM     37  N   UNL A   1      42.285  29.007  30.929  1.00  0.00    -0.248 NA
ATOM     38  C   UNL A   1      40.303  30.136  31.430  1.00  0.00     0.031 C 
ATOM     39  C   UNL A   1      40.032  26.528  27.946  1.00  0.00     0.029 A 
ATOM     40  N   UNL A   1      41.991  26.792  28.993  1.00  0.00    -0.354 N 
ATOM     41  C   UNL A   1      42.540  29.984  31.886  1.00  0.00     0.074 A 
ATOM     42  C   UNL A   1      41.296  30.690  32.107  1.00  0.00     0.031 C 
ATOM     43  C   UNL A   1      40.879  25.608  27.456  1.00  0.00     0.029 A 
ATOM     44  C   UNL A   1      42.190  25.788  28.073  1.00  0.00     0.049 A 
ATOM     45  H   UNL A   1      42.689  27.098  29.616  1.00  0.00     0.167 HD
ATOM     46  C   UNL A   1      43.705  30.256  32.527  1.00  0.00     0.034 A 
ATOM     47  C   UNL A   1      43.309  25.113  27.740  1.00  0.00     0.034 A 
ATOM     48  C   UNL A   1      44.928  29.525  32.305  1.00  0.00     0.049 A 
ATOM     49  C   UNL A   1      44.599  25.446  28.447  1.00  0.00     0.074 A 
ATOM     50  C   UNL A   1      46.155  29.685  32.925  1.00  0.00     0.029 A 
ATOM     51  N   UNL A   1      45.079  28.491  31.389  1.00  0.00    -0.354 N 
ATOM     52  N   UNL A   1      44.826  26.366  29.357  1.00  0.00    -0.248 NA
ATOM     53  C   UNL A   1      45.780  24.651  28.089  1.00  0.00     0.031 C 
ATOM     54  C   UNL A   1      47.060  28.790  32.346  1.00  0.00     0.029 A 
ATOM     55  C   UNL A   1      46.382  28.019  31.416  1.00  0.00     0.049 A 
ATOM     56  H   UNL A   1      44.365  28.144  30.806  1.00  0.00     0.167 HD
ATOM     57  C   UNL A   1      46.166  26.226  29.710  1.00  0.00     0.074 A 
ATOM     58  C   UNL A   1      46.696  25.142  28.911  1.00  0.00     0.031 C 
ATOM     59  C   UNL A   1      46.889  26.925  30.620  1.00  0.00     0.034 A 
BRANCH  46  60
ATOM     60  C   UNL A   1      43.709  31.413  33.497  1.00  0.00     0.023 A 
ATOM     61  C   UNL A   1      43.320  31.254  34.838  1.00  0.00     0.031 A 
ATOM     62  C   UNL A   1      44.073  32.702  33.066  1.00  0.00     0.131 A 
ATOM     63  C   UNL A   1      43.221  32.374  35.676  1.00  0.00     0.055 A 
ATOM     64  C   UNL A   1      44.056  33.799  33.929  1.00  0.00     0.041 A 
ATOM     65  F   UNL A   1      44.434  32.921  31.792  1.00  0.00    -0.206 F 
ATOM     66  C   UNL A   1      43.612  33.643  35.240  1.00  0.00     0.022 A 
BRANCH  63  67
ATOM     67  S   UNL A   1      42.431  32.175  37.296  1.00  0.00     0.124 S 
ATOM     68  O   UNL A   1      43.477  32.660  38.194  1.00  0.00    -0.237 OA
ATOM     69  O   UNL A   1      41.249  33.020  37.177  1.00  0.00    -0.237 OA
ATOM     70  O   UNL A   1      42.167  30.739  37.376  1.00  0.00    -0.744 OA
ENDBRANCH  63  67
ENDBRANCH  46  60
BRANCH  47  71
ATOM     71  C   UNL A   1      43.273  24.072  26.674  1.00  0.00     0.023 A 
ATOM     72  C   UNL A   1      42.607  22.854  26.878  1.00  0.00     0.031 A 
ATOM     73  C   UNL A   1      43.932  24.266  25.447  1.00  0.00     0.131 A 
ATOM     74  C   UNL A   1      42.651  21.857  25.892  1.00  0.00     0.055 A 
ATOM     75  C   UNL A   1      43.930  23.291  24.447  1.00  0.00     0.041 A 
ATOM     76  F   UNL A   1      44.579  25.415  25.197  1.00  0.00    -0.206 F 
ATOM     77  C   UNL A   1      43.298  22.072  24.672  1.00  0.00     0.022 A 
BRANCH  74  78
ATOM     78  S   UNL A   1      41.916  20.240  26.259  1.00  0.00     0.124 S 
ATOM     79  O   UNL A   1      42.410  19.990  27.609  1.00  0.00    -0.237 OA
ATOM     80  O   UNL A   1      40.490  20.522  26.137  1.00  0.00    -0.237 OA
ATOM     81  O   UNL A   1      42.470  19.372  25.221  1.00  0.00    -0.744 OA
ENDBRANCH  74  78
ENDBRANCH  47  71
BRANCH  59  82
ATOM     82  C   UNL A   1      48.308  26.483  30.866  1.00  0.00     0.023 A 
ATOM     83  C   UNL A   1      48.633  25.517  31.833  1.00  0.00     0.031 A 
ATOM     84  C   UNL A   1      49.348  27.024  30.088  1.00  0.00     0.131 A 
ATOM     85  C   UNL A   1      49.974  25.144  32.018  1.00  0.00     0.055 A 
ATOM     86  C   UNL A   1      50.672  26.614  30.245  1.00  0.00     0.041 A 
ATOM     87  F   UNL A   1      49.088  27.950  29.150  1.00  0.00    -0.206 F 
ATOM     88  C   UNL A   1      50.991  25.673  31.219  1.00  0.00     0.022 A 
BRANCH  85  89
ATOM     89  S   UNL A   1      50.383  23.985  33.351  1.00  0.00     0.124 S 
ATOM     90  O   UNL A   1      51.466  24.681  34.037  1.00  0.00    -0.237 OA
ATOM     91  O   UNL A   1      49.123  23.889  34.083  1.00  0.00    -0.237 OA
ATOM     92  O   UNL A   1      50.778  22.769  32.642  1.00  0.00    -0.744 OA
ENDBRANCH  85  89
ENDBRANCH  59  82
ENDBRANCH  33  34
ENDBRANCH  25  28
ENDBRANCH  23  24
ENDBRANCH   1  23
TORSDOF 16
ENDMDL
MODEL 3
REMARK VINA RESULT:     -11.6      4.230     10.445
REMARK SMILES CCc1cc(Oc2cncc(C(=O)NCCCNC(=O)c3ccc(-c4c5nc(c(-c6cc(S(=O)(=O)[O-])ccc6F)c6ccc([nH]6)c(-c6cc(S(=O)(=O)[O-])ccc6F)c6nc(c(-c7cc(S(=O)(=O)[O-])ccc7F)c7ccc4[nH]7)C=C6)C=C5)cc3)n2)ccc1Cl
REMARK SMILES IDX 16 1 15 2 14 3 12 4 13 5 11 7 7 8 8 9 84 10 9 11 10 12 6 13
REMARK SMILES IDX 5 14 3 15 4 16 87 17 86 18 88 19 85 20 2 21 1 22 17 23 18 24
REMARK SMILES IDX 19 25 20 27 21 28 22 29 83 30 23 31 82 32 24 33 25 34 26 35
REMARK SMILES IDX 76 36 27 37 81 38 75 39 77 40 28 41 80 42 74 43 73 44 29 46
REMARK SMILES IDX 61 47 41 48 60 49 42 50 45 51 59 52 78 53 43 54 44 55 58 57
REMARK SMILES IDX 79 58 46 59 30 60 31 61 39 62 32 63 38 64 40 65 37 66 33 67
REMARK SMILES IDX 34 68 35 69 36 70 62 71 63 72 71 73 64 74 70 75 72 76 69 77
REMARK SMILES IDX 65 78 66 79 67 80 68 81 47 82 48 83 56 84 49 85 55 86 57 87
REMARK SMILES IDX 54 88 50 89 51 90 52 91 53 92
REMARK H PARENT 14 6 18 26 77 45 45 56
REMARK Flexibility Score: inf
ROOT
ATOM      1  C   UNL A   1      35.480  33.388  28.272  1.00  0.00     0.042 C 
ENDROOT
BRANCH   1   2
ATOM      2  C   UNL A   1      35.372  34.834  28.747  1.00  0.00     0.118 C 
BRANCH   2   3
ATOM      3  N   UNL A   1      34.081  35.419  28.418  1.00  0.00    -0.351 N 
ATOM      4  C   UNL A   1      33.125  35.992  29.224  1.00  0.00     0.271 C 
ATOM      5  O   UNL A   1      32.133  36.492  28.690  1.00  0.00    -0.267 OA
ATOM      6  H   UNL A   1      33.854  35.403  27.460  1.00  0.00     0.163 HD
BRANCH   4   7
ATOM      7  C   UNL A   1      33.265  36.069  30.705  1.00  0.00     0.150 A 
ATOM      8  C   UNL A   1      33.525  35.086  32.756  1.00  0.00     0.238 A 
ATOM      9  C   UNL A   1      33.671  36.339  33.343  1.00  0.00     0.179 A 
ATOM     10  N   UNL A   1      33.334  34.926  31.430  1.00  0.00    -0.205 NA
ATOM     11  N   UNL A   1      33.561  37.489  32.636  1.00  0.00    -0.257 NA
ATOM     12  C   UNL A   1      33.348  37.322  31.303  1.00  0.00     0.145 A 
BRANCH   8  13
ATOM     13  O   UNL A   1      33.674  33.931  33.479  1.00  0.00    -0.437 OA
BRANCH  13  14
ATOM     14  C   UNL A   1      34.941  33.410  33.624  1.00  0.00     0.129 A 
ATOM     15  C   UNL A   1      36.929  33.385  35.061  1.00  0.00    -0.026 A 
ATOM     16  C   UNL A   1      35.638  33.859  34.755  1.00  0.00     0.052 A 
ATOM     17  C   UNL A   1      37.494  32.420  34.213  1.00  0.00     0.044 A 
ATOM     18  C   UNL A   1      36.822  32.009  33.057  1.00  0.00     0.024 A 
ATOM     19  Cl  UNL A   1      39.001  31.653  34.558  1.00  0.00    -0.084 Cl
ATOM     20  C   UNL A   1      35.556  32.512  32.753  1.00  0.00     0.049 A 
BRANCH  15  21
ATOM     21  C   UNL A   1      37.623  33.923  36.293  1.00  0.00     0.034 C 
ATOM     22  C   UNL A   1      37.412  33.078  37.544  1.00  0.00     0.009 C 
ENDBRANCH  15  21
ENDBRANCH  13  14
ENDBRANCH   8  13
ENDBRANCH   4   7
ENDBRANCH   2   3
ENDBRANCH   1   2
BRANCH   1  23
ATOM     23  C   UNL A   1      34.624  32.424  29.091  1.00  0.00     0.118 C 
BRANCH  23  24
ATOM     24  N   UNL A   1      34.072  31.346  28.275  1.00  0.00    -0.352 N 
ATOM     25  C   UNL A   1      34.676  30.209  27.796  1.00  0.00     0.251 C 
ATOM     26  H   UNL A   1      33.123  31.449  28.033  1.00  0.00     0.163 HD
ATOM     27  O   UNL A   1      34.104  29.529  26.948  1.00  0.00    -0.269 OA
BRANCH  25  28
ATOM     28  C   UNL A   1      36.013  29.821  28.289  1.00  0.00     0.039 A 
ATOM     29  C   UNL A   1      36.143  29.313  29.586  1.00  0.00     0.014 A 
ATOM     30  C   UNL A   1      37.138  29.967  27.475  1.00  0.00     0.014 A 
ATOM     31  C   UNL A   1      37.393  28.882  30.039  1.00  0.00     0.010 A 
ATOM     32  C   UNL A   1      38.366  29.479  27.903  1.00  0.00     0.010 A 
ATOM     33  C   UNL A   1      38.507  28.927  29.188  1.00  0.00    -0.014 A 
BRANCH  33  34
ATOM     34  C   UNL A   1      39.844  28.426  29.599  1.00  0.00     0.031 A 
ATOM     35  C   UNL A   1      40.660  29.224  30.577  1.00  0.00     0.074 A 
ATOM     36  C   UNL A   1      40.365  27.333  29.009  1.00  0.00     0.049 A 
ATOM     37  N   UNL A   1      41.922  29.108  30.896  1.00  0.00    -0.248 NA
ATOM     38  C   UNL A   1      39.963  30.326  31.257  1.00  0.00     0.031 C 
ATOM     39  C   UNL A   1      39.675  26.483  28.037  1.00  0.00     0.029 A 
ATOM     40  N   UNL A   1      41.612  26.766  29.118  1.00  0.00    -0.354 N 
ATOM     41  C   UNL A   1      42.183  30.144  31.787  1.00  0.00     0.074 A 
ATOM     42  C   UNL A   1      40.955  30.900  31.921  1.00  0.00     0.031 C 
ATOM     43  C   UNL A   1      40.506  25.506  27.639  1.00  0.00     0.029 A 
ATOM     44  C   UNL A   1      41.805  25.692  28.279  1.00  0.00     0.049 A 
ATOM     45  H   UNL A   1      42.303  27.097  29.736  1.00  0.00     0.167 HD
ATOM     46  C   UNL A   1      43.337  30.429  32.439  1.00  0.00     0.034 A 
ATOM     47  C   UNL A   1      42.910  24.963  28.027  1.00  0.00     0.034 A 
ATOM     48  C   UNL A   1      44.543  29.649  32.306  1.00  0.00     0.049 A 
ATOM     49  C   UNL A   1      44.191  25.310  28.745  1.00  0.00     0.074 A 
ATOM     50  C   UNL A   1      45.758  29.819  32.948  1.00  0.00     0.029 A 
ATOM     51  N   UNL A   1      44.687  28.547  31.472  1.00  0.00    -0.354 N 
ATOM     52  N   UNL A   1      44.422  26.287  29.593  1.00  0.00    -0.248 NA
ATOM     53  C   UNL A   1      45.356  24.457  28.479  1.00  0.00     0.031 C 
ATOM     54  C   UNL A   1      46.650  28.858  32.461  1.00  0.00     0.029 A 
ATOM     55  C   UNL A   1      45.973  28.041  31.570  1.00  0.00     0.049 A 
ATOM     56  H   UNL A   1      43.978  28.179  30.895  1.00  0.00     0.167 HD
ATOM     57  C   UNL A   1      45.747  26.135  29.992  1.00  0.00     0.074 A 
ATOM     58  C   UNL A   1      46.265  24.981  29.290  1.00  0.00     0.031 C 
ATOM     59  C   UNL A   1      46.467  26.878  30.870  1.00  0.00     0.034 A 
BRANCH  46  60
ATOM     60  C   UNL A   1      43.352  31.653  33.323  1.00  0.00     0.023 A 
ATOM     61  C   UNL A   1      42.957  31.596  34.671  1.00  0.00     0.031 A 
ATOM     62  C   UNL A   1      43.731  32.903  32.801  1.00  0.00     0.131 A 
ATOM     63  C   UNL A   1      42.868  32.775  35.425  1.00  0.00     0.055 A 
ATOM     64  C   UNL A   1      43.723  34.060  33.583  1.00  0.00     0.041 A 
ATOM     65  F   UNL A   1      44.098  33.026  31.516  1.00  0.00    -0.206 F 
ATOM     66  C   UNL A   1      43.274  34.004  34.899  1.00  0.00     0.022 A 
BRANCH  63  67
ATOM     67  S   UNL A   1      42.070  32.702  37.052  1.00  0.00     0.124 S 
ATOM     68  O   UNL A   1      41.185  33.863  36.997  1.00  0.00    -0.237 OA
ATOM     69  O   UNL A   1      41.416  31.399  37.025  1.00  0.00    -0.237 OA
ATOM     70  O   UNL A   1      43.186  32.821  37.988  1.00  0.00    -0.744 OA
ENDBRANCH  63  67
ENDBRANCH  46  60
BRANCH  47  71
ATOM     71  C   UNL A   1      42.871  23.849  27.038  1.00  0.00     0.023 A 
ATOM     72  C   UNL A   1      42.256  22.628  27.354  1.00  0.00     0.031 A 
ATOM     73  C   UNL A   1      43.477  23.976  25.776  1.00  0.00     0.131 A 
ATOM     74  C   UNL A   1      42.298  21.565  26.438  1.00  0.00     0.055 A 
ATOM     75  C   UNL A   1      43.471  22.933  24.847  1.00  0.00     0.041 A 
ATOM     76  F   UNL A   1      44.074  25.125  25.421  1.00  0.00    -0.206 F 
ATOM     77  C   UNL A   1      42.890  21.713  25.182  1.00  0.00     0.022 A 
BRANCH  74  78
ATOM     78  S   UNL A   1      41.633  19.956  26.946  1.00  0.00     0.124 S 
ATOM     79  O   UNL A   1      40.774  20.330  28.064  1.00  0.00    -0.237 OA
ATOM     80  O   UNL A   1      40.955  19.512  25.733  1.00  0.00    -0.237 OA
ATOM     81  O   UNL A   1      42.828  19.193  27.304  1.00  0.00    -0.744 OA
ENDBRANCH  74  78
ENDBRANCH  47  71
BRANCH  59  82
ATOM     82  C   UNL A   1      47.866  26.414  31.188  1.00  0.00     0.023 A 
ATOM     83  C   UNL A   1      48.146  25.584  32.286  1.00  0.00     0.031 A 
ATOM     84  C   UNL A   1      48.929  26.792  30.347  1.00  0.00     0.131 A 
ATOM     85  C   UNL A   1      49.469  25.184  32.533  1.00  0.00     0.055 A 
ATOM     86  C   UNL A   1      50.233  26.351  30.572  1.00  0.00     0.041 A 
ATOM     87  F   UNL A   1      48.711  27.583  29.285  1.00  0.00    -0.206 F 
ATOM     88  C   UNL A   1      50.510  25.548  31.674  1.00  0.00     0.022 A 
BRANCH  85  89
ATOM     89  S   UNL A   1      49.825  24.212  34.022  1.00  0.00     0.124 S 
ATOM     90  O   UNL A   1      48.490  23.800  34.442  1.00  0.00    -0.237 OA
ATOM     91  O   UNL A   1      50.686  23.151  33.508  1.00  0.00    -0.237 OA
ATOM     92  O   UNL A   1      50.487  25.169  34.908  1.00  0.00    -0.744 OA
ENDBRANCH  85  89
ENDBRANCH  59  82
ENDBRANCH  33  34
ENDBRANCH  25  28
ENDBRANCH  23  24
ENDBRANCH   1  23
TORSDOF 16
ENDMDL
