MODEL 1
REMARK VINA RESULT:     -12.7      0.000      0.000
REMARK SMILES O=C(NCCCNC(=O)c1cccc2c1cc(Br)c1ccccc12)c1ccc(-c2c3nc(c(-c4cc(S(=O)(=O)[O-])ccc4F)c4ccc([nH]4)c(-c4cc(S(=O)(=O)[O-])ccc4F)c4nc(c(-c5cc(S(=O)(=O)[O-])ccc5F)c5ccc2[nH]5)C=C4)C=C3)cc1
REMARK SMILES IDX 1 1 2 2 3 3 25 5 26 6 87 7 27 8 86 9 28 10 29 11 30 12 80 13
REMARK SMILES IDX 31 14 85 15 79 16 81 17 32 18 84 19 78 20 77 21 33 23 65 24
REMARK SMILES IDX 45 25 64 26 46 27 49 28 63 29 82 30 47 31 48 32 62 34 83 35
REMARK SMILES IDX 50 36 34 37 35 38 43 39 36 40 42 41 44 42 41 43 37 44 38 45
REMARK SMILES IDX 39 46 40 47 66 48 67 49 75 50 68 51 74 52 76 53 73 54 69 55
REMARK SMILES IDX 70 56 71 57 72 58 51 59 52 60 60 61 53 62 59 63 61 64 58 65
REMARK SMILES IDX 54 66 55 67 56 68 57 69 4 70 5 71 6 72 7 73 8 74 9 76 10 77
REMARK SMILES IDX 11 78 15 79 12 80 14 81 16 82 13 83 24 84 17 85 19 86 23 87
REMARK SMILES IDX 18 88 20 89 22 90 21 91
REMARK H PARENT 3 4 81 22 49 33 7 75
REMARK Flexibility Score: inf
ROOT
ATOM      1  O   UNL A   1      40.365  20.518  26.544  1.00  0.00    -0.269 OA
ATOM      2  C   UNL A   1      39.551  21.438  26.499  1.00  0.00     0.251 C 
ATOM      3  N   UNL A   1      38.281  21.173  26.053  1.00  0.00    -0.352 N 
ATOM      4  H   UNL A   1      38.072  20.215  25.959  1.00  0.00     0.163 HD
ENDROOT
BRANCH   2   5
ATOM      5  C   UNL A   1      39.952  22.800  26.924  1.00  0.00     0.039 A 
ATOM      6  C   UNL A   1      39.447  23.899  26.222  1.00  0.00     0.014 A 
ATOM      7  C   UNL A   1      40.874  23.004  27.952  1.00  0.00     0.014 A 
ATOM      8  C   UNL A   1      39.851  25.193  26.564  1.00  0.00     0.010 A 
ATOM      9  C   UNL A   1      41.194  24.295  28.361  1.00  0.00     0.010 A 
ATOM     10  C   UNL A   1      40.721  25.403  27.645  1.00  0.00    -0.014 A 
BRANCH  10  11
ATOM     11  C   UNL A   1      41.216  26.761  27.992  1.00  0.00     0.031 A 
ATOM     12  C   UNL A   1      42.639  27.141  27.671  1.00  0.00     0.074 A 
ATOM     13  C   UNL A   1      40.412  27.634  28.629  1.00  0.00     0.049 A 
ATOM     14  N   UNL A   1      43.280  28.247  27.945  1.00  0.00    -0.248 NA
ATOM     15  C   UNL A   1      43.459  26.134  26.974  1.00  0.00     0.031 C 
ATOM     16  C   UNL A   1      39.030  27.367  29.024  1.00  0.00     0.029 A 
ATOM     17  N   UNL A   1      40.641  28.918  29.062  1.00  0.00    -0.354 N 
ATOM     18  C   UNL A   1      44.576  28.060  27.475  1.00  0.00     0.074 A 
ATOM     19  C   UNL A   1      44.650  26.713  26.961  1.00  0.00     0.031 C 
ATOM     20  C   UNL A   1      38.525  28.459  29.616  1.00  0.00     0.029 A 
ATOM     21  C   UNL A   1      39.559  29.490  29.691  1.00  0.00     0.049 A 
ATOM     22  H   UNL A   1      41.498  29.384  28.935  1.00  0.00     0.167 HD
ATOM     23  C   UNL A   1      45.599  28.944  27.444  1.00  0.00     0.034 A 
ATOM     24  C   UNL A   1      39.415  30.702  30.268  1.00  0.00     0.034 A 
ATOM     25  C   UNL A   1      45.495  30.299  27.919  1.00  0.00     0.049 A 
ATOM     26  C   UNL A   1      40.570  31.674  30.220  1.00  0.00     0.074 A 
ATOM     27  C   UNL A   1      46.454  31.295  27.866  1.00  0.00     0.029 A 
ATOM     28  N   UNL A   1      44.377  30.851  28.526  1.00  0.00    -0.354 N 
ATOM     29  N   UNL A   1      41.760  31.514  29.688  1.00  0.00    -0.248 NA
ATOM     30  C   UNL A   1      40.366  32.994  30.834  1.00  0.00     0.031 C 
ATOM     31  C   UNL A   1      45.944  32.422  28.508  1.00  0.00     0.029 A 
ATOM     32  C   UNL A   1      44.634  32.165  28.882  1.00  0.00     0.049 A 
ATOM     33  H   UNL A   1      43.526  30.379  28.681  1.00  0.00     0.167 HD
ATOM     34  C   UNL A   1      42.432  32.720  29.878  1.00  0.00     0.074 A 
ATOM     35  C   UNL A   1      41.508  33.607  30.550  1.00  0.00     0.031 C 
ATOM     36  C   UNL A   1      43.700  33.055  29.530  1.00  0.00     0.034 A 
BRANCH  23  37
ATOM     37  C   UNL A   1      46.920  28.511  26.853  1.00  0.00     0.023 A 
ATOM     38  C   UNL A   1      47.055  28.380  25.458  1.00  0.00     0.031 A 
ATOM     39  C   UNL A   1      47.991  28.095  27.664  1.00  0.00     0.131 A 
ATOM     40  C   UNL A   1      48.213  27.808  24.919  1.00  0.00     0.055 A 
ATOM     41  C   UNL A   1      49.167  27.575  27.119  1.00  0.00     0.041 A 
ATOM     42  F   UNL A   1      47.914  28.193  29.002  1.00  0.00    -0.206 F 
ATOM     43  C   UNL A   1      49.274  27.415  25.741  1.00  0.00     0.022 A 
BRANCH  40  44
ATOM     44  S   UNL A   1      48.354  27.474  23.143  1.00  0.00     0.124 S 
ATOM     45  O   UNL A   1      47.197  28.191  22.611  1.00  0.00    -0.237 OA
ATOM     46  O   UNL A   1      49.653  28.062  22.826  1.00  0.00    -0.237 OA
ATOM     47  O   UNL A   1      48.277  26.020  23.051  1.00  0.00    -0.744 OA
ENDBRANCH  40  44
ENDBRANCH  23  37
BRANCH  24  48
ATOM     48  C   UNL A   1      38.101  31.065  30.878  1.00  0.00     0.023 A 
ATOM     49  C   UNL A   1      37.100  31.699  30.119  1.00  0.00     0.031 A 
ATOM     50  C   UNL A   1      37.870  30.886  32.253  1.00  0.00     0.131 A 
ATOM     51  C   UNL A   1      35.954  32.198  30.752  1.00  0.00     0.055 A 
ATOM     52  C   UNL A   1      36.689  31.314  32.865  1.00  0.00     0.041 A 
ATOM     53  F   UNL A   1      38.798  30.300  33.025  1.00  0.00    -0.206 F 
ATOM     54  C   UNL A   1      35.733  31.992  32.116  1.00  0.00     0.022 A 
BRANCH  51  55
ATOM     55  S   UNL A   1      34.784  33.257  29.853  1.00  0.00     0.124 S 
ATOM     56  O   UNL A   1      33.990  33.823  30.937  1.00  0.00    -0.237 OA
ATOM     57  O   UNL A   1      35.686  34.189  29.179  1.00  0.00    -0.237 OA
ATOM     58  O   UNL A   1      34.083  32.329  28.973  1.00  0.00    -0.744 OA
ENDBRANCH  51  55
ENDBRANCH  24  48
BRANCH  36  59
ATOM     59  C   UNL A   1      44.202  34.446  29.842  1.00  0.00     0.023 A 
ATOM     60  C   UNL A   1      44.097  35.462  28.870  1.00  0.00     0.031 A 
ATOM     61  C   UNL A   1      44.941  34.717  31.006  1.00  0.00     0.131 A 
ATOM     62  C   UNL A   1      44.767  36.678  29.055  1.00  0.00     0.055 A 
ATOM     63  C   UNL A   1      45.558  35.952  31.213  1.00  0.00     0.041 A 
ATOM     64  F   UNL A   1      45.084  33.779  31.957  1.00  0.00    -0.206 F 
ATOM     65  C   UNL A   1      45.489  36.932  30.226  1.00  0.00     0.022 A 
BRANCH  62  66
ATOM     66  S   UNL A   1      44.822  37.927  27.739  1.00  0.00     0.124 S 
ATOM     67  O   UNL A   1      45.777  37.337  26.804  1.00  0.00    -0.237 OA
ATOM     68  O   UNL A   1      43.435  37.950  27.281  1.00  0.00    -0.237 OA
ATOM     69  O   UNL A   1      45.280  39.134  28.417  1.00  0.00    -0.744 OA
ENDBRANCH  62  66
ENDBRANCH  36  59
ENDBRANCH  10  11
ENDBRANCH   2   5
BRANCH   3  70
ATOM     70  C   UNL A   1      37.189  22.068  25.696  1.00  0.00     0.118 C 
BRANCH  70  71
ATOM     71  C   UNL A   1      36.859  22.030  24.210  1.00  0.00     0.042 C 
BRANCH  71  72
ATOM     72  C   UNL A   1      36.174  23.282  23.687  1.00  0.00     0.118 C 
BRANCH  72  73
ATOM     73  N   UNL A   1      35.047  22.996  22.810  1.00  0.00    -0.352 N 
ATOM     74  C   UNL A   1      33.699  23.143  23.030  1.00  0.00     0.251 C 
ATOM     75  H   UNL A   1      35.288  22.645  21.922  1.00  0.00     0.163 HD
ATOM     76  O   UNL A   1      32.896  22.819  22.158  1.00  0.00    -0.269 OA
BRANCH  74  77
ATOM     77  C   UNL A   1      33.222  23.711  24.314  1.00  0.00     0.047 A 
ATOM     78  C   UNL A   1      32.926  22.797  25.331  1.00  0.00     0.014 A 
ATOM     79  C   UNL A   1      33.097  25.115  24.517  1.00  0.00    -0.004 A 
ATOM     80  C   UNL A   1      32.381  23.247  26.516  1.00  0.00     0.002 A 
ATOM     81  C   UNL A   1      32.563  25.592  25.743  1.00  0.00    -0.010 A 
ATOM     82  C   UNL A   1      33.484  26.061  23.550  1.00  0.00     0.026 A 
ATOM     83  C   UNL A   1      32.189  24.614  26.706  1.00  0.00     0.009 A 
ATOM     84  C   UNL A   1      32.428  27.013  25.973  1.00  0.00    -0.009 A 
ATOM     85  C   UNL A   1      33.391  27.435  23.781  1.00  0.00     0.026 A 
ATOM     86  C   UNL A   1      32.866  27.940  24.988  1.00  0.00    -0.004 A 
ATOM     87  C   UNL A   1      31.878  27.555  27.166  1.00  0.00     0.009 A 
ATOM     88  Br  UNL A   1      34.027  28.562  22.376  1.00  0.00    -0.050 Br
ATOM     89  C   UNL A   1      32.759  29.330  25.258  1.00  0.00     0.010 A 
ATOM     90  C   UNL A   1      31.775  28.926  27.402  1.00  0.00     0.001 A 
ATOM     91  C   UNL A   1      32.224  29.817  26.448  1.00  0.00     0.001 A 
ENDBRANCH  74  77
ENDBRANCH  72  73
ENDBRANCH  71  72
ENDBRANCH  70  71
ENDBRANCH   3  70
TORSDOF 13
ENDMDL
MODEL 2
REMARK VINA RESULT:     -12.5      5.137      9.849
REMARK SMILES O=C(NCCCNC(=O)c1cccc2c1cc(Br)c1ccccc12)c1ccc(-c2c3nc(c(-c4cc(S(=O)(=O)[O-])ccc4F)c4ccc([nH]4)c(-c4cc(S(=O)(=O)[O-])ccc4F)c4nc(c(-c5cc(S(=O)(=O)[O-])ccc5F)c5ccc2[nH]5)C=C4)C=C3)cc1
REMARK SMILES IDX 1 1 2 2 3 3 25 5 26 6 87 7 27 8 86 9 28 10 29 11 30 12 80 13
REMARK SMILES IDX 31 14 85 15 79 16 81 17 32 18 84 19 78 20 77 21 33 23 65 24
REMARK SMILES IDX 45 25 64 26 46 27 49 28 63 29 82 30 47 31 48 32 62 34 83 35
REMARK SMILES IDX 50 36 34 37 35 38 43 39 36 40 42 41 44 42 41 43 37 44 38 45
REMARK SMILES IDX 39 46 40 47 66 48 67 49 75 50 68 51 74 52 76 53 73 54 69 55
REMARK SMILES IDX 70 56 71 57 72 58 51 59 52 60 60 61 53 62 59 63 61 64 58 65
REMARK SMILES IDX 54 66 55 67 56 68 57 69 4 70 5 71 6 72 7 73 8 74 9 76 10 77
REMARK SMILES IDX 11 78 15 79 12 80 14 81 16 82 13 83 24 84 17 85 19 86 23 87
REMARK SMILES IDX 18 88 20 89 22 90 21 91
REMARK H PARENT 3 4 81 22 49 33 7 75
REMARK Flexibility Score: inf
ROOT
ATOM      1  O   UNL A   1      32.597  31.958  27.009  1.00  0.00    -0.269 OA
ATOM      2  C   UNL A   1      33.229  30.929  26.777  1.00  0.00     0.251 C 
ATOM      3  N   UNL A   1      32.788  30.095  25.781  1.00  0.00    -0.352 N 
ATOM      4  H   UNL A   1      32.082  30.477  25.210  1.00  0.00     0.163 HD
ENDROOT
BRANCH   2   5
ATOM      5  C   UNL A   1      34.441  30.612  27.569  1.00  0.00     0.039 A 
ATOM      6  C   UNL A   1      35.471  31.556  27.628  1.00  0.00     0.014 A 
ATOM      7  C   UNL A   1      34.607  29.372  28.187  1.00  0.00     0.014 A 
ATOM      8  C   UNL A   1      36.649  31.263  28.321  1.00  0.00     0.010 A 
ATOM      9  C   UNL A   1      35.735  29.121  28.964  1.00  0.00     0.010 A 
ATOM     10  C   UNL A   1      36.787  30.046  29.004  1.00  0.00    -0.014 A 
BRANCH  10  11
ATOM     11  C   UNL A   1      38.051  29.681  29.695  1.00  0.00     0.031 A 
ATOM     12  C   UNL A   1      38.371  30.288  31.037  1.00  0.00     0.074 A 
ATOM     13  C   UNL A   1      38.930  28.845  29.107  1.00  0.00     0.049 A 
ATOM     14  N   UNL A   1      39.443  30.149  31.772  1.00  0.00    -0.248 NA
ATOM     15  C   UNL A   1      37.364  31.194  31.618  1.00  0.00     0.031 C 
ATOM     16  C   UNL A   1      38.747  28.225  27.796  1.00  0.00     0.029 A 
ATOM     17  N   UNL A   1      40.151  28.378  29.530  1.00  0.00    -0.354 N 
ATOM     18  C   UNL A   1      39.248  30.963  32.884  1.00  0.00     0.074 A 
ATOM     19  C   UNL A   1      37.988  31.643  32.696  1.00  0.00     0.031 C 
ATOM     20  C   UNL A   1      39.801  27.439  27.532  1.00  0.00     0.029 A 
ATOM     21  C   UNL A   1      40.762  27.536  28.631  1.00  0.00     0.049 A 
ATOM     22  H   UNL A   1      40.550  28.624  30.395  1.00  0.00     0.167 HD
ATOM     23  C   UNL A   1      40.032  31.101  33.978  1.00  0.00     0.034 A 
ATOM     24  C   UNL A   1      41.961  26.917  28.679  1.00  0.00     0.034 A 
ATOM     25  C   UNL A   1      41.264  30.381  34.170  1.00  0.00     0.049 A 
ATOM     26  C   UNL A   1      42.819  27.084  29.910  1.00  0.00     0.074 A 
ATOM     27  C   UNL A   1      42.095  30.398  35.276  1.00  0.00     0.029 A 
ATOM     28  N   UNL A   1      41.839  29.517  33.250  1.00  0.00    -0.354 N 
ATOM     29  N   UNL A   1      42.577  27.783  30.994  1.00  0.00    -0.248 NA
ATOM     30  C   UNL A   1      44.105  26.371  29.937  1.00  0.00     0.031 C 
ATOM     31  C   UNL A   1      43.207  29.607  34.994  1.00  0.00     0.029 A 
ATOM     32  C   UNL A   1      43.031  29.022  33.750  1.00  0.00     0.049 A 
ATOM     33  H   UNL A   1      41.456  29.291  32.371  1.00  0.00     0.167 HD
ATOM     34  C   UNL A   1      43.663  27.571  31.841  1.00  0.00     0.074 A 
ATOM     35  C   UNL A   1      44.551  26.658  31.153  1.00  0.00     0.031 C 
ATOM     36  C   UNL A   1      43.902  28.090  33.072  1.00  0.00     0.034 A 
BRANCH  23  37
ATOM     37  C   UNL A   1      39.590  32.035  35.078  1.00  0.00     0.023 A 
ATOM     38  C   UNL A   1      38.910  31.525  36.200  1.00  0.00     0.031 A 
ATOM     39  C   UNL A   1      39.713  33.432  34.957  1.00  0.00     0.131 A 
ATOM     40  C   UNL A   1      38.341  32.402  37.130  1.00  0.00     0.055 A 
ATOM     41  C   UNL A   1      39.190  34.301  35.916  1.00  0.00     0.041 A 
ATOM     42  F   UNL A   1      40.348  33.973  33.904  1.00  0.00    -0.206 F 
ATOM     43  C   UNL A   1      38.487  33.787  37.000  1.00  0.00     0.022 A 
BRANCH  40  44
ATOM     44  S   UNL A   1      37.320  31.787  38.497  1.00  0.00     0.124 S 
ATOM     45  O   UNL A   1      38.215  31.957  39.639  1.00  0.00    -0.237 OA
ATOM     46  O   UNL A   1      36.178  32.698  38.457  1.00  0.00    -0.237 OA
ATOM     47  O   UNL A   1      37.039  30.404  38.130  1.00  0.00    -0.744 OA
ENDBRANCH  40  44
ENDBRANCH  23  37
BRANCH  24  48
ATOM     48  C   UNL A   1      42.371  26.038  27.542  1.00  0.00     0.023 A 
ATOM     49  C   UNL A   1      41.873  24.727  27.425  1.00  0.00     0.031 A 
ATOM     50  C   UNL A   1      43.349  26.455  26.623  1.00  0.00     0.131 A 
ATOM     51  C   UNL A   1      42.411  23.859  26.464  1.00  0.00     0.055 A 
ATOM     52  C   UNL A   1      43.823  25.612  25.617  1.00  0.00     0.041 A 
ATOM     53  F   UNL A   1      43.867  27.691  26.701  1.00  0.00    -0.206 F 
ATOM     54  C   UNL A   1      43.368  24.299  25.547  1.00  0.00     0.022 A 
BRANCH  51  55
ATOM     55  S   UNL A   1      41.990  22.093  26.470  1.00  0.00     0.124 S 
ATOM     56  O   UNL A   1      40.563  22.118  26.173  1.00  0.00    -0.237 OA
ATOM     57  O   UNL A   1      42.848  21.580  25.404  1.00  0.00    -0.237 OA
ATOM     58  O   UNL A   1      42.349  21.657  27.815  1.00  0.00    -0.744 OA
ENDBRANCH  51  55
ENDBRANCH  24  48
BRANCH  36  59
ATOM     59  C   UNL A   1      45.165  27.696  33.801  1.00  0.00     0.023 A 
ATOM     60  C   UNL A   1      45.146  26.607  34.696  1.00  0.00     0.031 A 
ATOM     61  C   UNL A   1      46.320  28.495  33.756  1.00  0.00     0.131 A 
ATOM     62  C   UNL A   1      46.234  26.384  35.549  1.00  0.00     0.055 A 
ATOM     63  C   UNL A   1      47.426  28.233  34.566  1.00  0.00     0.041 A 
ATOM     64  F   UNL A   1      46.385  29.554  32.932  1.00  0.00    -0.206 F 
ATOM     65  C   UNL A   1      47.378  27.185  35.482  1.00  0.00     0.022 A 
BRANCH  62  66
ATOM     66  S   UNL A   1      46.159  25.121  36.851  1.00  0.00     0.124 S 
ATOM     67  O   UNL A   1      44.879  25.420  37.487  1.00  0.00    -0.237 OA
ATOM     68  O   UNL A   1      46.197  23.882  36.078  1.00  0.00    -0.237 OA
ATOM     69  O   UNL A   1      47.337  25.388  37.668  1.00  0.00    -0.744 OA
ENDBRANCH  62  66
ENDBRANCH  36  59
ENDBRANCH  10  11
ENDBRANCH   2   5
BRANCH   3  70
ATOM     70  C   UNL A   1      33.188  28.741  25.423  1.00  0.00     0.118 C 
BRANCH  70  71
ATOM     71  C   UNL A   1      33.981  28.686  24.125  1.00  0.00     0.042 C 
BRANCH  71  72
ATOM     72  C   UNL A   1      33.161  28.963  22.875  1.00  0.00     0.118 C 
BRANCH  72  73
ATOM     73  N   UNL A   1      33.345  27.962  21.833  1.00  0.00    -0.352 N 
ATOM     74  C   UNL A   1      33.015  26.628  21.824  1.00  0.00     0.251 C 
ATOM     75  H   UNL A   1      33.771  28.291  21.008  1.00  0.00     0.163 HD
ATOM     76  O   UNL A   1      33.278  25.938  20.842  1.00  0.00    -0.269 OA
BRANCH  74  77
ATOM     77  C   UNL A   1      32.324  26.035  22.994  1.00  0.00     0.047 A 
ATOM     78  C   UNL A   1      30.990  26.410  23.190  1.00  0.00     0.014 A 
ATOM     79  C   UNL A   1      32.971  25.109  23.862  1.00  0.00    -0.004 A 
ATOM     80  C   UNL A   1      30.317  25.978  24.314  1.00  0.00     0.002 A 
ATOM     81  C   UNL A   1      32.278  24.636  25.008  1.00  0.00    -0.010 A 
ATOM     82  C   UNL A   1      34.275  24.635  23.632  1.00  0.00     0.026 A 
ATOM     83  C   UNL A   1      30.958  25.123  25.210  1.00  0.00     0.009 A 
ATOM     84  C   UNL A   1      32.914  23.694  25.902  1.00  0.00    -0.009 A 
ATOM     85  C   UNL A   1      34.880  23.697  24.472  1.00  0.00     0.026 A 
ATOM     86  C   UNL A   1      34.219  23.207  25.617  1.00  0.00    -0.004 A 
ATOM     87  C   UNL A   1      32.287  23.202  27.079  1.00  0.00     0.009 A 
ATOM     88  Br  UNL A   1      36.629  23.125  23.961  1.00  0.00    -0.050 Br
ATOM     89  C   UNL A   1      34.802  22.252  26.491  1.00  0.00     0.010 A 
ATOM     90  C   UNL A   1      32.887  22.270  27.927  1.00  0.00     0.001 A 
ATOM     91  C   UNL A   1      34.146  21.787  27.628  1.00  0.00     0.001 A 
ENDBRANCH  74  77
ENDBRANCH  72  73
ENDBRANCH  71  72
ENDBRANCH  70  71
ENDBRANCH   3  70
TORSDOF 13
ENDMDL
MODEL 3
REMARK VINA RESULT:     -12.5      5.044     10.164
REMARK SMILES O=C(NCCCNC(=O)c1cccc2c1cc(Br)c1ccccc12)c1ccc(-c2c3nc(c(-c4cc(S(=O)(=O)[O-])ccc4F)c4ccc([nH]4)c(-c4cc(S(=O)(=O)[O-])ccc4F)c4nc(c(-c5cc(S(=O)(=O)[O-])ccc5F)c5ccc2[nH]5)C=C4)C=C3)cc1
REMARK SMILES IDX 1 1 2 2 3 3 25 5 26 6 87 7 27 8 86 9 28 10 29 11 30 12 80 13
REMARK SMILES IDX 31 14 85 15 79 16 81 17 32 18 84 19 78 20 77 21 33 23 65 24
REMARK SMILES IDX 45 25 64 26 46 27 49 28 63 29 82 30 47 31 48 32 62 34 83 35
REMARK SMILES IDX 50 36 34 37 35 38 43 39 36 40 42 41 44 42 41 43 37 44 38 45
REMARK SMILES IDX 39 46 40 47 66 48 67 49 75 50 68 51 74 52 76 53 73 54 69 55
REMARK SMILES IDX 70 56 71 57 72 58 51 59 52 60 60 61 53 62 59 63 61 64 58 65
REMARK SMILES IDX 54 66 55 67 56 68 57 69 4 70 5 71 6 72 7 73 8 74 9 76 10 77
REMARK SMILES IDX 11 78 15 79 12 80 14 81 16 82 13 83 24 84 17 85 19 86 23 87
REMARK SMILES IDX 18 88 20 89 22 90 21 91
REMARK H PARENT 3 4 81 22 49 33 7 75
REMARK Flexibility Score: inf
ROOT
ATOM      1  O   UNL A   1      33.685  33.268  28.078  1.00  0.00    -0.269 OA
ATOM      2  C   UNL A   1      33.976  32.121  27.744  1.00  0.00     0.251 C 
ATOM      3  N   UNL A   1      33.137  31.449  26.892  1.00  0.00    -0.352 N 
ATOM      4  H   UNL A   1      32.440  32.009  26.478  1.00  0.00     0.163 HD
ENDROOT
BRANCH   2   5
ATOM      5  C   UNL A   1      35.215  31.494  28.261  1.00  0.00     0.039 A 
ATOM      6  C   UNL A   1      35.142  30.206  28.801  1.00  0.00     0.014 A 
ATOM      7  C   UNL A   1      36.428  32.185  28.292  1.00  0.00     0.014 A 
ATOM      8  C   UNL A   1      36.283  29.610  29.347  1.00  0.00     0.010 A 
ATOM      9  C   UNL A   1      37.584  31.553  28.738  1.00  0.00     0.010 A 
ATOM     10  C   UNL A   1      37.518  30.275  29.311  1.00  0.00    -0.014 A 
BRANCH  10  11
ATOM     11  C   UNL A   1      38.732  29.694  29.939  1.00  0.00     0.031 A 
ATOM     12  C   UNL A   1      39.177  30.180  31.295  1.00  0.00     0.074 A 
ATOM     13  C   UNL A   1      39.458  28.767  29.284  1.00  0.00     0.049 A 
ATOM     14  N   UNL A   1      40.238  29.848  31.984  1.00  0.00    -0.248 NA
ATOM     15  C   UNL A   1      38.334  31.195  31.950  1.00  0.00     0.031 C 
ATOM     16  C   UNL A   1      39.148  28.246  27.953  1.00  0.00     0.029 A 
ATOM     17  N   UNL A   1      40.608  28.104  29.642  1.00  0.00    -0.354 N 
ATOM     18  C   UNL A   1      40.198  30.625  33.137  1.00  0.00     0.074 A 
ATOM     19  C   UNL A   1      39.049  31.493  33.025  1.00  0.00     0.031 C 
ATOM     20  C   UNL A   1      40.065  27.327  27.618  1.00  0.00     0.029 A 
ATOM     21  C   UNL A   1      41.060  27.226  28.685  1.00  0.00     0.049 A 
ATOM     22  H   UNL A   1      41.064  28.245  30.502  1.00  0.00     0.167 HD
ATOM     23  C   UNL A   1      41.025  30.592  34.207  1.00  0.00     0.034 A 
ATOM     24  C   UNL A   1      42.154  26.435  28.662  1.00  0.00     0.034 A 
ATOM     25  C   UNL A   1      42.140  29.689  34.324  1.00  0.00     0.049 A 
ATOM     26  C   UNL A   1      43.062  26.412  29.868  1.00  0.00     0.074 A 
ATOM     27  C   UNL A   1      42.995  29.528  35.399  1.00  0.00     0.029 A 
ATOM     28  N   UNL A   1      42.553  28.796  33.346  1.00  0.00    -0.354 N 
ATOM     29  N   UNL A   1      42.959  27.085  30.990  1.00  0.00    -0.248 NA
ATOM     30  C   UNL A   1      44.227  25.517  29.817  1.00  0.00     0.031 C 
ATOM     31  C   UNL A   1      43.969  28.596  35.043  1.00  0.00     0.029 A 
ATOM     32  C   UNL A   1      43.672  28.105  33.781  1.00  0.00     0.049 A 
ATOM     33  H   UNL A   1      42.115  28.673  32.472  1.00  0.00     0.167 HD
ATOM     34  C   UNL A   1      44.025  26.673  31.787  1.00  0.00     0.074 A 
ATOM     35  C   UNL A   1      44.746  25.674  31.029  1.00  0.00     0.031 C 
ATOM     36  C   UNL A   1      44.373  27.090  33.031  1.00  0.00     0.034 A 
BRANCH  23  37
ATOM     37  C   UNL A   1      40.759  31.526  35.364  1.00  0.00     0.023 A 
ATOM     38  C   UNL A   1      39.595  31.368  36.139  1.00  0.00     0.031 A 
ATOM     39  C   UNL A   1      41.573  32.646  35.611  1.00  0.00     0.131 A 
ATOM     40  C   UNL A   1      39.254  32.336  37.091  1.00  0.00     0.055 A 
ATOM     41  C   UNL A   1      41.257  33.580  36.600  1.00  0.00     0.041 A 
ATOM     42  F   UNL A   1      42.693  32.848  34.898  1.00  0.00    -0.206 F 
ATOM     43  C   UNL A   1      40.084  33.435  37.334  1.00  0.00     0.022 A 
BRANCH  40  44
ATOM     44  S   UNL A   1      37.682  32.252  37.991  1.00  0.00     0.124 S 
ATOM     45  O   UNL A   1      36.813  33.077  37.155  1.00  0.00    -0.237 OA
ATOM     46  O   UNL A   1      37.395  30.820  37.967  1.00  0.00    -0.237 OA
ATOM     47  O   UNL A   1      37.997  32.812  39.300  1.00  0.00    -0.744 OA
ENDBRANCH  40  44
ENDBRANCH  23  37
BRANCH  24  48
ATOM     48  C   UNL A   1      42.395  25.562  27.474  1.00  0.00     0.023 A 
ATOM     49  C   UNL A   1      41.876  24.255  27.417  1.00  0.00     0.031 A 
ATOM     50  C   UNL A   1      43.240  25.980  26.431  1.00  0.00     0.131 A 
ATOM     51  C   UNL A   1      42.267  23.392  26.386  1.00  0.00     0.055 A 
ATOM     52  C   UNL A   1      43.563  25.141  25.362  1.00  0.00     0.041 A 
ATOM     53  F   UNL A   1      43.773  27.211  26.444  1.00  0.00    -0.206 F 
ATOM     54  C   UNL A   1      43.091  23.832  25.347  1.00  0.00     0.022 A 
BRANCH  51  55
ATOM     55  S   UNL A   1      41.838  21.628  26.438  1.00  0.00     0.124 S 
ATOM     56  O   UNL A   1      42.215  21.262  27.798  1.00  0.00    -0.237 OA
ATOM     57  O   UNL A   1      40.402  21.665  26.170  1.00  0.00    -0.237 OA
ATOM     58  O   UNL A   1      42.650  21.044  25.377  1.00  0.00    -0.744 OA
ENDBRANCH  51  55
ENDBRANCH  24  48
BRANCH  36  59
ATOM     59  C   UNL A   1      45.584  26.478  33.697  1.00  0.00     0.023 A 
ATOM     60  C   UNL A   1      45.431  25.346  34.523  1.00  0.00     0.031 A 
ATOM     61  C   UNL A   1      46.838  27.111  33.667  1.00  0.00     0.131 A 
ATOM     62  C   UNL A   1      46.494  24.918  35.327  1.00  0.00     0.055 A 
ATOM     63  C   UNL A   1      47.913  26.645  34.426  1.00  0.00     0.041 A 
ATOM     64  F   UNL A   1      47.034  28.202  32.908  1.00  0.00    -0.206 F 
ATOM     65  C   UNL A   1      47.738  25.556  35.276  1.00  0.00     0.022 A 
BRANCH  62  66
ATOM     66  S   UNL A   1      46.271  23.595  36.550  1.00  0.00     0.124 S 
ATOM     67  O   UNL A   1      47.531  22.866  36.438  1.00  0.00    -0.237 OA
ATOM     68  O   UNL A   1      46.094  24.349  37.788  1.00  0.00    -0.237 OA
ATOM     69  O   UNL A   1      45.092  22.876  36.080  1.00  0.00    -0.744 OA
ENDBRANCH  62  66
ENDBRANCH  36  59
ENDBRANCH  10  11
ENDBRANCH   2   5
BRANCH   3  70
ATOM     70  C   UNL A   1      33.102  30.048  26.495  1.00  0.00     0.118 C 
BRANCH  70  71
ATOM     71  C   UNL A   1      31.811  29.352  26.907  1.00  0.00     0.042 C 
BRANCH  71  72
ATOM     72  C   UNL A   1      31.975  27.881  27.252  1.00  0.00     0.118 C 
BRANCH  72  73
ATOM     73  N   UNL A   1      30.821  27.072  26.879  1.00  0.00    -0.352 N 
ATOM     74  C   UNL A   1      30.637  26.245  25.798  1.00  0.00     0.251 C 
ATOM     75  H   UNL A   1      30.056  27.127  27.497  1.00  0.00     0.163 HD
ATOM     76  O   UNL A   1      29.567  25.659  25.649  1.00  0.00    -0.269 OA
BRANCH  74  77
ATOM     77  C   UNL A   1      31.741  26.048  24.828  1.00  0.00     0.047 A 
ATOM     78  C   UNL A   1      31.794  26.939  23.750  1.00  0.00     0.014 A 
ATOM     79  C   UNL A   1      32.716  25.024  24.994  1.00  0.00    -0.004 A 
ATOM     80  C   UNL A   1      32.732  26.753  22.756  1.00  0.00     0.002 A 
ATOM     81  C   UNL A   1      33.704  24.840  23.990  1.00  0.00    -0.010 A 
ATOM     82  C   UNL A   1      32.749  24.180  26.119  1.00  0.00     0.026 A 
ATOM     83  C   UNL A   1      33.653  25.713  22.869  1.00  0.00     0.009 A 
ATOM     84  C   UNL A   1      34.706  23.807  24.137  1.00  0.00    -0.009 A 
ATOM     85  C   UNL A   1      33.737  23.206  26.284  1.00  0.00     0.026 A 
ATOM     86  C   UNL A   1      34.731  22.998  25.306  1.00  0.00    -0.004 A 
ATOM     87  C   UNL A   1      35.704  23.554  23.158  1.00  0.00     0.009 A 
ATOM     88  Br  UNL A   1      33.656  22.202  27.907  1.00  0.00    -0.050 Br
ATOM     89  C   UNL A   1      35.751  22.020  25.442  1.00  0.00     0.010 A 
ATOM     90  C   UNL A   1      36.690  22.579  23.312  1.00  0.00     0.001 A 
ATOM     91  C   UNL A   1      36.719  21.814  24.461  1.00  0.00     0.001 A 
ENDBRANCH  74  77
ENDBRANCH  72  73
ENDBRANCH  71  72
ENDBRANCH  70  71
ENDBRANCH   3  70
TORSDOF 13
ENDMDL
