MODEL 1
REMARK VINA RESULT:     -12.9      0.000      0.000
REMARK SMILES Cc1nn(C)c(=O)c(C(=O)N2CC[C@@H](C(=O)NCCCNC(=O)c3ccc(-c4c5nc(c(-c6cc(S(=O)(=O)[O-])ccc6F)c6ccc([nH]6)c(-c6cc(S(=O)(=O)[O-])ccc6F)c6nc(c(-c7cc(S(=O)(=O)[O-])ccc7F)c7ccc4[nH]7)C=C6)C=C5)cc3)[C@@H]2C)c1C
REMARK SMILES IDX 19 1 18 2 17 3 15 4 16 5 14 7 11 8 12 9 87 10 13 11 88 12
REMARK SMILES IDX 9 13 10 14 8 15 1 16 2 17 3 18 89 19 4 20 90 21 5 22 6 23
REMARK SMILES IDX 7 24 20 25 21 26 22 27 23 29 24 30 25 31 86 32 26 33 85 34
REMARK SMILES IDX 27 35 28 36 29 37 79 38 30 39 84 40 78 41 80 42 31 43 83 44
REMARK SMILES IDX 77 45 76 46 32 48 64 49 44 50 63 51 45 52 48 53 62 54 81 55
REMARK SMILES IDX 46 56 47 57 61 59 82 60 49 61 33 62 34 63 42 64 35 65 41 66
REMARK SMILES IDX 43 67 40 68 36 69 37 70 38 71 39 72 65 73 66 74 74 75 67 76
REMARK SMILES IDX 73 77 75 78 72 79 68 80 69 81 70 82 71 83 50 84 51 85 59 86
REMARK SMILES IDX 52 87 58 88 60 89 57 90 53 91 54 92 55 93 56 94
REMARK H PARENT 17 6 21 28 80 47 48 58
REMARK Flexibility Score: inf
ROOT
ATOM      1  C   UNL A   1      36.686  19.417  24.955  1.00  0.00     0.042 C 
ENDROOT
BRANCH   1   2
ATOM      2  C   UNL A   1      35.327  20.117  24.946  1.00  0.00     0.117 C 
BRANCH   2   3
ATOM      3  N   UNL A   1      35.081  20.920  26.136  1.00  0.00    -0.356 N 
ATOM      4  C   UNL A   1      34.410  22.078  26.354  1.00  0.00     0.225 C 
ATOM      5  O   UNL A   1      34.305  22.422  27.539  1.00  0.00    -0.275 OA
ATOM      6  H   UNL A   1      35.486  20.544  26.951  1.00  0.00     0.163 HD
BRANCH   4   7
ATOM      7  C   UNL A   1      33.877  23.012  25.274  1.00  0.00     0.102 C 
ATOM      8  N   UNL A   1      32.405  24.735  25.966  1.00  0.00    -0.335 N 
ATOM      9  C   UNL A   1      33.498  25.413  25.286  1.00  0.00     0.121 C 
ATOM     10  C   UNL A   1      32.400  23.341  25.519  1.00  0.00     0.094 C 
ATOM     11  C   UNL A   1      34.575  24.352  25.056  1.00  0.00     0.037 C 
ATOM     12  C   UNL A   1      31.554  23.103  24.263  1.00  0.00     0.032 C 
BRANCH   8  13
ATOM     13  C   UNL A   1      31.207  25.436  26.124  1.00  0.00     0.260 C 
ATOM     14  O   UNL A   1      30.228  24.930  26.664  1.00  0.00    -0.269 OA
BRANCH  13  15
ATOM     15  C   UNL A   1      31.163  26.798  25.502  1.00  0.00     0.111 A 
ATOM     16  C   UNL A   1      32.498  30.287  25.760  1.00  0.00     0.069 C 
ATOM     17  C   UNL A   1      31.558  29.166  25.375  1.00  0.00     0.062 A 
ATOM     18  N   UNL A   1      30.860  29.349  24.304  1.00  0.00    -0.175 NA
ATOM     19  C   UNL A   1      31.543  27.908  26.166  1.00  0.00    -0.010 A 
ATOM     20  N   UNL A   1      30.166  28.277  23.821  1.00  0.00    -0.232 N 
ATOM     21  C   UNL A   1      31.788  28.023  27.635  1.00  0.00     0.047 C 
ATOM     22  C   UNL A   1      29.231  28.582  22.751  1.00  0.00     0.178 C 
ATOM     23  C   UNL A   1      30.444  26.964  24.193  1.00  0.00     0.279 A 
ATOM     24  O   UNL A   1      30.084  25.988  23.539  1.00  0.00    -0.267 OA
ENDBRANCH  13  15
ENDBRANCH   8  13
ENDBRANCH   4   7
ENDBRANCH   2   3
ENDBRANCH   1   2
BRANCH   1  25
ATOM     25  C   UNL A   1      37.872  20.299  25.340  1.00  0.00     0.118 C 
BRANCH  25  26
ATOM     26  N   UNL A   1      39.044  19.520  25.687  1.00  0.00    -0.352 N 
ATOM     27  C   UNL A   1      40.294  19.881  26.130  1.00  0.00     0.251 C 
ATOM     28  H   UNL A   1      38.922  18.548  25.588  1.00  0.00     0.163 HD
ATOM     29  O   UNL A   1      41.165  19.011  26.120  1.00  0.00    -0.269 OA
BRANCH  27  30
ATOM     30  C   UNL A   1      40.647  21.254  26.588  1.00  0.00     0.039 A 
ATOM     31  C   UNL A   1      40.148  22.334  25.846  1.00  0.00     0.014 A 
ATOM     32  C   UNL A   1      41.549  21.517  27.623  1.00  0.00     0.014 A 
ATOM     33  C   UNL A   1      40.535  23.649  26.139  1.00  0.00     0.010 A 
ATOM     34  C   UNL A   1      41.885  22.839  27.958  1.00  0.00     0.010 A 
ATOM     35  C   UNL A   1      41.402  23.922  27.207  1.00  0.00    -0.014 A 
BRANCH  35  36
ATOM     36  C   UNL A   1      41.863  25.317  27.484  1.00  0.00     0.031 A 
ATOM     37  C   UNL A   1      43.190  25.802  26.949  1.00  0.00     0.074 A 
ATOM     38  C   UNL A   1      41.091  26.168  28.193  1.00  0.00     0.049 A 
ATOM     39  N   UNL A   1      43.783  26.957  27.124  1.00  0.00    -0.248 NA
ATOM     40  C   UNL A   1      43.953  24.862  26.114  1.00  0.00     0.031 C 
ATOM     41  C   UNL A   1      39.774  25.853  28.750  1.00  0.00     0.029 A 
ATOM     42  N   UNL A   1      41.298  27.478  28.555  1.00  0.00    -0.354 N 
ATOM     43  C   UNL A   1      44.984  26.883  26.425  1.00  0.00     0.074 A 
ATOM     44  C   UNL A   1      45.059  25.549  25.868  1.00  0.00     0.031 C 
ATOM     45  C   UNL A   1      39.278  26.947  29.351  1.00  0.00     0.029 A 
ATOM     46  C   UNL A   1      40.252  28.032  29.259  1.00  0.00     0.049 A 
ATOM     47  H   UNL A   1      42.118  27.975  28.331  1.00  0.00     0.167 HD
ATOM     48  C   UNL A   1      45.926  27.840  26.235  1.00  0.00     0.034 A 
ATOM     49  C   UNL A   1      40.090  29.268  29.775  1.00  0.00     0.034 A 
ATOM     50  C   UNL A   1      45.846  29.179  26.761  1.00  0.00     0.049 A 
ATOM     51  C   UNL A   1      41.184  30.293  29.613  1.00  0.00     0.074 A 
ATOM     52  C   UNL A   1      46.752  30.217  26.613  1.00  0.00     0.029 A 
ATOM     53  N   UNL A   1      44.799  29.674  27.524  1.00  0.00    -0.354 N 
ATOM     54  N   UNL A   1      42.330  30.184  28.985  1.00  0.00    -0.248 NA
ATOM     55  C   UNL A   1      40.962  31.607  30.236  1.00  0.00     0.031 C 
ATOM     56  C   UNL A   1      46.276  31.324  27.324  1.00  0.00     0.029 A 
ATOM     57  C   UNL A   1      45.046  30.994  27.868  1.00  0.00     0.049 A 
ATOM     58  H   UNL A   1      43.998  29.163  27.782  1.00  0.00     0.167 HD
ATOM     59  C   UNL A   1      42.953  31.422  29.116  1.00  0.00     0.074 A 
ATOM     60  C   UNL A   1      42.056  32.265  29.879  1.00  0.00     0.031 C 
ATOM     61  C   UNL A   1      44.155  31.826  28.638  1.00  0.00     0.034 A 
BRANCH  48  62
ATOM     62  C   UNL A   1      47.140  27.474  25.422  1.00  0.00     0.023 A 
ATOM     63  C   UNL A   1      47.241  27.821  24.065  1.00  0.00     0.031 A 
ATOM     64  C   UNL A   1      48.218  26.794  26.016  1.00  0.00     0.131 A 
ATOM     65  C   UNL A   1      48.379  27.451  23.333  1.00  0.00     0.055 A 
ATOM     66  C   UNL A   1      49.375  26.485  25.299  1.00  0.00     0.041 A 
ATOM     67  F   UNL A   1      48.166  26.427  27.306  1.00  0.00    -0.206 F 
ATOM     68  C   UNL A   1      49.457  26.807  23.947  1.00  0.00     0.022 A 
BRANCH  65  69
ATOM     69  S   UNL A   1      48.403  27.753  21.546  1.00  0.00     0.124 S 
ATOM     70  O   UNL A   1      48.722  26.423  21.030  1.00  0.00    -0.237 OA
ATOM     71  O   UNL A   1      47.045  28.228  21.286  1.00  0.00    -0.237 OA
ATOM     72  O   UNL A   1      49.453  28.750  21.380  1.00  0.00    -0.744 OA
ENDBRANCH  65  69
ENDBRANCH  48  62
BRANCH  49  73
ATOM     73  C   UNL A   1      38.841  29.619  30.506  1.00  0.00     0.023 A 
ATOM     74  C   UNL A   1      37.866  30.435  29.912  1.00  0.00     0.031 A 
ATOM     75  C   UNL A   1      38.620  29.173  31.821  1.00  0.00     0.131 A 
ATOM     76  C   UNL A   1      36.728  30.809  30.643  1.00  0.00     0.055 A 
ATOM     77  C   UNL A   1      37.467  29.512  32.529  1.00  0.00     0.041 A 
ATOM     78  F   UNL A   1      39.524  28.391  32.432  1.00  0.00    -0.206 F 
ATOM     79  C   UNL A   1      36.515  30.342  31.942  1.00  0.00     0.022 A 
BRANCH  76  80
ATOM     80  S   UNL A   1      35.544  31.956  29.885  1.00  0.00     0.124 S 
ATOM     81  O   UNL A   1      36.417  33.053  29.476  1.00  0.00    -0.237 OA
ATOM     82  O   UNL A   1      34.982  31.148  28.808  1.00  0.00    -0.237 OA
ATOM     83  O   UNL A   1      34.623  32.263  30.976  1.00  0.00    -0.744 OA
ENDBRANCH  76  80
ENDBRANCH  49  73
BRANCH  61  84
ATOM     84  C   UNL A   1      44.567  33.250  28.897  1.00  0.00     0.023 A 
ATOM     85  C   UNL A   1      44.008  34.318  28.176  1.00  0.00     0.031 A 
ATOM     86  C   UNL A   1      45.501  33.544  29.906  1.00  0.00     0.131 A 
ATOM     87  C   UNL A   1      44.408  35.633  28.457  1.00  0.00     0.055 A 
ATOM     88  C   UNL A   1      45.866  34.857  30.209  1.00  0.00     0.041 A 
ATOM     89  F   UNL A   1      46.062  32.558  30.626  1.00  0.00    -0.206 F 
ATOM     90  C   UNL A   1      45.321  35.909  29.479  1.00  0.00     0.022 A 
BRANCH  87  91
ATOM     91  S   UNL A   1      43.735  36.985  27.452  1.00  0.00     0.124 S 
ATOM     92  O   UNL A   1      42.904  37.695  28.421  1.00  0.00    -0.237 OA
ATOM     93  O   UNL A   1      44.938  37.683  27.014  1.00  0.00    -0.237 OA
ATOM     94  O   UNL A   1      43.001  36.295  26.393  1.00  0.00    -0.744 OA
ENDBRANCH  87  91
ENDBRANCH  61  84
ENDBRANCH  35  36
ENDBRANCH  27  30
ENDBRANCH  25  26
ENDBRANCH   1  25
TORSDOF 15
ENDMDL
MODEL 2
REMARK VINA RESULT:     -12.9      5.011     10.832
REMARK SMILES Cc1nn(C)c(=O)c(C(=O)N2CC[C@@H](C(=O)NCCCNC(=O)c3ccc(-c4c5nc(c(-c6cc(S(=O)(=O)[O-])ccc6F)c6ccc([nH]6)c(-c6cc(S(=O)(=O)[O-])ccc6F)c6nc(c(-c7cc(S(=O)(=O)[O-])ccc7F)c7ccc4[nH]7)C=C6)C=C5)cc3)[C@@H]2C)c1C
REMARK SMILES IDX 19 1 18 2 17 3 15 4 16 5 14 7 11 8 12 9 87 10 13 11 88 12
REMARK SMILES IDX 9 13 10 14 8 15 1 16 2 17 3 18 89 19 4 20 90 21 5 22 6 23
REMARK SMILES IDX 7 24 20 25 21 26 22 27 23 29 24 30 25 31 86 32 26 33 85 34
REMARK SMILES IDX 27 35 28 36 29 37 79 38 30 39 84 40 78 41 80 42 31 43 83 44
REMARK SMILES IDX 77 45 76 46 32 48 64 49 44 50 63 51 45 52 48 53 62 54 81 55
REMARK SMILES IDX 46 56 47 57 61 59 82 60 49 61 33 62 34 63 42 64 35 65 41 66
REMARK SMILES IDX 43 67 40 68 36 69 37 70 38 71 39 72 65 73 66 74 74 75 67 76
REMARK SMILES IDX 73 77 75 78 72 79 68 80 69 81 70 82 71 83 50 84 51 85 59 86
REMARK SMILES IDX 52 87 58 88 60 89 57 90 53 91 54 92 55 93 56 94
REMARK H PARENT 17 6 21 28 80 47 48 58
REMARK Flexibility Score: inf
ROOT
ATOM      1  C   UNL A   1      31.025  31.183  25.484  1.00  0.00     0.042 C 
ENDROOT
BRANCH   1   2
ATOM      2  C   UNL A   1      31.027  29.782  24.875  1.00  0.00     0.117 C 
BRANCH   2   3
ATOM      3  N   UNL A   1      32.236  29.481  24.119  1.00  0.00    -0.356 N 
ATOM      4  C   UNL A   1      32.910  28.333  23.861  1.00  0.00     0.225 C 
ATOM      5  O   UNL A   1      33.856  28.433  23.068  1.00  0.00    -0.275 OA
ATOM      6  H   UNL A   1      32.648  30.276  23.711  1.00  0.00     0.163 HD
BRANCH   4   7
ATOM      7  C   UNL A   1      32.659  26.986  24.530  1.00  0.00     0.102 C 
ATOM      8  N   UNL A   1      33.669  25.085  23.542  1.00  0.00    -0.335 N 
ATOM      9  C   UNL A   1      34.139  25.098  24.918  1.00  0.00     0.121 C 
ATOM     10  C   UNL A   1      32.447  25.889  23.481  1.00  0.00     0.094 C 
ATOM     11  C   UNL A   1      33.707  26.445  25.499  1.00  0.00     0.037 C 
ATOM     12  C   UNL A   1      31.171  25.086  23.758  1.00  0.00     0.032 C 
BRANCH   8  13
ATOM     13  C   UNL A   1      33.764  23.882  22.837  1.00  0.00     0.260 C 
ATOM     14  O   UNL A   1      33.431  23.794  21.660  1.00  0.00    -0.269 OA
BRANCH  13  15
ATOM     15  C   UNL A   1      34.200  22.692  23.636  1.00  0.00     0.111 A 
ATOM     16  C   UNL A   1      37.085  21.180  25.483  1.00  0.00     0.069 C 
ATOM     17  C   UNL A   1      35.773  21.242  24.732  1.00  0.00     0.062 A 
ATOM     18  N   UNL A   1      34.917  20.314  25.001  1.00  0.00    -0.175 NA
ATOM     19  C   UNL A   1      35.499  22.379  23.814  1.00  0.00    -0.010 A 
ATOM     20  N   UNL A   1      33.657  20.464  24.499  1.00  0.00    -0.232 N 
ATOM     21  C   UNL A   1      36.660  22.947  23.066  1.00  0.00     0.047 C 
ATOM     22  C   UNL A   1      32.796  19.302  24.641  1.00  0.00     0.178 C 
ATOM     23  C   UNL A   1      33.164  21.683  24.040  1.00  0.00     0.279 A 
ATOM     24  O   UNL A   1      31.964  21.919  23.911  1.00  0.00    -0.267 OA
ENDBRANCH  13  15
ENDBRANCH   8  13
ENDBRANCH   4   7
ENDBRANCH   2   3
ENDBRANCH   1   2
BRANCH   1  25
ATOM     25  C   UNL A   1      31.986  31.390  26.653  1.00  0.00     0.118 C 
BRANCH  25  26
ATOM     26  N   UNL A   1      32.164  32.791  26.975  1.00  0.00    -0.352 N 
ATOM     27  C   UNL A   1      33.115  33.455  27.714  1.00  0.00     0.251 C 
ATOM     28  H   UNL A   1      31.474  33.380  26.592  1.00  0.00     0.163 HD
ATOM     29  O   UNL A   1      32.877  34.627  28.010  1.00  0.00    -0.269 OA
BRANCH  27  30
ATOM     30  C   UNL A   1      34.383  32.832  28.185  1.00  0.00     0.039 A 
ATOM     31  C   UNL A   1      34.312  31.532  28.705  1.00  0.00     0.014 A 
ATOM     32  C   UNL A   1      35.600  33.514  28.263  1.00  0.00     0.014 A 
ATOM     33  C   UNL A   1      35.435  30.924  29.282  1.00  0.00     0.010 A 
ATOM     34  C   UNL A   1      36.742  32.882  28.781  1.00  0.00     0.010 A 
ATOM     35  C   UNL A   1      36.671  31.587  29.320  1.00  0.00    -0.014 A 
BRANCH  35  36
ATOM     36  C   UNL A   1      37.855  30.966  29.987  1.00  0.00     0.031 A 
ATOM     37  C   UNL A   1      38.189  31.306  31.420  1.00  0.00     0.074 A 
ATOM     38  C   UNL A   1      38.627  30.075  29.328  1.00  0.00     0.049 A 
ATOM     39  N   UNL A   1      39.200  30.910  32.154  1.00  0.00    -0.248 NA
ATOM     40  C   UNL A   1      37.269  32.217  32.118  1.00  0.00     0.031 C 
ATOM     41  C   UNL A   1      38.415  29.626  27.951  1.00  0.00     0.029 A 
ATOM     42  N   UNL A   1      39.740  29.377  29.734  1.00  0.00    -0.354 N 
ATOM     43  C   UNL A   1      39.039  31.522  33.394  1.00  0.00     0.074 A 
ATOM     44  C   UNL A   1      37.861  32.358  33.294  1.00  0.00     0.031 C 
ATOM     45  C   UNL A   1      39.343  28.706  27.640  1.00  0.00     0.029 A 
ATOM     46  C   UNL A   1      40.241  28.524  28.777  1.00  0.00     0.049 A 
ATOM     47  H   UNL A   1      40.142  29.478  30.627  1.00  0.00     0.167 HD
ATOM     48  C   UNL A   1      39.780  31.381  34.521  1.00  0.00     0.034 A 
ATOM     49  C   UNL A   1      41.302  27.690  28.804  1.00  0.00     0.034 A 
ATOM     50  C   UNL A   1      40.935  30.528  34.637  1.00  0.00     0.049 A 
ATOM     51  C   UNL A   1      42.153  27.606  30.046  1.00  0.00     0.074 A 
ATOM     52  C   UNL A   1      41.743  30.320  35.744  1.00  0.00     0.029 A 
ATOM     53  N   UNL A   1      41.444  29.733  33.622  1.00  0.00    -0.354 N 
ATOM     54  N   UNL A   1      42.005  28.228  31.191  1.00  0.00    -0.248 NA
ATOM     55  C   UNL A   1      43.318  26.710  29.995  1.00  0.00     0.031 C 
ATOM     56  C   UNL A   1      42.765  29.437  35.385  1.00  0.00     0.029 A 
ATOM     57  C   UNL A   1      42.562  29.049  34.071  1.00  0.00     0.049 A 
ATOM     58  H   UNL A   1      41.066  29.665  32.716  1.00  0.00     0.167 HD
ATOM     59  C   UNL A   1      43.043  27.779  32.003  1.00  0.00     0.074 A 
ATOM     60  C   UNL A   1      43.808  26.831  31.221  1.00  0.00     0.031 C 
ATOM     61  C   UNL A   1      43.329  28.115  33.284  1.00  0.00     0.034 A 
BRANCH  48  62
ATOM     62  C   UNL A   1      39.365  32.176  35.732  1.00  0.00     0.023 A 
ATOM     63  C   UNL A   1      38.546  31.617  36.726  1.00  0.00     0.031 A 
ATOM     64  C   UNL A   1      39.815  33.497  35.907  1.00  0.00     0.131 A 
ATOM     65  C   UNL A   1      38.167  32.390  37.833  1.00  0.00     0.055 A 
ATOM     66  C   UNL A   1      39.486  34.240  37.041  1.00  0.00     0.041 A 
ATOM     67  F   UNL A   1      40.588  34.083  34.979  1.00  0.00    -0.206 F 
ATOM     68  C   UNL A   1      38.651  33.690  38.010  1.00  0.00     0.022 A 
BRANCH  65  69
ATOM     69  S   UNL A   1      36.967  31.704  39.006  1.00  0.00     0.124 S 
ATOM     70  O   UNL A   1      37.719  31.760  40.259  1.00  0.00    -0.237 OA
ATOM     71  O   UNL A   1      35.846  32.636  38.896  1.00  0.00    -0.237 OA
ATOM     72  O   UNL A   1      36.714  30.364  38.495  1.00  0.00    -0.744 OA
ENDBRANCH  65  69
ENDBRANCH  48  62
BRANCH  49  73
ATOM     73  C   UNL A   1      41.635  26.860  27.614  1.00  0.00     0.023 A 
ATOM     74  C   UNL A   1      41.357  25.483  27.597  1.00  0.00     0.031 A 
ATOM     75  C   UNL A   1      42.267  27.422  26.491  1.00  0.00     0.131 A 
ATOM     76  C   UNL A   1      41.740  24.708  26.493  1.00  0.00     0.055 A 
ATOM     77  C   UNL A   1      42.608  26.654  25.377  1.00  0.00     0.041 A 
ATOM     78  F   UNL A   1      42.554  28.733  26.460  1.00  0.00    -0.206 F 
ATOM     79  C   UNL A   1      42.352  25.285  25.377  1.00  0.00     0.022 A 
BRANCH  76  80
ATOM     80  S   UNL A   1      41.469  22.915  26.552  1.00  0.00     0.124 S 
ATOM     81  O   UNL A   1      42.071  22.568  27.835  1.00  0.00    -0.237 OA
ATOM     82  O   UNL A   1      40.015  22.824  26.480  1.00  0.00    -0.237 OA
ATOM     83  O   UNL A   1      42.180  22.424  25.374  1.00  0.00    -0.744 OA
ENDBRANCH  76  80
ENDBRANCH  49  73
BRANCH  61  84
ATOM     84  C   UNL A   1      44.502  27.436  33.939  1.00  0.00     0.023 A 
ATOM     85  C   UNL A   1      44.341  26.265  34.697  1.00  0.00     0.031 A 
ATOM     86  C   UNL A   1      45.800  27.947  33.769  1.00  0.00     0.131 A 
ATOM     87  C   UNL A   1      45.461  25.653  35.280  1.00  0.00     0.055 A 
ATOM     88  C   UNL A   1      46.916  27.313  34.317  1.00  0.00     0.041 A 
ATOM     89  F   UNL A   1      46.006  29.063  33.050  1.00  0.00    -0.206 F 
ATOM     90  C   UNL A   1      46.749  26.162  35.081  1.00  0.00     0.022 A 
BRANCH  87  91
ATOM     91  S   UNL A   1      45.215  24.190  36.324  1.00  0.00     0.124 S 
ATOM     92  O   UNL A   1      44.932  24.793  37.624  1.00  0.00    -0.237 OA
ATOM     93  O   UNL A   1      44.093  23.523  35.674  1.00  0.00    -0.237 OA
ATOM     94  O   UNL A   1      46.492  23.484  36.232  1.00  0.00    -0.744 OA
ENDBRANCH  87  91
ENDBRANCH  61  84
ENDBRANCH  35  36
ENDBRANCH  27  30
ENDBRANCH  25  26
ENDBRANCH   1  25
TORSDOF 15
ENDMDL
MODEL 3
REMARK VINA RESULT:     -12.7      1.577      1.827
REMARK SMILES Cc1nn(C)c(=O)c(C(=O)N2CC[C@@H](C(=O)NCCCNC(=O)c3ccc(-c4c5nc(c(-c6cc(S(=O)(=O)[O-])ccc6F)c6ccc([nH]6)c(-c6cc(S(=O)(=O)[O-])ccc6F)c6nc(c(-c7cc(S(=O)(=O)[O-])ccc7F)c7ccc4[nH]7)C=C6)C=C5)cc3)[C@@H]2C)c1C
REMARK SMILES IDX 19 1 18 2 17 3 15 4 16 5 14 7 11 8 12 9 87 10 13 11 88 12
REMARK SMILES IDX 9 13 10 14 8 15 1 16 2 17 3 18 89 19 4 20 90 21 5 22 6 23
REMARK SMILES IDX 7 24 20 25 21 26 22 27 23 29 24 30 25 31 86 32 26 33 85 34
REMARK SMILES IDX 27 35 28 36 29 37 79 38 30 39 84 40 78 41 80 42 31 43 83 44
REMARK SMILES IDX 77 45 76 46 32 48 64 49 44 50 63 51 45 52 48 53 62 54 81 55
REMARK SMILES IDX 46 56 47 57 61 59 82 60 49 61 33 62 34 63 42 64 35 65 41 66
REMARK SMILES IDX 43 67 40 68 36 69 37 70 38 71 39 72 65 73 66 74 74 75 67 76
REMARK SMILES IDX 73 77 75 78 72 79 68 80 69 81 70 82 71 83 50 84 51 85 59 86
REMARK SMILES IDX 52 87 58 88 60 89 57 90 53 91 54 92 55 93 56 94
REMARK H PARENT 17 6 21 28 80 47 48 58
REMARK Flexibility Score: inf
ROOT
ATOM      1  C   UNL A   1      36.711  19.544  25.060  1.00  0.00     0.042 C 
ENDROOT
BRANCH   1   2
ATOM      2  C   UNL A   1      35.462  20.404  24.869  1.00  0.00     0.117 C 
BRANCH   2   3
ATOM      3  N   UNL A   1      35.002  21.036  26.098  1.00  0.00    -0.356 N 
ATOM      4  C   UNL A   1      34.243  22.132  26.353  1.00  0.00     0.225 C 
ATOM      5  O   UNL A   1      33.948  22.316  27.541  1.00  0.00    -0.275 OA
ATOM      6  H   UNL A   1      35.303  20.573  26.912  1.00  0.00     0.163 HD
BRANCH   4   7
ATOM      7  C   UNL A   1      33.822  23.179  25.327  1.00  0.00     0.102 C 
ATOM      8  N   UNL A   1      32.321  24.860  26.054  1.00  0.00    -0.335 N 
ATOM      9  C   UNL A   1      33.480  25.575  25.542  1.00  0.00     0.121 C 
ATOM     10  C   UNL A   1      32.334  23.517  25.474  1.00  0.00     0.094 C 
ATOM     11  C   UNL A   1      34.557  24.516  25.304  1.00  0.00     0.037 C 
ATOM     12  C   UNL A   1      31.601  23.421  24.131  1.00  0.00     0.032 C 
BRANCH   8  13
ATOM     13  C   UNL A   1      31.124  25.571  26.175  1.00  0.00     0.260 C 
ATOM     14  O   UNL A   1      30.120  25.067  26.669  1.00  0.00    -0.269 OA
BRANCH  13  15
ATOM     15  C   UNL A   1      31.117  26.942  25.571  1.00  0.00     0.111 A 
ATOM     16  C   UNL A   1      32.449  30.421  25.949  1.00  0.00     0.069 C 
ATOM     17  C   UNL A   1      31.526  29.309  25.499  1.00  0.00     0.062 A 
ATOM     18  N   UNL A   1      30.886  29.511  24.396  1.00  0.00    -0.175 NA
ATOM     19  C   UNL A   1      31.466  28.040  26.271  1.00  0.00    -0.010 A 
ATOM     20  N   UNL A   1      30.214  28.449  23.863  1.00  0.00    -0.232 N 
ATOM     21  C   UNL A   1      31.634  28.134  27.751  1.00  0.00     0.047 C 
ATOM     22  C   UNL A   1      29.337  28.773  22.750  1.00  0.00     0.178 C 
ATOM     23  C   UNL A   1      30.468  27.130  24.229  1.00  0.00     0.279 A 
ATOM     24  O   UNL A   1      30.139  26.164  23.543  1.00  0.00    -0.267 OA
ENDBRANCH  13  15
ENDBRANCH   8  13
ENDBRANCH   4   7
ENDBRANCH   2   3
ENDBRANCH   1   2
BRANCH   1  25
ATOM     25  C   UNL A   1      38.033  20.308  25.086  1.00  0.00     0.118 C 
BRANCH  25  26
ATOM     26  N   UNL A   1      39.127  19.494  25.578  1.00  0.00    -0.352 N 
ATOM     27  C   UNL A   1      40.327  19.818  26.163  1.00  0.00     0.251 C 
ATOM     28  H   UNL A   1      38.982  18.526  25.474  1.00  0.00     0.163 HD
ATOM     29  O   UNL A   1      41.162  18.918  26.265  1.00  0.00    -0.269 OA
BRANCH  27  30
ATOM     30  C   UNL A   1      40.672  21.184  26.648  1.00  0.00     0.039 A 
ATOM     31  C   UNL A   1      40.280  22.272  25.854  1.00  0.00     0.014 A 
ATOM     32  C   UNL A   1      41.473  21.430  27.766  1.00  0.00     0.014 A 
ATOM     33  C   UNL A   1      40.673  23.577  26.177  1.00  0.00     0.010 A 
ATOM     34  C   UNL A   1      41.813  22.745  28.126  1.00  0.00     0.010 A 
ATOM     35  C   UNL A   1      41.438  23.835  27.325  1.00  0.00    -0.014 A 
BRANCH  35  36
ATOM     36  C   UNL A   1      41.908  25.218  27.640  1.00  0.00     0.031 A 
ATOM     37  C   UNL A   1      43.298  25.659  27.246  1.00  0.00     0.074 A 
ATOM     38  C   UNL A   1      41.092  26.099  28.256  1.00  0.00     0.049 A 
ATOM     39  N   UNL A   1      43.904  26.798  27.475  1.00  0.00    -0.248 NA
ATOM     40  C   UNL A   1      44.118  24.688  26.504  1.00  0.00     0.031 C 
ATOM     41  C   UNL A   1      39.714  25.828  28.672  1.00  0.00     0.029 A 
ATOM     42  N   UNL A   1      41.298  27.406  28.629  1.00  0.00    -0.354 N 
ATOM     43  C   UNL A   1      45.170  26.681  26.909  1.00  0.00     0.074 A 
ATOM     44  C   UNL A   1      45.264  25.340  26.373  1.00  0.00     0.031 C 
ATOM     45  C   UNL A   1      39.190  26.943  29.209  1.00  0.00     0.029 A 
ATOM     46  C   UNL A   1      40.200  27.997  29.214  1.00  0.00     0.049 A 
ATOM     47  H   UNL A   1      42.151  27.877  28.491  1.00  0.00     0.167 HD
ATOM     48  C   UNL A   1      46.155  27.609  26.814  1.00  0.00     0.034 A 
ATOM     49  C   UNL A   1      40.022  29.243  29.701  1.00  0.00     0.034 A 
ATOM     50  C   UNL A   1      46.060  28.955  27.319  1.00  0.00     0.049 A 
ATOM     51  C   UNL A   1      41.157  30.234  29.649  1.00  0.00     0.074 A 
ATOM     52  C   UNL A   1      47.008  29.965  27.261  1.00  0.00     0.029 A 
ATOM     53  N   UNL A   1      44.953  29.488  27.962  1.00  0.00    -0.354 N 
ATOM     54  N   UNL A   1      42.359  30.085  29.147  1.00  0.00    -0.248 NA
ATOM     55  C   UNL A   1      40.910  31.560  30.236  1.00  0.00     0.031 C 
ATOM     56  C   UNL A   1      46.492  31.092  27.909  1.00  0.00     0.029 A 
ATOM     57  C   UNL A   1      45.201  30.803  28.321  1.00  0.00     0.049 A 
ATOM     58  H   UNL A   1      44.115  29.004  28.137  1.00  0.00     0.167 HD
ATOM     59  C   UNL A   1      43.002  31.306  29.336  1.00  0.00     0.074 A 
ATOM     60  C   UNL A   1      42.055  32.182  29.992  1.00  0.00     0.031 C 
ATOM     61  C   UNL A   1      44.260  31.669  28.986  1.00  0.00     0.034 A 
BRANCH  48  62
ATOM     62  C   UNL A   1      47.437  27.199  26.137  1.00  0.00     0.023 A 
ATOM     63  C   UNL A   1      48.416  26.455  26.817  1.00  0.00     0.031 A 
ATOM     64  C   UNL A   1      47.671  27.531  24.791  1.00  0.00     0.131 A 
ATOM     65  C   UNL A   1      49.604  26.102  26.161  1.00  0.00     0.055 A 
ATOM     66  C   UNL A   1      48.828  27.123  24.126  1.00  0.00     0.041 A 
ATOM     67  F   UNL A   1      46.775  28.252  24.100  1.00  0.00    -0.206 F 
ATOM     68  C   UNL A   1      49.807  26.410  24.813  1.00  0.00     0.022 A 
BRANCH  65  69
ATOM     69  S   UNL A   1      50.921  25.301  27.114  1.00  0.00     0.124 S 
ATOM     70  O   UNL A   1      50.177  24.263  27.825  1.00  0.00    -0.237 OA
ATOM     71  O   UNL A   1      51.829  24.831  26.069  1.00  0.00    -0.237 OA
ATOM     72  O   UNL A   1      51.441  26.374  27.952  1.00  0.00    -0.744 OA
ENDBRANCH  65  69
ENDBRANCH  48  62
BRANCH  49  73
ATOM     73  C   UNL A   1      38.713  29.638  30.292  1.00  0.00     0.023 A 
ATOM     74  C   UNL A   1      37.813  30.441  29.574  1.00  0.00     0.031 A 
ATOM     75  C   UNL A   1      38.358  29.247  31.595  1.00  0.00     0.131 A 
ATOM     76  C   UNL A   1      36.616  30.857  30.175  1.00  0.00     0.055 A 
ATOM     77  C   UNL A   1      37.147  29.628  32.174  1.00  0.00     0.041 A 
ATOM     78  F   UNL A   1      39.186  28.479  32.322  1.00  0.00    -0.206 F 
ATOM     79  C   UNL A   1      36.270  30.445  31.464  1.00  0.00     0.022 A 
BRANCH  76  80
ATOM     80  S   UNL A   1      35.530  31.987  29.261  1.00  0.00     0.124 S 
ATOM     81  O   UNL A   1      34.590  31.057  28.643  1.00  0.00    -0.237 OA
ATOM     82  O   UNL A   1      34.994  32.825  30.329  1.00  0.00    -0.237 OA
ATOM     83  O   UNL A   1      36.440  32.662  28.339  1.00  0.00    -0.744 OA
ENDBRANCH  76  80
ENDBRANCH  49  73
BRANCH  61  84
ATOM     84  C   UNL A   1      44.684  33.083  29.278  1.00  0.00     0.023 A 
ATOM     85  C   UNL A   1      44.482  34.116  28.348  1.00  0.00     0.031 A 
ATOM     86  C   UNL A   1      45.263  33.407  30.517  1.00  0.00     0.131 A 
ATOM     87  C   UNL A   1      44.879  35.424  28.662  1.00  0.00     0.055 A 
ATOM     88  C   UNL A   1      45.619  34.717  30.841  1.00  0.00     0.041 A 
ATOM     89  F   UNL A   1      45.474  32.455  31.441  1.00  0.00    -0.206 F 
ATOM     90  C   UNL A   1      45.432  35.733  29.910  1.00  0.00     0.022 A 
BRANCH  87  91
ATOM     91  S   UNL A   1      44.684  36.723  27.411  1.00  0.00     0.124 S 
ATOM     92  O   UNL A   1      43.479  36.287  26.710  1.00  0.00    -0.237 OA
ATOM     93  O   UNL A   1      44.548  37.927  28.223  1.00  0.00    -0.237 OA
ATOM     94  O   UNL A   1      45.919  36.639  26.633  1.00  0.00    -0.744 OA
ENDBRANCH  87  91
ENDBRANCH  61  84
ENDBRANCH  35  36
ENDBRANCH  27  30
ENDBRANCH  25  26
ENDBRANCH   1  25
TORSDOF 15
ENDMDL
