MODEL 1
REMARK VINA RESULT:     -11.6      0.000      0.000
REMARK SMILES C[C@H](NC(=O)N[C@](C)(C(=O)NCCCNC(=O)c1ccc(-c2c3nc(c(-c4cc(S(=O)(=O)[O-])ccc4F)c4ccc([nH]4)c(-c4cc(S(=O)(=O)[O-])ccc4F)c4nc(c(-c5cc(S(=O)(=O)[O-])ccc5F)c5ccc2[nH]5)C=C4)C=C3)cc1)C(F)(F)F)C(N)=O
REMARK SMILES IDX 13 1 12 2 11 3 9 4 10 5 7 7 8 8 6 9 3 10 4 11 5 13 2 15 1 16
REMARK SMILES IDX 85 17 86 18 87 19 81 22 82 23 83 24 84 25 14 26 15 27 16 28
REMARK SMILES IDX 17 30 18 31 19 32 80 33 20 34 79 35 21 36 22 37 23 38 73 39
REMARK SMILES IDX 24 40 78 41 72 42 74 43 25 44 77 45 71 46 70 47 26 49 58 50
REMARK SMILES IDX 38 51 57 52 39 53 42 54 56 55 75 56 40 57 41 58 55 60 76 61
REMARK SMILES IDX 43 62 27 63 28 64 36 65 29 66 35 67 37 68 34 69 30 70 31 71
REMARK SMILES IDX 32 72 33 73 59 74 60 75 68 76 61 77 67 78 69 79 66 80 62 81
REMARK SMILES IDX 63 82 64 83 65 84 44 85 45 86 53 87 46 88 52 89 54 90 51 91
REMARK SMILES IDX 47 92 48 93 49 94 50 95
REMARK H PARENT 11 6 3 12 6 14 86 20 86 21 15 29 74 48 42 59
REMARK Flexibility Score: inf
ROOT
ATOM      1  C   UNL A   1      31.398  32.137  26.532  1.00  0.00     0.042 C 
ENDROOT
BRANCH   1   2
ATOM      2  C   UNL A   1      31.478  30.706  25.999  1.00  0.00     0.117 C 
BRANCH   2   3
ATOM      3  N   UNL A   1      31.687  29.758  27.084  1.00  0.00    -0.354 N 
ATOM      4  C   UNL A   1      31.767  28.392  27.091  1.00  0.00     0.255 C 
ATOM      5  O   UNL A   1      31.573  27.854  28.185  1.00  0.00    -0.272 OA
ATOM      6  H   UNL A   1      31.788  30.174  27.971  1.00  0.00     0.163 HD
BRANCH   4   7
ATOM      7  C   UNL A   1      31.993  27.578  25.805  1.00  0.00     0.213 C 
ATOM      8  C   UNL A   1      31.739  26.078  26.133  1.00  0.00     0.056 C 
BRANCH   7   9
ATOM      9  N   UNL A   1      31.006  27.995  24.762  1.00  0.00    -0.316 N 
ATOM     10  N   UNL A   1      30.734  26.553  22.872  1.00  0.00    -0.327 N 
ATOM     11  C   UNL A   1      30.492  27.614  23.610  1.00  0.00     0.316 C 
ATOM     12  H   UNL A   1      30.222  26.648  22.036  1.00  0.00     0.166 HD
ATOM     13  O   UNL A   1      29.662  28.403  23.137  1.00  0.00    -0.249 OA
ATOM     14  H   UNL A   1      30.598  28.850  25.028  1.00  0.00     0.166 HD
BRANCH  10  15
ATOM     15  C   UNL A   1      31.468  25.283  22.806  1.00  0.00     0.169 C 
ATOM     16  C   UNL A   1      30.652  24.037  23.097  1.00  0.00     0.041 C 
BRANCH  15  17
ATOM     17  C   UNL A   1      32.473  25.252  21.630  1.00  0.00     0.239 C 
ATOM     18  N   UNL A   1      32.018  25.650  20.406  1.00  0.00    -0.368 N 
ATOM     19  O   UNL A   1      33.599  24.765  21.721  1.00  0.00    -0.273 OA
ATOM     20  H   UNL A   1      31.120  26.042  20.318  1.00  0.00     0.159 HD
ATOM     21  H   UNL A   1      32.591  25.547  19.610  1.00  0.00     0.159 HD
ENDBRANCH  15  17
ENDBRANCH  10  15
ENDBRANCH   7   9
BRANCH   7  22
ATOM     22  C   UNL A   1      33.475  27.643  25.400  1.00  0.00     0.420 C 
ATOM     23  F   UNL A   1      34.267  26.973  26.273  1.00  0.00    -0.168 F 
ATOM     24  F   UNL A   1      33.661  27.046  24.192  1.00  0.00    -0.168 F 
ATOM     25  F   UNL A   1      33.969  28.885  25.293  1.00  0.00    -0.168 F 
ENDBRANCH   7  22
ENDBRANCH   4   7
ENDBRANCH   2   3
ENDBRANCH   1   2
BRANCH   1  26
ATOM     26  C   UNL A   1      32.701  32.627  27.161  1.00  0.00     0.118 C 
BRANCH  26  27
ATOM     27  N   UNL A   1      32.590  33.993  27.651  1.00  0.00    -0.352 N 
ATOM     28  C   UNL A   1      33.239  34.600  28.697  1.00  0.00     0.251 C 
ATOM     29  H   UNL A   1      31.955  34.565  27.162  1.00  0.00     0.163 HD
ATOM     30  O   UNL A   1      32.830  35.689  29.105  1.00  0.00    -0.269 OA
BRANCH  28  31
ATOM     31  C   UNL A   1      34.401  33.952  29.342  1.00  0.00     0.039 A 
ATOM     32  C   UNL A   1      35.690  34.360  28.989  1.00  0.00     0.014 A 
ATOM     33  C   UNL A   1      34.228  32.928  30.277  1.00  0.00     0.014 A 
ATOM     34  C   UNL A   1      36.799  33.783  29.615  1.00  0.00     0.010 A 
ATOM     35  C   UNL A   1      35.328  32.413  30.958  1.00  0.00     0.010 A 
ATOM     36  C   UNL A   1      36.628  32.829  30.630  1.00  0.00    -0.014 A 
BRANCH  36  37
ATOM     37  C   UNL A   1      37.792  32.235  31.342  1.00  0.00     0.031 A 
ATOM     38  C   UNL A   1      38.578  31.122  30.701  1.00  0.00     0.074 A 
ATOM     39  C   UNL A   1      38.104  32.653  32.585  1.00  0.00     0.049 A 
ATOM     40  N   UNL A   1      39.560  30.410  31.191  1.00  0.00    -0.248 NA
ATOM     41  C   UNL A   1      38.184  30.740  29.336  1.00  0.00     0.031 C 
ATOM     42  C   UNL A   1      37.401  33.704  33.324  1.00  0.00     0.029 A 
ATOM     43  N   UNL A   1      39.086  32.241  33.452  1.00  0.00    -0.354 N 
ATOM     44  C   UNL A   1      39.891  29.488  30.204  1.00  0.00     0.074 A 
ATOM     45  C   UNL A   1      38.962  29.691  29.114  1.00  0.00     0.031 C 
ATOM     46  C   UNL A   1      37.989  33.870  34.520  1.00  0.00     0.029 A 
ATOM     47  C   UNL A   1      39.074  32.904  34.659  1.00  0.00     0.049 A 
ATOM     48  H   UNL A   1      39.737  31.537  33.232  1.00  0.00     0.167 HD
ATOM     49  C   UNL A   1      40.894  28.574  30.197  1.00  0.00     0.034 A 
ATOM     50  C   UNL A   1      39.838  32.740  35.758  1.00  0.00     0.034 A 
ATOM     51  C   UNL A   1      41.820  28.393  31.288  1.00  0.00     0.049 A 
ATOM     52  C   UNL A   1      40.921  31.689  35.743  1.00  0.00     0.074 A 
ATOM     53  C   UNL A   1      42.900  27.530  31.368  1.00  0.00     0.029 A 
ATOM     54  N   UNL A   1      41.772  29.079  32.496  1.00  0.00    -0.354 N 
ATOM     55  N   UNL A   1      41.248  30.853  34.784  1.00  0.00    -0.248 NA
ATOM     56  C   UNL A   1      41.743  31.568  36.953  1.00  0.00     0.031 C 
ATOM     57  C   UNL A   1      43.456  27.639  32.647  1.00  0.00     0.029 A 
ATOM     58  C   UNL A   1      42.781  28.634  33.337  1.00  0.00     0.049 A 
ATOM     59  H   UNL A   1      41.117  29.778  32.722  1.00  0.00     0.167 HD
ATOM     60  C   UNL A   1      42.339  30.134  35.265  1.00  0.00     0.074 A 
ATOM     61  C   UNL A   1      42.620  30.643  36.590  1.00  0.00     0.031 C 
ATOM     62  C   UNL A   1      43.049  29.146  34.661  1.00  0.00     0.034 A 
BRANCH  49  63
ATOM     63  C   UNL A   1      41.017  27.684  28.981  1.00  0.00     0.023 A 
ATOM     64  C   UNL A   1      42.008  27.896  28.005  1.00  0.00     0.031 A 
ATOM     65  C   UNL A   1      40.116  26.623  28.780  1.00  0.00     0.131 A 
ATOM     66  C   UNL A   1      42.024  27.114  26.840  1.00  0.00     0.055 A 
ATOM     67  C   UNL A   1      40.194  25.791  27.660  1.00  0.00     0.041 A 
ATOM     68  F   UNL A   1      39.134  26.382  29.663  1.00  0.00    -0.206 F 
ATOM     69  C   UNL A   1      41.141  26.045  26.674  1.00  0.00     0.022 A 
BRANCH  66  70
ATOM     70  S   UNL A   1      43.112  27.615  25.477  1.00  0.00     0.124 S 
ATOM     71  O   UNL A   1      44.102  28.430  26.178  1.00  0.00    -0.237 OA
ATOM     72  O   UNL A   1      43.585  26.335  24.964  1.00  0.00    -0.237 OA
ATOM     73  O   UNL A   1      42.223  28.358  24.585  1.00  0.00    -0.744 OA
ENDBRANCH  66  70
ENDBRANCH  49  63
BRANCH  50  74
ATOM     74  C   UNL A   1      39.605  33.574  36.973  1.00  0.00     0.023 A 
ATOM     75  C   UNL A   1      38.982  33.038  38.112  1.00  0.00     0.031 A 
ATOM     76  C   UNL A   1      39.958  34.936  36.998  1.00  0.00     0.131 A 
ATOM     77  C   UNL A   1      38.683  33.867  39.204  1.00  0.00     0.055 A 
ATOM     78  C   UNL A   1      39.714  35.743  38.110  1.00  0.00     0.041 A 
ATOM     79  F   UNL A   1      40.558  35.501  35.939  1.00  0.00    -0.206 F 
ATOM     80  C   UNL A   1      39.058  35.213  39.217  1.00  0.00     0.022 A 
BRANCH  77  81
ATOM     81  S   UNL A   1      37.707  33.184  40.572  1.00  0.00     0.124 S 
ATOM     82  O   UNL A   1      36.414  32.970  39.932  1.00  0.00    -0.237 OA
ATOM     83  O   UNL A   1      38.463  31.984  40.913  1.00  0.00    -0.237 OA
ATOM     84  O   UNL A   1      37.739  34.245  41.575  1.00  0.00    -0.744 OA
ENDBRANCH  77  81
ENDBRANCH  50  74
BRANCH  62  85
ATOM     85  C   UNL A   1      44.238  28.593  35.411  1.00  0.00     0.023 A 
ATOM     86  C   UNL A   1      44.110  27.547  36.342  1.00  0.00     0.031 A 
ATOM     87  C   UNL A   1      45.519  29.127  35.189  1.00  0.00     0.131 A 
ATOM     88  C   UNL A   1      45.236  27.108  37.058  1.00  0.00     0.055 A 
ATOM     89  C   UNL A   1      46.646  28.641  35.854  1.00  0.00     0.041 A 
ATOM     90  F   UNL A   1      45.701  30.130  34.315  1.00  0.00    -0.206 F 
ATOM     91  C   UNL A   1      46.505  27.634  36.805  1.00  0.00     0.022 A 
BRANCH  88  92
ATOM     92  S   UNL A   1      45.004  25.905  38.394  1.00  0.00     0.124 S 
ATOM     93  O   UNL A   1      44.007  25.006  37.823  1.00  0.00    -0.237 OA
ATOM     94  O   UNL A   1      46.344  25.352  38.554  1.00  0.00    -0.237 OA
ATOM     95  O   UNL A   1      44.534  26.720  39.513  1.00  0.00    -0.744 OA
ENDBRANCH  88  92
ENDBRANCH  62  85
ENDBRANCH  36  37
ENDBRANCH  28  31
ENDBRANCH  26  27
ENDBRANCH   1  26
TORSDOF 17
ENDMDL
MODEL 2
REMARK VINA RESULT:     -11.5      5.913     11.745
REMARK SMILES C[C@H](NC(=O)N[C@](C)(C(=O)NCCCNC(=O)c1ccc(-c2c3nc(c(-c4cc(S(=O)(=O)[O-])ccc4F)c4ccc([nH]4)c(-c4cc(S(=O)(=O)[O-])ccc4F)c4nc(c(-c5cc(S(=O)(=O)[O-])ccc5F)c5ccc2[nH]5)C=C4)C=C3)cc1)C(F)(F)F)C(N)=O
REMARK SMILES IDX 13 1 12 2 11 3 9 4 10 5 7 7 8 8 6 9 3 10 4 11 5 13 2 15 1 16
REMARK SMILES IDX 85 17 86 18 87 19 81 22 82 23 83 24 84 25 14 26 15 27 16 28
REMARK SMILES IDX 17 30 18 31 19 32 80 33 20 34 79 35 21 36 22 37 23 38 73 39
REMARK SMILES IDX 24 40 78 41 72 42 74 43 25 44 77 45 71 46 70 47 26 49 58 50
REMARK SMILES IDX 38 51 57 52 39 53 42 54 56 55 75 56 40 57 41 58 55 60 76 61
REMARK SMILES IDX 43 62 27 63 28 64 36 65 29 66 35 67 37 68 34 69 30 70 31 71
REMARK SMILES IDX 32 72 33 73 59 74 60 75 68 76 61 77 67 78 69 79 66 80 62 81
REMARK SMILES IDX 63 82 64 83 65 84 44 85 45 86 53 87 46 88 52 89 54 90 51 91
REMARK SMILES IDX 47 92 48 93 49 94 50 95
REMARK H PARENT 11 6 3 12 6 14 86 20 86 21 15 29 74 48 42 59
REMARK Flexibility Score: inf
ROOT
ATOM      1  C   UNL A   1      37.873  19.476  25.221  1.00  0.00     0.042 C 
ENDROOT
BRANCH   1   2
ATOM      2  C   UNL A   1      36.673  20.398  25.002  1.00  0.00     0.117 C 
BRANCH   2   3
ATOM      3  N   UNL A   1      37.038  21.537  24.171  1.00  0.00    -0.354 N 
ATOM      4  C   UNL A   1      36.312  22.614  23.740  1.00  0.00     0.255 C 
ATOM      5  O   UNL A   1      36.771  23.205  22.758  1.00  0.00    -0.272 OA
ATOM      6  H   UNL A   1      37.974  21.531  23.865  1.00  0.00     0.163 HD
BRANCH   4   7
ATOM      7  C   UNL A   1      34.967  23.003  24.377  1.00  0.00     0.213 C 
ATOM      8  C   UNL A   1      34.326  24.121  23.505  1.00  0.00     0.056 C 
BRANCH   7   9
ATOM      9  N   UNL A   1      34.044  21.828  24.371  1.00  0.00    -0.316 N 
ATOM     10  N   UNL A   1      31.736  22.243  24.848  1.00  0.00    -0.327 N 
ATOM     11  C   UNL A   1      32.780  21.501  24.548  1.00  0.00     0.316 C 
ATOM     12  H   UNL A   1      30.969  21.640  24.982  1.00  0.00     0.166 HD
ATOM     13  O   UNL A   1      32.546  20.290  24.435  1.00  0.00    -0.249 OA
ATOM     14  H   UNL A   1      34.558  21.016  24.162  1.00  0.00     0.166 HD
BRANCH  10  15
ATOM     15  C   UNL A   1      31.267  23.618  25.062  1.00  0.00     0.169 C 
ATOM     16  C   UNL A   1      30.637  24.293  23.857  1.00  0.00     0.041 C 
BRANCH  15  17
ATOM     17  C   UNL A   1      30.595  23.796  26.444  1.00  0.00     0.239 C 
ATOM     18  N   UNL A   1      29.597  24.722  26.541  1.00  0.00    -0.368 N 
ATOM     19  O   UNL A   1      31.006  23.249  27.467  1.00  0.00    -0.273 OA
ATOM     20  H   UNL A   1      29.258  25.167  25.731  1.00  0.00     0.159 HD
ATOM     21  H   UNL A   1      29.214  24.943  27.422  1.00  0.00     0.159 HD
ENDBRANCH  15  17
ENDBRANCH  10  15
ENDBRANCH   7   9
BRANCH   7  22
ATOM     22  C   UNL A   1      35.210  23.667  25.744  1.00  0.00     0.420 C 
ATOM     23  F   UNL A   1      36.337  24.421  25.745  1.00  0.00    -0.168 F 
ATOM     24  F   UNL A   1      34.191  24.515  26.044  1.00  0.00    -0.168 F 
ATOM     25  F   UNL A   1      35.310  22.809  26.769  1.00  0.00    -0.168 F 
ENDBRANCH   7  22
ENDBRANCH   4   7
ENDBRANCH   2   3
ENDBRANCH   1   2
BRANCH   1  26
ATOM     26  C   UNL A   1      39.151  20.219  25.605  1.00  0.00     0.118 C 
BRANCH  26  27
ATOM     27  N   UNL A   1      40.262  19.308  25.838  1.00  0.00    -0.352 N 
ATOM     28  C   UNL A   1      41.587  19.587  26.065  1.00  0.00     0.251 C 
ATOM     29  H   UNL A   1      40.030  18.351  25.831  1.00  0.00     0.163 HD
ATOM     30  O   UNL A   1      42.412  18.674  25.997  1.00  0.00    -0.269 OA
BRANCH  28  31
ATOM     31  C   UNL A   1      42.027  20.967  26.367  1.00  0.00     0.039 A 
ATOM     32  C   UNL A   1      42.219  21.342  27.699  1.00  0.00     0.014 A 
ATOM     33  C   UNL A   1      42.227  21.898  25.346  1.00  0.00     0.014 A 
ATOM     34  C   UNL A   1      42.669  22.631  28.000  1.00  0.00     0.010 A 
ATOM     35  C   UNL A   1      42.753  23.154  25.642  1.00  0.00     0.010 A 
ATOM     36  C   UNL A   1      42.973  23.538  26.973  1.00  0.00    -0.014 A 
BRANCH  36  37
ATOM     37  C   UNL A   1      43.496  24.900  27.269  1.00  0.00     0.031 A 
ATOM     38  C   UNL A   1      42.572  25.962  27.803  1.00  0.00     0.074 A 
ATOM     39  C   UNL A   1      44.784  25.197  27.001  1.00  0.00     0.049 A 
ATOM     40  N   UNL A   1      42.807  27.227  28.034  1.00  0.00    -0.248 NA
ATOM     41  C   UNL A   1      41.189  25.548  28.087  1.00  0.00     0.031 C 
ATOM     42  C   UNL A   1      45.770  24.263  26.454  1.00  0.00     0.029 A 
ATOM     43  N   UNL A   1      45.482  26.371  27.140  1.00  0.00    -0.354 N 
ATOM     44  C   UNL A   1      41.602  27.764  28.475  1.00  0.00     0.074 A 
ATOM     45  C   UNL A   1      40.625  26.699  28.416  1.00  0.00     0.031 C 
ATOM     46  C   UNL A   1      46.951  24.892  26.330  1.00  0.00     0.029 A 
ATOM     47  C   UNL A   1      46.796  26.287  26.733  1.00  0.00     0.049 A 
ATOM     48  H   UNL A   1      45.083  27.196  27.498  1.00  0.00     0.167 HD
ATOM     49  C   UNL A   1      41.342  29.022  28.911  1.00  0.00     0.034 A 
ATOM     50  C   UNL A   1      47.758  27.229  26.674  1.00  0.00     0.034 A 
ATOM     51  C   UNL A   1      42.332  30.070  28.975  1.00  0.00     0.049 A 
ATOM     52  C   UNL A   1      47.434  28.631  27.126  1.00  0.00     0.074 A 
ATOM     53  C   UNL A   1      42.188  31.364  29.443  1.00  0.00     0.029 A 
ATOM     54  N   UNL A   1      43.649  29.947  28.548  1.00  0.00    -0.354 N 
ATOM     55  N   UNL A   1      46.299  29.112  27.580  1.00  0.00    -0.248 NA
ATOM     56  C   UNL A   1      48.524  29.614  27.069  1.00  0.00     0.031 C 
ATOM     57  C   UNL A   1      43.391  32.045  29.229  1.00  0.00     0.029 A 
ATOM     58  C   UNL A   1      44.316  31.152  28.711  1.00  0.00     0.049 A 
ATOM     59  H   UNL A   1      44.050  29.126  28.182  1.00  0.00     0.167 HD
ATOM     60  C   UNL A   1      46.552  30.444  27.897  1.00  0.00     0.074 A 
ATOM     61  C   UNL A   1      47.947  30.686  27.594  1.00  0.00     0.031 C 
ATOM     62  C   UNL A   1      45.708  31.382  28.400  1.00  0.00     0.034 A 
BRANCH  49  63
ATOM     63  C   UNL A   1      39.921  29.335  29.326  1.00  0.00     0.023 A 
ATOM     64  C   UNL A   1      39.551  29.439  30.679  1.00  0.00     0.031 A 
ATOM     65  C   UNL A   1      38.918  29.510  28.356  1.00  0.00     0.131 A 
ATOM     66  C   UNL A   1      38.204  29.627  31.025  1.00  0.00     0.055 A 
ATOM     67  C   UNL A   1      37.595  29.786  28.707  1.00  0.00     0.041 A 
ATOM     68  F   UNL A   1      39.203  29.402  27.049  1.00  0.00    -0.206 F 
ATOM     69  C   UNL A   1      37.227  29.829  30.048  1.00  0.00     0.022 A 
BRANCH  66  70
ATOM     70  S   UNL A   1      37.725  29.445  32.765  1.00  0.00     0.124 S 
ATOM     71  O   UNL A   1      38.902  29.975  33.450  1.00  0.00    -0.237 OA
ATOM     72  O   UNL A   1      36.518  30.259  32.847  1.00  0.00    -0.237 OA
ATOM     73  O   UNL A   1      37.521  28.006  32.916  1.00  0.00    -0.744 OA
ENDBRANCH  66  70
ENDBRANCH  49  63
BRANCH  50  74
ATOM     74  C   UNL A   1      49.116  26.892  26.155  1.00  0.00     0.023 A 
ATOM     75  C   UNL A   1      49.532  27.315  24.882  1.00  0.00     0.031 A 
ATOM     76  C   UNL A   1      50.004  26.099  26.906  1.00  0.00     0.131 A 
ATOM     77  C   UNL A   1      50.774  26.901  24.376  1.00  0.00     0.055 A 
ATOM     78  C   UNL A   1      51.264  25.740  26.423  1.00  0.00     0.041 A 
ATOM     79  F   UNL A   1      49.661  25.669  28.130  1.00  0.00    -0.206 F 
ATOM     80  C   UNL A   1      51.649  26.129  25.144  1.00  0.00     0.022 A 
BRANCH  77  81
ATOM     81  S   UNL A   1      51.190  27.305  22.658  1.00  0.00     0.124 S 
ATOM     82  O   UNL A   1      51.234  28.762  22.700  1.00  0.00    -0.237 OA
ATOM     83  O   UNL A   1      52.470  26.627  22.490  1.00  0.00    -0.237 OA
ATOM     84  O   UNL A   1      50.080  26.735  21.897  1.00  0.00    -0.744 OA
ENDBRANCH  77  81
ENDBRANCH  50  74
BRANCH  62  85
ATOM     85  C   UNL A   1      46.291  32.741  28.708  1.00  0.00     0.023 A 
ATOM     86  C   UNL A   1      46.270  33.791  27.774  1.00  0.00     0.031 A 
ATOM     87  C   UNL A   1      46.880  32.985  29.962  1.00  0.00     0.131 A 
ATOM     88  C   UNL A   1      46.878  35.017  28.087  1.00  0.00     0.055 A 
ATOM     89  C   UNL A   1      47.424  34.227  30.292  1.00  0.00     0.041 A 
ATOM     90  F   UNL A   1      46.933  32.018  30.893  1.00  0.00    -0.206 F 
ATOM     91  C   UNL A   1      47.436  35.248  29.346  1.00  0.00     0.022 A 
BRANCH  88  92
ATOM     92  S   UNL A   1      47.016  36.277  26.790  1.00  0.00     0.124 S 
ATOM     93  O   UNL A   1      48.303  36.892  27.100  1.00  0.00    -0.237 OA
ATOM     94  O   UNL A   1      46.969  35.478  25.571  1.00  0.00    -0.237 OA
ATOM     95  O   UNL A   1      45.852  37.131  27.016  1.00  0.00    -0.744 OA
ENDBRANCH  88  92
ENDBRANCH  62  85
ENDBRANCH  36  37
ENDBRANCH  28  31
ENDBRANCH  26  27
ENDBRANCH   1  26
TORSDOF 17
ENDMDL
MODEL 3
REMARK VINA RESULT:     -11.4      2.453      3.616
REMARK SMILES C[C@H](NC(=O)N[C@](C)(C(=O)NCCCNC(=O)c1ccc(-c2c3nc(c(-c4cc(S(=O)(=O)[O-])ccc4F)c4ccc([nH]4)c(-c4cc(S(=O)(=O)[O-])ccc4F)c4nc(c(-c5cc(S(=O)(=O)[O-])ccc5F)c5ccc2[nH]5)C=C4)C=C3)cc1)C(F)(F)F)C(N)=O
REMARK SMILES IDX 13 1 12 2 11 3 9 4 10 5 7 7 8 8 6 9 3 10 4 11 5 13 2 15 1 16
REMARK SMILES IDX 85 17 86 18 87 19 81 22 82 23 83 24 84 25 14 26 15 27 16 28
REMARK SMILES IDX 17 30 18 31 19 32 80 33 20 34 79 35 21 36 22 37 23 38 73 39
REMARK SMILES IDX 24 40 78 41 72 42 74 43 25 44 77 45 71 46 70 47 26 49 58 50
REMARK SMILES IDX 38 51 57 52 39 53 42 54 56 55 75 56 40 57 41 58 55 60 76 61
REMARK SMILES IDX 43 62 27 63 28 64 36 65 29 66 35 67 37 68 34 69 30 70 31 71
REMARK SMILES IDX 32 72 33 73 59 74 60 75 68 76 61 77 67 78 69 79 66 80 62 81
REMARK SMILES IDX 63 82 64 83 65 84 44 85 45 86 53 87 46 88 52 89 54 90 51 91
REMARK SMILES IDX 47 92 48 93 49 94 50 95
REMARK H PARENT 11 6 3 12 6 14 86 20 86 21 15 29 74 48 42 59
REMARK Flexibility Score: inf
ROOT
ATOM      1  C   UNL A   1      32.906  28.787  24.005  1.00  0.00     0.042 C 
ENDROOT
BRANCH   1   2
ATOM      2  C   UNL A   1      34.022  27.954  23.374  1.00  0.00     0.117 C 
BRANCH   2   3
ATOM      3  N   UNL A   1      33.607  27.420  22.085  1.00  0.00    -0.354 N 
ATOM      4  C   UNL A   1      33.202  26.168  21.711  1.00  0.00     0.255 C 
ATOM      5  O   UNL A   1      33.277  25.924  20.503  1.00  0.00    -0.272 OA
ATOM      6  H   UNL A   1      33.621  28.077  21.352  1.00  0.00     0.163 HD
BRANCH   4   7
ATOM      7  C   UNL A   1      32.771  25.105  22.737  1.00  0.00     0.213 C 
ATOM      8  C   UNL A   1      32.688  23.734  22.005  1.00  0.00     0.056 C 
BRANCH   7   9
ATOM      9  N   UNL A   1      33.802  24.992  23.813  1.00  0.00    -0.316 N 
ATOM     10  N   UNL A   1      33.383  23.427  25.573  1.00  0.00    -0.327 N 
ATOM     11  C   UNL A   1      34.069  24.345  24.929  1.00  0.00     0.316 C 
ATOM     12  H   UNL A   1      33.856  23.236  26.415  1.00  0.00     0.166 HD
ATOM     13  O   UNL A   1      35.134  24.678  25.468  1.00  0.00    -0.249 OA
ATOM     14  H   UNL A   1      34.537  25.618  23.621  1.00  0.00     0.166 HD
BRANCH  10  15
ATOM     15  C   UNL A   1      32.187  22.577  25.530  1.00  0.00     0.169 C 
ATOM     16  C   UNL A   1      32.443  21.089  25.375  1.00  0.00     0.041 C 
BRANCH  15  17
ATOM     17  C   UNL A   1      31.105  23.040  26.535  1.00  0.00     0.239 C 
ATOM     18  N   UNL A   1      29.903  22.393  26.504  1.00  0.00    -0.368 N 
ATOM     19  O   UNL A   1      31.233  24.033  27.249  1.00  0.00    -0.273 OA
ATOM     20  H   UNL A   1      29.787  21.597  25.937  1.00  0.00     0.159 HD
ATOM     21  H   UNL A   1      29.153  22.723  27.051  1.00  0.00     0.159 HD
ENDBRANCH  15  17
ENDBRANCH  10  15
ENDBRANCH   7   9
BRANCH   7  22
ATOM     22  C   UNL A   1      31.332  25.385  23.204  1.00  0.00     0.420 C 
ATOM     23  F   UNL A   1      30.573  24.261  23.200  1.00  0.00    -0.168 F 
ATOM     24  F   UNL A   1      31.332  25.833  24.488  1.00  0.00    -0.168 F 
ATOM     25  F   UNL A   1      30.680  26.304  22.478  1.00  0.00    -0.168 F 
ENDBRANCH   7  22
ENDBRANCH   4   7
ENDBRANCH   2   3
ENDBRANCH   1   2
BRANCH   1  26
ATOM     26  C   UNL A   1      33.172  29.159  25.462  1.00  0.00     0.118 C 
BRANCH  26  27
ATOM     27  N   UNL A   1      32.661  30.482  25.789  1.00  0.00    -0.352 N 
ATOM     28  C   UNL A   1      32.980  31.306  26.840  1.00  0.00     0.251 C 
ATOM     29  H   UNL A   1      31.987  30.839  25.166  1.00  0.00     0.163 HD
ATOM     30  O   UNL A   1      32.263  32.280  27.077  1.00  0.00    -0.269 OA
BRANCH  28  31
ATOM     31  C   UNL A   1      34.155  31.022  27.692  1.00  0.00     0.039 A 
ATOM     32  C   UNL A   1      34.324  29.736  28.211  1.00  0.00     0.014 A 
ATOM     33  C   UNL A   1      35.079  32.024  28.001  1.00  0.00     0.014 A 
ATOM     34  C   UNL A   1      35.448  29.442  28.988  1.00  0.00     0.010 A 
ATOM     35  C   UNL A   1      36.238  31.709  28.706  1.00  0.00     0.010 A 
ATOM     36  C   UNL A   1      36.433  30.415  29.215  1.00  0.00    -0.014 A 
BRANCH  36  37
ATOM     37  C   UNL A   1      37.660  30.112  30.001  1.00  0.00     0.031 A 
ATOM     38  C   UNL A   1      38.724  29.219  29.420  1.00  0.00     0.074 A 
ATOM     39  C   UNL A   1      37.789  30.588  31.256  1.00  0.00     0.049 A 
ATOM     40  N   UNL A   1      39.816  28.759  29.975  1.00  0.00    -0.248 NA
ATOM     41  C   UNL A   1      38.515  28.760  28.038  1.00  0.00     0.031 C 
ATOM     42  C   UNL A   1      36.813  31.439  31.940  1.00  0.00     0.029 A 
ATOM     43  N   UNL A   1      38.786  30.417  32.184  1.00  0.00    -0.354 N 
ATOM     44  C   UNL A   1      40.415  27.945  29.019  1.00  0.00     0.074 A 
ATOM     45  C   UNL A   1      39.531  27.926  27.874  1.00  0.00     0.031 C 
ATOM     46  C   UNL A   1      37.272  31.736  33.167  1.00  0.00     0.029 A 
ATOM     47  C   UNL A   1      38.545  31.054  33.381  1.00  0.00     0.049 A 
ATOM     48  H   UNL A   1      39.598  29.888  32.010  1.00  0.00     0.167 HD
ATOM     49  C   UNL A   1      41.604  27.295  29.082  1.00  0.00     0.034 A 
ATOM     50  C   UNL A   1      39.258  31.072  34.525  1.00  0.00     0.034 A 
ATOM     51  C   UNL A   1      42.480  27.335  30.227  1.00  0.00     0.049 A 
ATOM     52  C   UNL A   1      40.558  30.307  34.585  1.00  0.00     0.074 A 
ATOM     53  C   UNL A   1      43.727  26.753  30.380  1.00  0.00     0.029 A 
ATOM     54  N   UNL A   1      42.198  27.985  31.422  1.00  0.00    -0.354 N 
ATOM     55  N   UNL A   1      41.132  29.576  33.656  1.00  0.00    -0.248 NA
ATOM     56  C   UNL A   1      41.312  30.380  35.843  1.00  0.00     0.031 C 
ATOM     57  C   UNL A   1      44.162  26.986  31.688  1.00  0.00     0.029 A 
ATOM     58  C   UNL A   1      43.231  27.790  32.326  1.00  0.00     0.049 A 
ATOM     59  H   UNL A   1      41.384  28.509  31.602  1.00  0.00     0.167 HD
ATOM     60  C   UNL A   1      42.331  29.135  34.208  1.00  0.00     0.074 A 
ATOM     61  C   UNL A   1      42.403  29.691  35.543  1.00  0.00     0.031 C 
ATOM     62  C   UNL A   1      43.290  28.345  33.658  1.00  0.00     0.034 A 
BRANCH  49  63
ATOM     63  C   UNL A   1      42.007  26.464  27.884  1.00  0.00     0.023 A 
ATOM     64  C   UNL A   1      41.608  25.123  27.746  1.00  0.00     0.031 A 
ATOM     65  C   UNL A   1      42.822  27.012  26.877  1.00  0.00     0.131 A 
ATOM     66  C   UNL A   1      42.088  24.354  26.674  1.00  0.00     0.055 A 
ATOM     67  C   UNL A   1      43.222  26.267  25.766  1.00  0.00     0.041 A 
ATOM     68  F   UNL A   1      43.254  28.280  26.962  1.00  0.00    -0.206 F 
ATOM     69  C   UNL A   1      42.870  24.925  25.668  1.00  0.00     0.022 A 
BRANCH  66  70
ATOM     70  S   UNL A   1      41.805  22.563  26.699  1.00  0.00     0.124 S 
ATOM     71  O   UNL A   1      40.365  22.496  26.936  1.00  0.00    -0.237 OA
ATOM     72  O   UNL A   1      42.254  22.154  25.373  1.00  0.00    -0.237 OA
ATOM     73  O   UNL A   1      42.634  22.101  27.811  1.00  0.00    -0.744 OA
ENDBRANCH  66  70
ENDBRANCH  49  63
BRANCH  50  74
ATOM     74  C   UNL A   1      38.762  31.822  35.715  1.00  0.00     0.023 A 
ATOM     75  C   UNL A   1      38.155  31.154  36.791  1.00  0.00     0.031 A 
ATOM     76  C   UNL A   1      38.843  33.226  35.774  1.00  0.00     0.131 A 
ATOM     77  C   UNL A   1      37.606  31.890  37.853  1.00  0.00     0.055 A 
ATOM     78  C   UNL A   1      38.349  33.950  36.861  1.00  0.00     0.041 A 
ATOM     79  F   UNL A   1      39.414  33.915  34.775  1.00  0.00    -0.206 F 
ATOM     80  C   UNL A   1      37.712  33.282  37.902  1.00  0.00     0.022 A 
BRANCH  77  81
ATOM     81  S   UNL A   1      36.661  31.007  39.125  1.00  0.00     0.124 S 
ATOM     82  O   UNL A   1      35.475  31.847  39.247  1.00  0.00    -0.237 OA
ATOM     83  O   UNL A   1      36.464  29.702  38.503  1.00  0.00    -0.237 OA
ATOM     84  O   UNL A   1      37.555  31.016  40.280  1.00  0.00    -0.744 OA
ENDBRANCH  77  81
ENDBRANCH  50  74
BRANCH  62  85
ATOM     85  C   UNL A   1      44.529  28.088  34.484  1.00  0.00     0.023 A 
ATOM     86  C   UNL A   1      44.633  26.981  35.344  1.00  0.00     0.031 A 
ATOM     87  C   UNL A   1      45.621  28.970  34.407  1.00  0.00     0.131 A 
ATOM     88  C   UNL A   1      45.782  26.817  36.135  1.00  0.00     0.055 A 
ATOM     89  C   UNL A   1      46.787  28.766  35.145  1.00  0.00     0.041 A 
ATOM     90  F   UNL A   1      45.575  30.047  33.605  1.00  0.00    -0.206 F 
ATOM     91  C   UNL A   1      46.866  27.691  36.026  1.00  0.00     0.022 A 
BRANCH  88  92
ATOM     92  S   UNL A   1      45.801  25.500  37.381  1.00  0.00     0.124 S 
ATOM     93  O   UNL A   1      47.175  25.564  37.869  1.00  0.00    -0.237 OA
ATOM     94  O   UNL A   1      44.771  25.940  38.316  1.00  0.00    -0.237 OA
ATOM     95  O   UNL A   1      45.471  24.299  36.617  1.00  0.00    -0.744 OA
ENDBRANCH  88  92
ENDBRANCH  62  85
ENDBRANCH  36  37
ENDBRANCH  28  31
ENDBRANCH  26  27
ENDBRANCH   1  26
TORSDOF 17
ENDMDL
