MODEL 1
REMARK VINA RESULT:     -12.4      0.000      0.000
REMARK SMILES COc1ccc(NC(=O)[C@@H]2[C@@H](C(=O)NCCCNC(=O)c3ccc(-c4c5nc(c(-c6cc(S(=O)(=O)[O-])ccc6F)c6ccc([nH]6)c(-c6cc(S(=O)(=O)[O-])ccc6F)c6nc(c(-c7cc(S(=O)(=O)[O-])ccc7F)c7ccc4[nH]7)C=C6)C=C5)cc3)[C@H]3C=C[C@@H]2C3)cc1O
REMARK SMILES IDX 16 1 15 2 14 3 12 4 13 5 11 7 10 8 87 9 84 10 86 11 88 12
REMARK SMILES IDX 85 13 8 14 7 15 9 17 6 18 3 19 4 20 90 21 5 22 89 23 2 24
REMARK SMILES IDX 1 25 91 26 17 28 18 29 19 30 20 32 21 33 22 34 83 35 23 36
REMARK SMILES IDX 82 37 24 38 25 39 26 40 76 41 27 42 81 43 75 44 77 45 28 46
REMARK SMILES IDX 80 47 74 48 73 49 29 51 61 52 41 53 60 54 42 55 45 56 59 57
REMARK SMILES IDX 78 58 43 59 44 60 58 62 79 63 46 64 30 65 31 66 39 67 32 68
REMARK SMILES IDX 38 69 40 70 37 71 33 72 34 73 35 74 36 75 62 76 63 77 71 78
REMARK SMILES IDX 64 79 70 80 72 81 69 82 65 83 66 84 67 85 68 86 47 87 48 88
REMARK SMILES IDX 56 89 49 90 55 91 57 92 54 93 50 94 51 95 52 96 53 97
REMARK H PARENT 14 6 7 16 91 27 18 31 77 50 45 61
REMARK Flexibility Score: inf
ROOT
ATOM      1  C   UNL A   1      30.861  30.944  25.344  1.00  0.00     0.042 C 
ENDROOT
BRANCH   1   2
ATOM      2  C   UNL A   1      30.949  29.631  24.547  1.00  0.00     0.117 C 
BRANCH   2   3
ATOM      3  N   UNL A   1      32.226  29.490  23.865  1.00  0.00    -0.356 N 
ATOM      4  C   UNL A   1      33.111  28.468  23.712  1.00  0.00     0.224 C 
ATOM      5  O   UNL A   1      34.159  28.791  23.140  1.00  0.00    -0.275 OA
ATOM      6  H   UNL A   1      32.515  30.317  23.417  1.00  0.00     0.163 HD
BRANCH   4   7
ATOM      7  C   UNL A   1      32.867  27.014  24.190  1.00  0.00     0.098 C 
ATOM      8  C   UNL A   1      31.393  26.877  24.764  1.00  0.00     0.099 C 
ATOM      9  C   UNL A   1      31.712  26.489  26.258  1.00  0.00     0.025 C 
ATOM     10  C   UNL A   1      33.766  26.606  25.393  1.00  0.00     0.025 C 
ATOM     11  C   UNL A   1      32.448  27.614  26.959  1.00  0.00    -0.027 C 
ATOM     12  C   UNL A   1      32.893  25.535  26.056  1.00  0.00     0.017 C 
ATOM     13  C   UNL A   1      33.694  27.653  26.468  1.00  0.00    -0.027 C 
BRANCH   8  14
ATOM     14  C   UNL A   1      30.241  25.943  24.285  1.00  0.00     0.228 C 
ATOM     15  N   UNL A   1      30.246  24.686  23.769  1.00  0.00    -0.326 N 
ATOM     16  H   UNL A   1      29.410  24.481  23.290  1.00  0.00     0.169 HD
ATOM     17  O   UNL A   1      29.092  26.431  24.281  1.00  0.00    -0.274 OA
BRANCH  15  18
ATOM     18  C   UNL A   1      31.137  23.609  23.746  1.00  0.00     0.045 A 
ATOM     19  C   UNL A   1      33.288  21.888  24.245  1.00  0.00     0.160 A 
ATOM     20  C   UNL A   1      33.367  22.881  23.295  1.00  0.00     0.052 A 
ATOM     21  C   UNL A   1      32.076  21.704  24.895  1.00  0.00     0.159 A 
ATOM     22  C   UNL A   1      32.228  23.583  22.924  1.00  0.00     0.030 A 
ATOM     23  C   UNL A   1      31.009  22.582  24.687  1.00  0.00     0.076 A 
BRANCH  19  24
ATOM     24  O   UNL A   1      34.342  21.091  24.590  1.00  0.00    -0.493 OA
ATOM     25  C   UNL A   1      35.123  21.611  25.669  1.00  0.00     0.278 C 
ENDBRANCH  19  24
BRANCH  21  26
ATOM     26  O   UNL A   1      31.931  20.670  25.772  1.00  0.00    -0.504 OA
ATOM     27  H   UNL A   1      32.224  19.811  25.536  1.00  0.00     0.293 HD
ENDBRANCH  21  26
ENDBRANCH  15  18
ENDBRANCH   8  14
ENDBRANCH   4   7
ENDBRANCH   2   3
ENDBRANCH   1   2
BRANCH   1  28
ATOM     28  C   UNL A   1      31.897  31.195  26.432  1.00  0.00     0.118 C 
BRANCH  28  29
ATOM     29  N   UNL A   1      31.996  32.608  26.772  1.00  0.00    -0.352 N 
ATOM     30  C   UNL A   1      32.829  33.327  27.600  1.00  0.00     0.251 C 
ATOM     31  H   UNL A   1      31.325  33.165  26.316  1.00  0.00     0.163 HD
ATOM     32  O   UNL A   1      32.494  34.479  27.865  1.00  0.00    -0.269 OA
BRANCH  30  33
ATOM     33  C   UNL A   1      34.079  32.780  28.202  1.00  0.00     0.039 A 
ATOM     34  C   UNL A   1      35.231  33.585  28.178  1.00  0.00     0.014 A 
ATOM     35  C   UNL A   1      34.187  31.487  28.710  1.00  0.00     0.014 A 
ATOM     36  C   UNL A   1      36.441  33.128  28.720  1.00  0.00     0.010 A 
ATOM     37  C   UNL A   1      35.369  31.062  29.329  1.00  0.00     0.010 A 
ATOM     38  C   UNL A   1      36.510  31.877  29.348  1.00  0.00    -0.014 A 
BRANCH  38  39
ATOM     39  C   UNL A   1      37.744  31.412  30.048  1.00  0.00     0.031 A 
ATOM     40  C   UNL A   1      38.635  30.371  29.417  1.00  0.00     0.074 A 
ATOM     41  C   UNL A   1      38.010  31.859  31.294  1.00  0.00     0.049 A 
ATOM     42  N   UNL A   1      39.653  29.731  29.932  1.00  0.00    -0.248 NA
ATOM     43  C   UNL A   1      38.323  29.983  28.033  1.00  0.00     0.031 C 
ATOM     44  C   UNL A   1      37.214  32.850  32.023  1.00  0.00     0.029 A 
ATOM     45  N   UNL A   1      39.003  31.521  32.183  1.00  0.00    -0.354 N 
ATOM     46  C   UNL A   1      40.084  28.842  28.950  1.00  0.00     0.074 A 
ATOM     47  C   UNL A   1      39.194  29.007  27.820  1.00  0.00     0.031 C 
ATOM     48  C   UNL A   1      37.747  33.039  33.240  1.00  0.00     0.029 A 
ATOM     49  C   UNL A   1      38.883  32.138  33.408  1.00  0.00     0.049 A 
ATOM     50  H   UNL A   1      39.732  30.897  31.963  1.00  0.00     0.167 HD
ATOM     51  C   UNL A   1      41.129  27.977  28.989  1.00  0.00     0.034 A 
ATOM     52  C   UNL A   1      39.577  31.972  34.554  1.00  0.00     0.034 A 
ATOM     53  C   UNL A   1      42.021  27.848  30.114  1.00  0.00     0.049 A 
ATOM     54  C   UNL A   1      40.711  30.976  34.580  1.00  0.00     0.074 A 
ATOM     55  C   UNL A   1      43.164  27.072  30.219  1.00  0.00     0.029 A 
ATOM     56  N   UNL A   1      41.868  28.490  31.335  1.00  0.00    -0.354 N 
ATOM     57  N   UNL A   1      41.146  30.197  33.616  1.00  0.00    -0.248 NA
ATOM     58  C   UNL A   1      41.447  30.835  35.844  1.00  0.00     0.031 C 
ATOM     59  C   UNL A   1      43.647  27.177  31.527  1.00  0.00     0.029 A 
ATOM     60  C   UNL A   1      42.860  28.086  32.214  1.00  0.00     0.049 A 
ATOM     61  H   UNL A   1      41.157  29.139  31.545  1.00  0.00     0.167 HD
ATOM     62  C   UNL A   1      42.221  29.494  34.153  1.00  0.00     0.074 A 
ATOM     63  C   UNL A   1      42.382  29.956  35.515  1.00  0.00     0.031 C 
ATOM     64  C   UNL A   1      43.002  28.548  33.574  1.00  0.00     0.034 A 
BRANCH  51  65
ATOM     65  C   UNL A   1      41.349  27.072  27.800  1.00  0.00     0.023 A 
ATOM     66  C   UNL A   1      40.962  25.722  27.806  1.00  0.00     0.031 A 
ATOM     67  C   UNL A   1      41.934  27.583  26.626  1.00  0.00     0.131 A 
ATOM     68  C   UNL A   1      41.211  24.916  26.683  1.00  0.00     0.055 A 
ATOM     69  C   UNL A   1      42.111  26.796  25.486  1.00  0.00     0.041 A 
ATOM     70  F   UNL A   1      42.343  28.860  26.567  1.00  0.00    -0.206 F 
ATOM     71  C   UNL A   1      41.757  25.451  25.514  1.00  0.00     0.022 A 
BRANCH  68  72
ATOM     72  S   UNL A   1      40.913  23.132  26.812  1.00  0.00     0.124 S 
ATOM     73  O   UNL A   1      41.798  22.610  25.772  1.00  0.00    -0.237 OA
ATOM     74  O   UNL A   1      41.304  22.845  28.186  1.00  0.00    -0.237 OA
ATOM     75  O   UNL A   1      39.485  23.002  26.528  1.00  0.00    -0.744 OA
ENDBRANCH  68  72
ENDBRANCH  51  65
BRANCH  52  76
ATOM     76  C   UNL A   1      39.193  32.717  35.793  1.00  0.00     0.023 A 
ATOM     77  C   UNL A   1      39.643  34.026  36.021  1.00  0.00     0.031 A 
ATOM     78  C   UNL A   1      38.425  32.102  36.799  1.00  0.00     0.131 A 
ATOM     79  C   UNL A   1      39.373  34.656  37.247  1.00  0.00     0.055 A 
ATOM     80  C   UNL A   1      38.104  32.757  37.989  1.00  0.00     0.041 A 
ATOM     81  F   UNL A   1      37.968  30.850  36.636  1.00  0.00    -0.206 F 
ATOM     82  C   UNL A   1      38.594  34.036  38.226  1.00  0.00     0.022 A 
BRANCH  79  83
ATOM     83  S   UNL A   1      40.162  36.253  37.591  1.00  0.00     0.124 S 
ATOM     84  O   UNL A   1      41.394  35.839  38.253  1.00  0.00    -0.237 OA
ATOM     85  O   UNL A   1      40.310  36.810  36.251  1.00  0.00    -0.237 OA
ATOM     86  O   UNL A   1      39.192  36.934  38.445  1.00  0.00    -0.744 OA
ENDBRANCH  79  83
ENDBRANCH  52  76
BRANCH  64  87
ATOM     87  C   UNL A   1      44.123  27.974  34.406  1.00  0.00     0.023 A 
ATOM     88  C   UNL A   1      43.971  26.774  35.120  1.00  0.00     0.031 A 
ATOM     89  C   UNL A   1      45.364  28.633  34.475  1.00  0.00     0.131 A 
ATOM     90  C   UNL A   1      45.027  26.290  35.907  1.00  0.00     0.055 A 
ATOM     91  C   UNL A   1      46.431  28.115  35.210  1.00  0.00     0.041 A 
ATOM     92  F   UNL A   1      45.563  29.787  33.817  1.00  0.00    -0.206 F 
ATOM     93  C   UNL A   1      46.262  26.942  35.940  1.00  0.00     0.022 A 
BRANCH  90  94
ATOM     94  S   UNL A   1      44.741  24.835  36.949  1.00  0.00     0.124 S 
ATOM     95  O   UNL A   1      46.085  24.279  37.068  1.00  0.00    -0.237 OA
ATOM     96  O   UNL A   1      44.184  25.424  38.163  1.00  0.00    -0.237 OA
ATOM     97  O   UNL A   1      43.804  24.031  36.167  1.00  0.00    -0.744 OA
ENDBRANCH  90  94
ENDBRANCH  64  87
ENDBRANCH  38  39
ENDBRANCH  30  33
ENDBRANCH  28  29
ENDBRANCH   1  28
TORSDOF 17
ENDMDL
MODEL 2
REMARK VINA RESULT:     -12.3      4.879     10.085
REMARK SMILES COc1ccc(NC(=O)[C@@H]2[C@@H](C(=O)NCCCNC(=O)c3ccc(-c4c5nc(c(-c6cc(S(=O)(=O)[O-])ccc6F)c6ccc([nH]6)c(-c6cc(S(=O)(=O)[O-])ccc6F)c6nc(c(-c7cc(S(=O)(=O)[O-])ccc7F)c7ccc4[nH]7)C=C6)C=C5)cc3)[C@H]3C=C[C@@H]2C3)cc1O
REMARK SMILES IDX 16 1 15 2 14 3 12 4 13 5 11 7 10 8 87 9 84 10 86 11 88 12
REMARK SMILES IDX 85 13 8 14 7 15 9 17 6 18 3 19 4 20 90 21 5 22 89 23 2 24
REMARK SMILES IDX 1 25 91 26 17 28 18 29 19 30 20 32 21 33 22 34 83 35 23 36
REMARK SMILES IDX 82 37 24 38 25 39 26 40 76 41 27 42 81 43 75 44 77 45 28 46
REMARK SMILES IDX 80 47 74 48 73 49 29 51 61 52 41 53 60 54 42 55 45 56 59 57
REMARK SMILES IDX 78 58 43 59 44 60 58 62 79 63 46 64 30 65 31 66 39 67 32 68
REMARK SMILES IDX 38 69 40 70 37 71 33 72 34 73 35 74 36 75 62 76 63 77 71 78
REMARK SMILES IDX 64 79 70 80 72 81 69 82 65 83 66 84 67 85 68 86 47 87 48 88
REMARK SMILES IDX 56 89 49 90 55 91 57 92 54 93 50 94 51 95 52 96 53 97
REMARK H PARENT 14 6 7 16 91 27 18 31 77 50 45 61
REMARK Flexibility Score: inf
ROOT
ATOM      1  C   UNL A   1      35.298  22.228  25.481  1.00  0.00     0.042 C 
ENDROOT
BRANCH   1   2
ATOM      2  C   UNL A   1      35.067  23.670  25.965  1.00  0.00     0.117 C 
BRANCH   2   3
ATOM      3  N   UNL A   1      34.788  24.578  24.863  1.00  0.00    -0.356 N 
ATOM      4  C   UNL A   1      33.808  25.486  24.606  1.00  0.00     0.224 C 
ATOM      5  O   UNL A   1      33.870  25.989  23.479  1.00  0.00    -0.275 OA
ATOM      6  H   UNL A   1      35.457  24.522  24.143  1.00  0.00     0.163 HD
BRANCH   4   7
ATOM      7  C   UNL A   1      32.696  25.887  25.610  1.00  0.00     0.098 C 
ATOM      8  C   UNL A   1      31.526  26.639  24.843  1.00  0.00     0.099 C 
ATOM      9  C   UNL A   1      31.592  28.047  25.549  1.00  0.00     0.025 C 
ATOM     10  C   UNL A   1      33.170  26.929  26.664  1.00  0.00     0.025 C 
ATOM     11  C   UNL A   1      32.921  28.723  25.277  1.00  0.00    -0.027 C 
ATOM     12  C   UNL A   1      31.846  27.623  26.999  1.00  0.00     0.017 C 
ATOM     13  C   UNL A   1      33.859  28.076  25.981  1.00  0.00    -0.027 C 
BRANCH   8  14
ATOM     14  C   UNL A   1      30.021  26.250  24.736  1.00  0.00     0.228 C 
ATOM     15  N   UNL A   1      28.952  26.895  24.199  1.00  0.00    -0.326 N 
ATOM     16  H   UNL A   1      28.099  26.544  24.545  1.00  0.00     0.169 HD
ATOM     17  O   UNL A   1      29.676  25.196  25.309  1.00  0.00    -0.274 OA
BRANCH  15  18
ATOM     18  C   UNL A   1      28.756  27.930  23.280  1.00  0.00     0.045 A 
ATOM     19  C   UNL A   1      28.589  30.440  22.053  1.00  0.00     0.160 A 
ATOM     20  C   UNL A   1      27.523  29.902  22.737  1.00  0.00     0.052 A 
ATOM     21  C   UNL A   1      29.731  29.664  21.912  1.00  0.00     0.159 A 
ATOM     22  C   UNL A   1      27.561  28.579  23.157  1.00  0.00     0.030 A 
ATOM     23  C   UNL A   1      29.843  28.428  22.555  1.00  0.00     0.076 A 
BRANCH  19  24
ATOM     24  O   UNL A   1      28.587  31.700  21.524  1.00  0.00    -0.493 OA
ATOM     25  C   UNL A   1      28.581  32.734  22.511  1.00  0.00     0.278 C 
ENDBRANCH  19  24
BRANCH  21  26
ATOM     26  O   UNL A   1      30.771  30.124  21.159  1.00  0.00    -0.504 OA
ATOM     27  H   UNL A   1      31.442  30.645  21.555  1.00  0.00     0.293 HD
ENDBRANCH  21  26
ENDBRANCH  15  18
ENDBRANCH   8  14
ENDBRANCH   4   7
ENDBRANCH   2   3
ENDBRANCH   1   2
BRANCH   1  28
ATOM     28  C   UNL A   1      36.475  21.962  24.551  1.00  0.00     0.118 C 
BRANCH  28  29
ATOM     29  N   UNL A   1      37.341  20.907  25.061  1.00  0.00    -0.352 N 
ATOM     30  C   UNL A   1      38.565  20.910  25.692  1.00  0.00     0.251 C 
ATOM     31  H   UNL A   1      36.975  20.003  24.925  1.00  0.00     0.163 HD
ATOM     32  O   UNL A   1      39.153  19.833  25.773  1.00  0.00    -0.269 OA
BRANCH  30  33
ATOM     33  C   UNL A   1      39.214  22.132  26.246  1.00  0.00     0.039 A 
ATOM     34  C   UNL A   1      40.296  21.965  27.128  1.00  0.00     0.014 A 
ATOM     35  C   UNL A   1      38.754  23.425  26.003  1.00  0.00     0.014 A 
ATOM     36  C   UNL A   1      40.944  23.073  27.691  1.00  0.00     0.010 A 
ATOM     37  C   UNL A   1      39.454  24.534  26.494  1.00  0.00     0.010 A 
ATOM     38  C   UNL A   1      40.562  24.375  27.340  1.00  0.00    -0.014 A 
BRANCH  38  39
ATOM     39  C   UNL A   1      41.311  25.574  27.818  1.00  0.00     0.031 A 
ATOM     40  C   UNL A   1      40.601  26.667  28.577  1.00  0.00     0.074 A 
ATOM     41  C   UNL A   1      42.611  25.722  27.484  1.00  0.00     0.049 A 
ATOM     42  N   UNL A   1      41.040  27.847  28.933  1.00  0.00    -0.248 NA
ATOM     43  C   UNL A   1      39.206  26.406  28.964  1.00  0.00     0.031 C 
ATOM     44  C   UNL A   1      43.406  24.747  26.734  1.00  0.00     0.029 A 
ATOM     45  N   UNL A   1      43.489  26.758  27.704  1.00  0.00    -0.354 N 
ATOM     46  C   UNL A   1      39.969  28.482  29.557  1.00  0.00     0.074 A 
ATOM     47  C   UNL A   1      38.851  27.565  29.501  1.00  0.00     0.031 C 
ATOM     48  C   UNL A   1      44.647  25.227  26.558  1.00  0.00     0.029 A 
ATOM     49  C   UNL A   1      44.723  26.571  27.121  1.00  0.00     0.049 A 
ATOM     50  H   UNL A   1      43.257  27.557  28.229  1.00  0.00     0.167 HD
ATOM     51  C   UNL A   1      39.929  29.713  30.128  1.00  0.00     0.034 A 
ATOM     52  C   UNL A   1      45.784  27.398  27.013  1.00  0.00     0.034 A 
ATOM     53  C   UNL A   1      41.063  30.602  30.198  1.00  0.00     0.049 A 
ATOM     54  C   UNL A   1      45.698  28.775  27.625  1.00  0.00     0.074 A 
ATOM     55  C   UNL A   1      41.154  31.828  30.836  1.00  0.00     0.029 A 
ATOM     56  N   UNL A   1      42.294  30.376  29.599  1.00  0.00    -0.354 N 
ATOM     57  N   UNL A   1      44.699  29.328  28.273  1.00  0.00    -0.248 NA
ATOM     58  C   UNL A   1      46.880  29.639  27.493  1.00  0.00     0.031 C 
ATOM     59  C   UNL A   1      42.406  32.380  30.548  1.00  0.00     0.029 A 
ATOM     60  C   UNL A   1      43.130  31.462  29.805  1.00  0.00     0.049 A 
ATOM     61  H   UNL A   1      42.538  29.562  29.100  1.00  0.00     0.167 HD
ATOM     62  C   UNL A   1      45.143  30.594  28.645  1.00  0.00     0.074 A 
ATOM     63  C   UNL A   1      46.505  30.714  28.171  1.00  0.00     0.031 C 
ATOM     64  C   UNL A   1      44.483  31.572  29.316  1.00  0.00     0.034 A 
BRANCH  51  65
ATOM     65  C   UNL A   1      38.613  30.194  30.691  1.00  0.00     0.023 A 
ATOM     66  C   UNL A   1      37.639  30.813  29.890  1.00  0.00     0.031 A 
ATOM     67  C   UNL A   1      38.319  30.003  32.053  1.00  0.00     0.131 A 
ATOM     68  C   UNL A   1      36.441  31.265  30.466  1.00  0.00     0.055 A 
ATOM     69  C   UNL A   1      37.095  30.387  32.605  1.00  0.00     0.041 A 
ATOM     70  F   UNL A   1      39.217  29.436  32.873  1.00  0.00    -0.206 F 
ATOM     71  C   UNL A   1      36.151  31.031  31.813  1.00  0.00     0.022 A 
BRANCH  68  72
ATOM     72  S   UNL A   1      35.314  32.263  29.455  1.00  0.00     0.124 S 
ATOM     73  O   UNL A   1      34.801  31.268  28.516  1.00  0.00    -0.237 OA
ATOM     74  O   UNL A   1      34.361  32.760  30.441  1.00  0.00    -0.237 OA
ATOM     75  O   UNL A   1      36.187  33.275  28.865  1.00  0.00    -0.744 OA
ENDBRANCH  68  72
ENDBRANCH  51  65
BRANCH  52  76
ATOM     76  C   UNL A   1      47.000  26.982  26.249  1.00  0.00     0.023 A 
ATOM     77  C   UNL A   1      48.054  26.302  26.877  1.00  0.00     0.031 A 
ATOM     78  C   UNL A   1      47.154  27.320  24.891  1.00  0.00     0.131 A 
ATOM     79  C   UNL A   1      49.238  26.035  26.168  1.00  0.00     0.055 A 
ATOM     80  C   UNL A   1      48.305  26.994  24.172  1.00  0.00     0.041 A 
ATOM     81  F   UNL A   1      46.178  27.972  24.238  1.00  0.00    -0.206 F 
ATOM     82  C   UNL A   1      49.364  26.362  24.817  1.00  0.00     0.022 A 
BRANCH  79  83
ATOM     83  S   UNL A   1      50.656  25.361  27.076  1.00  0.00     0.124 S 
ATOM     84  O   UNL A   1      51.520  24.918  25.988  1.00  0.00    -0.237 OA
ATOM     85  O   UNL A   1      51.114  26.526  27.826  1.00  0.00    -0.237 OA
ATOM     86  O   UNL A   1      50.067  24.294  27.881  1.00  0.00    -0.744 OA
ENDBRANCH  79  83
ENDBRANCH  52  76
BRANCH  64  87
ATOM     87  C   UNL A   1      45.242  32.845  29.602  1.00  0.00     0.023 A 
ATOM     88  C   UNL A   1      45.196  33.943  28.727  1.00  0.00     0.031 A 
ATOM     89  C   UNL A   1      46.011  32.964  30.774  1.00  0.00     0.131 A 
ATOM     90  C   UNL A   1      45.940  35.097  29.014  1.00  0.00     0.055 A 
ATOM     91  C   UNL A   1      46.699  34.137  31.085  1.00  0.00     0.041 A 
ATOM     92  F   UNL A   1      46.094  31.944  31.644  1.00  0.00    -0.206 F 
ATOM     93  C   UNL A   1      46.674  35.209  30.197  1.00  0.00     0.022 A 
BRANCH  90  94
ATOM     94  S   UNL A   1      45.996  36.426  27.782  1.00  0.00     0.124 S 
ATOM     95  O   UNL A   1      46.487  35.723  26.600  1.00  0.00    -0.237 OA
ATOM     96  O   UNL A   1      44.605  36.865  27.730  1.00  0.00    -0.237 OA
ATOM     97  O   UNL A   1      46.928  37.392  28.361  1.00  0.00    -0.744 OA
ENDBRANCH  90  94
ENDBRANCH  64  87
ENDBRANCH  38  39
ENDBRANCH  30  33
ENDBRANCH  28  29
ENDBRANCH   1  28
TORSDOF 17
ENDMDL
MODEL 3
REMARK VINA RESULT:     -12.3      2.086      3.635
REMARK SMILES COc1ccc(NC(=O)[C@@H]2[C@@H](C(=O)NCCCNC(=O)c3ccc(-c4c5nc(c(-c6cc(S(=O)(=O)[O-])ccc6F)c6ccc([nH]6)c(-c6cc(S(=O)(=O)[O-])ccc6F)c6nc(c(-c7cc(S(=O)(=O)[O-])ccc7F)c7ccc4[nH]7)C=C6)C=C5)cc3)[C@H]3C=C[C@@H]2C3)cc1O
REMARK SMILES IDX 16 1 15 2 14 3 12 4 13 5 11 7 10 8 87 9 84 10 86 11 88 12
REMARK SMILES IDX 85 13 8 14 7 15 9 17 6 18 3 19 4 20 90 21 5 22 89 23 2 24
REMARK SMILES IDX 1 25 91 26 17 28 18 29 19 30 20 32 21 33 22 34 83 35 23 36
REMARK SMILES IDX 82 37 24 38 25 39 26 40 76 41 27 42 81 43 75 44 77 45 28 46
REMARK SMILES IDX 80 47 74 48 73 49 29 51 61 52 41 53 60 54 42 55 45 56 59 57
REMARK SMILES IDX 78 58 43 59 44 60 58 62 79 63 46 64 30 65 31 66 39 67 32 68
REMARK SMILES IDX 38 69 40 70 37 71 33 72 34 73 35 74 36 75 62 76 63 77 71 78
REMARK SMILES IDX 64 79 70 80 72 81 69 82 65 83 66 84 67 85 68 86 47 87 48 88
REMARK SMILES IDX 56 89 49 90 55 91 57 92 54 93 50 94 51 95 52 96 53 97
REMARK H PARENT 14 6 7 16 91 27 18 31 77 50 45 61
REMARK Flexibility Score: inf
ROOT
ATOM      1  C   UNL A   1      33.280  28.941  24.878  1.00  0.00     0.042 C 
ENDROOT
BRANCH   1   2
ATOM      2  C   UNL A   1      33.688  27.482  24.613  1.00  0.00     0.117 C 
BRANCH   2   3
ATOM      3  N   UNL A   1      33.780  27.190  23.190  1.00  0.00    -0.356 N 
ATOM      4  C   UNL A   1      33.228  26.250  22.377  1.00  0.00     0.224 C 
ATOM      5  O   UNL A   1      33.655  26.273  21.217  1.00  0.00    -0.275 OA
ATOM      6  H   UNL A   1      34.375  27.810  22.710  1.00  0.00     0.163 HD
BRANCH   4   7
ATOM      7  C   UNL A   1      32.152  25.225  22.822  1.00  0.00     0.098 C 
ATOM      8  C   UNL A   1      31.828  25.421  24.364  1.00  0.00     0.099 C 
ATOM      9  C   UNL A   1      32.279  24.018  24.923  1.00  0.00     0.025 C 
ATOM     10  C   UNL A   1      32.640  23.750  22.737  1.00  0.00     0.025 C 
ATOM     11  C   UNL A   1      33.767  23.811  24.719  1.00  0.00    -0.027 C 
ATOM     12  C   UNL A   1      31.767  23.095  23.812  1.00  0.00     0.017 C 
ATOM     13  C   UNL A   1      33.974  23.609  23.411  1.00  0.00    -0.027 C 
BRANCH   8  14
ATOM     14  C   UNL A   1      30.466  25.766  25.040  1.00  0.00     0.228 C 
ATOM     15  N   UNL A   1      29.551  26.739  24.794  1.00  0.00    -0.326 N 
ATOM     16  H   UNL A   1      28.954  26.886  25.563  1.00  0.00     0.169 HD
ATOM     17  O   UNL A   1      30.161  25.100  26.051  1.00  0.00    -0.274 OA
BRANCH  15  18
ATOM     18  C   UNL A   1      29.242  27.585  23.725  1.00  0.00     0.045 A 
ATOM     19  C   UNL A   1      28.610  29.817  22.157  1.00  0.00     0.160 A 
ATOM     20  C   UNL A   1      27.630  29.055  22.751  1.00  0.00     0.052 A 
ATOM     21  C   UNL A   1      29.927  29.399  22.284  1.00  0.00     0.159 A 
ATOM     22  C   UNL A   1      27.955  27.844  23.348  1.00  0.00     0.030 A 
ATOM     23  C   UNL A   1      30.260  28.312  23.098  1.00  0.00     0.076 A 
BRANCH  19  24
ATOM     24  O   UNL A   1      28.355  30.968  21.468  1.00  0.00    -0.493 OA
ATOM     25  C   UNL A   1      28.141  32.104  22.310  1.00  0.00     0.278 C 
ENDBRANCH  19  24
BRANCH  21  26
ATOM     26  O   UNL A   1      30.916  30.072  21.630  1.00  0.00    -0.504 OA
ATOM     27  H   UNL A   1      30.981  31.003  21.711  1.00  0.00     0.293 HD
ENDBRANCH  21  26
ENDBRANCH  15  18
ENDBRANCH   8  14
ENDBRANCH   4   7
ENDBRANCH   2   3
ENDBRANCH   1   2
BRANCH   1  28
ATOM     28  C   UNL A   1      32.400  29.234  26.087  1.00  0.00     0.118 C 
BRANCH  28  29
ATOM     29  N   UNL A   1      32.313  30.662  26.361  1.00  0.00    -0.352 N 
ATOM     30  C   UNL A   1      33.046  31.522  27.149  1.00  0.00     0.251 C 
ATOM     31  H   UNL A   1      31.574  31.105  25.885  1.00  0.00     0.163 HD
ATOM     32  O   UNL A   1      32.562  32.631  27.363  1.00  0.00    -0.269 OA
BRANCH  30  33
ATOM     33  C   UNL A   1      34.357  31.173  27.765  1.00  0.00     0.039 A 
ATOM     34  C   UNL A   1      35.348  32.168  27.819  1.00  0.00     0.014 A 
ATOM     35  C   UNL A   1      34.680  29.894  28.215  1.00  0.00     0.014 A 
ATOM     36  C   UNL A   1      36.606  31.902  28.378  1.00  0.00     0.010 A 
ATOM     37  C   UNL A   1      35.903  29.651  28.852  1.00  0.00     0.010 A 
ATOM     38  C   UNL A   1      36.881  30.652  28.948  1.00  0.00    -0.014 A 
BRANCH  38  39
ATOM     39  C   UNL A   1      38.160  30.375  29.666  1.00  0.00     0.031 A 
ATOM     40  C   UNL A   1      39.151  29.384  29.108  1.00  0.00     0.074 A 
ATOM     41  C   UNL A   1      38.385  30.946  30.868  1.00  0.00     0.049 A 
ATOM     42  N   UNL A   1      40.233  28.897  29.659  1.00  0.00    -0.248 NA
ATOM     43  C   UNL A   1      38.874  28.855  27.764  1.00  0.00     0.031 C 
ATOM     44  C   UNL A   1      37.495  31.906  31.526  1.00  0.00     0.029 A 
ATOM     45  N   UNL A   1      39.413  30.786  31.768  1.00  0.00    -0.354 N 
ATOM     46  C   UNL A   1      40.749  27.980  28.745  1.00  0.00     0.074 A 
ATOM     47  C   UNL A   1      39.841  27.959  27.618  1.00  0.00     0.031 C 
ATOM     48  C   UNL A   1      38.012  32.247  32.717  1.00  0.00     0.029 A 
ATOM     49  C   UNL A   1      39.236  31.486  32.941  1.00  0.00     0.049 A 
ATOM     50  H   UNL A   1      40.202  30.225  31.589  1.00  0.00     0.167 HD
ATOM     51  C   UNL A   1      41.878  27.233  28.839  1.00  0.00     0.034 A 
ATOM     52  C   UNL A   1      39.950  31.485  34.087  1.00  0.00     0.034 A 
ATOM     53  C   UNL A   1      42.786  27.288  29.959  1.00  0.00     0.049 A 
ATOM     54  C   UNL A   1      41.181  30.617  34.177  1.00  0.00     0.074 A 
ATOM     55  C   UNL A   1      44.003  26.645  30.110  1.00  0.00     0.029 A 
ATOM     56  N   UNL A   1      42.572  28.009  31.126  1.00  0.00    -0.354 N 
ATOM     57  N   UNL A   1      41.689  29.812  33.272  1.00  0.00    -0.248 NA
ATOM     58  C   UNL A   1      41.934  30.656  35.438  1.00  0.00     0.031 C 
ATOM     59  C   UNL A   1      44.479  26.906  31.398  1.00  0.00     0.029 A 
ATOM     60  C   UNL A   1      43.606  27.782  32.021  1.00  0.00     0.049 A 
ATOM     61  H   UNL A   1      41.799  28.596  31.293  1.00  0.00     0.167 HD
ATOM     62  C   UNL A   1      42.834  29.269  33.850  1.00  0.00     0.074 A 
ATOM     63  C   UNL A   1      42.954  29.854  35.168  1.00  0.00     0.031 C 
ATOM     64  C   UNL A   1      43.707  28.365  33.337  1.00  0.00     0.034 A 
BRANCH  51  65
ATOM     65  C   UNL A   1      42.185  26.263  27.724  1.00  0.00     0.023 A 
ATOM     66  C   UNL A   1      41.752  24.927  27.755  1.00  0.00     0.031 A 
ATOM     67  C   UNL A   1      42.903  26.694  26.593  1.00  0.00     0.131 A 
ATOM     68  C   UNL A   1      42.084  24.057  26.703  1.00  0.00     0.055 A 
ATOM     69  C   UNL A   1      43.166  25.845  25.516  1.00  0.00     0.041 A 
ATOM     70  F   UNL A   1      43.361  27.953  26.514  1.00  0.00    -0.206 F 
ATOM     71  C   UNL A   1      42.764  24.515  25.572  1.00  0.00     0.022 A 
BRANCH  68  72
ATOM     72  S   UNL A   1      41.712  22.292  26.886  1.00  0.00     0.124 S 
ATOM     73  O   UNL A   1      40.369  22.332  27.463  1.00  0.00    -0.237 OA
ATOM     74  O   UNL A   1      41.803  21.806  25.515  1.00  0.00    -0.237 OA
ATOM     75  O   UNL A   1      42.756  21.813  27.790  1.00  0.00    -0.744 OA
ENDBRANCH  68  72
ENDBRANCH  51  65
BRANCH  52  76
ATOM     76  C   UNL A   1      39.497  32.285  35.267  1.00  0.00     0.023 A 
ATOM     77  C   UNL A   1      38.810  31.681  36.331  1.00  0.00     0.031 A 
ATOM     78  C   UNL A   1      39.687  33.679  35.315  1.00  0.00     0.131 A 
ATOM     79  C   UNL A   1      38.285  32.474  37.366  1.00  0.00     0.055 A 
ATOM     80  C   UNL A   1      39.222  34.454  36.378  1.00  0.00     0.041 A 
ATOM     81  F   UNL A   1      40.338  34.310  34.324  1.00  0.00    -0.206 F 
ATOM     82  C   UNL A   1      38.500  33.853  37.404  1.00  0.00     0.022 A 
BRANCH  79  83
ATOM     83  S   UNL A   1      37.212  31.687  38.599  1.00  0.00     0.124 S 
ATOM     84  O   UNL A   1      37.029  30.358  38.026  1.00  0.00    -0.237 OA
ATOM     85  O   UNL A   1      38.032  31.760  39.802  1.00  0.00    -0.237 OA
ATOM     86  O   UNL A   1      36.022  32.536  38.603  1.00  0.00    -0.744 OA
ENDBRANCH  79  83
ENDBRANCH  52  76
BRANCH  64  87
ATOM     87  C   UNL A   1      44.885  27.979  34.198  1.00  0.00     0.023 A 
ATOM     88  C   UNL A   1      44.843  26.862  35.047  1.00  0.00     0.031 A 
ATOM     89  C   UNL A   1      46.071  28.735  34.155  1.00  0.00     0.131 A 
ATOM     90  C   UNL A   1      45.949  26.555  35.854  1.00  0.00     0.055 A 
ATOM     91  C   UNL A   1      47.190  28.389  34.913  1.00  0.00     0.041 A 
ATOM     92  F   UNL A   1      46.165  29.816  33.364  1.00  0.00    -0.206 F 
ATOM     93  C   UNL A   1      47.130  27.299  35.777  1.00  0.00     0.022 A 
BRANCH  90  94
ATOM     94  S   UNL A   1      45.800  25.213  37.064  1.00  0.00     0.124 S 
ATOM     95  O   UNL A   1      46.911  25.495  37.967  1.00  0.00    -0.237 OA
ATOM     96  O   UNL A   1      44.464  25.430  37.609  1.00  0.00    -0.237 OA
ATOM     97  O   UNL A   1      45.949  24.004  36.256  1.00  0.00    -0.744 OA
ENDBRANCH  90  94
ENDBRANCH  64  87
ENDBRANCH  38  39
ENDBRANCH  30  33
ENDBRANCH  28  29
ENDBRANCH   1  28
TORSDOF 17
ENDMDL
