MODEL 1
REMARK VINA RESULT:     -11.6      0.000      0.000
REMARK SMILES CC1(C)CCC[C@H]([N@H+](CC(=O)NCCCNC(=O)c2ccc(-c3c4nc(c(-c5cc(S(=O)(=O)[O-])ccc5F)c5ccc([nH]5)c(-c5cc(S(=O)(=O)[O-])ccc5F)c5nc(c(-c6cc(S(=O)(=O)[O-])ccc6F)c6ccc3[nH]6)C=C5)C=C4)cc2)C(C)(C)C)C1
REMARK SMILES IDX 14 1 13 2 12 3 10 4 11 5 9 7 8 8 7 10 1 11 2 12 3 13 4 14
REMARK SMILES IDX 86 15 5 16 6 17 82 18 83 19 84 20 85 21 15 22 16 23 17 24
REMARK SMILES IDX 18 26 19 27 20 28 81 29 21 30 80 31 22 32 23 33 24 34 74 35
REMARK SMILES IDX 25 36 79 37 73 38 75 39 26 40 78 41 72 42 71 43 27 45 59 46
REMARK SMILES IDX 39 47 58 48 40 49 43 50 57 51 76 52 41 53 42 54 56 56 77 57
REMARK SMILES IDX 44 58 28 59 29 60 37 61 30 62 36 63 38 64 35 65 31 66 32 67
REMARK SMILES IDX 33 68 34 69 60 70 61 71 69 72 62 73 68 74 70 75 67 76 63 77
REMARK SMILES IDX 64 78 65 79 66 80 45 81 46 82 54 83 47 84 53 85 55 86 52 87
REMARK SMILES IDX 48 88 49 89 50 90 51 91
REMARK H PARENT 12 6 8 9 16 25 75 44 43 55
REMARK Flexibility Score: inf
ROOT
ATOM      1  C   UNL A   1      31.572  31.447  26.412  1.00  0.00     0.042 C 
ENDROOT
BRANCH   1   2
ATOM      2  C   UNL A   1      31.764  29.997  25.984  1.00  0.00     0.118 C 
BRANCH   2   3
ATOM      3  N   UNL A   1      32.636  29.865  24.836  1.00  0.00    -0.351 N 
ATOM      4  C   UNL A   1      33.240  28.755  24.336  1.00  0.00     0.275 C 
ATOM      5  O   UNL A   1      33.876  28.880  23.283  1.00  0.00    -0.269 OA
ATOM      6  H   UNL A   1      32.818  30.700  24.348  1.00  0.00     0.163 HD
BRANCH   4   7
ATOM      7  C   UNL A   1      33.044  27.382  24.971  1.00  0.00     0.364 C 
BRANCH   7   8
ATOM      8  N   UNL A   1      32.339  26.322  24.176  1.00  0.00    -0.321 N 
ATOM      9  H   UNL A   1      32.226  26.607  23.204  1.00  0.00     0.349 HD
BRANCH   8  10
ATOM     10  C   UNL A   1      33.230  25.094  24.151  1.00  0.00     0.185 C 
ATOM     11  C   UNL A   1      34.418  22.598  25.810  1.00  0.00     0.011 C 
ATOM     12  C   UNL A   1      35.233  23.720  25.144  1.00  0.00    -0.030 C 
ATOM     13  C   UNL A   1      36.522  23.916  25.968  1.00  0.00     0.011 C 
ATOM     14  C   UNL A   1      35.633  23.333  23.707  1.00  0.00     0.007 C 
ATOM     15  C   UNL A   1      34.437  25.052  25.121  1.00  0.00     0.071 C 
ATOM     16  C   UNL A   1      34.447  23.303  22.757  1.00  0.00     0.007 C 
ATOM     17  C   UNL A   1      33.698  24.635  22.739  1.00  0.00     0.065 C 
ENDBRANCH   8  10
BRANCH   8  18
ATOM     18  C   UNL A   1      30.868  26.167  24.460  1.00  0.00     0.090 C 
ATOM     19  C   UNL A   1      30.008  27.320  23.869  1.00  0.00     0.078 C 
ATOM     20  C   UNL A   1      30.280  24.907  23.764  1.00  0.00     0.078 C 
ATOM     21  C   UNL A   1      30.537  26.117  25.964  1.00  0.00     0.078 C 
ENDBRANCH   8  18
ENDBRANCH   7   8
ENDBRANCH   4   7
ENDBRANCH   2   3
ENDBRANCH   1   2
BRANCH   1  22
ATOM     22  C   UNL A   1      32.758  32.060  27.155  1.00  0.00     0.118 C 
BRANCH  22  23
ATOM     23  N   UNL A   1      32.567  33.468  27.474  1.00  0.00    -0.352 N 
ATOM     24  C   UNL A   1      33.192  34.261  28.406  1.00  0.00     0.251 C 
ATOM     25  H   UNL A   1      31.879  33.923  26.937  1.00  0.00     0.163 HD
ATOM     26  O   UNL A   1      32.750  35.386  28.623  1.00  0.00    -0.269 OA
BRANCH  24  27
ATOM     27  C   UNL A   1      34.366  33.766  29.163  1.00  0.00     0.039 A 
ATOM     28  C   UNL A   1      34.159  32.839  30.188  1.00  0.00     0.014 A 
ATOM     29  C   UNL A   1      35.657  34.228  28.896  1.00  0.00     0.014 A 
ATOM     30  C   UNL A   1      35.251  32.326  30.897  1.00  0.00     0.010 A 
ATOM     31  C   UNL A   1      36.750  33.660  29.552  1.00  0.00     0.010 A 
ATOM     32  C   UNL A   1      36.560  32.703  30.561  1.00  0.00    -0.014 A 
BRANCH  32  33
ATOM     33  C   UNL A   1      37.738  32.103  31.248  1.00  0.00     0.031 A 
ATOM     34  C   UNL A   1      38.520  30.996  30.589  1.00  0.00     0.074 A 
ATOM     35  C   UNL A   1      38.064  32.512  32.492  1.00  0.00     0.049 A 
ATOM     36  N   UNL A   1      39.523  30.300  31.059  1.00  0.00    -0.248 NA
ATOM     37  C   UNL A   1      38.102  30.604  29.235  1.00  0.00     0.031 C 
ATOM     38  C   UNL A   1      37.359  33.548  33.253  1.00  0.00     0.029 A 
ATOM     39  N   UNL A   1      39.060  32.101  33.346  1.00  0.00    -0.354 N 
ATOM     40  C   UNL A   1      39.841  29.372  30.072  1.00  0.00     0.074 A 
ATOM     41  C   UNL A   1      38.895  29.569  28.994  1.00  0.00     0.031 C 
ATOM     42  C   UNL A   1      37.952  33.700  34.447  1.00  0.00     0.029 A 
ATOM     43  C   UNL A   1      39.045  32.741  34.565  1.00  0.00     0.049 A 
ATOM     44  H   UNL A   1      39.722  31.413  33.107  1.00  0.00     0.167 HD
ATOM     45  C   UNL A   1      40.836  28.451  30.062  1.00  0.00     0.034 A 
ATOM     46  C   UNL A   1      39.810  32.562  35.662  1.00  0.00     0.034 A 
ATOM     47  C   UNL A   1      41.787  28.286  31.135  1.00  0.00     0.049 A 
ATOM     48  C   UNL A   1      40.908  31.526  35.624  1.00  0.00     0.074 A 
ATOM     49  C   UNL A   1      42.883  27.442  31.186  1.00  0.00     0.029 A 
ATOM     50  N   UNL A   1      41.752  28.963  32.346  1.00  0.00    -0.354 N 
ATOM     51  N   UNL A   1      41.239  30.709  34.650  1.00  0.00    -0.248 NA
ATOM     52  C   UNL A   1      41.744  31.398  36.825  1.00  0.00     0.031 C 
ATOM     53  C   UNL A   1      43.460  27.548  32.456  1.00  0.00     0.029 A 
ATOM     54  C   UNL A   1      42.783  28.526  33.165  1.00  0.00     0.049 A 
ATOM     55  H   UNL A   1      41.093  29.654  32.589  1.00  0.00     0.167 HD
ATOM     56  C   UNL A   1      42.346  30.001  35.110  1.00  0.00     0.074 A 
ATOM     57  C   UNL A   1      42.635  30.497  36.439  1.00  0.00     0.031 C 
ATOM     58  C   UNL A   1      43.063  29.030  34.490  1.00  0.00     0.034 A 
BRANCH  45  59
ATOM     59  C   UNL A   1      40.932  27.523  28.874  1.00  0.00     0.023 A 
ATOM     60  C   UNL A   1      41.907  27.687  27.875  1.00  0.00     0.031 A 
ATOM     61  C   UNL A   1      40.040  26.441  28.753  1.00  0.00     0.131 A 
ATOM     62  C   UNL A   1      41.934  26.815  26.775  1.00  0.00     0.055 A 
ATOM     63  C   UNL A   1      40.121  25.534  27.696  1.00  0.00     0.041 A 
ATOM     64  F   UNL A   1      39.075  26.247  29.665  1.00  0.00    -0.206 F 
ATOM     65  C   UNL A   1      41.066  25.723  26.692  1.00  0.00     0.022 A 
BRANCH  62  66
ATOM     66  S   UNL A   1      43.047  27.193  25.394  1.00  0.00     0.124 S 
ATOM     67  O   UNL A   1      43.213  25.877  24.780  1.00  0.00    -0.237 OA
ATOM     68  O   UNL A   1      42.279  28.165  24.625  1.00  0.00    -0.237 OA
ATOM     69  O   UNL A   1      44.241  27.721  26.050  1.00  0.00    -0.744 OA
ENDBRANCH  62  66
ENDBRANCH  45  59
BRANCH  46  70
ATOM     70  C   UNL A   1      39.558  33.352  36.905  1.00  0.00     0.023 A 
ATOM     71  C   UNL A   1      38.856  32.799  37.989  1.00  0.00     0.031 A 
ATOM     72  C   UNL A   1      39.950  34.700  36.998  1.00  0.00     0.131 A 
ATOM     73  C   UNL A   1      38.507  33.606  39.084  1.00  0.00     0.055 A 
ATOM     74  C   UNL A   1      39.661  35.480  38.119  1.00  0.00     0.041 A 
ATOM     75  F   UNL A   1      40.624  35.282  35.994  1.00  0.00    -0.206 F 
ATOM     76  C   UNL A   1      38.918  34.939  39.163  1.00  0.00     0.022 A 
BRANCH  73  77
ATOM     77  S   UNL A   1      37.396  32.924  40.346  1.00  0.00     0.124 S 
ATOM     78  O   UNL A   1      36.182  32.687  39.574  1.00  0.00    -0.237 OA
ATOM     79  O   UNL A   1      38.125  31.737  40.779  1.00  0.00    -0.237 OA
ATOM     80  O   UNL A   1      37.308  33.996  41.336  1.00  0.00    -0.744 OA
ENDBRANCH  73  77
ENDBRANCH  46  70
BRANCH  58  81
ATOM     81  C   UNL A   1      44.270  28.489  35.217  1.00  0.00     0.023 A 
ATOM     82  C   UNL A   1      44.168  27.466  36.177  1.00  0.00     0.031 A 
ATOM     83  C   UNL A   1      45.548  29.017  34.950  1.00  0.00     0.131 A 
ATOM     84  C   UNL A   1      45.311  27.045  36.876  1.00  0.00     0.055 A 
ATOM     85  C   UNL A   1      46.690  28.547  35.599  1.00  0.00     0.041 A 
ATOM     86  F   UNL A   1      45.706  29.998  34.048  1.00  0.00    -0.206 F 
ATOM     87  C   UNL A   1      46.573  27.566  36.579  1.00  0.00     0.022 A 
BRANCH  84  88
ATOM     88  S   UNL A   1      45.111  25.880  38.251  1.00  0.00     0.124 S 
ATOM     89  O   UNL A   1      46.495  25.550  38.573  1.00  0.00    -0.237 OA
ATOM     90  O   UNL A   1      44.401  26.684  39.240  1.00  0.00    -0.237 OA
ATOM     91  O   UNL A   1      44.333  24.789  37.666  1.00  0.00    -0.744 OA
ENDBRANCH  84  88
ENDBRANCH  58  81
ENDBRANCH  32  33
ENDBRANCH  24  27
ENDBRANCH  22  23
ENDBRANCH   1  22
TORSDOF 16
ENDMDL
MODEL 2
REMARK VINA RESULT:     -11.4      1.328      1.573
REMARK SMILES CC1(C)CCC[C@H]([N@H+](CC(=O)NCCCNC(=O)c2ccc(-c3c4nc(c(-c5cc(S(=O)(=O)[O-])ccc5F)c5ccc([nH]5)c(-c5cc(S(=O)(=O)[O-])ccc5F)c5nc(c(-c6cc(S(=O)(=O)[O-])ccc6F)c6ccc3[nH]6)C=C5)C=C4)cc2)C(C)(C)C)C1
REMARK SMILES IDX 14 1 13 2 12 3 10 4 11 5 9 7 8 8 7 10 1 11 2 12 3 13 4 14
REMARK SMILES IDX 86 15 5 16 6 17 82 18 83 19 84 20 85 21 15 22 16 23 17 24
REMARK SMILES IDX 18 26 19 27 20 28 81 29 21 30 80 31 22 32 23 33 24 34 74 35
REMARK SMILES IDX 25 36 79 37 73 38 75 39 26 40 78 41 72 42 71 43 27 45 59 46
REMARK SMILES IDX 39 47 58 48 40 49 43 50 57 51 76 52 41 53 42 54 56 56 77 57
REMARK SMILES IDX 44 58 28 59 29 60 37 61 30 62 36 63 38 64 35 65 31 66 32 67
REMARK SMILES IDX 33 68 34 69 60 70 61 71 69 72 62 73 68 74 70 75 67 76 63 77
REMARK SMILES IDX 64 78 65 79 66 80 45 81 46 82 54 83 47 84 53 85 55 86 52 87
REMARK SMILES IDX 48 88 49 89 50 90 51 91
REMARK H PARENT 12 6 8 9 16 25 75 44 43 55
REMARK Flexibility Score: inf
ROOT
ATOM      1  C   UNL A   1      31.649  31.358  26.465  1.00  0.00     0.042 C 
ENDROOT
BRANCH   1   2
ATOM      2  C   UNL A   1      31.900  29.909  26.063  1.00  0.00     0.118 C 
BRANCH   2   3
ATOM      3  N   UNL A   1      32.725  29.794  24.879  1.00  0.00    -0.351 N 
ATOM      4  C   UNL A   1      33.347  28.700  24.366  1.00  0.00     0.275 C 
ATOM      5  O   UNL A   1      33.931  28.834  23.284  1.00  0.00    -0.269 OA
ATOM      6  H   UNL A   1      32.854  30.628  24.373  1.00  0.00     0.163 HD
BRANCH   4   7
ATOM      7  C   UNL A   1      33.230  27.329  25.025  1.00  0.00     0.364 C 
BRANCH   7   8
ATOM      8  N   UNL A   1      32.494  26.245  24.294  1.00  0.00    -0.321 N 
ATOM      9  H   UNL A   1      32.349  26.497  23.316  1.00  0.00     0.349 HD
BRANCH   8  10
ATOM     10  C   UNL A   1      33.378  25.013  24.282  1.00  0.00     0.185 C 
ATOM     11  C   UNL A   1      34.700  22.634  26.009  1.00  0.00     0.011 C 
ATOM     12  C   UNL A   1      35.457  23.700  25.198  1.00  0.00    -0.030 C 
ATOM     13  C   UNL A   1      36.812  23.945  25.895  1.00  0.00     0.011 C 
ATOM     14  C   UNL A   1      35.735  23.209  23.765  1.00  0.00     0.007 C 
ATOM     15  C   UNL A   1      34.663  25.033  25.147  1.00  0.00     0.071 C 
ATOM     16  C   UNL A   1      34.473  23.120  22.922  1.00  0.00     0.007 C 
ATOM     17  C   UNL A   1      33.726  24.452  22.871  1.00  0.00     0.065 C 
ENDBRANCH   8  10
BRANCH   8  18
ATOM     18  C   UNL A   1      31.033  26.108  24.632  1.00  0.00     0.090 C 
ATOM     19  C   UNL A   1      30.125  27.075  23.821  1.00  0.00     0.078 C 
ATOM     20  C   UNL A   1      30.484  24.708  24.241  1.00  0.00     0.078 C 
ATOM     21  C   UNL A   1      30.722  26.379  26.117  1.00  0.00     0.078 C 
ENDBRANCH   8  18
ENDBRANCH   7   8
ENDBRANCH   4   7
ENDBRANCH   2   3
ENDBRANCH   1   2
BRANCH   1  22
ATOM     22  C   UNL A   1      32.887  32.117  26.937  1.00  0.00     0.118 C 
BRANCH  22  23
ATOM     23  N   UNL A   1      32.597  33.482  27.353  1.00  0.00    -0.352 N 
ATOM     24  C   UNL A   1      33.134  34.235  28.370  1.00  0.00     0.251 C 
ATOM     25  H   UNL A   1      31.906  33.938  26.821  1.00  0.00     0.163 HD
ATOM     26  O   UNL A   1      32.614  35.312  28.651  1.00  0.00    -0.269 OA
BRANCH  24  27
ATOM     27  C   UNL A   1      34.303  33.751  29.141  1.00  0.00     0.039 A 
ATOM     28  C   UNL A   1      34.089  32.845  30.184  1.00  0.00     0.014 A 
ATOM     29  C   UNL A   1      35.597  34.203  28.869  1.00  0.00     0.014 A 
ATOM     30  C   UNL A   1      35.177  32.343  30.906  1.00  0.00     0.010 A 
ATOM     31  C   UNL A   1      36.685  33.645  29.540  1.00  0.00     0.010 A 
ATOM     32  C   UNL A   1      36.489  32.708  30.567  1.00  0.00    -0.014 A 
BRANCH  32  33
ATOM     33  C   UNL A   1      37.662  32.118  31.271  1.00  0.00     0.031 A 
ATOM     34  C   UNL A   1      38.473  31.030  30.614  1.00  0.00     0.074 A 
ATOM     35  C   UNL A   1      37.958  32.517  32.525  1.00  0.00     0.049 A 
ATOM     36  N   UNL A   1      39.477  30.343  31.096  1.00  0.00    -0.248 NA
ATOM     37  C   UNL A   1      38.086  30.647  29.248  1.00  0.00     0.031 C 
ATOM     38  C   UNL A   1      37.223  33.535  33.283  1.00  0.00     0.029 A 
ATOM     39  N   UNL A   1      38.943  32.111  33.393  1.00  0.00    -0.354 N 
ATOM     40  C   UNL A   1      39.827  29.432  30.105  1.00  0.00     0.074 A 
ATOM     41  C   UNL A   1      38.899  29.627  29.012  1.00  0.00     0.031 C 
ATOM     42  C   UNL A   1      37.792  33.682  34.490  1.00  0.00     0.029 A 
ATOM     43  C   UNL A   1      38.896  32.738  34.618  1.00  0.00     0.049 A 
ATOM     44  H   UNL A   1      39.620  31.436  33.159  1.00  0.00     0.167 HD
ATOM     45  C   UNL A   1      40.835  28.525  30.104  1.00  0.00     0.034 A 
ATOM     46  C   UNL A   1      39.642  32.558  35.728  1.00  0.00     0.034 A 
ATOM     47  C   UNL A   1      41.769  28.362  31.193  1.00  0.00     0.049 A 
ATOM     48  C   UNL A   1      40.756  31.538  35.699  1.00  0.00     0.074 A 
ATOM     49  C   UNL A   1      42.876  27.534  31.256  1.00  0.00     0.029 A 
ATOM     50  N   UNL A   1      41.701  29.025  32.411  1.00  0.00    -0.354 N 
ATOM     51  N   UNL A   1      41.118  30.737  34.723  1.00  0.00    -0.248 NA
ATOM     52  C   UNL A   1      41.571  31.409  36.915  1.00  0.00     0.031 C 
ATOM     53  C   UNL A   1      43.427  27.634  32.538  1.00  0.00     0.029 A 
ATOM     54  C   UNL A   1      42.722  28.594  33.245  1.00  0.00     0.049 A 
ATOM     55  H   UNL A   1      41.027  29.703  32.648  1.00  0.00     0.167 HD
ATOM     56  C   UNL A   1      42.227  30.040  35.197  1.00  0.00     0.074 A 
ATOM     57  C   UNL A   1      42.482  30.525  36.536  1.00  0.00     0.031 C 
ATOM     58  C   UNL A   1      42.969  29.087  34.579  1.00  0.00     0.034 A 
BRANCH  45  59
ATOM     59  C   UNL A   1      40.969  27.612  28.908  1.00  0.00     0.023 A 
ATOM     60  C   UNL A   1      41.966  27.796  27.935  1.00  0.00     0.031 A 
ATOM     61  C   UNL A   1      40.089  26.525  28.752  1.00  0.00     0.131 A 
ATOM     62  C   UNL A   1      42.027  26.937  26.826  1.00  0.00     0.055 A 
ATOM     63  C   UNL A   1      40.203  25.631  27.687  1.00  0.00     0.041 A 
ATOM     64  F   UNL A   1      39.103  26.312  29.638  1.00  0.00    -0.206 F 
ATOM     65  C   UNL A   1      41.170  25.839  26.709  1.00  0.00     0.022 A 
BRANCH  62  66
ATOM     66  S   UNL A   1      43.170  27.339  25.476  1.00  0.00     0.124 S 
ATOM     67  O   UNL A   1      44.251  28.010  26.195  1.00  0.00    -0.237 OA
ATOM     68  O   UNL A   1      43.486  26.026  24.927  1.00  0.00    -0.237 OA
ATOM     69  O   UNL A   1      42.380  28.206  24.605  1.00  0.00    -0.744 OA
ENDBRANCH  62  66
ENDBRANCH  45  59
BRANCH  46  70
ATOM     70  C   UNL A   1      39.355  33.330  36.975  1.00  0.00     0.023 A 
ATOM     71  C   UNL A   1      39.987  34.558  37.231  1.00  0.00     0.031 A 
ATOM     72  C   UNL A   1      38.502  32.812  37.966  1.00  0.00     0.131 A 
ATOM     73  C   UNL A   1      39.811  35.191  38.472  1.00  0.00     0.055 A 
ATOM     74  C   UNL A   1      38.276  33.480  39.171  1.00  0.00     0.041 A 
ATOM     75  F   UNL A   1      37.870  31.644  37.776  1.00  0.00    -0.206 F 
ATOM     76  C   UNL A   1      38.948  34.668  39.438  1.00  0.00     0.022 A 
BRANCH  73  77
ATOM     77  S   UNL A   1      40.829  36.643  38.857  1.00  0.00     0.124 S 
ATOM     78  O   UNL A   1      41.371  36.287  40.163  1.00  0.00    -0.237 OA
ATOM     79  O   UNL A   1      41.776  36.650  37.748  1.00  0.00    -0.237 OA
ATOM     80  O   UNL A   1      39.865  37.743  38.860  1.00  0.00    -0.744 OA
ENDBRANCH  73  77
ENDBRANCH  46  70
BRANCH  58  81
ATOM     81  C   UNL A   1      44.171  28.556  35.324  1.00  0.00     0.023 A 
ATOM     82  C   UNL A   1      44.104  27.398  36.121  1.00  0.00     0.031 A 
ATOM     83  C   UNL A   1      45.404  29.228  35.241  1.00  0.00     0.131 A 
ATOM     84  C   UNL A   1      45.231  26.984  36.848  1.00  0.00     0.055 A 
ATOM     85  C   UNL A   1      46.539  28.773  35.913  1.00  0.00     0.041 A 
ATOM     86  F   UNL A   1      45.527  30.341  34.500  1.00  0.00    -0.206 F 
ATOM     87  C   UNL A   1      46.452  27.653  36.733  1.00  0.00     0.022 A 
BRANCH  84  88
ATOM     88  S   UNL A   1      45.053  25.617  38.027  1.00  0.00     0.124 S 
ATOM     89  O   UNL A   1      46.309  24.898  37.851  1.00  0.00    -0.237 OA
ATOM     90  O   UNL A   1      44.893  26.319  39.297  1.00  0.00    -0.237 OA
ATOM     91  O   UNL A   1      43.862  24.912  37.556  1.00  0.00    -0.744 OA
ENDBRANCH  84  88
ENDBRANCH  58  81
ENDBRANCH  32  33
ENDBRANCH  24  27
ENDBRANCH  22  23
ENDBRANCH   1  22
TORSDOF 16
ENDMDL
MODEL 3
REMARK VINA RESULT:     -11.3      5.673     11.548
REMARK SMILES CC1(C)CCC[C@H]([N@H+](CC(=O)NCCCNC(=O)c2ccc(-c3c4nc(c(-c5cc(S(=O)(=O)[O-])ccc5F)c5ccc([nH]5)c(-c5cc(S(=O)(=O)[O-])ccc5F)c5nc(c(-c6cc(S(=O)(=O)[O-])ccc6F)c6ccc3[nH]6)C=C5)C=C4)cc2)C(C)(C)C)C1
REMARK SMILES IDX 14 1 13 2 12 3 10 4 11 5 9 7 8 8 7 10 1 11 2 12 3 13 4 14
REMARK SMILES IDX 86 15 5 16 6 17 82 18 83 19 84 20 85 21 15 22 16 23 17 24
REMARK SMILES IDX 18 26 19 27 20 28 81 29 21 30 80 31 22 32 23 33 24 34 74 35
REMARK SMILES IDX 25 36 79 37 73 38 75 39 26 40 78 41 72 42 71 43 27 45 59 46
REMARK SMILES IDX 39 47 58 48 40 49 43 50 57 51 76 52 41 53 42 54 56 56 77 57
REMARK SMILES IDX 44 58 28 59 29 60 37 61 30 62 36 63 38 64 35 65 31 66 32 67
REMARK SMILES IDX 33 68 34 69 60 70 61 71 69 72 62 73 68 74 70 75 67 76 63 77
REMARK SMILES IDX 64 78 65 79 66 80 45 81 46 82 54 83 47 84 53 85 55 86 52 87
REMARK SMILES IDX 48 88 49 89 50 90 51 91
REMARK H PARENT 12 6 8 9 16 25 75 44 43 55
REMARK Flexibility Score: inf
ROOT
ATOM      1  C   UNL A   1      37.735  20.163  25.046  1.00  0.00     0.042 C 
ENDROOT
BRANCH   1   2
ATOM      2  C   UNL A   1      36.619  21.199  24.977  1.00  0.00     0.118 C 
BRANCH   2   3
ATOM      3  N   UNL A   1      35.837  21.260  26.193  1.00  0.00    -0.351 N 
ATOM      4  C   UNL A   1      34.938  22.197  26.594  1.00  0.00     0.275 C 
ATOM      5  O   UNL A   1      34.326  21.984  27.647  1.00  0.00    -0.269 OA
ATOM      6  H   UNL A   1      35.977  20.514  26.820  1.00  0.00     0.163 HD
BRANCH   4   7
ATOM      7  C   UNL A   1      34.599  23.404  25.725  1.00  0.00     0.364 C 
BRANCH   7   8
ATOM      8  N   UNL A   1      33.214  23.509  25.158  1.00  0.00    -0.321 N 
ATOM      9  H   UNL A   1      32.564  22.908  25.665  1.00  0.00     0.349 HD
BRANCH   8  10
ATOM     10  C   UNL A   1      32.730  24.929  25.381  1.00  0.00     0.185 C 
ATOM     11  C   UNL A   1      32.980  28.024  24.514  1.00  0.00     0.011 C 
ATOM     12  C   UNL A   1      33.243  27.447  25.915  1.00  0.00    -0.030 C 
ATOM     13  C   UNL A   1      34.313  28.330  26.593  1.00  0.00     0.011 C 
ATOM     14  C   UNL A   1      31.968  27.488  26.778  1.00  0.00     0.007 C 
ATOM     15  C   UNL A   1      33.768  25.989  25.830  1.00  0.00     0.071 C 
ATOM     16  C   UNL A   1      30.912  26.501  26.308  1.00  0.00     0.007 C 
ATOM     17  C   UNL A   1      31.450  25.071  26.257  1.00  0.00     0.065 C 
ENDBRANCH   8  10
BRANCH   8  18
ATOM     18  C   UNL A   1      33.008  22.856  23.816  1.00  0.00     0.090 C 
ATOM     19  C   UNL A   1      34.213  23.051  22.853  1.00  0.00     0.078 C 
ATOM     20  C   UNL A   1      32.911  21.310  23.941  1.00  0.00     0.078 C 
ATOM     21  C   UNL A   1      31.771  23.384  23.063  1.00  0.00     0.078 C 
ENDBRANCH   8  18
ENDBRANCH   7   8
ENDBRANCH   4   7
ENDBRANCH   2   3
ENDBRANCH   1   2
BRANCH   1  22
ATOM     22  C   UNL A   1      38.963  20.595  25.846  1.00  0.00     0.118 C 
BRANCH  22  23
ATOM     23  N   UNL A   1      39.984  19.560  25.930  1.00  0.00    -0.352 N 
ATOM     24  C   UNL A   1      41.341  19.664  26.116  1.00  0.00     0.251 C 
ATOM     25  H   UNL A   1      39.647  18.640  25.838  1.00  0.00     0.163 HD
ATOM     26  O   UNL A   1      42.038  18.662  25.981  1.00  0.00    -0.269 OA
BRANCH  24  27
ATOM     27  C   UNL A   1      41.968  20.965  26.446  1.00  0.00     0.039 A 
ATOM     28  C   UNL A   1      42.243  21.859  25.407  1.00  0.00     0.014 A 
ATOM     29  C   UNL A   1      42.315  21.299  27.758  1.00  0.00     0.014 A 
ATOM     30  C   UNL A   1      42.801  23.110  25.692  1.00  0.00     0.010 A 
ATOM     31  C   UNL A   1      42.801  22.574  28.048  1.00  0.00     0.010 A 
ATOM     32  C   UNL A   1      43.051  23.495  27.019  1.00  0.00    -0.014 A 
BRANCH  32  33
ATOM     33  C   UNL A   1      43.565  24.854  27.345  1.00  0.00     0.031 A 
ATOM     34  C   UNL A   1      42.634  25.911  27.881  1.00  0.00     0.074 A 
ATOM     35  C   UNL A   1      44.858  25.155  27.098  1.00  0.00     0.049 A 
ATOM     36  N   UNL A   1      42.878  27.168  28.151  1.00  0.00    -0.248 NA
ATOM     37  C   UNL A   1      41.240  25.507  28.120  1.00  0.00     0.031 C 
ATOM     38  C   UNL A   1      45.849  24.230  26.542  1.00  0.00     0.029 A 
ATOM     39  N   UNL A   1      45.560  26.324  27.268  1.00  0.00    -0.354 N 
ATOM     40  C   UNL A   1      41.667  27.712  28.567  1.00  0.00     0.074 A 
ATOM     41  C   UNL A   1      40.681  26.656  28.474  1.00  0.00     0.031 C 
ATOM     42  C   UNL A   1      47.029  24.860  26.433  1.00  0.00     0.029 A 
ATOM     43  C   UNL A   1      46.873  26.247  26.858  1.00  0.00     0.049 A 
ATOM     44  H   UNL A   1      45.163  27.140  27.648  1.00  0.00     0.167 HD
ATOM     45  C   UNL A   1      41.406  28.971  28.998  1.00  0.00     0.034 A 
ATOM     46  C   UNL A   1      47.836  27.190  26.809  1.00  0.00     0.034 A 
ATOM     47  C   UNL A   1      42.407  30.004  29.110  1.00  0.00     0.049 A 
ATOM     48  C   UNL A   1      47.516  28.585  27.291  1.00  0.00     0.074 A 
ATOM     49  C   UNL A   1      42.264  31.285  29.615  1.00  0.00     0.029 A 
ATOM     50  N   UNL A   1      43.729  29.885  28.702  1.00  0.00    -0.354 N 
ATOM     51  N   UNL A   1      46.381  29.059  27.751  1.00  0.00    -0.248 NA
ATOM     52  C   UNL A   1      48.608  29.567  27.261  1.00  0.00     0.031 C 
ATOM     53  C   UNL A   1      43.473  31.965  29.437  1.00  0.00     0.029 A 
ATOM     54  C   UNL A   1      44.399  31.082  28.907  1.00  0.00     0.049 A 
ATOM     55  H   UNL A   1      44.132  29.070  28.323  1.00  0.00     0.167 HD
ATOM     56  C   UNL A   1      46.638  30.383  28.102  1.00  0.00     0.074 A 
ATOM     57  C   UNL A   1      48.036  30.625  27.815  1.00  0.00     0.031 C 
ATOM     58  C   UNL A   1      45.796  31.313  28.619  1.00  0.00     0.034 A 
BRANCH  45  59
ATOM     59  C   UNL A   1      39.979  29.319  29.349  1.00  0.00     0.023 A 
ATOM     60  C   UNL A   1      39.537  29.410  30.680  1.00  0.00     0.031 A 
ATOM     61  C   UNL A   1      39.048  29.584  28.326  1.00  0.00     0.131 A 
ATOM     62  C   UNL A   1      38.192  29.708  30.951  1.00  0.00     0.055 A 
ATOM     63  C   UNL A   1      37.732  29.953  28.605  1.00  0.00     0.041 A 
ATOM     64  F   UNL A   1      39.407  29.491  27.036  1.00  0.00    -0.206 F 
ATOM     65  C   UNL A   1      37.293  30.007  29.924  1.00  0.00     0.022 A 
BRANCH  62  66
ATOM     66  S   UNL A   1      37.604  29.588  32.663  1.00  0.00     0.124 S 
ATOM     67  O   UNL A   1      38.652  30.305  33.386  1.00  0.00    -0.237 OA
ATOM     68  O   UNL A   1      36.305  30.249  32.598  1.00  0.00    -0.237 OA
ATOM     69  O   UNL A   1      37.559  28.148  32.910  1.00  0.00    -0.744 OA
ENDBRANCH  62  66
ENDBRANCH  45  59
BRANCH  46  70
ATOM     70  C   UNL A   1      49.189  26.872  26.259  1.00  0.00     0.023 A 
ATOM     71  C   UNL A   1      49.582  27.322  24.987  1.00  0.00     0.031 A 
ATOM     72  C   UNL A   1      50.082  26.047  26.966  1.00  0.00     0.131 A 
ATOM     73  C   UNL A   1      50.798  26.889  24.435  1.00  0.00     0.055 A 
ATOM     74  C   UNL A   1      51.321  25.675  26.442  1.00  0.00     0.041 A 
ATOM     75  F   UNL A   1      49.761  25.588  28.186  1.00  0.00    -0.206 F 
ATOM     76  C   UNL A   1      51.677  26.081  25.160  1.00  0.00     0.022 A 
BRANCH  73  77
ATOM     77  S   UNL A   1      51.157  27.292  22.703  1.00  0.00     0.124 S 
ATOM     78  O   UNL A   1      49.923  26.885  22.043  1.00  0.00    -0.237 OA
ATOM     79  O   UNL A   1      51.405  28.728  22.773  1.00  0.00    -0.237 OA
ATOM     80  O   UNL A   1      52.329  26.473  22.399  1.00  0.00    -0.744 OA
ENDBRANCH  73  77
ENDBRANCH  46  70
BRANCH  58  81
ATOM     81  C   UNL A   1      46.383  32.659  28.969  1.00  0.00     0.023 A 
ATOM     82  C   UNL A   1      46.393  33.729  28.056  1.00  0.00     0.031 A 
ATOM     83  C   UNL A   1      46.952  32.870  30.239  1.00  0.00     0.131 A 
ATOM     84  C   UNL A   1      47.013  34.940  28.406  1.00  0.00     0.055 A 
ATOM     85  C   UNL A   1      47.505  34.097  30.604  1.00  0.00     0.041 A 
ATOM     86  F   UNL A   1      46.975  31.883  31.149  1.00  0.00    -0.206 F 
ATOM     87  C   UNL A   1      47.551  35.136  29.680  1.00  0.00     0.022 A 
BRANCH  84  88
ATOM     88  S   UNL A   1      47.197  36.222  27.136  1.00  0.00     0.124 S 
ATOM     89  O   UNL A   1      47.508  35.432  25.950  1.00  0.00    -0.237 OA
ATOM     90  O   UNL A   1      45.888  36.865  27.149  1.00  0.00    -0.237 OA
ATOM     91  O   UNL A   1      48.296  37.046  27.639  1.00  0.00    -0.744 OA
ENDBRANCH  84  88
ENDBRANCH  58  81
ENDBRANCH  32  33
ENDBRANCH  24  27
ENDBRANCH  22  23
ENDBRANCH   1  22
TORSDOF 16
ENDMDL
