MODEL 1
REMARK VINA RESULT:     -11.3      0.000      0.000
REMARK SMILES CN(CC(F)(F)F)C(=O)N1CC(n2cc(C(=O)NCCCNC(=O)c3ccc(-c4c5nc(c(-c6cc(S(=O)(=O)[O-])ccc6F)c6ccc([nH]6)c(-c6cc(S(=O)(=O)[O-])ccc6F)c6nc(c(-c7cc(S(=O)(=O)[O-])ccc7F)c7ccc4[nH]7)C=C6)C=C5)cc3)nn2)C1
REMARK SMILES IDX 19 1 18 2 16 3 17 4 15 6 13 7 14 8 89 9 88 10 12 11 8 12
REMARK SMILES IDX 9 13 10 14 11 15 90 16 2 17 1 18 3 19 4 20 5 21 6 22 7 23
REMARK SMILES IDX 20 24 21 25 22 26 23 27 24 29 25 30 26 31 87 32 27 33 86 34
REMARK SMILES IDX 28 35 29 36 30 37 80 38 31 39 85 40 79 41 81 42 32 43 84 44
REMARK SMILES IDX 78 45 77 46 33 48 65 49 45 50 64 51 46 52 49 53 63 54 82 55
REMARK SMILES IDX 47 56 48 57 62 59 83 60 50 61 34 62 35 63 43 64 36 65 42 66
REMARK SMILES IDX 44 67 41 68 37 69 38 70 39 71 40 72 66 73 67 74 75 75 68 76
REMARK SMILES IDX 74 77 76 78 73 79 69 80 70 81 71 82 72 83 51 84 52 85 60 86
REMARK SMILES IDX 53 87 59 88 61 89 58 90 54 91 55 92 56 93 57 94
REMARK H PARENT 18 5 22 28 81 47 49 58
REMARK Flexibility Score: inf
ROOT
ATOM      1  C   UNL A   1      33.950  31.756  28.287  1.00  0.00     0.118 C 
ENDROOT
BRANCH   1   2
ATOM      2  N   UNL A   1      34.020  33.154  27.885  1.00  0.00    -0.351 N 
ATOM      3  C   UNL A   1      34.303  34.283  28.620  1.00  0.00     0.273 C 
ATOM      4  O   UNL A   1      34.522  35.328  27.999  1.00  0.00    -0.267 OA
ATOM      5  H   UNL A   1      33.837  33.317  26.932  1.00  0.00     0.163 HD
BRANCH   3   6
ATOM      6  C   UNL A   1      34.363  34.234  30.075  1.00  0.00     0.170 A 
ATOM      7  N   UNL A   1      34.909  34.058  32.168  1.00  0.00    -0.245 N 
ATOM      8  C   UNL A   1      35.396  33.854  30.910  1.00  0.00     0.145 A 
ATOM      9  N   UNL A   1      33.641  34.485  32.138  1.00  0.00    -0.066 NA
ATOM     10  N   UNL A   1      33.280  34.564  30.864  1.00  0.00    -0.125 NA
BRANCH   7  11
ATOM     11  C   UNL A   1      35.694  33.898  33.349  1.00  0.00     0.148 C 
ATOM     12  C   UNL A   1      38.455  32.983  34.782  1.00  0.00     0.320 C 
ATOM     13  O   UNL A   1      38.657  33.813  35.667  1.00  0.00    -0.248 OA
ATOM     14  N   UNL A   1      37.620  33.252  33.731  1.00  0.00    -0.320 N 
ATOM     15  C   UNL A   1      37.066  34.562  33.363  1.00  0.00     0.150 C 
ATOM     16  C   UNL A   1      36.405  32.538  33.351  1.00  0.00     0.150 C 
BRANCH  12  17
ATOM     17  N   UNL A   1      39.096  31.753  34.770  1.00  0.00    -0.319 N 
ATOM     18  C   UNL A   1      38.776  30.828  35.845  1.00  0.00     0.149 C 
BRANCH  17  19
ATOM     19  C   UNL A   1      40.170  31.364  33.836  1.00  0.00     0.236 C 
BRANCH  19  20
ATOM     20  C   UNL A   1      39.736  30.511  32.643  1.00  0.00     0.406 C 
ATOM     21  F   UNL A   1      39.195  31.246  31.649  1.00  0.00    -0.169 F 
ATOM     22  F   UNL A   1      40.804  29.860  32.122  1.00  0.00    -0.169 F 
ATOM     23  F   UNL A   1      38.830  29.576  33.006  1.00  0.00    -0.169 F 
ENDBRANCH  19  20
ENDBRANCH  17  19
ENDBRANCH  12  17
ENDBRANCH   7  11
ENDBRANCH   3   6
ENDBRANCH   1   2
BRANCH   1  24
ATOM     24  C   UNL A   1      34.605  30.809  27.275  1.00  0.00     0.042 C 
BRANCH  24  25
ATOM     25  C   UNL A   1      35.406  29.702  27.945  1.00  0.00     0.118 C 
BRANCH  25  26
ATOM     26  N   UNL A   1      35.564  29.905  29.393  1.00  0.00    -0.352 N 
ATOM     27  C   UNL A   1      36.546  29.413  30.238  1.00  0.00     0.251 C 
ATOM     28  H   UNL A   1      34.878  30.468  29.819  1.00  0.00     0.163 HD
ATOM     29  O   UNL A   1      36.340  29.354  31.449  1.00  0.00    -0.269 OA
BRANCH  27  30
ATOM     30  C   UNL A   1      37.830  28.968  29.666  1.00  0.00     0.039 A 
ATOM     31  C   UNL A   1      38.469  29.625  28.609  1.00  0.00     0.014 A 
ATOM     32  C   UNL A   1      38.418  27.859  30.256  1.00  0.00     0.014 A 
ATOM     33  C   UNL A   1      39.737  29.186  28.218  1.00  0.00     0.010 A 
ATOM     34  C   UNL A   1      39.741  27.607  30.056  1.00  0.00     0.010 A 
ATOM     35  C   UNL A   1      40.370  28.179  28.963  1.00  0.00    -0.014 A 
BRANCH  35  36
ATOM     36  C   UNL A   1      41.744  27.751  28.736  1.00  0.00     0.031 A 
ATOM     37  C   UNL A   1      41.840  26.489  27.966  1.00  0.00     0.074 A 
ATOM     38  C   UNL A   1      42.800  28.580  28.914  1.00  0.00     0.049 A 
ATOM     39  N   UNL A   1      42.112  25.311  28.419  1.00  0.00    -0.248 NA
ATOM     40  C   UNL A   1      41.346  26.487  26.577  1.00  0.00     0.031 C 
ATOM     41  C   UNL A   1      42.787  29.985  29.348  1.00  0.00     0.029 A 
ATOM     42  N   UNL A   1      44.114  28.385  28.621  1.00  0.00    -0.354 N 
ATOM     43  C   UNL A   1      42.140  24.489  27.298  1.00  0.00     0.074 A 
ATOM     44  C   UNL A   1      41.371  25.182  26.303  1.00  0.00     0.031 C 
ATOM     45  C   UNL A   1      43.975  30.565  29.065  1.00  0.00     0.029 A 
ATOM     46  C   UNL A   1      44.891  29.544  28.589  1.00  0.00     0.049 A 
ATOM     47  H   UNL A   1      44.489  27.491  28.446  1.00  0.00     0.167 HD
ATOM     48  C   UNL A   1      43.074  23.501  27.185  1.00  0.00     0.034 A 
ATOM     49  C   UNL A   1      46.187  29.661  28.179  1.00  0.00     0.034 A 
ATOM     50  C   UNL A   1      43.735  23.287  28.463  1.00  0.00     0.049 A 
ATOM     51  C   UNL A   1      46.771  28.299  28.265  1.00  0.00     0.074 A 
ATOM     52  C   UNL A   1      43.303  22.987  29.742  1.00  0.00     0.029 A 
ATOM     53  N   UNL A   1      45.011  23.793  28.619  1.00  0.00    -0.354 N 
ATOM     54  N   UNL A   1      46.918  27.657  29.393  1.00  0.00    -0.248 NA
ATOM     55  C   UNL A   1      46.705  27.455  27.081  1.00  0.00     0.031 C 
ATOM     56  C   UNL A   1      44.115  23.788  30.602  1.00  0.00     0.029 A 
ATOM     57  C   UNL A   1      45.068  24.448  29.823  1.00  0.00     0.049 A 
ATOM     58  H   UNL A   1      45.751  23.699  27.976  1.00  0.00     0.167 HD
ATOM     59  C   UNL A   1      46.508  26.359  29.122  1.00  0.00     0.074 A 
ATOM     60  C   UNL A   1      46.489  26.270  27.661  1.00  0.00     0.031 C 
ATOM     61  C   UNL A   1      45.932  25.585  30.090  1.00  0.00     0.034 A 
BRANCH  48  62
ATOM     62  C   UNL A   1      43.714  23.049  25.880  1.00  0.00     0.023 A 
ATOM     63  C   UNL A   1      43.654  21.669  25.612  1.00  0.00     0.031 A 
ATOM     64  C   UNL A   1      44.603  23.782  25.062  1.00  0.00     0.131 A 
ATOM     65  C   UNL A   1      44.565  21.058  24.738  1.00  0.00     0.055 A 
ATOM     66  C   UNL A   1      45.465  23.177  24.141  1.00  0.00     0.041 A 
ATOM     67  F   UNL A   1      44.748  25.107  25.133  1.00  0.00    -0.206 F 
ATOM     68  C   UNL A   1      45.484  21.800  24.008  1.00  0.00     0.022 A 
BRANCH  65  69
ATOM     69  S   UNL A   1      44.658  19.252  24.750  1.00  0.00     0.124 S 
ATOM     70  O   UNL A   1      44.556  18.955  23.325  1.00  0.00    -0.237 OA
ATOM     71  O   UNL A   1      45.961  19.026  25.366  1.00  0.00    -0.237 OA
ATOM     72  O   UNL A   1      43.507  18.861  25.558  1.00  0.00    -0.744 OA
ENDBRANCH  65  69
ENDBRANCH  48  62
BRANCH  49  73
ATOM     73  C   UNL A   1      46.830  30.789  27.437  1.00  0.00     0.023 A 
ATOM     74  C   UNL A   1      46.129  31.943  27.011  1.00  0.00     0.031 A 
ATOM     75  C   UNL A   1      48.240  30.851  27.363  1.00  0.00     0.131 A 
ATOM     76  C   UNL A   1      46.837  33.083  26.546  1.00  0.00     0.055 A 
ATOM     77  C   UNL A   1      48.932  31.976  26.906  1.00  0.00     0.041 A 
ATOM     78  F   UNL A   1      49.002  29.842  27.818  1.00  0.00    -0.206 F 
ATOM     79  C   UNL A   1      48.232  33.103  26.505  1.00  0.00     0.022 A 
BRANCH  76  80
ATOM     80  S   UNL A   1      45.953  34.607  26.060  1.00  0.00     0.124 S 
ATOM     81  O   UNL A   1      45.785  34.425  24.623  1.00  0.00    -0.237 OA
ATOM     82  O   UNL A   1      44.743  34.543  26.870  1.00  0.00    -0.237 OA
ATOM     83  O   UNL A   1      46.881  35.676  26.434  1.00  0.00    -0.744 OA
ENDBRANCH  76  80
ENDBRANCH  49  73
BRANCH  61  84
ATOM     84  C   UNL A   1      46.041  26.036  31.536  1.00  0.00     0.023 A 
ATOM     85  C   UNL A   1      44.992  26.600  32.302  1.00  0.00     0.031 A 
ATOM     86  C   UNL A   1      47.253  25.762  32.194  1.00  0.00     0.131 A 
ATOM     87  C   UNL A   1      45.191  26.872  33.672  1.00  0.00     0.055 A 
ATOM     88  C   UNL A   1      47.436  26.012  33.552  1.00  0.00     0.041 A 
ATOM     89  F   UNL A   1      48.277  25.203  31.528  1.00  0.00    -0.206 F 
ATOM     90  C   UNL A   1      46.407  26.575  34.295  1.00  0.00     0.022 A 
BRANCH  87  91
ATOM     91  S   UNL A   1      43.875  27.640  34.675  1.00  0.00     0.124 S 
ATOM     92  O   UNL A   1      43.036  26.513  35.061  1.00  0.00    -0.237 OA
ATOM     93  O   UNL A   1      44.629  28.275  35.754  1.00  0.00    -0.237 OA
ATOM     94  O   UNL A   1      43.243  28.580  33.747  1.00  0.00    -0.744 OA
ENDBRANCH  87  91
ENDBRANCH  61  84
ENDBRANCH  35  36
ENDBRANCH  27  30
ENDBRANCH  25  26
ENDBRANCH  24  25
ENDBRANCH   1  24
TORSDOF 17
ENDMDL
MODEL 2
REMARK VINA RESULT:     -11.2      4.831     10.302
REMARK SMILES CN(CC(F)(F)F)C(=O)N1CC(n2cc(C(=O)NCCCNC(=O)c3ccc(-c4c5nc(c(-c6cc(S(=O)(=O)[O-])ccc6F)c6ccc([nH]6)c(-c6cc(S(=O)(=O)[O-])ccc6F)c6nc(c(-c7cc(S(=O)(=O)[O-])ccc7F)c7ccc4[nH]7)C=C6)C=C5)cc3)nn2)C1
REMARK SMILES IDX 19 1 18 2 16 3 17 4 15 6 13 7 14 8 89 9 88 10 12 11 8 12
REMARK SMILES IDX 9 13 10 14 11 15 90 16 2 17 1 18 3 19 4 20 5 21 6 22 7 23
REMARK SMILES IDX 20 24 21 25 22 26 23 27 24 29 25 30 26 31 87 32 27 33 86 34
REMARK SMILES IDX 28 35 29 36 30 37 80 38 31 39 85 40 79 41 81 42 32 43 84 44
REMARK SMILES IDX 78 45 77 46 33 48 65 49 45 50 64 51 46 52 49 53 63 54 82 55
REMARK SMILES IDX 47 56 48 57 62 59 83 60 50 61 34 62 35 63 43 64 36 65 42 66
REMARK SMILES IDX 44 67 41 68 37 69 38 70 39 71 40 72 66 73 67 74 75 75 68 76
REMARK SMILES IDX 74 77 76 78 73 79 69 80 70 81 71 82 72 83 51 84 52 85 60 86
REMARK SMILES IDX 53 87 59 88 61 89 58 90 54 91 55 92 56 93 57 94
REMARK H PARENT 18 5 22 28 81 47 49 58
REMARK Flexibility Score: inf
ROOT
ATOM      1  C   UNL A   1      36.214  20.609  25.077  1.00  0.00     0.118 C 
ENDROOT
BRANCH   1   2
ATOM      2  N   UNL A   1      35.122  19.651  25.172  1.00  0.00    -0.351 N 
ATOM      3  C   UNL A   1      33.787  19.780  24.858  1.00  0.00     0.273 C 
ATOM      4  O   UNL A   1      33.108  18.750  24.817  1.00  0.00    -0.267 OA
ATOM      5  H   UNL A   1      35.380  18.766  25.517  1.00  0.00     0.163 HD
BRANCH   3   6
ATOM      6  C   UNL A   1      33.212  21.086  24.563  1.00  0.00     0.170 A 
ATOM      7  N   UNL A   1      32.719  23.067  23.824  1.00  0.00    -0.245 N 
ATOM      8  C   UNL A   1      33.697  22.115  23.780  1.00  0.00     0.145 A 
ATOM      9  N   UNL A   1      31.709  22.693  24.619  1.00  0.00    -0.066 NA
ATOM     10  N   UNL A   1      32.012  21.497  25.107  1.00  0.00    -0.125 NA
BRANCH   7  11
ATOM     11  C   UNL A   1      32.758  24.268  23.054  1.00  0.00     0.148 C 
ATOM     12  C   UNL A   1      33.165  27.480  22.880  1.00  0.00     0.320 C 
ATOM     13  O   UNL A   1      33.774  27.678  21.829  1.00  0.00    -0.248 OA
ATOM     14  N   UNL A   1      33.164  26.249  23.480  1.00  0.00    -0.320 N 
ATOM     15  C   UNL A   1      34.026  25.108  23.146  1.00  0.00     0.150 C 
ATOM     16  C   UNL A   1      32.012  25.400  23.772  1.00  0.00     0.150 C 
BRANCH  12  17
ATOM     17  N   UNL A   1      32.493  28.497  23.540  1.00  0.00    -0.319 N 
ATOM     18  C   UNL A   1      31.252  28.966  22.946  1.00  0.00     0.149 C 
BRANCH  17  19
ATOM     19  C   UNL A   1      33.002  29.228  24.717  1.00  0.00     0.236 C 
BRANCH  19  20
ATOM     20  C   UNL A   1      32.323  28.899  26.048  1.00  0.00     0.406 C 
ATOM     21  F   UNL A   1      31.511  27.825  25.965  1.00  0.00    -0.169 F 
ATOM     22  F   UNL A   1      33.255  28.623  26.991  1.00  0.00    -0.169 F 
ATOM     23  F   UNL A   1      31.588  29.940  26.499  1.00  0.00    -0.169 F 
ENDBRANCH  19  20
ENDBRANCH  17  19
ENDBRANCH  12  17
ENDBRANCH   7  11
ENDBRANCH   3   6
ENDBRANCH   1   2
BRANCH   1  24
ATOM     24  C   UNL A   1      37.547  19.960  24.688  1.00  0.00     0.042 C 
BRANCH  24  25
ATOM     25  C   UNL A   1      38.696  20.407  25.580  1.00  0.00     0.118 C 
BRANCH  25  26
ATOM     26  N   UNL A   1      39.709  19.360  25.776  1.00  0.00    -0.352 N 
ATOM     27  C   UNL A   1      41.071  19.497  25.999  1.00  0.00     0.251 C 
ATOM     28  H   UNL A   1      39.375  18.435  25.747  1.00  0.00     0.163 HD
ATOM     29  O   UNL A   1      41.828  18.556  25.771  1.00  0.00    -0.269 OA
BRANCH  27  30
ATOM     30  C   UNL A   1      41.589  20.779  26.510  1.00  0.00     0.039 A 
ATOM     31  C   UNL A   1      42.188  21.745  25.694  1.00  0.00     0.014 A 
ATOM     32  C   UNL A   1      41.424  21.016  27.866  1.00  0.00     0.014 A 
ATOM     33  C   UNL A   1      42.543  22.972  26.262  1.00  0.00     0.010 A 
ATOM     34  C   UNL A   1      41.523  22.286  28.349  1.00  0.00     0.010 A 
ATOM     35  C   UNL A   1      42.190  23.236  27.594  1.00  0.00    -0.014 A 
BRANCH  35  36
ATOM     36  C   UNL A   1      42.377  24.529  28.238  1.00  0.00     0.031 A 
ATOM     37  C   UNL A   1      41.216  25.435  28.073  1.00  0.00     0.074 A 
ATOM     38  C   UNL A   1      43.349  24.747  29.155  1.00  0.00     0.049 A 
ATOM     39  N   UNL A   1      41.116  26.445  27.275  1.00  0.00    -0.248 NA
ATOM     40  C   UNL A   1      39.935  25.036  28.684  1.00  0.00     0.031 C 
ATOM     41  C   UNL A   1      44.352  23.797  29.657  1.00  0.00     0.029 A 
ATOM     42  N   UNL A   1      43.573  25.838  29.938  1.00  0.00    -0.354 N 
ATOM     43  C   UNL A   1      39.866  26.994  27.541  1.00  0.00     0.074 A 
ATOM     44  C   UNL A   1      39.109  25.932  28.142  1.00  0.00     0.031 C 
ATOM     45  C   UNL A   1      44.903  24.269  30.799  1.00  0.00     0.029 A 
ATOM     46  C   UNL A   1      44.424  25.621  31.024  1.00  0.00     0.049 A 
ATOM     47  H   UNL A   1      43.164  26.714  29.752  1.00  0.00     0.167 HD
ATOM     48  C   UNL A   1      39.692  28.346  27.563  1.00  0.00     0.034 A 
ATOM     49  C   UNL A   1      44.699  26.483  32.044  1.00  0.00     0.034 A 
ATOM     50  C   UNL A   1      40.852  29.011  26.992  1.00  0.00     0.049 A 
ATOM     51  C   UNL A   1      44.355  27.838  31.545  1.00  0.00     0.074 A 
ATOM     52  C   UNL A   1      41.521  28.931  25.784  1.00  0.00     0.029 A 
ATOM     53  N   UNL A   1      41.743  29.609  27.861  1.00  0.00    -0.354 N 
ATOM     54  N   UNL A   1      44.981  28.412  30.553  1.00  0.00    -0.248 NA
ATOM     55  C   UNL A   1      43.006  28.330  31.787  1.00  0.00     0.031 C 
ATOM     56  C   UNL A   1      42.906  29.008  26.123  1.00  0.00     0.029 A 
ATOM     57  C   UNL A   1      43.012  29.240  27.496  1.00  0.00     0.049 A 
ATOM     58  H   UNL A   1      41.507  30.200  28.613  1.00  0.00     0.167 HD
ATOM     59  C   UNL A   1      43.981  28.983  29.780  1.00  0.00     0.074 A 
ATOM     60  C   UNL A   1      42.799  28.991  30.643  1.00  0.00     0.031 C 
ATOM     61  C   UNL A   1      44.121  29.110  28.426  1.00  0.00     0.034 A 
BRANCH  48  62
ATOM     62  C   UNL A   1      38.730  29.088  28.480  1.00  0.00     0.023 A 
ATOM     63  C   UNL A   1      39.006  29.004  29.858  1.00  0.00     0.031 A 
ATOM     64  C   UNL A   1      37.452  29.595  28.154  1.00  0.00     0.131 A 
ATOM     65  C   UNL A   1      38.003  29.215  30.815  1.00  0.00     0.055 A 
ATOM     66  C   UNL A   1      36.473  29.869  29.115  1.00  0.00     0.041 A 
ATOM     67  F   UNL A   1      37.037  29.799  26.901  1.00  0.00    -0.206 F 
ATOM     68  C   UNL A   1      36.728  29.635  30.454  1.00  0.00     0.022 A 
BRANCH  65  69
ATOM     69  S   UNL A   1      38.348  28.717  32.519  1.00  0.00     0.124 S 
ATOM     70  O   UNL A   1      37.003  28.688  33.082  1.00  0.00    -0.237 OA
ATOM     71  O   UNL A   1      38.996  27.424  32.323  1.00  0.00    -0.237 OA
ATOM     72  O   UNL A   1      39.215  29.784  33.012  1.00  0.00    -0.744 OA
ENDBRANCH  65  69
ENDBRANCH  48  62
BRANCH  49  73
ATOM     73  C   UNL A   1      44.931  26.171  33.489  1.00  0.00     0.023 A 
ATOM     74  C   UNL A   1      43.925  26.274  34.481  1.00  0.00     0.031 A 
ATOM     75  C   UNL A   1      46.118  25.505  33.869  1.00  0.00     0.131 A 
ATOM     76  C   UNL A   1      44.131  25.723  35.773  1.00  0.00     0.055 A 
ATOM     77  C   UNL A   1      46.314  24.962  35.142  1.00  0.00     0.041 A 
ATOM     78  F   UNL A   1      47.100  25.281  32.980  1.00  0.00    -0.206 F 
ATOM     79  C   UNL A   1      45.316  25.059  36.097  1.00  0.00     0.022 A 
BRANCH  76  80
ATOM     80  S   UNL A   1      42.819  25.783  37.043  1.00  0.00     0.124 S 
ATOM     81  O   UNL A   1      43.514  25.305  38.233  1.00  0.00    -0.237 OA
ATOM     82  O   UNL A   1      42.436  27.190  37.035  1.00  0.00    -0.237 OA
ATOM     83  O   UNL A   1      41.798  24.871  36.526  1.00  0.00    -0.744 OA
ENDBRANCH  76  80
ENDBRANCH  49  73
BRANCH  61  84
ATOM     84  C   UNL A   1      45.502  28.923  27.822  1.00  0.00     0.023 A 
ATOM     85  C   UNL A   1      46.041  27.695  27.368  1.00  0.00     0.031 A 
ATOM     86  C   UNL A   1      46.255  30.088  27.593  1.00  0.00     0.131 A 
ATOM     87  C   UNL A   1      47.294  27.674  26.721  1.00  0.00     0.055 A 
ATOM     88  C   UNL A   1      47.482  30.064  26.934  1.00  0.00     0.041 A 
ATOM     89  F   UNL A   1      45.786  31.287  27.977  1.00  0.00    -0.206 F 
ATOM     90  C   UNL A   1      48.009  28.856  26.501  1.00  0.00     0.022 A 
BRANCH  87  91
ATOM     91  S   UNL A   1      48.036  26.103  26.166  1.00  0.00     0.124 S 
ATOM     92  O   UNL A   1      48.696  25.593  27.361  1.00  0.00    -0.237 OA
ATOM     93  O   UNL A   1      46.872  25.348  25.707  1.00  0.00    -0.237 OA
ATOM     94  O   UNL A   1      48.948  26.515  25.096  1.00  0.00    -0.744 OA
ENDBRANCH  87  91
ENDBRANCH  61  84
ENDBRANCH  35  36
ENDBRANCH  27  30
ENDBRANCH  25  26
ENDBRANCH  24  25
ENDBRANCH   1  24
TORSDOF 17
ENDMDL
MODEL 3
REMARK VINA RESULT:     -11.0      4.837      8.282
REMARK SMILES CN(CC(F)(F)F)C(=O)N1CC(n2cc(C(=O)NCCCNC(=O)c3ccc(-c4c5nc(c(-c6cc(S(=O)(=O)[O-])ccc6F)c6ccc([nH]6)c(-c6cc(S(=O)(=O)[O-])ccc6F)c6nc(c(-c7cc(S(=O)(=O)[O-])ccc7F)c7ccc4[nH]7)C=C6)C=C5)cc3)nn2)C1
REMARK SMILES IDX 19 1 18 2 16 3 17 4 15 6 13 7 14 8 89 9 88 10 12 11 8 12
REMARK SMILES IDX 9 13 10 14 11 15 90 16 2 17 1 18 3 19 4 20 5 21 6 22 7 23
REMARK SMILES IDX 20 24 21 25 22 26 23 27 24 29 25 30 26 31 87 32 27 33 86 34
REMARK SMILES IDX 28 35 29 36 30 37 80 38 31 39 85 40 79 41 81 42 32 43 84 44
REMARK SMILES IDX 78 45 77 46 33 48 65 49 45 50 64 51 46 52 49 53 63 54 82 55
REMARK SMILES IDX 47 56 48 57 62 59 83 60 50 61 34 62 35 63 43 64 36 65 42 66
REMARK SMILES IDX 44 67 41 68 37 69 38 70 39 71 40 72 66 73 67 74 75 75 68 76
REMARK SMILES IDX 74 77 76 78 73 79 69 80 70 81 71 82 72 83 51 84 52 85 60 86
REMARK SMILES IDX 53 87 59 88 61 89 58 90 54 91 55 92 56 93 57 94
REMARK H PARENT 18 5 22 28 81 47 49 58
REMARK Flexibility Score: inf
ROOT
ATOM      1  C   UNL A   1      31.279  29.805  25.335  1.00  0.00     0.118 C 
ENDROOT
BRANCH   1   2
ATOM      2  N   UNL A   1      31.066  29.993  23.906  1.00  0.00    -0.351 N 
ATOM      3  C   UNL A   1      30.516  29.152  22.965  1.00  0.00     0.273 C 
ATOM      4  O   UNL A   1      30.242  29.632  21.861  1.00  0.00    -0.267 OA
ATOM      5  H   UNL A   1      31.364  30.863  23.557  1.00  0.00     0.163 HD
BRANCH   3   6
ATOM      6  C   UNL A   1      30.248  27.754  23.277  1.00  0.00     0.170 A 
ATOM      7  N   UNL A   1      30.317  25.625  23.694  1.00  0.00    -0.245 N 
ATOM      8  C   UNL A   1      31.095  26.663  23.269  1.00  0.00     0.145 A 
ATOM      9  N   UNL A   1      29.055  26.015  23.907  1.00  0.00    -0.066 NA
ATOM     10  N   UNL A   1      28.988  27.309  23.622  1.00  0.00    -0.125 NA
BRANCH   7  11
ATOM     11  C   UNL A   1      30.826  24.315  23.943  1.00  0.00     0.148 C 
ATOM     12  C   UNL A   1      32.872  22.346  25.509  1.00  0.00     0.320 C 
ATOM     13  O   UNL A   1      32.229  21.325  25.746  1.00  0.00    -0.248 OA
ATOM     14  N   UNL A   1      32.247  23.531  25.223  1.00  0.00    -0.320 N 
ATOM     15  C   UNL A   1      30.818  23.831  25.388  1.00  0.00     0.150 C 
ATOM     16  C   UNL A   1      32.359  24.327  24.005  1.00  0.00     0.150 C 
BRANCH  12  17
ATOM     17  N   UNL A   1      34.257  22.371  25.568  1.00  0.00    -0.319 N 
ATOM     18  C   UNL A   1      34.859  23.024  26.719  1.00  0.00     0.149 C 
BRANCH  17  19
ATOM     19  C   UNL A   1      35.162  21.909  24.498  1.00  0.00     0.236 C 
BRANCH  19  20
ATOM     20  C   UNL A   1      36.100  22.969  23.918  1.00  0.00     0.406 C 
ATOM     21  F   UNL A   1      37.278  23.033  24.573  1.00  0.00    -0.169 F 
ATOM     22  F   UNL A   1      36.379  22.686  22.623  1.00  0.00    -0.169 F 
ATOM     23  F   UNL A   1      35.541  24.199  23.953  1.00  0.00    -0.169 F 
ENDBRANCH  19  20
ENDBRANCH  17  19
ENDBRANCH  12  17
ENDBRANCH   7  11
ENDBRANCH   3   6
ENDBRANCH   1   2
BRANCH   1  24
ATOM     24  C   UNL A   1      32.544  30.502  25.848  1.00  0.00     0.042 C 
BRANCH  24  25
ATOM     25  C   UNL A   1      32.350  31.127  27.222  1.00  0.00     0.118 C 
BRANCH  25  26
ATOM     26  N   UNL A   1      32.166  32.585  27.166  1.00  0.00    -0.352 N 
ATOM     27  C   UNL A   1      32.825  33.572  27.882  1.00  0.00     0.251 C 
ATOM     28  H   UNL A   1      31.481  32.902  26.535  1.00  0.00     0.163 HD
ATOM     29  O   UNL A   1      32.316  34.685  28.004  1.00  0.00    -0.269 OA
BRANCH  27  30
ATOM     30  C   UNL A   1      34.136  33.269  28.485  1.00  0.00     0.039 A 
ATOM     31  C   UNL A   1      34.294  32.873  29.817  1.00  0.00     0.014 A 
ATOM     32  C   UNL A   1      35.237  33.359  27.647  1.00  0.00     0.014 A 
ATOM     33  C   UNL A   1      35.568  32.500  30.256  1.00  0.00     0.010 A 
ATOM     34  C   UNL A   1      36.405  32.752  27.997  1.00  0.00     0.010 A 
ATOM     35  C   UNL A   1      36.617  32.431  29.327  1.00  0.00    -0.014 A 
BRANCH  35  36
ATOM     36  C   UNL A   1      37.943  31.916  29.644  1.00  0.00     0.031 A 
ATOM     37  C   UNL A   1      38.127  30.501  29.246  1.00  0.00     0.074 A 
ATOM     38  C   UNL A   1      38.981  32.729  29.953  1.00  0.00     0.049 A 
ATOM     39  N   UNL A   1      38.124  29.463  30.014  1.00  0.00    -0.248 NA
ATOM     40  C   UNL A   1      38.069  30.172  27.810  1.00  0.00     0.031 C 
ATOM     41  C   UNL A   1      38.990  34.196  30.034  1.00  0.00     0.029 A 
ATOM     42  N   UNL A   1      40.294  32.424  30.138  1.00  0.00    -0.354 N 
ATOM     43  C   UNL A   1      38.395  28.389  29.172  1.00  0.00     0.074 A 
ATOM     44  C   UNL A   1      38.033  28.839  27.858  1.00  0.00     0.031 C 
ATOM     45  C   UNL A   1      40.264  34.650  30.015  1.00  0.00     0.029 A 
ATOM     46  C   UNL A   1      41.165  33.514  30.091  1.00  0.00     0.049 A 
ATOM     47  H   UNL A   1      40.605  31.504  30.294  1.00  0.00     0.167 HD
ATOM     48  C   UNL A   1      39.209  27.374  29.582  1.00  0.00     0.034 A 
ATOM     49  C   UNL A   1      42.529  33.484  30.093  1.00  0.00     0.034 A 
ATOM     50  C   UNL A   1      39.435  27.460  31.017  1.00  0.00     0.049 A 
ATOM     51  C   UNL A   1      42.912  32.167  30.660  1.00  0.00     0.074 A 
ATOM     52  C   UNL A   1      38.614  27.499  32.129  1.00  0.00     0.029 A 
ATOM     53  N   UNL A   1      40.654  27.948  31.447  1.00  0.00    -0.354 N 
ATOM     54  N   UNL A   1      42.649  31.818  31.891  1.00  0.00    -0.248 NA
ATOM     55  C   UNL A   1      43.109  31.060  29.736  1.00  0.00     0.031 C 
ATOM     56  C   UNL A   1      39.216  28.460  32.997  1.00  0.00     0.029 A 
ATOM     57  C   UNL A   1      40.422  28.876  32.429  1.00  0.00     0.049 A 
ATOM     58  H   UNL A   1      41.537  27.674  31.107  1.00  0.00     0.167 HD
ATOM     59  C   UNL A   1      42.201  30.508  31.804  1.00  0.00     0.074 A 
ATOM     60  C   UNL A   1      42.606  30.062  30.470  1.00  0.00     0.031 C 
ATOM     61  C   UNL A   1      41.284  30.016  32.691  1.00  0.00     0.034 A 
BRANCH  48  62
ATOM     62  C   UNL A   1      40.154  26.594  28.680  1.00  0.00     0.023 A 
ATOM     63  C   UNL A   1      41.207  27.332  28.108  1.00  0.00     0.031 A 
ATOM     64  C   UNL A   1      39.944  25.314  28.119  1.00  0.00     0.131 A 
ATOM     65  C   UNL A   1      41.847  26.898  26.938  1.00  0.00     0.055 A 
ATOM     66  C   UNL A   1      40.632  24.855  26.991  1.00  0.00     0.041 A 
ATOM     67  F   UNL A   1      39.030  24.452  28.571  1.00  0.00    -0.206 F 
ATOM     68  C   UNL A   1      41.558  25.667  26.363  1.00  0.00     0.022 A 
BRANCH  65  69
ATOM     69  S   UNL A   1      42.907  28.081  26.072  1.00  0.00     0.124 S 
ATOM     70  O   UNL A   1      42.517  27.847  24.686  1.00  0.00    -0.237 OA
ATOM     71  O   UNL A   1      42.480  29.346  26.661  1.00  0.00    -0.237 OA
ATOM     72  O   UNL A   1      44.255  27.647  26.429  1.00  0.00    -0.744 OA
ENDBRANCH  65  69
ENDBRANCH  48  62
BRANCH  49  73
ATOM     73  C   UNL A   1      43.480  34.373  29.356  1.00  0.00     0.023 A 
ATOM     74  C   UNL A   1      44.082  34.021  28.124  1.00  0.00     0.031 A 
ATOM     75  C   UNL A   1      43.609  35.724  29.752  1.00  0.00     0.131 A 
ATOM     76  C   UNL A   1      44.765  34.999  27.353  1.00  0.00     0.055 A 
ATOM     77  C   UNL A   1      44.280  36.682  28.988  1.00  0.00     0.041 A 
ATOM     78  F   UNL A   1      43.006  36.180  30.862  1.00  0.00    -0.206 F 
ATOM     79  C   UNL A   1      44.853  36.326  27.778  1.00  0.00     0.022 A 
BRANCH  76  80
ATOM     80  S   UNL A   1      45.487  34.580  25.727  1.00  0.00     0.124 S 
ATOM     81  O   UNL A   1      46.414  35.684  25.503  1.00  0.00    -0.237 OA
ATOM     82  O   UNL A   1      46.081  33.271  25.972  1.00  0.00    -0.237 OA
ATOM     83  O   UNL A   1      44.329  34.566  24.831  1.00  0.00    -0.744 OA
ENDBRANCH  76  80
ENDBRANCH  49  73
BRANCH  61  84
ATOM     84  C   UNL A   1      41.008  30.805  33.958  1.00  0.00     0.023 A 
ATOM     85  C   UNL A   1      39.908  31.672  34.163  1.00  0.00     0.031 A 
ATOM     86  C   UNL A   1      41.856  30.561  35.052  1.00  0.00     0.131 A 
ATOM     87  C   UNL A   1      39.702  32.260  35.428  1.00  0.00     0.055 A 
ATOM     88  C   UNL A   1      41.636  31.128  36.306  1.00  0.00     0.041 A 
ATOM     89  F   UNL A   1      42.903  29.729  34.929  1.00  0.00    -0.206 F 
ATOM     90  C   UNL A   1      40.561  31.985  36.497  1.00  0.00     0.022 A 
BRANCH  87  91
ATOM     91  S   UNL A   1      38.320  33.416  35.711  1.00  0.00     0.124 S 
ATOM     92  O   UNL A   1      38.474  33.801  37.108  1.00  0.00    -0.237 OA
ATOM     93  O   UNL A   1      38.577  34.465  34.727  1.00  0.00    -0.237 OA
ATOM     94  O   UNL A   1      37.133  32.605  35.432  1.00  0.00    -0.744 OA
ENDBRANCH  87  91
ENDBRANCH  61  84
ENDBRANCH  35  36
ENDBRANCH  27  30
ENDBRANCH  25  26
ENDBRANCH  24  25
ENDBRANCH   1  24
TORSDOF 17
ENDMDL
