MODEL 1
REMARK VINA RESULT:     -12.8      0.000      0.000
REMARK SMILES O=C(NCCCNC(=O)c1cc(N/N=C/C2=c3ccccc3=NC2)ccc1Cl)c1ccc(-c2c3nc(c(-c4cc(S(=O)(=O)[O-])ccc4F)c4ccc([nH]4)c(-c4cc(S(=O)(=O)[O-])ccc4F)c4nc(c(-c5cc(S(=O)(=O)[O-])ccc5F)c5ccc2[nH]5)C=C4)C=C3)cc1
REMARK SMILES IDX 5 1 4 2 3 3 1 4 2 5 29 7 30 8 91 9 31 10 90 11 32 12 33 13
REMARK SMILES IDX 34 14 84 15 35 16 89 17 83 18 85 19 36 20 88 21 82 22 81 23
REMARK SMILES IDX 37 25 69 26 49 27 68 28 50 29 53 30 67 31 86 32 51 33 52 34
REMARK SMILES IDX 66 36 87 37 54 38 38 39 39 40 47 41 40 42 46 43 48 44 45 45
REMARK SMILES IDX 41 46 42 47 43 48 44 49 70 50 71 51 79 52 72 53 78 54 80 55
REMARK SMILES IDX 77 56 73 57 74 58 75 59 76 60 55 61 56 62 64 63 57 64 63 65
REMARK SMILES IDX 65 66 62 67 58 68 59 69 60 70 61 71 6 72 7 73 8 74 9 76
REMARK SMILES IDX 10 77 11 78 27 79 12 80 26 81 28 82 25 83 13 84 14 86 15 87
REMARK SMILES IDX 16 88 17 89 24 90 18 91 22 92 23 93 19 94 21 95 20 96
REMARK H PARENT 3 6 85 24 53 35 7 75 13 85
REMARK Flexibility Score: inf
ROOT
ATOM      1  C   UNL A   1      31.887  31.275  26.546  1.00  0.00     0.042 C 
ENDROOT
BRANCH   1   2
ATOM      2  C   UNL A   1      33.006  31.926  27.346  1.00  0.00     0.118 C 
BRANCH   2   3
ATOM      3  N   UNL A   1      32.744  33.331  27.626  1.00  0.00    -0.352 N 
ATOM      4  O   UNL A   1      32.704  35.244  28.793  1.00  0.00    -0.269 OA
ATOM      5  C   UNL A   1      33.249  34.160  28.594  1.00  0.00     0.251 C 
ATOM      6  H   UNL A   1      32.096  33.756  27.018  1.00  0.00     0.163 HD
BRANCH   5   7
ATOM      7  C   UNL A   1      34.437  33.777  29.389  1.00  0.00     0.039 A 
ATOM      8  C   UNL A   1      35.692  34.266  29.010  1.00  0.00     0.014 A 
ATOM      9  C   UNL A   1      34.340  32.864  30.441  1.00  0.00     0.014 A 
ATOM     10  C   UNL A   1      36.840  33.847  29.689  1.00  0.00     0.010 A 
ATOM     11  C   UNL A   1      35.469  32.521  31.176  1.00  0.00     0.010 A 
ATOM     12  C   UNL A   1      36.737  32.971  30.778  1.00  0.00    -0.014 A 
BRANCH  12  13
ATOM     13  C   UNL A   1      37.933  32.394  31.443  1.00  0.00     0.031 A 
ATOM     14  C   UNL A   1      38.632  31.230  30.790  1.00  0.00     0.074 A 
ATOM     15  C   UNL A   1      38.349  32.855  32.638  1.00  0.00     0.049 A 
ATOM     16  N   UNL A   1      39.572  30.459  31.266  1.00  0.00    -0.248 NA
ATOM     17  C   UNL A   1      38.190  30.864  29.431  1.00  0.00     0.031 C 
ATOM     18  C   UNL A   1      37.748  33.973  33.363  1.00  0.00     0.029 A 
ATOM     19  N   UNL A   1      39.361  32.428  33.463  1.00  0.00    -0.354 N 
ATOM     20  C   UNL A   1      39.808  29.502  30.284  1.00  0.00     0.074 A 
ATOM     21  C   UNL A   1      38.880  29.756  29.207  1.00  0.00     0.031 C 
ATOM     22  C   UNL A   1      38.404  34.146  34.521  1.00  0.00     0.029 A 
ATOM     23  C   UNL A   1      39.435  33.117  34.651  1.00  0.00     0.049 A 
ATOM     24  H   UNL A   1      39.976  31.697  33.225  1.00  0.00     0.167 HD
ATOM     25  C   UNL A   1      40.737  28.520  30.273  1.00  0.00     0.034 A 
ATOM     26  C   UNL A   1      40.221  32.924  35.733  1.00  0.00     0.034 A 
ATOM     27  C   UNL A   1      41.695  28.325  31.326  1.00  0.00     0.049 A 
ATOM     28  C   UNL A   1      41.251  31.818  35.698  1.00  0.00     0.074 A 
ATOM     29  C   UNL A   1      42.717  27.396  31.381  1.00  0.00     0.029 A 
ATOM     30  N   UNL A   1      41.766  29.072  32.491  1.00  0.00    -0.354 N 
ATOM     31  N   UNL A   1      41.501  30.959  34.737  1.00  0.00    -0.248 NA
ATOM     32  C   UNL A   1      42.110  31.652  36.880  1.00  0.00     0.031 C 
ATOM     33  C   UNL A   1      43.364  27.536  32.605  1.00  0.00     0.029 A 
ATOM     34  C   UNL A   1      42.804  28.610  33.279  1.00  0.00     0.049 A 
ATOM     35  H   UNL A   1      41.169  29.820  32.722  1.00  0.00     0.167 HD
ATOM     36  C   UNL A   1      42.569  30.184  35.181  1.00  0.00     0.074 A 
ATOM     37  C   UNL A   1      42.926  30.679  36.493  1.00  0.00     0.031 C 
ATOM     38  C   UNL A   1      43.190  29.150  34.560  1.00  0.00     0.034 A 
BRANCH  25  39
ATOM     39  C   UNL A   1      40.816  27.592  29.089  1.00  0.00     0.023 A 
ATOM     40  C   UNL A   1      41.755  27.841  28.071  1.00  0.00     0.031 A 
ATOM     41  C   UNL A   1      39.857  26.585  28.881  1.00  0.00     0.131 A 
ATOM     42  C   UNL A   1      41.675  27.136  26.865  1.00  0.00     0.055 A 
ATOM     43  C   UNL A   1      39.814  25.849  27.697  1.00  0.00     0.041 A 
ATOM     44  F   UNL A   1      38.941  26.311  29.824  1.00  0.00    -0.206 F 
ATOM     45  C   UNL A   1      40.715  26.136  26.675  1.00  0.00     0.022 A 
BRANCH  42  46
ATOM     46  S   UNL A   1      42.756  27.549  25.468  1.00  0.00     0.124 S 
ATOM     47  O   UNL A   1      42.781  26.290  24.725  1.00  0.00    -0.237 OA
ATOM     48  O   UNL A   1      42.023  28.637  24.829  1.00  0.00    -0.237 OA
ATOM     49  O   UNL A   1      44.018  27.918  26.099  1.00  0.00    -0.744 OA
ENDBRANCH  42  46
ENDBRANCH  25  39
BRANCH  26  50
ATOM     50  C   UNL A   1      40.078  33.828  36.915  1.00  0.00     0.023 A 
ATOM     51  C   UNL A   1      39.456  33.384  38.096  1.00  0.00     0.031 A 
ATOM     52  C   UNL A   1      40.482  35.173  36.851  1.00  0.00     0.131 A 
ATOM     53  C   UNL A   1      39.199  34.288  39.136  1.00  0.00     0.055 A 
ATOM     54  C   UNL A   1      40.293  36.052  37.920  1.00  0.00     0.041 A 
ATOM     55  F   UNL A   1      41.066  35.652  35.743  1.00  0.00    -0.206 F 
ATOM     56  C   UNL A   1      39.632  35.615  39.064  1.00  0.00     0.022 A 
BRANCH  53  57
ATOM     57  S   UNL A   1      38.172  33.807  40.553  1.00  0.00     0.124 S 
ATOM     58  O   UNL A   1      37.900  35.095  41.183  1.00  0.00    -0.237 OA
ATOM     59  O   UNL A   1      37.032  33.171  39.895  1.00  0.00    -0.237 OA
ATOM     60  O   UNL A   1      39.032  32.901  41.309  1.00  0.00    -0.744 OA
ENDBRANCH  53  57
ENDBRANCH  26  50
BRANCH  38  61
ATOM     61  C   UNL A   1      44.363  28.476  35.229  1.00  0.00     0.023 A 
ATOM     62  C   UNL A   1      44.124  27.464  36.182  1.00  0.00     0.031 A 
ATOM     63  C   UNL A   1      45.664  28.988  35.112  1.00  0.00     0.131 A 
ATOM     64  C   UNL A   1      45.154  27.054  37.035  1.00  0.00     0.055 A 
ATOM     65  C   UNL A   1      46.703  28.533  35.928  1.00  0.00     0.041 A 
ATOM     66  F   UNL A   1      45.937  29.962  34.229  1.00  0.00    -0.206 F 
ATOM     67  C   UNL A   1      46.445  27.579  36.909  1.00  0.00     0.022 A 
BRANCH  64  68
ATOM     68  S   UNL A   1      44.828  25.925  38.417  1.00  0.00     0.124 S 
ATOM     69  O   UNL A   1      44.081  24.853  37.762  1.00  0.00    -0.237 OA
ATOM     70  O   UNL A   1      46.176  25.572  38.850  1.00  0.00    -0.237 OA
ATOM     71  O   UNL A   1      44.056  26.731  39.357  1.00  0.00    -0.744 OA
ENDBRANCH  64  68
ENDBRANCH  38  61
ENDBRANCH  12  13
ENDBRANCH   5   7
ENDBRANCH   2   3
ENDBRANCH   1   2
BRANCH   1  72
ATOM     72  C   UNL A   1      32.144  29.819  26.185  1.00  0.00     0.118 C 
BRANCH  72  73
ATOM     73  N   UNL A   1      32.788  29.670  24.890  1.00  0.00    -0.352 N 
ATOM     74  C   UNL A   1      32.372  28.955  23.801  1.00  0.00     0.252 C 
ATOM     75  H   UNL A   1      33.641  30.151  24.783  1.00  0.00     0.163 HD
ATOM     76  O   UNL A   1      33.069  28.876  22.795  1.00  0.00    -0.269 OA
BRANCH  74  77
ATOM     77  C   UNL A   1      31.108  28.210  23.857  1.00  0.00     0.060 A 
ATOM     78  C   UNL A   1      31.103  27.068  24.666  1.00  0.00     0.043 A 
ATOM     79  C   UNL A   1      29.983  28.555  23.109  1.00  0.00     0.053 A 
ATOM     80  C   UNL A   1      29.970  26.256  24.754  1.00  0.00     0.057 A 
ATOM     81  C   UNL A   1      28.833  27.773  23.213  1.00  0.00     0.023 A 
ATOM     82  Cl  UNL A   1      29.956  29.895  22.022  1.00  0.00    -0.083 Cl
ATOM     83  C   UNL A   1      28.834  26.626  24.018  1.00  0.00     0.029 A 
BRANCH  80  84
ATOM     84  N   UNL A   1      29.967  25.033  25.457  1.00  0.00    -0.278 N 
ATOM     85  H   UNL A   1      29.188  24.802  26.012  1.00  0.00     0.190 HD
BRANCH  84  86
ATOM     86  N   UNL A   1      31.011  24.162  25.389  1.00  0.00    -0.183 NA
ATOM     87  C   UNL A   1      31.710  24.071  26.474  1.00  0.00     0.139 C 
BRANCH  87  88
ATOM     88  C   UNL A   1      32.931  23.271  26.578  1.00  0.00     0.003 C 
ATOM     89  C   UNL A   1      33.960  23.226  25.742  1.00  0.00     0.006 A 
ATOM     90  C   UNL A   1      33.090  22.321  27.710  1.00  0.00     0.180 C 
ATOM     91  C   UNL A   1      34.338  23.862  24.522  1.00  0.00     0.011 A 
ATOM     92  C   UNL A   1      34.791  22.171  26.355  1.00  0.00     0.065 A 
ATOM     93  N   UNL A   1      34.372  21.619  27.456  1.00  0.00    -0.280 NA
ATOM     94  C   UNL A   1      35.477  23.476  23.921  1.00  0.00     0.001 A 
ATOM     95  C   UNL A   1      36.032  21.808  25.638  1.00  0.00     0.028 A 
ATOM     96  C   UNL A   1      36.322  22.436  24.486  1.00  0.00     0.002 A 
ENDBRANCH  87  88
ENDBRANCH  84  86
ENDBRANCH  80  84
ENDBRANCH  74  77
ENDBRANCH  72  73
ENDBRANCH   1  72
TORSDOF 16
ENDMDL
MODEL 2
REMARK VINA RESULT:     -12.6      5.954     11.453
REMARK SMILES O=C(NCCCNC(=O)c1cc(N/N=C/C2=c3ccccc3=NC2)ccc1Cl)c1ccc(-c2c3nc(c(-c4cc(S(=O)(=O)[O-])ccc4F)c4ccc([nH]4)c(-c4cc(S(=O)(=O)[O-])ccc4F)c4nc(c(-c5cc(S(=O)(=O)[O-])ccc5F)c5ccc2[nH]5)C=C4)C=C3)cc1
REMARK SMILES IDX 5 1 4 2 3 3 1 4 2 5 29 7 30 8 91 9 31 10 90 11 32 12 33 13
REMARK SMILES IDX 34 14 84 15 35 16 89 17 83 18 85 19 36 20 88 21 82 22 81 23
REMARK SMILES IDX 37 25 69 26 49 27 68 28 50 29 53 30 67 31 86 32 51 33 52 34
REMARK SMILES IDX 66 36 87 37 54 38 38 39 39 40 47 41 40 42 46 43 48 44 45 45
REMARK SMILES IDX 41 46 42 47 43 48 44 49 70 50 71 51 79 52 72 53 78 54 80 55
REMARK SMILES IDX 77 56 73 57 74 58 75 59 76 60 55 61 56 62 64 63 57 64 63 65
REMARK SMILES IDX 65 66 62 67 58 68 59 69 60 70 61 71 6 72 7 73 8 74 9 76
REMARK SMILES IDX 10 77 11 78 27 79 12 80 26 81 28 82 25 83 13 84 14 86 15 87
REMARK SMILES IDX 16 88 17 89 24 90 18 91 22 92 23 93 19 94 21 95 20 96
REMARK H PARENT 3 6 85 24 53 35 7 75 13 85
REMARK Flexibility Score: inf
ROOT
ATOM      1  C   UNL A   1      37.791  20.354  24.980  1.00  0.00     0.042 C 
ENDROOT
BRANCH   1   2
ATOM      2  C   UNL A   1      38.983  20.734  25.849  1.00  0.00     0.118 C 
BRANCH   2   3
ATOM      3  N   UNL A   1      39.931  19.640  26.000  1.00  0.00    -0.352 N 
ATOM      4  O   UNL A   1      41.912  18.594  25.997  1.00  0.00    -0.269 OA
ATOM      5  C   UNL A   1      41.297  19.650  26.123  1.00  0.00     0.251 C 
ATOM      6  H   UNL A   1      39.523  18.744  26.020  1.00  0.00     0.163 HD
BRANCH   5   7
ATOM      7  C   UNL A   1      42.032  20.901  26.412  1.00  0.00     0.039 A 
ATOM      8  C   UNL A   1      42.404  21.177  27.733  1.00  0.00     0.014 A 
ATOM      9  C   UNL A   1      42.270  21.848  25.415  1.00  0.00     0.014 A 
ATOM     10  C   UNL A   1      43.020  22.392  28.047  1.00  0.00     0.010 A 
ATOM     11  C   UNL A   1      42.966  23.015  25.710  1.00  0.00     0.010 A 
ATOM     12  C   UNL A   1      43.305  23.321  27.037  1.00  0.00    -0.014 A 
BRANCH  12  13
ATOM     13  C   UNL A   1      43.833  24.677  27.336  1.00  0.00     0.031 A 
ATOM     14  C   UNL A   1      42.879  25.727  27.845  1.00  0.00     0.074 A 
ATOM     15  C   UNL A   1      45.121  24.985  27.097  1.00  0.00     0.049 A 
ATOM     16  N   UNL A   1      43.070  27.008  28.002  1.00  0.00    -0.248 NA
ATOM     17  C   UNL A   1      41.518  25.278  28.193  1.00  0.00     0.031 C 
ATOM     18  C   UNL A   1      46.131  24.052  26.602  1.00  0.00     0.029 A 
ATOM     19  N   UNL A   1      45.797  26.175  27.217  1.00  0.00    -0.354 N 
ATOM     20  C   UNL A   1      41.850  27.521  28.432  1.00  0.00     0.074 A 
ATOM     21  C   UNL A   1      40.912  26.425  28.463  1.00  0.00     0.031 C 
ATOM     22  C   UNL A   1      47.298  24.702  26.465  1.00  0.00     0.029 A 
ATOM     23  C   UNL A   1      47.108  26.112  26.805  1.00  0.00     0.049 A 
ATOM     24  H   UNL A   1      45.381  26.997  27.567  1.00  0.00     0.167 HD
ATOM     25  C   UNL A   1      41.553  28.789  28.795  1.00  0.00     0.034 A 
ATOM     26  C   UNL A   1      48.042  27.081  26.688  1.00  0.00     0.034 A 
ATOM     27  C   UNL A   1      42.518  29.853  28.820  1.00  0.00     0.049 A 
ATOM     28  C   UNL A   1      47.684  28.491  27.098  1.00  0.00     0.074 A 
ATOM     29  C   UNL A   1      42.330  31.159  29.232  1.00  0.00     0.029 A 
ATOM     30  N   UNL A   1      43.846  29.737  28.440  1.00  0.00    -0.354 N 
ATOM     31  N   UNL A   1      46.543  28.948  27.559  1.00  0.00    -0.248 NA
ATOM     32  C   UNL A   1      48.731  29.518  26.984  1.00  0.00     0.031 C 
ATOM     33  C   UNL A   1      43.522  31.850  29.039  1.00  0.00     0.029 A 
ATOM     34  C   UNL A   1      44.482  30.956  28.589  1.00  0.00     0.049 A 
ATOM     35  H   UNL A   1      44.272  28.912  28.114  1.00  0.00     0.167 HD
ATOM     36  C   UNL A   1      46.748  30.299  27.827  1.00  0.00     0.074 A 
ATOM     37  C   UNL A   1      48.125  30.586  27.488  1.00  0.00     0.031 C 
ATOM     38  C   UNL A   1      45.872  31.217  28.305  1.00  0.00     0.034 A 
BRANCH  25  39
ATOM     39  C   UNL A   1      40.151  29.120  29.237  1.00  0.00     0.023 A 
ATOM     40  C   UNL A   1      39.811  29.030  30.600  1.00  0.00     0.031 A 
ATOM     41  C   UNL A   1      39.121  29.342  28.306  1.00  0.00     0.131 A 
ATOM     42  C   UNL A   1      38.468  29.099  30.987  1.00  0.00     0.055 A 
ATOM     43  C   UNL A   1      37.790  29.462  28.703  1.00  0.00     0.041 A 
ATOM     44  F   UNL A   1      39.397  29.436  26.995  1.00  0.00    -0.206 F 
ATOM     45  C   UNL A   1      37.456  29.322  30.047  1.00  0.00     0.022 A 
BRANCH  42  46
ATOM     46  S   UNL A   1      37.977  28.814  32.710  1.00  0.00     0.124 S 
ATOM     47  O   UNL A   1      37.986  27.355  32.788  1.00  0.00    -0.237 OA
ATOM     48  O   UNL A   1      39.044  29.486  33.445  1.00  0.00    -0.237 OA
ATOM     49  O   UNL A   1      36.657  29.428  32.803  1.00  0.00    -0.744 OA
ENDBRANCH  42  46
ENDBRANCH  25  39
BRANCH  26  50
ATOM     50  C   UNL A   1      49.407  26.729  26.191  1.00  0.00     0.023 A 
ATOM     51  C   UNL A   1      50.483  26.564  27.082  1.00  0.00     0.031 A 
ATOM     52  C   UNL A   1      49.675  26.638  24.814  1.00  0.00     0.131 A 
ATOM     53  C   UNL A   1      51.781  26.381  26.588  1.00  0.00     0.055 A 
ATOM     54  C   UNL A   1      50.958  26.378  24.327  1.00  0.00     0.041 A 
ATOM     55  F   UNL A   1      48.688  26.802  23.920  1.00  0.00    -0.206 F 
ATOM     56  C   UNL A   1      52.023  26.267  25.216  1.00  0.00     0.022 A 
BRANCH  53  57
ATOM     57  S   UNL A   1      53.215  26.427  27.701  1.00  0.00     0.124 S 
ATOM     58  O   UNL A   1      54.022  25.318  27.202  1.00  0.00    -0.237 OA
ATOM     59  O   UNL A   1      53.750  27.762  27.445  1.00  0.00    -0.237 OA
ATOM     60  O   UNL A   1      52.629  26.239  29.024  1.00  0.00    -0.744 OA
ENDBRANCH  53  57
ENDBRANCH  26  50
BRANCH  38  61
ATOM     61  C   UNL A   1      46.336  32.632  28.552  1.00  0.00     0.023 A 
ATOM     62  C   UNL A   1      46.512  33.501  27.456  1.00  0.00     0.031 A 
ATOM     63  C   UNL A   1      46.828  33.031  29.805  1.00  0.00     0.131 A 
ATOM     64  C   UNL A   1      47.233  34.689  27.618  1.00  0.00     0.055 A 
ATOM     65  C   UNL A   1      47.496  34.245  29.973  1.00  0.00     0.041 A 
ATOM     66  F   UNL A   1      46.697  32.230  30.875  1.00  0.00    -0.206 F 
ATOM     67  C   UNL A   1      47.721  35.069  28.873  1.00  0.00     0.022 A 
BRANCH  64  68
ATOM     68  S   UNL A   1      47.674  35.716  26.189  1.00  0.00     0.124 S 
ATOM     69  O   UNL A   1      46.600  36.708  26.187  1.00  0.00    -0.237 OA
ATOM     70  O   UNL A   1      48.989  36.222  26.568  1.00  0.00    -0.237 OA
ATOM     71  O   UNL A   1      47.657  34.785  25.066  1.00  0.00    -0.744 OA
ENDBRANCH  64  68
ENDBRANCH  38  61
ENDBRANCH  12  13
ENDBRANCH   5   7
ENDBRANCH   2   3
ENDBRANCH   1   2
BRANCH   1  72
ATOM     72  C   UNL A   1      36.732  21.441  24.865  1.00  0.00     0.118 C 
BRANCH  72  73
ATOM     73  N   UNL A   1      35.896  21.534  26.050  1.00  0.00    -0.352 N 
ATOM     74  C   UNL A   1      34.531  21.534  26.141  1.00  0.00     0.252 C 
ATOM     75  H   UNL A   1      36.379  21.608  26.905  1.00  0.00     0.163 HD
ATOM     76  O   UNL A   1      33.971  21.689  27.221  1.00  0.00    -0.269 OA
BRANCH  74  77
ATOM     77  C   UNL A   1      33.719  21.420  24.924  1.00  0.00     0.060 A 
ATOM     78  C   UNL A   1      33.414  22.620  24.273  1.00  0.00     0.043 A 
ATOM     79  C   UNL A   1      33.210  20.209  24.454  1.00  0.00     0.053 A 
ATOM     80  C   UNL A   1      32.605  22.634  23.133  1.00  0.00     0.057 A 
ATOM     81  C   UNL A   1      32.431  20.203  23.298  1.00  0.00     0.023 A 
ATOM     82  Cl  UNL A   1      33.472  18.707  25.263  1.00  0.00    -0.083 Cl
ATOM     83  C   UNL A   1      32.121  21.408  22.654  1.00  0.00     0.029 A 
BRANCH  80  84
ATOM     84  N   UNL A   1      32.173  23.831  22.525  1.00  0.00    -0.278 N 
ATOM     85  H   UNL A   1      32.202  23.907  21.545  1.00  0.00     0.190 HD
BRANCH  84  86
ATOM     86  N   UNL A   1      31.718  24.886  23.257  1.00  0.00    -0.183 NA
ATOM     87  C   UNL A   1      32.185  26.037  22.893  1.00  0.00     0.139 C 
BRANCH  87  88
ATOM     88  C   UNL A   1      31.902  27.280  23.610  1.00  0.00     0.003 C 
ATOM     89  C   UNL A   1      32.490  27.755  24.700  1.00  0.00     0.006 A 
ATOM     90  C   UNL A   1      30.789  28.153  23.151  1.00  0.00     0.180 C 
ATOM     91  C   UNL A   1      33.550  27.356  25.568  1.00  0.00     0.011 A 
ATOM     92  C   UNL A   1      31.687  28.966  24.964  1.00  0.00     0.065 A 
ATOM     93  N   UNL A   1      30.721  29.255  24.142  1.00  0.00    -0.280 NA
ATOM     94  C   UNL A   1      33.809  28.106  26.654  1.00  0.00     0.001 A 
ATOM     95  C   UNL A   1      32.038  29.740  26.173  1.00  0.00     0.028 A 
ATOM     96  C   UNL A   1      33.039  29.302  26.956  1.00  0.00     0.002 A 
ENDBRANCH  87  88
ENDBRANCH  84  86
ENDBRANCH  80  84
ENDBRANCH  74  77
ENDBRANCH  72  73
ENDBRANCH   1  72
TORSDOF 16
ENDMDL
MODEL 3
REMARK VINA RESULT:     -12.5      1.658      2.024
REMARK SMILES O=C(NCCCNC(=O)c1cc(N/N=C/C2=c3ccccc3=NC2)ccc1Cl)c1ccc(-c2c3nc(c(-c4cc(S(=O)(=O)[O-])ccc4F)c4ccc([nH]4)c(-c4cc(S(=O)(=O)[O-])ccc4F)c4nc(c(-c5cc(S(=O)(=O)[O-])ccc5F)c5ccc2[nH]5)C=C4)C=C3)cc1
REMARK SMILES IDX 5 1 4 2 3 3 1 4 2 5 29 7 30 8 91 9 31 10 90 11 32 12 33 13
REMARK SMILES IDX 34 14 84 15 35 16 89 17 83 18 85 19 36 20 88 21 82 22 81 23
REMARK SMILES IDX 37 25 69 26 49 27 68 28 50 29 53 30 67 31 86 32 51 33 52 34
REMARK SMILES IDX 66 36 87 37 54 38 38 39 39 40 47 41 40 42 46 43 48 44 45 45
REMARK SMILES IDX 41 46 42 47 43 48 44 49 70 50 71 51 79 52 72 53 78 54 80 55
REMARK SMILES IDX 77 56 73 57 74 58 75 59 76 60 55 61 56 62 64 63 57 64 63 65
REMARK SMILES IDX 65 66 62 67 58 68 59 69 60 70 61 71 6 72 7 73 8 74 9 76
REMARK SMILES IDX 10 77 11 78 27 79 12 80 26 81 28 82 25 83 13 84 14 86 15 87
REMARK SMILES IDX 16 88 17 89 24 90 18 91 22 92 23 93 19 94 21 95 20 96
REMARK H PARENT 3 6 85 24 53 35 7 75 13 85
REMARK Flexibility Score: inf
ROOT
ATOM      1  C   UNL A   1      32.095  30.967  27.109  1.00  0.00     0.042 C 
ENDROOT
BRANCH   1   2
ATOM      2  C   UNL A   1      33.285  31.917  27.117  1.00  0.00     0.118 C 
BRANCH   2   3
ATOM      3  N   UNL A   1      32.913  33.268  27.512  1.00  0.00    -0.352 N 
ATOM      4  O   UNL A   1      32.698  35.057  28.845  1.00  0.00    -0.269 OA
ATOM      5  C   UNL A   1      33.325  34.036  28.571  1.00  0.00     0.251 C 
ATOM      6  H   UNL A   1      32.259  33.704  26.920  1.00  0.00     0.163 HD
BRANCH   5   7
ATOM      7  C   UNL A   1      34.509  33.662  29.376  1.00  0.00     0.039 A 
ATOM      8  C   UNL A   1      35.761  34.173  29.016  1.00  0.00     0.014 A 
ATOM      9  C   UNL A   1      34.413  32.736  30.417  1.00  0.00     0.014 A 
ATOM     10  C   UNL A   1      36.908  33.764  29.704  1.00  0.00     0.010 A 
ATOM     11  C   UNL A   1      35.539  32.402  31.161  1.00  0.00     0.010 A 
ATOM     12  C   UNL A   1      36.805  32.875  30.782  1.00  0.00    -0.014 A 
BRANCH  12  13
ATOM     13  C   UNL A   1      38.001  32.308  31.456  1.00  0.00     0.031 A 
ATOM     14  C   UNL A   1      38.716  31.152  30.805  1.00  0.00     0.074 A 
ATOM     15  C   UNL A   1      38.403  32.770  32.655  1.00  0.00     0.049 A 
ATOM     16  N   UNL A   1      39.660  30.390  31.286  1.00  0.00    -0.248 NA
ATOM     17  C   UNL A   1      38.289  30.786  29.442  1.00  0.00     0.031 C 
ATOM     18  C   UNL A   1      37.786  33.880  33.378  1.00  0.00     0.029 A 
ATOM     19  N   UNL A   1      39.413  32.350  33.486  1.00  0.00    -0.354 N 
ATOM     20  C   UNL A   1      39.914  29.438  30.303  1.00  0.00     0.074 A 
ATOM     21  C   UNL A   1      38.992  29.685  29.220  1.00  0.00     0.031 C 
ATOM     22  C   UNL A   1      38.430  34.056  34.542  1.00  0.00     0.029 A 
ATOM     23  C   UNL A   1      39.471  33.037  34.677  1.00  0.00     0.049 A 
ATOM     24  H   UNL A   1      40.038  31.626  33.251  1.00  0.00     0.167 HD
ATOM     25  C   UNL A   1      40.853  28.466  30.298  1.00  0.00     0.034 A 
ATOM     26  C   UNL A   1      40.251  32.850  35.764  1.00  0.00     0.034 A 
ATOM     27  C   UNL A   1      41.805  28.277  31.357  1.00  0.00     0.049 A 
ATOM     28  C   UNL A   1      41.292  31.754  35.734  1.00  0.00     0.074 A 
ATOM     29  C   UNL A   1      42.836  27.358  31.417  1.00  0.00     0.029 A 
ATOM     30  N   UNL A   1      41.859  29.022  32.525  1.00  0.00    -0.354 N 
ATOM     31  N   UNL A   1      41.558  30.900  34.773  1.00  0.00    -0.248 NA
ATOM     32  C   UNL A   1      42.143  31.594  36.922  1.00  0.00     0.031 C 
ATOM     33  C   UNL A   1      43.472  27.502  32.646  1.00  0.00     0.029 A 
ATOM     34  C   UNL A   1      42.896  28.568  33.319  1.00  0.00     0.049 A 
ATOM     35  H   UNL A   1      41.253  29.763  32.752  1.00  0.00     0.167 HD
ATOM     36  C   UNL A   1      42.630  30.134  35.223  1.00  0.00     0.074 A 
ATOM     37  C   UNL A   1      42.973  30.630  36.539  1.00  0.00     0.031 C 
ATOM     38  C   UNL A   1      43.267  29.109  34.604  1.00  0.00     0.034 A 
BRANCH  25  39
ATOM     39  C   UNL A   1      40.950  27.541  29.111  1.00  0.00     0.023 A 
ATOM     40  C   UNL A   1      41.914  27.785  28.116  1.00  0.00     0.031 A 
ATOM     41  C   UNL A   1      39.987  26.544  28.877  1.00  0.00     0.131 A 
ATOM     42  C   UNL A   1      41.856  27.086  26.906  1.00  0.00     0.055 A 
ATOM     43  C   UNL A   1      39.965  25.813  27.690  1.00  0.00     0.041 A 
ATOM     44  F   UNL A   1      39.047  26.275  29.798  1.00  0.00    -0.206 F 
ATOM     45  C   UNL A   1      40.891  26.096  26.690  1.00  0.00     0.022 A 
BRANCH  42  46
ATOM     46  S   UNL A   1      42.972  27.494  25.536  1.00  0.00     0.124 S 
ATOM     47  O   UNL A   1      44.106  28.090  26.240  1.00  0.00    -0.237 OA
ATOM     48  O   UNL A   1      43.222  26.183  24.946  1.00  0.00    -0.237 OA
ATOM     49  O   UNL A   1      42.198  28.421  24.718  1.00  0.00    -0.744 OA
ENDBRANCH  42  46
ENDBRANCH  25  39
BRANCH  26  50
ATOM     50  C   UNL A   1      40.090  33.748  36.947  1.00  0.00     0.023 A 
ATOM     51  C   UNL A   1      40.949  34.844  37.149  1.00  0.00     0.031 A 
ATOM     52  C   UNL A   1      39.131  33.475  37.938  1.00  0.00     0.131 A 
ATOM     53  C   UNL A   1      40.875  35.584  38.337  1.00  0.00     0.055 A 
ATOM     54  C   UNL A   1      39.009  34.262  39.086  1.00  0.00     0.041 A 
ATOM     55  F   UNL A   1      38.296  32.434  37.803  1.00  0.00    -0.206 F 
ATOM     56  C   UNL A   1      39.897  35.313  39.298  1.00  0.00     0.022 A 
BRANCH  53  57
ATOM     57  S   UNL A   1      42.134  36.829  38.736  1.00  0.00     0.124 S 
ATOM     58  O   UNL A   1      42.968  36.120  39.702  1.00  0.00    -0.237 OA
ATOM     59  O   UNL A   1      42.745  37.067  37.429  1.00  0.00    -0.237 OA
ATOM     60  O   UNL A   1      41.358  37.945  39.267  1.00  0.00    -0.744 OA
ENDBRANCH  53  57
ENDBRANCH  26  50
BRANCH  38  61
ATOM     61  C   UNL A   1      44.441  28.444  35.281  1.00  0.00     0.023 A 
ATOM     62  C   UNL A   1      44.205  27.420  36.221  1.00  0.00     0.031 A 
ATOM     63  C   UNL A   1      45.736  28.976  35.184  1.00  0.00     0.131 A 
ATOM     64  C   UNL A   1      45.232  27.017  37.082  1.00  0.00     0.055 A 
ATOM     65  C   UNL A   1      46.772  28.528  36.007  1.00  0.00     0.041 A 
ATOM     66  F   UNL A   1      46.006  29.963  34.313  1.00  0.00    -0.206 F 
ATOM     67  C   UNL A   1      46.516  27.561  36.977  1.00  0.00     0.022 A 
BRANCH  64  68
ATOM     68  S   UNL A   1      44.905  25.870  38.450  1.00  0.00     0.124 S 
ATOM     69  O   UNL A   1      46.205  25.812  39.113  1.00  0.00    -0.237 OA
ATOM     70  O   UNL A   1      43.857  26.567  39.190  1.00  0.00    -0.237 OA
ATOM     71  O   UNL A   1      44.493  24.637  37.786  1.00  0.00    -0.744 OA
ENDBRANCH  64  68
ENDBRANCH  38  61
ENDBRANCH  12  13
ENDBRANCH   5   7
ENDBRANCH   2   3
ENDBRANCH   1   2
BRANCH   1  72
ATOM     72  C   UNL A   1      31.717  30.454  25.728  1.00  0.00     0.118 C 
BRANCH  72  73
ATOM     73  N   UNL A   1      32.850  29.893  25.011  1.00  0.00    -0.352 N 
ATOM     74  C   UNL A   1      33.002  28.636  24.492  1.00  0.00     0.252 C 
ATOM     75  H   UNL A   1      33.613  30.502  24.880  1.00  0.00     0.163 HD
ATOM     76  O   UNL A   1      34.057  28.294  23.967  1.00  0.00    -0.269 OA
BRANCH  74  77
ATOM     77  C   UNL A   1      31.918  27.655  24.626  1.00  0.00     0.060 A 
ATOM     78  C   UNL A   1      32.066  26.710  25.647  1.00  0.00     0.043 A 
ATOM     79  C   UNL A   1      30.825  27.600  23.762  1.00  0.00     0.053 A 
ATOM     80  C   UNL A   1      31.120  25.699  25.834  1.00  0.00     0.057 A 
ATOM     81  C   UNL A   1      29.854  26.619  23.958  1.00  0.00     0.023 A 
ATOM     82  Cl  UNL A   1      30.631  28.678  22.428  1.00  0.00    -0.083 Cl
ATOM     83  C   UNL A   1      30.011  25.669  24.976  1.00  0.00     0.029 A 
BRANCH  80  84
ATOM     84  N   UNL A   1      31.298  24.657  26.767  1.00  0.00    -0.278 N 
ATOM     85  H   UNL A   1      30.624  24.526  27.472  1.00  0.00     0.190 HD
BRANCH  84  86
ATOM     86  N   UNL A   1      32.377  23.828  26.722  1.00  0.00    -0.183 NA
ATOM     87  C   UNL A   1      32.501  23.162  25.619  1.00  0.00     0.139 C 
BRANCH  87  88
ATOM     88  C   UNL A   1      33.531  22.144  25.408  1.00  0.00     0.003 C 
ATOM     89  C   UNL A   1      33.388  20.912  24.939  1.00  0.00     0.006 A 
ATOM     90  C   UNL A   1      34.937  22.435  25.795  1.00  0.00     0.180 C 
ATOM     91  C   UNL A   1      32.319  20.100  24.457  1.00  0.00     0.011 A 
ATOM     92  C   UNL A   1      34.762  20.386  25.071  1.00  0.00     0.065 A 
ATOM     93  N   UNL A   1      35.681  21.177  25.540  1.00  0.00    -0.280 NA
ATOM     94  C   UNL A   1      32.579  18.823  24.125  1.00  0.00     0.001 A 
ATOM     95  C   UNL A   1      34.969  18.976  24.679  1.00  0.00     0.028 A 
ATOM     96  C   UNL A   1      33.916  18.262  24.246  1.00  0.00     0.002 A 
ENDBRANCH  87  88
ENDBRANCH  84  86
ENDBRANCH  80  84
ENDBRANCH  74  77
ENDBRANCH  72  73
ENDBRANCH   1  72
TORSDOF 16
ENDMDL
