MODEL 1
REMARK VINA RESULT:     -12.2      0.000      0.000
REMARK SMILES O=C(Cc1ccccc1Nc1c(F)cccc1C(F)(F)F)NCCCNC(=O)c1ccc(-c2c3nc(c(-c4cc(S(=O)(=O)[O-])ccc4F)c4ccc([nH]4)c(-c4cc(S(=O)(=O)[O-])ccc4F)c4nc(c(-c5cc(S(=O)(=O)[O-])ccc5F)c5ccc2[nH]5)C=C4)C=C3)cc1
REMARK SMILES IDX 23 1 22 2 1 3 2 4 3 6 4 7 5 8 9 9 6 10 8 11 7 12 10 13 11 15
REMARK SMILES IDX 12 16 17 17 13 18 14 19 16 20 15 21 18 22 19 23 20 24 21 25
REMARK SMILES IDX 24 26 25 27 26 28 27 29 28 31 29 32 30 33 91 34 31 35 90 36
REMARK SMILES IDX 32 37 33 38 34 39 84 40 35 41 89 42 83 43 85 44 36 45 88 46
REMARK SMILES IDX 82 47 81 48 37 50 69 51 49 52 68 53 50 54 53 55 67 56 86 57
REMARK SMILES IDX 51 58 52 59 66 61 87 62 54 63 38 64 39 65 47 66 40 67 46 68
REMARK SMILES IDX 48 69 45 70 41 71 42 72 43 73 44 74 70 75 71 76 79 77 72 78
REMARK SMILES IDX 78 79 80 80 77 81 73 82 74 83 75 84 76 85 55 86 56 87 64 88
REMARK SMILES IDX 57 89 63 90 65 91 62 92 58 93 59 94 60 95 61 96
REMARK H PARENT 22 5 10 14 26 30 85 49 53 60
REMARK Flexibility Score: inf
ROOT
ATOM      1  C   UNL A   1      35.688  23.026  23.452  1.00  0.00     0.117 C 
ENDROOT
BRANCH   1   2
ATOM      2  N   UNL A   1      34.516  23.683  23.991  1.00  0.00    -0.356 N 
ATOM      3  O   UNL A   1      34.020  24.978  22.162  1.00  0.00    -0.275 OA
ATOM      4  C   UNL A   1      33.764  24.607  23.306  1.00  0.00     0.224 C 
ATOM      5  H   UNL A   1      34.240  23.454  24.907  1.00  0.00     0.163 HD
BRANCH   4   6
ATOM      6  C   UNL A   1      32.641  25.227  24.119  1.00  0.00     0.137 C 
BRANCH   6   7
ATOM      7  C   UNL A   1      32.929  26.603  24.687  1.00  0.00    -0.015 A 
ATOM      8  C   UNL A   1      33.828  26.701  25.767  1.00  0.00     0.006 A 
ATOM      9  C   UNL A   1      32.339  27.782  24.176  1.00  0.00     0.042 A 
ATOM     10  C   UNL A   1      34.112  27.932  26.356  1.00  0.00     0.000 A 
ATOM     11  C   UNL A   1      32.625  29.007  24.797  1.00  0.00     0.026 A 
ATOM     12  C   UNL A   1      33.503  29.085  25.877  1.00  0.00     0.002 A 
BRANCH   9  13
ATOM     13  N   UNL A   1      31.480  27.727  23.054  1.00  0.00    -0.352 N 
ATOM     14  H   UNL A   1      31.811  27.184  22.303  1.00  0.00     0.167 HD
BRANCH  13  15
ATOM     15  C   UNL A   1      30.215  28.332  22.845  1.00  0.00     0.087 A 
ATOM     16  C   UNL A   1      30.208  29.569  22.164  1.00  0.00     0.147 A 
ATOM     17  C   UNL A   1      28.978  27.788  23.240  1.00  0.00     0.082 A 
ATOM     18  F   UNL A   1      31.384  30.121  21.819  1.00  0.00    -0.205 F 
ATOM     19  C   UNL A   1      29.036  30.237  21.831  1.00  0.00     0.041 A 
ATOM     20  C   UNL A   1      27.791  28.469  22.881  1.00  0.00     0.015 A 
ATOM     21  C   UNL A   1      27.818  29.676  22.182  1.00  0.00     0.004 A 
BRANCH  17  22
ATOM     22  C   UNL A   1      28.817  26.539  24.073  1.00  0.00     0.418 C 
ATOM     23  F   UNL A   1      27.518  26.332  24.444  1.00  0.00    -0.166 F 
ATOM     24  F   UNL A   1      29.182  25.408  23.410  1.00  0.00    -0.166 F 
ATOM     25  F   UNL A   1      29.499  26.543  25.249  1.00  0.00    -0.166 F 
ENDBRANCH  17  22
ENDBRANCH  13  15
ENDBRANCH   9  13
ENDBRANCH   6   7
ENDBRANCH   4   6
ENDBRANCH   1   2
BRANCH   1  26
ATOM     26  C   UNL A   1      36.132  21.844  24.310  1.00  0.00     0.042 C 
BRANCH  26  27
ATOM     27  C   UNL A   1      36.944  22.208  25.552  1.00  0.00     0.118 C 
BRANCH  27  28
ATOM     28  N   UNL A   1      38.003  21.257  25.850  1.00  0.00    -0.352 N 
ATOM     29  C   UNL A   1      39.266  21.451  26.349  1.00  0.00     0.251 C 
ATOM     30  H   UNL A   1      37.776  20.317  25.662  1.00  0.00     0.163 HD
ATOM     31  O   UNL A   1      40.017  20.478  26.446  1.00  0.00    -0.269 OA
BRANCH  29  32
ATOM     32  C   UNL A   1      39.756  22.796  26.734  1.00  0.00     0.039 A 
ATOM     33  C   UNL A   1      40.742  22.881  27.724  1.00  0.00     0.014 A 
ATOM     34  C   UNL A   1      39.238  23.969  26.179  1.00  0.00     0.014 A 
ATOM     35  C   UNL A   1      41.235  24.127  28.122  1.00  0.00     0.010 A 
ATOM     36  C   UNL A   1      39.784  25.209  26.525  1.00  0.00     0.010 A 
ATOM     37  C   UNL A   1      40.779  25.306  27.511  1.00  0.00    -0.014 A 
BRANCH  37  38
ATOM     38  C   UNL A   1      41.310  26.636  27.927  1.00  0.00     0.031 A 
ATOM     39  C   UNL A   1      42.735  27.016  27.613  1.00  0.00     0.074 A 
ATOM     40  C   UNL A   1      40.522  27.498  28.601  1.00  0.00     0.049 A 
ATOM     41  N   UNL A   1      43.386  28.114  27.908  1.00  0.00    -0.248 NA
ATOM     42  C   UNL A   1      43.539  26.019  26.892  1.00  0.00     0.031 C 
ATOM     43  C   UNL A   1      39.135  27.243  28.994  1.00  0.00     0.029 A 
ATOM     44  N   UNL A   1      40.772  28.764  29.076  1.00  0.00    -0.354 N 
ATOM     45  C   UNL A   1      44.677  27.935  27.419  1.00  0.00     0.074 A 
ATOM     46  C   UNL A   1      44.731  26.596  26.871  1.00  0.00     0.031 C 
ATOM     47  C   UNL A   1      38.649  28.327  29.620  1.00  0.00     0.029 A 
ATOM     48  C   UNL A   1      39.697  29.339  29.715  1.00  0.00     0.049 A 
ATOM     49  H   UNL A   1      41.639  29.217  28.968  1.00  0.00     0.167 HD
ATOM     50  C   UNL A   1      45.712  28.812  27.403  1.00  0.00     0.034 A 
ATOM     51  C   UNL A   1      39.570  30.540  30.317  1.00  0.00     0.034 A 
ATOM     52  C   UNL A   1      45.644  30.148  27.946  1.00  0.00     0.049 A 
ATOM     53  C   UNL A   1      40.745  31.488  30.314  1.00  0.00     0.074 A 
ATOM     54  C   UNL A   1      46.622  31.129  27.949  1.00  0.00     0.029 A 
ATOM     55  N   UNL A   1      44.541  30.691  28.592  1.00  0.00    -0.354 N 
ATOM     56  N   UNL A   1      41.944  31.319  29.806  1.00  0.00    -0.248 NA
ATOM     57  C   UNL A   1      40.540  32.797  30.948  1.00  0.00     0.031 C 
ATOM     58  C   UNL A   1      46.137  32.233  28.658  1.00  0.00     0.029 A 
ATOM     59  C   UNL A   1      44.824  31.980  29.020  1.00  0.00     0.049 A 
ATOM     60  H   UNL A   1      43.682  30.229  28.727  1.00  0.00     0.167 HD
ATOM     61  C   UNL A   1      42.621  32.517  30.025  1.00  0.00     0.074 A 
ATOM     62  C   UNL A   1      41.692  33.401  30.696  1.00  0.00     0.031 C 
ATOM     63  C   UNL A   1      43.893  32.857  29.692  1.00  0.00     0.034 A 
BRANCH  50  64
ATOM     64  C   UNL A   1      47.015  28.337  26.799  1.00  0.00     0.023 A 
ATOM     65  C   UNL A   1      47.225  28.325  25.409  1.00  0.00     0.031 A 
ATOM     66  C   UNL A   1      48.052  27.861  27.622  1.00  0.00     0.131 A 
ATOM     67  C   UNL A   1      48.402  27.770  24.880  1.00  0.00     0.055 A 
ATOM     68  C   UNL A   1      49.259  27.395  27.094  1.00  0.00     0.041 A 
ATOM     69  F   UNL A   1      47.905  27.825  28.956  1.00  0.00    -0.206 F 
ATOM     70  C   UNL A   1      49.432  27.333  25.714  1.00  0.00     0.022 A 
BRANCH  67  71
ATOM     71  S   UNL A   1      48.494  27.482  23.092  1.00  0.00     0.124 S 
ATOM     72  O   UNL A   1      49.733  28.176  22.746  1.00  0.00    -0.237 OA
ATOM     73  O   UNL A   1      48.531  26.028  23.008  1.00  0.00    -0.237 OA
ATOM     74  O   UNL A   1      47.276  28.108  22.580  1.00  0.00    -0.744 OA
ENDBRANCH  67  71
ENDBRANCH  50  64
BRANCH  51  75
ATOM     75  C   UNL A   1      38.288  30.926  30.978  1.00  0.00     0.023 A 
ATOM     76  C   UNL A   1      37.282  31.605  30.273  1.00  0.00     0.031 A 
ATOM     77  C   UNL A   1      38.074  30.667  32.345  1.00  0.00     0.131 A 
ATOM     78  C   UNL A   1      36.134  32.053  30.947  1.00  0.00     0.055 A 
ATOM     79  C   UNL A   1      36.904  31.061  32.996  1.00  0.00     0.041 A 
ATOM     80  F   UNL A   1      39.001  30.019  33.067  1.00  0.00    -0.206 F 
ATOM     81  C   UNL A   1      35.932  31.772  32.300  1.00  0.00     0.022 A 
BRANCH  78  82
ATOM     82  S   UNL A   1      34.951  33.096  30.050  1.00  0.00     0.124 S 
ATOM     83  O   UNL A   1      34.109  33.589  31.135  1.00  0.00    -0.237 OA
ATOM     84  O   UNL A   1      35.829  34.077  29.422  1.00  0.00    -0.237 OA
ATOM     85  O   UNL A   1      34.304  32.162  29.132  1.00  0.00    -0.744 OA
ENDBRANCH  78  82
ENDBRANCH  51  75
BRANCH  63  86
ATOM     86  C   UNL A   1      44.330  34.273  29.994  1.00  0.00     0.023 A 
ATOM     87  C   UNL A   1      44.142  35.325  29.080  1.00  0.00     0.031 A 
ATOM     88  C   UNL A   1      44.966  34.568  31.214  1.00  0.00     0.131 A 
ATOM     89  C   UNL A   1      44.644  36.603  29.370  1.00  0.00     0.055 A 
ATOM     90  C   UNL A   1      45.402  35.856  31.526  1.00  0.00     0.041 A 
ATOM     91  F   UNL A   1      45.178  33.604  32.125  1.00  0.00    -0.206 F 
ATOM     92  C   UNL A   1      45.257  36.879  30.595  1.00  0.00     0.022 A 
BRANCH  89  93
ATOM     93  S   UNL A   1      44.591  37.875  28.078  1.00  0.00     0.124 S 
ATOM     94  O   UNL A   1      43.168  37.920  27.754  1.00  0.00    -0.237 OA
ATOM     95  O   UNL A   1      45.125  39.043  28.769  1.00  0.00    -0.237 OA
ATOM     96  O   UNL A   1      45.448  37.332  27.026  1.00  0.00    -0.744 OA
ENDBRANCH  89  93
ENDBRANCH  63  86
ENDBRANCH  37  38
ENDBRANCH  29  32
ENDBRANCH  27  28
ENDBRANCH  26  27
ENDBRANCH   1  26
TORSDOF 17
ENDMDL
MODEL 2
REMARK VINA RESULT:     -12.0      4.982      9.990
REMARK SMILES O=C(Cc1ccccc1Nc1c(F)cccc1C(F)(F)F)NCCCNC(=O)c1ccc(-c2c3nc(c(-c4cc(S(=O)(=O)[O-])ccc4F)c4ccc([nH]4)c(-c4cc(S(=O)(=O)[O-])ccc4F)c4nc(c(-c5cc(S(=O)(=O)[O-])ccc5F)c5ccc2[nH]5)C=C4)C=C3)cc1
REMARK SMILES IDX 23 1 22 2 1 3 2 4 3 6 4 7 5 8 9 9 6 10 8 11 7 12 10 13 11 15
REMARK SMILES IDX 12 16 17 17 13 18 14 19 16 20 15 21 18 22 19 23 20 24 21 25
REMARK SMILES IDX 24 26 25 27 26 28 27 29 28 31 29 32 30 33 91 34 31 35 90 36
REMARK SMILES IDX 32 37 33 38 34 39 84 40 35 41 89 42 83 43 85 44 36 45 88 46
REMARK SMILES IDX 82 47 81 48 37 50 69 51 49 52 68 53 50 54 53 55 67 56 86 57
REMARK SMILES IDX 51 58 52 59 66 61 87 62 54 63 38 64 39 65 47 66 40 67 46 68
REMARK SMILES IDX 48 69 45 70 41 71 42 72 43 73 44 74 70 75 71 76 79 77 72 78
REMARK SMILES IDX 78 79 80 80 77 81 73 82 74 83 75 84 76 85 55 86 56 87 64 88
REMARK SMILES IDX 57 89 63 90 65 91 62 92 58 93 59 94 60 95 61 96
REMARK H PARENT 22 5 10 14 26 30 85 49 53 60
REMARK Flexibility Score: inf
ROOT
ATOM      1  C   UNL A   1      31.864  27.719  27.206  1.00  0.00     0.117 C 
ENDROOT
BRANCH   1   2
ATOM      2  N   UNL A   1      31.204  26.997  26.139  1.00  0.00    -0.356 N 
ATOM      3  O   UNL A   1      31.488  24.880  26.978  1.00  0.00    -0.275 OA
ATOM      4  C   UNL A   1      31.058  25.631  26.105  1.00  0.00     0.224 C 
ATOM      5  H   UNL A   1      30.835  27.518  25.390  1.00  0.00     0.163 HD
BRANCH   4   6
ATOM      6  C   UNL A   1      30.416  25.102  24.833  1.00  0.00     0.137 C 
BRANCH   6   7
ATOM      7  C   UNL A   1      31.327  25.027  23.624  1.00  0.00    -0.015 A 
ATOM      8  C   UNL A   1      31.208  26.028  22.640  1.00  0.00     0.006 A 
ATOM      9  C   UNL A   1      32.286  24.003  23.449  1.00  0.00     0.042 A 
ATOM     10  C   UNL A   1      31.993  26.001  21.489  1.00  0.00     0.000 A 
ATOM     11  C   UNL A   1      33.052  23.986  22.274  1.00  0.00     0.026 A 
ATOM     12  C   UNL A   1      32.910  24.973  21.301  1.00  0.00     0.002 A 
BRANCH   9  13
ATOM     13  N   UNL A   1      32.474  23.017  24.446  1.00  0.00    -0.352 N 
ATOM     14  H   UNL A   1      31.715  22.897  25.060  1.00  0.00     0.167 HD
BRANCH  13  15
ATOM     15  C   UNL A   1      33.588  22.176  24.696  1.00  0.00     0.087 A 
ATOM     16  C   UNL A   1      33.394  20.791  24.498  1.00  0.00     0.147 A 
ATOM     17  C   UNL A   1      34.863  22.615  25.101  1.00  0.00     0.082 A 
ATOM     18  F   UNL A   1      32.170  20.355  24.154  1.00  0.00    -0.205 F 
ATOM     19  C   UNL A   1      34.417  19.863  24.640  1.00  0.00     0.041 A 
ATOM     20  C   UNL A   1      35.901  21.661  25.226  1.00  0.00     0.015 A 
ATOM     21  C   UNL A   1      35.683  20.303  24.994  1.00  0.00     0.004 A 
BRANCH  17  22
ATOM     22  C   UNL A   1      35.205  24.039  25.466  1.00  0.00     0.418 C 
ATOM     23  F   UNL A   1      34.322  24.566  26.367  1.00  0.00    -0.166 F 
ATOM     24  F   UNL A   1      36.427  24.159  26.053  1.00  0.00    -0.166 F 
ATOM     25  F   UNL A   1      35.181  24.918  24.428  1.00  0.00    -0.166 F 
ENDBRANCH  17  22
ENDBRANCH  13  15
ENDBRANCH   9  13
ENDBRANCH   6   7
ENDBRANCH   4   6
ENDBRANCH   1   2
BRANCH   1  26
ATOM     26  C   UNL A   1      31.945  29.217  26.925  1.00  0.00     0.042 C 
BRANCH  26  27
ATOM     27  C   UNL A   1      33.355  29.807  26.930  1.00  0.00     0.118 C 
BRANCH  27  28
ATOM     28  N   UNL A   1      33.399  31.199  27.347  1.00  0.00    -0.352 N 
ATOM     29  C   UNL A   1      34.329  31.882  28.090  1.00  0.00     0.251 C 
ATOM     30  H   UNL A   1      32.634  31.742  27.046  1.00  0.00     0.163 HD
ATOM     31  O   UNL A   1      34.102  33.060  28.377  1.00  0.00    -0.269 OA
BRANCH  29  32
ATOM     32  C   UNL A   1      35.567  31.232  28.581  1.00  0.00     0.039 A 
ATOM     33  C   UNL A   1      36.795  31.818  28.250  1.00  0.00     0.014 A 
ATOM     34  C   UNL A   1      35.548  30.044  29.315  1.00  0.00     0.014 A 
ATOM     35  C   UNL A   1      37.991  31.241  28.688  1.00  0.00     0.010 A 
ATOM     36  C   UNL A   1      36.741  29.510  29.815  1.00  0.00     0.010 A 
ATOM     37  C   UNL A   1      37.978  30.093  29.496  1.00  0.00    -0.014 A 
BRANCH  37  38
ATOM     38  C   UNL A   1      39.252  29.482  29.974  1.00  0.00     0.031 A 
ATOM     39  C   UNL A   1      39.953  30.039  31.186  1.00  0.00     0.074 A 
ATOM     40  C   UNL A   1      39.790  28.438  29.312  1.00  0.00     0.049 A 
ATOM     41  N   UNL A   1      41.077  29.661  31.743  1.00  0.00    -0.248 NA
ATOM     42  C   UNL A   1      39.317  31.190  31.844  1.00  0.00     0.031 C 
ATOM     43  C   UNL A   1      39.229  27.820  28.109  1.00  0.00     0.029 A 
ATOM     44  N   UNL A   1      40.929  27.707  29.556  1.00  0.00    -0.354 N 
ATOM     45  C   UNL A   1      41.287  30.532  32.808  1.00  0.00     0.074 A 
ATOM     46  C   UNL A   1      40.209  31.497  32.774  1.00  0.00     0.031 C 
ATOM     47  C   UNL A   1      40.006  26.790  27.739  1.00  0.00     0.029 A 
ATOM     48  C   UNL A   1      41.145  26.695  28.648  1.00  0.00     0.049 A 
ATOM     49  H   UNL A   1      41.534  27.891  30.310  1.00  0.00     0.167 HD
ATOM     50  C   UNL A   1      42.270  30.513  33.744  1.00  0.00     0.034 A 
ATOM     51  C   UNL A   1      42.147  25.797  28.552  1.00  0.00     0.034 A 
ATOM     52  C   UNL A   1      43.337  29.541  33.771  1.00  0.00     0.049 A 
ATOM     53  C   UNL A   1      43.247  25.815  29.587  1.00  0.00     0.074 A 
ATOM     54  C   UNL A   1      44.361  29.410  34.695  1.00  0.00     0.029 A 
ATOM     55  N   UNL A   1      43.525  28.536  32.831  1.00  0.00    -0.354 N 
ATOM     56  N   UNL A   1      43.405  26.618  30.614  1.00  0.00    -0.248 NA
ATOM     57  C   UNL A   1      44.293  24.792  29.457  1.00  0.00     0.031 C 
ATOM     58  C   UNL A   1      45.206  28.378  34.273  1.00  0.00     0.029 A 
ATOM     59  C   UNL A   1      44.662  27.802  33.137  1.00  0.00     0.049 A 
ATOM     60  H   UNL A   1      42.938  28.369  32.060  1.00  0.00     0.167 HD
ATOM     61  C   UNL A   1      44.546  26.167  31.276  1.00  0.00     0.074 A 
ATOM     62  C   UNL A   1      45.024  25.017  30.539  1.00  0.00     0.031 C 
ATOM     63  C   UNL A   1      45.137  26.656  32.396  1.00  0.00     0.034 A 
BRANCH  50  64
ATOM     64  C   UNL A   1      42.247  31.599  34.797  1.00  0.00     0.023 A 
ATOM     65  C   UNL A   1      41.294  31.605  35.831  1.00  0.00     0.031 A 
ATOM     66  C   UNL A   1      43.170  32.660  34.750  1.00  0.00     0.131 A 
ATOM     67  C   UNL A   1      41.231  32.688  36.722  1.00  0.00     0.055 A 
ATOM     68  C   UNL A   1      43.160  33.688  35.696  1.00  0.00     0.041 A 
ATOM     69  F   UNL A   1      44.089  32.724  33.775  1.00  0.00    -0.206 F 
ATOM     70  C   UNL A   1      42.175  33.715  36.680  1.00  0.00     0.022 A 
BRANCH  67  71
ATOM     71  S   UNL A   1      39.800  32.814  37.829  1.00  0.00     0.124 S 
ATOM     72  O   UNL A   1      40.404  32.514  39.126  1.00  0.00    -0.237 OA
ATOM     73  O   UNL A   1      39.365  34.190  37.630  1.00  0.00    -0.237 OA
ATOM     74  O   UNL A   1      38.886  31.789  37.327  1.00  0.00    -0.744 OA
ENDBRANCH  67  71
ENDBRANCH  50  64
BRANCH  51  75
ATOM     75  C   UNL A   1      42.172  24.803  27.439  1.00  0.00     0.023 A 
ATOM     76  C   UNL A   1      41.420  23.619  27.506  1.00  0.00     0.031 A 
ATOM     77  C   UNL A   1      42.993  24.998  26.313  1.00  0.00     0.131 A 
ATOM     78  C   UNL A   1      41.547  22.650  26.497  1.00  0.00     0.055 A 
ATOM     79  C   UNL A   1      43.068  24.059  25.283  1.00  0.00     0.041 A 
ATOM     80  F   UNL A   1      43.731  26.113  26.196  1.00  0.00    -0.206 F 
ATOM     81  C   UNL A   1      42.354  22.869  25.378  1.00  0.00     0.022 A 
BRANCH  78  82
ATOM     82  S   UNL A   1      40.713  21.053  26.715  1.00  0.00     0.124 S 
ATOM     83  O   UNL A   1      40.692  20.927  28.168  1.00  0.00    -0.237 OA
ATOM     84  O   UNL A   1      39.426  21.293  26.072  1.00  0.00    -0.237 OA
ATOM     85  O   UNL A   1      41.591  20.115  26.019  1.00  0.00    -0.744 OA
ENDBRANCH  78  82
ENDBRANCH  51  75
BRANCH  63  86
ATOM     86  C   UNL A   1      46.335  25.902  32.929  1.00  0.00     0.023 A 
ATOM     87  C   UNL A   1      46.200  24.783  33.771  1.00  0.00     0.031 A 
ATOM     88  C   UNL A   1      47.636  26.327  32.603  1.00  0.00     0.131 A 
ATOM     89  C   UNL A   1      47.343  24.172  34.310  1.00  0.00     0.055 A 
ATOM     90  C   UNL A   1      48.768  25.673  33.087  1.00  0.00     0.041 A 
ATOM     91  F   UNL A   1      47.828  27.391  31.807  1.00  0.00    -0.206 F 
ATOM     92  C   UNL A   1      48.626  24.598  33.959  1.00  0.00     0.022 A 
BRANCH  89  93
ATOM     93  S   UNL A   1      47.130  22.884  35.570  1.00  0.00     0.124 S 
ATOM     94  O   UNL A   1      45.694  22.629  35.505  1.00  0.00    -0.237 OA
ATOM     95  O   UNL A   1      47.990  21.816  35.072  1.00  0.00    -0.237 OA
ATOM     96  O   UNL A   1      47.589  23.527  36.799  1.00  0.00    -0.744 OA
ENDBRANCH  89  93
ENDBRANCH  63  86
ENDBRANCH  37  38
ENDBRANCH  29  32
ENDBRANCH  27  28
ENDBRANCH  26  27
ENDBRANCH   1  26
TORSDOF 17
ENDMDL
MODEL 3
REMARK VINA RESULT:     -12.0      4.834      9.794
REMARK SMILES O=C(Cc1ccccc1Nc1c(F)cccc1C(F)(F)F)NCCCNC(=O)c1ccc(-c2c3nc(c(-c4cc(S(=O)(=O)[O-])ccc4F)c4ccc([nH]4)c(-c4cc(S(=O)(=O)[O-])ccc4F)c4nc(c(-c5cc(S(=O)(=O)[O-])ccc5F)c5ccc2[nH]5)C=C4)C=C3)cc1
REMARK SMILES IDX 23 1 22 2 1 3 2 4 3 6 4 7 5 8 9 9 6 10 8 11 7 12 10 13 11 15
REMARK SMILES IDX 12 16 17 17 13 18 14 19 16 20 15 21 18 22 19 23 20 24 21 25
REMARK SMILES IDX 24 26 25 27 26 28 27 29 28 31 29 32 30 33 91 34 31 35 90 36
REMARK SMILES IDX 32 37 33 38 34 39 84 40 35 41 89 42 83 43 85 44 36 45 88 46
REMARK SMILES IDX 82 47 81 48 37 50 69 51 49 52 68 53 50 54 53 55 67 56 86 57
REMARK SMILES IDX 51 58 52 59 66 61 87 62 54 63 38 64 39 65 47 66 40 67 46 68
REMARK SMILES IDX 48 69 45 70 41 71 42 72 43 73 44 74 70 75 71 76 79 77 72 78
REMARK SMILES IDX 78 79 80 80 77 81 73 82 74 83 75 84 76 85 55 86 56 87 64 88
REMARK SMILES IDX 57 89 63 90 65 91 62 92 58 93 59 94 60 95 61 96
REMARK H PARENT 22 5 10 14 26 30 85 49 53 60
REMARK Flexibility Score: inf
ROOT
ATOM      1  C   UNL A   1      31.640  28.195  27.625  1.00  0.00     0.117 C 
ENDROOT
BRANCH   1   2
ATOM      2  N   UNL A   1      31.035  26.965  27.159  1.00  0.00    -0.356 N 
ATOM      3  O   UNL A   1      32.883  26.087  26.119  1.00  0.00    -0.275 OA
ATOM      4  C   UNL A   1      31.702  25.998  26.445  1.00  0.00     0.224 C 
ATOM      5  H   UNL A   1      30.086  26.812  27.366  1.00  0.00     0.163 HD
BRANCH   4   6
ATOM      6  C   UNL A   1      30.826  24.845  25.985  1.00  0.00     0.137 C 
BRANCH   6   7
ATOM      7  C   UNL A   1      31.519  23.797  25.135  1.00  0.00    -0.015 A 
ATOM      8  C   UNL A   1      32.270  22.802  25.790  1.00  0.00     0.006 A 
ATOM      9  C   UNL A   1      31.437  23.779  23.724  1.00  0.00     0.042 A 
ATOM     10  C   UNL A   1      32.957  21.828  25.067  1.00  0.00     0.000 A 
ATOM     11  C   UNL A   1      32.152  22.801  23.017  1.00  0.00     0.026 A 
ATOM     12  C   UNL A   1      32.906  21.833  23.679  1.00  0.00     0.002 A 
BRANCH   9  13
ATOM     13  N   UNL A   1      30.642  24.727  23.038  1.00  0.00    -0.352 N 
ATOM     14  H   UNL A   1      29.921  24.344  22.488  1.00  0.00     0.167 HD
BRANCH  13  15
ATOM     15  C   UNL A   1      30.724  26.142  23.021  1.00  0.00     0.087 A 
ATOM     16  C   UNL A   1      29.569  26.849  23.421  1.00  0.00     0.147 A 
ATOM     17  C   UNL A   1      31.863  26.886  22.660  1.00  0.00     0.082 A 
ATOM     18  F   UNL A   1      28.460  26.153  23.725  1.00  0.00    -0.205 F 
ATOM     19  C   UNL A   1      29.533  28.235  23.517  1.00  0.00     0.041 A 
ATOM     20  C   UNL A   1      31.820  28.295  22.778  1.00  0.00     0.015 A 
ATOM     21  C   UNL A   1      30.671  28.962  23.205  1.00  0.00     0.004 A 
BRANCH  17  22
ATOM     22  C   UNL A   1      33.135  26.292  22.103  1.00  0.00     0.418 C 
ATOM     23  F   UNL A   1      33.837  25.600  23.049  1.00  0.00    -0.166 F 
ATOM     24  F   UNL A   1      32.909  25.398  21.102  1.00  0.00    -0.166 F 
ATOM     25  F   UNL A   1      34.029  27.199  21.625  1.00  0.00    -0.166 F 
ENDBRANCH  17  22
ENDBRANCH  13  15
ENDBRANCH   9  13
ENDBRANCH   6   7
ENDBRANCH   4   6
ENDBRANCH   1   2
BRANCH   1  26
ATOM     26  C   UNL A   1      31.769  29.232  26.512  1.00  0.00     0.042 C 
BRANCH  26  27
ATOM     27  C   UNL A   1      33.129  29.924  26.419  1.00  0.00     0.118 C 
BRANCH  27  28
ATOM     28  N   UNL A   1      33.096  31.321  26.821  1.00  0.00    -0.352 N 
ATOM     29  C   UNL A   1      33.941  32.039  27.629  1.00  0.00     0.251 C 
ATOM     30  H   UNL A   1      32.343  31.837  26.452  1.00  0.00     0.163 HD
ATOM     31  O   UNL A   1      33.656  33.212  27.882  1.00  0.00    -0.269 OA
BRANCH  29  32
ATOM     32  C   UNL A   1      35.153  31.433  28.228  1.00  0.00     0.039 A 
ATOM     33  C   UNL A   1      36.343  32.171  28.199  1.00  0.00     0.014 A 
ATOM     34  C   UNL A   1      35.156  30.147  28.773  1.00  0.00     0.014 A 
ATOM     35  C   UNL A   1      37.514  31.640  28.750  1.00  0.00     0.010 A 
ATOM     36  C   UNL A   1      36.310  29.649  29.388  1.00  0.00     0.010 A 
ATOM     37  C   UNL A   1      37.507  30.383  29.373  1.00  0.00    -0.014 A 
BRANCH  37  38
ATOM     38  C   UNL A   1      38.751  29.820  29.970  1.00  0.00     0.031 A 
ATOM     39  C   UNL A   1      39.229  30.296  31.318  1.00  0.00     0.074 A 
ATOM     40  C   UNL A   1      39.465  28.893  29.298  1.00  0.00     0.049 A 
ATOM     41  N   UNL A   1      40.295  29.945  31.994  1.00  0.00    -0.248 NA
ATOM     42  C   UNL A   1      38.411  31.321  31.983  1.00  0.00     0.031 C 
ATOM     43  C   UNL A   1      39.129  28.367  27.974  1.00  0.00     0.029 A 
ATOM     44  N   UNL A   1      40.619  28.226  29.635  1.00  0.00    -0.354 N 
ATOM     45  C   UNL A   1      40.280  30.711  33.156  1.00  0.00     0.074 A 
ATOM     46  C   UNL A   1      39.137  31.593  33.057  1.00  0.00     0.031 C 
ATOM     47  C   UNL A   1      40.037  27.441  27.626  1.00  0.00     0.029 A 
ATOM     48  C   UNL A   1      41.045  27.334  28.677  1.00  0.00     0.049 A 
ATOM     49  H   UNL A   1      41.096  28.374  30.483  1.00  0.00     0.167 HD
ATOM     50  C   UNL A   1      41.124  30.666  34.218  1.00  0.00     0.034 A 
ATOM     51  C   UNL A   1      42.125  26.528  28.643  1.00  0.00     0.034 A 
ATOM     52  C   UNL A   1      42.258  29.777  34.309  1.00  0.00     0.049 A 
ATOM     53  C   UNL A   1      43.067  26.516  29.823  1.00  0.00     0.074 A 
ATOM     54  C   UNL A   1      43.153  29.625  35.354  1.00  0.00     0.029 A 
ATOM     55  N   UNL A   1      42.660  28.894  33.315  1.00  0.00    -0.354 N 
ATOM     56  N   UNL A   1      43.012  27.216  30.934  1.00  0.00    -0.248 NA
ATOM     57  C   UNL A   1      44.206  25.592  29.751  1.00  0.00     0.031 C 
ATOM     58  C   UNL A   1      44.135  28.708  34.965  1.00  0.00     0.029 A 
ATOM     59  C   UNL A   1      43.804  28.216  33.713  1.00  0.00     0.049 A 
ATOM     60  H   UNL A   1      42.200  28.766  32.454  1.00  0.00     0.167 HD
ATOM     61  C   UNL A   1      44.087  26.783  31.708  1.00  0.00     0.074 A 
ATOM     62  C   UNL A   1      44.761  25.755  30.943  1.00  0.00     0.031 C 
ATOM     63  C   UNL A   1      44.474  27.193  32.943  1.00  0.00     0.034 A 
BRANCH  50  64
ATOM     64  C   UNL A   1      40.862  31.630  35.354  1.00  0.00     0.023 A 
ATOM     65  C   UNL A   1      39.809  31.429  36.266  1.00  0.00     0.031 A 
ATOM     66  C   UNL A   1      41.655  32.781  35.512  1.00  0.00     0.131 A 
ATOM     67  C   UNL A   1      39.525  32.403  37.236  1.00  0.00     0.055 A 
ATOM     68  C   UNL A   1      41.424  33.701  36.538  1.00  0.00     0.041 A 
ATOM     69  F   UNL A   1      42.660  33.041  34.662  1.00  0.00    -0.206 F 
ATOM     70  C   UNL A   1      40.343  33.523  37.397  1.00  0.00     0.022 A 
BRANCH  67  71
ATOM     71  S   UNL A   1      37.979  32.264  38.173  1.00  0.00     0.124 S 
ATOM     72  O   UNL A   1      38.466  32.289  39.551  1.00  0.00    -0.237 OA
ATOM     73  O   UNL A   1      37.237  33.440  37.737  1.00  0.00    -0.237 OA
ATOM     74  O   UNL A   1      37.429  30.980  37.740  1.00  0.00    -0.744 OA
ENDBRANCH  67  71
ENDBRANCH  50  64
BRANCH  51  75
ATOM     75  C   UNL A   1      42.389  25.661  27.457  1.00  0.00     0.023 A 
ATOM     76  C   UNL A   1      41.949  24.328  27.419  1.00  0.00     0.031 A 
ATOM     77  C   UNL A   1      43.134  26.139  26.364  1.00  0.00     0.131 A 
ATOM     78  C   UNL A   1      42.305  23.503  26.340  1.00  0.00     0.055 A 
ATOM     79  C   UNL A   1      43.434  25.331  25.265  1.00  0.00     0.041 A 
ATOM     80  F   UNL A   1      43.578  27.405  26.346  1.00  0.00    -0.206 F 
ATOM     81  C   UNL A   1      43.032  24.000  25.256  1.00  0.00     0.022 A 
BRANCH  78  82
ATOM     82  S   UNL A   1      41.887  21.738  26.419  1.00  0.00     0.124 S 
ATOM     83  O   UNL A   1      42.258  21.408  27.791  1.00  0.00    -0.237 OA
ATOM     84  O   UNL A   1      40.458  21.753  26.126  1.00  0.00    -0.237 OA
ATOM     85  O   UNL A   1      42.728  21.143  25.383  1.00  0.00    -0.744 OA
ENDBRANCH  78  82
ENDBRANCH  51  75
BRANCH  63  86
ATOM     86  C   UNL A   1      45.649  26.477  33.571  1.00  0.00     0.023 A 
ATOM     87  C   UNL A   1      45.497  25.273  34.282  1.00  0.00     0.031 A 
ATOM     88  C   UNL A   1      46.941  27.024  33.471  1.00  0.00     0.131 A 
ATOM     89  C   UNL A   1      46.605  24.694  34.922  1.00  0.00     0.055 A 
ATOM     90  C   UNL A   1      48.050  26.407  34.050  1.00  0.00     0.041 A 
ATOM     91  F   UNL A   1      47.148  28.173  32.808  1.00  0.00    -0.206 F 
ATOM     92  C   UNL A   1      47.883  25.243  34.794  1.00  0.00     0.022 A 
BRANCH  89  93
ATOM     93  S   UNL A   1      46.335  23.275  36.019  1.00  0.00     0.124 S 
ATOM     94  O   UNL A   1      47.170  23.615  37.167  1.00  0.00    -0.237 OA
ATOM     95  O   UNL A   1      44.894  23.324  36.242  1.00  0.00    -0.237 OA
ATOM     96  O   UNL A   1      46.801  22.137  35.229  1.00  0.00    -0.744 OA
ENDBRANCH  89  93
ENDBRANCH  63  86
ENDBRANCH  37  38
ENDBRANCH  29  32
ENDBRANCH  27  28
ENDBRANCH  26  27
ENDBRANCH   1  26
TORSDOF 17
ENDMDL
