MODEL 1
REMARK VINA RESULT:     -11.4      0.000      0.000
REMARK SMILES O=C(NCCCNC(=O)[C@H](CO)NC(=O)[C@H](Cc1ccc(O)cc1)NC(=O)c1ccc(F)cc1)c1ccc(-c2c3nc(c(-c4cc(S(=O)(=O)[O-])ccc4F)c4ccc([nH]4)c(-c4cc(S(=O)(=O)[O-])ccc4F)c4nc(c(-c5cc(S(=O)(=O)[O-])ccc5F)c5ccc2[nH]5)C=C4)C=C3)cc1
REMARK SMILES IDX 6 1 5 2 4 3 3 4 1 5 2 6 35 8 36 9 97 10 37 11 96 12 38 13
REMARK SMILES IDX 39 14 40 15 90 16 41 17 95 18 89 19 91 20 42 21 94 22 88 23
REMARK SMILES IDX 87 24 43 26 75 27 55 28 74 29 56 30 59 31 73 32 92 33 57 34
REMARK SMILES IDX 58 35 72 37 93 38 60 39 44 40 45 41 53 42 46 43 52 44 54 45
REMARK SMILES IDX 51 46 47 47 48 48 49 49 50 50 76 51 77 52 85 53 78 54 84 55
REMARK SMILES IDX 86 56 83 57 79 58 80 59 81 60 82 61 61 62 62 63 70 64 63 65
REMARK SMILES IDX 69 66 71 67 68 68 64 69 65 70 66 71 67 72 7 73 8 74 9 76
REMARK SMILES IDX 10 77 13 78 14 79 15 81 16 82 25 83 26 84 27 86 28 87 29 88
REMARK SMILES IDX 34 89 30 90 33 91 31 92 32 93 17 94 18 95 19 96 24 97 20 98
REMARK SMILES IDX 23 99 21 100 22 101 11 103 12 104
REMARK H PARENT 3 7 91 25 59 36 7 75 13 80 25 85 22 102 12 105
REMARK Flexibility Score: inf
ROOT
ATOM      1  C   UNL A   1      31.675  26.737  26.681  1.00  0.00     0.117 C 
ENDROOT
BRANCH   1   2
ATOM      2  C   UNL A   1      31.895  28.093  27.343  1.00  0.00     0.042 C 
BRANCH   2   3
ATOM      3  C   UNL A   1      33.325  28.613  27.255  1.00  0.00     0.118 C 
BRANCH   3   4
ATOM      4  N   UNL A   1      33.403  30.064  27.312  1.00  0.00    -0.352 N 
ATOM      5  O   UNL A   1      34.167  32.081  27.944  1.00  0.00    -0.269 OA
ATOM      6  C   UNL A   1      34.383  30.877  27.835  1.00  0.00     0.251 C 
ATOM      7  H   UNL A   1      32.637  30.538  26.914  1.00  0.00     0.163 HD
BRANCH   6   8
ATOM      8  C   UNL A   1      35.676  30.311  28.291  1.00  0.00     0.039 A 
ATOM      9  C   UNL A   1      35.801  29.717  29.547  1.00  0.00     0.014 A 
ATOM     10  C   UNL A   1      36.778  30.348  27.430  1.00  0.00     0.014 A 
ATOM     11  C   UNL A   1      37.053  29.318  30.005  1.00  0.00     0.010 A 
ATOM     12  C   UNL A   1      38.019  29.857  27.858  1.00  0.00     0.010 A 
ATOM     13  C   UNL A   1      38.177  29.372  29.164  1.00  0.00    -0.014 A 
BRANCH  13  14
ATOM     14  C   UNL A   1      39.488  28.882  29.671  1.00  0.00     0.031 A 
ATOM     15  C   UNL A   1      40.105  29.459  30.919  1.00  0.00     0.074 A 
ATOM     16  C   UNL A   1      40.095  27.861  29.031  1.00  0.00     0.049 A 
ATOM     17  N   UNL A   1      41.222  29.125  31.513  1.00  0.00    -0.248 NA
ATOM     18  C   UNL A   1      39.380  30.554  31.583  1.00  0.00     0.031 C 
ATOM     19  C   UNL A   1      39.595  27.218  27.812  1.00  0.00     0.029 A 
ATOM     20  N   UNL A   1      41.238  27.162  29.325  1.00  0.00    -0.354 N 
ATOM     21  C   UNL A   1      41.344  29.973  32.608  1.00  0.00     0.074 A 
ATOM     22  C   UNL A   1      40.198  30.856  32.583  1.00  0.00     0.031 C 
ATOM     23  C   UNL A   1      40.386  26.180  27.505  1.00  0.00     0.029 A 
ATOM     24  C   UNL A   1      41.489  26.123  28.458  1.00  0.00     0.049 A 
ATOM     25  H   UNL A   1      41.824  27.383  30.085  1.00  0.00     0.167 HD
ATOM     26  C   UNL A   1      42.317  30.003  33.551  1.00  0.00     0.034 A 
ATOM     27  C   UNL A   1      42.498  25.231  28.420  1.00  0.00     0.034 A 
ATOM     28  C   UNL A   1      43.441  29.103  33.584  1.00  0.00     0.049 A 
ATOM     29  C   UNL A   1      43.582  25.313  29.457  1.00  0.00     0.074 A 
ATOM     30  C   UNL A   1      44.461  29.035  34.519  1.00  0.00     0.029 A 
ATOM     31  N   UNL A   1      43.698  28.115  32.644  1.00  0.00    -0.354 N 
ATOM     32  N   UNL A   1      43.687  26.138  30.472  1.00  0.00    -0.248 NA
ATOM     33  C   UNL A   1      44.692  24.358  29.338  1.00  0.00     0.031 C 
ATOM     34  C   UNL A   1      45.360  28.043  34.116  1.00  0.00     0.029 A 
ATOM     35  C   UNL A   1      44.872  27.453  32.961  1.00  0.00     0.049 A 
ATOM     36  H   UNL A   1      43.129  27.915  31.866  1.00  0.00     0.167 HD
ATOM     37  C   UNL A   1      44.873  25.801  31.112  1.00  0.00     0.074 A 
ATOM     38  C   UNL A   1      45.442  24.688  30.379  1.00  0.00     0.031 C 
ATOM     39  C   UNL A   1      45.439  26.364  32.207  1.00  0.00     0.034 A 
BRANCH  26  40
ATOM     40  C   UNL A   1      42.229  31.060  34.620  1.00  0.00     0.023 A 
ATOM     41  C   UNL A   1      42.695  32.367  34.404  1.00  0.00     0.031 A 
ATOM     42  C   UNL A   1      41.630  30.765  35.858  1.00  0.00     0.131 A 
ATOM     43  C   UNL A   1      42.585  33.324  35.425  1.00  0.00     0.055 A 
ATOM     44  C   UNL A   1      41.472  31.736  36.848  1.00  0.00     0.041 A 
ATOM     45  F   UNL A   1      41.183  29.526  36.119  1.00  0.00    -0.206 F 
ATOM     46  C   UNL A   1      41.955  33.024  36.635  1.00  0.00     0.022 A 
BRANCH  43  47
ATOM     47  S   UNL A   1      43.332  34.957  35.171  1.00  0.00     0.124 S 
ATOM     48  O   UNL A   1      42.790  35.706  36.303  1.00  0.00    -0.237 OA
ATOM     49  O   UNL A   1      44.760  34.667  35.226  1.00  0.00    -0.237 OA
ATOM     50  O   UNL A   1      42.828  35.365  33.862  1.00  0.00    -0.744 OA
ENDBRANCH  43  47
ENDBRANCH  26  40
BRANCH  27  51
ATOM     51  C   UNL A   1      42.545  24.214  27.335  1.00  0.00     0.023 A 
ATOM     52  C   UNL A   1      41.770  23.047  27.401  1.00  0.00     0.031 A 
ATOM     53  C   UNL A   1      43.365  24.404  26.208  1.00  0.00     0.131 A 
ATOM     54  C   UNL A   1      41.841  22.106  26.363  1.00  0.00     0.055 A 
ATOM     55  C   UNL A   1      43.402  23.485  25.161  1.00  0.00     0.041 A 
ATOM     56  F   UNL A   1      44.119  25.511  26.098  1.00  0.00    -0.206 F 
ATOM     57  C   UNL A   1      42.640  22.324  25.236  1.00  0.00     0.022 A 
BRANCH  54  58
ATOM     58  S   UNL A   1      40.887  20.570  26.511  1.00  0.00     0.124 S 
ATOM     59  O   UNL A   1      39.571  20.994  26.046  1.00  0.00    -0.237 OA
ATOM     60  O   UNL A   1      41.622  19.669  25.629  1.00  0.00    -0.237 OA
ATOM     61  O   UNL A   1      40.974  20.250  27.934  1.00  0.00    -0.744 OA
ENDBRANCH  54  58
ENDBRANCH  27  51
BRANCH  39  62
ATOM     62  C   UNL A   1      46.738  25.780  32.687  1.00  0.00     0.023 A 
ATOM     63  C   UNL A   1      46.766  24.784  33.677  1.00  0.00     0.031 A 
ATOM     64  C   UNL A   1      47.954  26.189  32.112  1.00  0.00     0.131 A 
ATOM     65  C   UNL A   1      47.994  24.242  34.082  1.00  0.00     0.055 A 
ATOM     66  C   UNL A   1      49.168  25.618  32.491  1.00  0.00     0.041 A 
ATOM     67  F   UNL A   1      47.973  27.134  31.159  1.00  0.00    -0.206 F 
ATOM     68  C   UNL A   1      49.194  24.641  33.484  1.00  0.00     0.022 A 
BRANCH  65  69
ATOM     69  S   UNL A   1      48.010  23.011  35.412  1.00  0.00     0.124 S 
ATOM     70  O   UNL A   1      46.839  22.203  35.087  1.00  0.00    -0.237 OA
ATOM     71  O   UNL A   1      49.303  22.362  35.231  1.00  0.00    -0.237 OA
ATOM     72  O   UNL A   1      47.889  23.818  36.626  1.00  0.00    -0.744 OA
ENDBRANCH  65  69
ENDBRANCH  39  62
ENDBRANCH  13  14
ENDBRANCH   6   8
ENDBRANCH   3   4
ENDBRANCH   2   3
ENDBRANCH   1   2
BRANCH   1  73
ATOM     73  N   UNL A   1      30.581  26.761  25.728  1.00  0.00    -0.354 N 
ATOM     74  C   UNL A   1      30.561  27.054  24.397  1.00  0.00     0.244 C 
ATOM     75  H   UNL A   1      29.703  26.526  26.107  1.00  0.00     0.163 HD
ATOM     76  O   UNL A   1      29.471  26.953  23.827  1.00  0.00    -0.273 OA
BRANCH  74  77
ATOM     77  C   UNL A   1      31.849  27.459  23.646  1.00  0.00     0.197 C 
BRANCH  77  78
ATOM     78  N   UNL A   1      31.719  27.033  22.243  1.00  0.00    -0.340 N 
ATOM     79  C   UNL A   1      31.985  25.833  21.654  1.00  0.00     0.243 C 
ATOM     80  H   UNL A   1      31.388  27.728  21.630  1.00  0.00     0.164 HD
ATOM     81  O   UNL A   1      31.700  25.679  20.465  1.00  0.00    -0.273 OA
BRANCH  79  82
ATOM     82  C   UNL A   1      32.694  24.740  22.473  1.00  0.00     0.176 C 
BRANCH  82  83
ATOM     83  N   UNL A   1      32.305  23.413  21.987  1.00  0.00    -0.340 N 
ATOM     84  C   UNL A   1      32.040  22.267  22.683  1.00  0.00     0.251 C 
ATOM     85  H   UNL A   1      32.224  23.334  21.009  1.00  0.00     0.164 HD
ATOM     86  O   UNL A   1      31.735  21.227  22.107  1.00  0.00    -0.269 OA
BRANCH  84  87
ATOM     87  C   UNL A   1      32.187  22.258  24.150  1.00  0.00     0.040 A 
ATOM     88  C   UNL A   1      31.474  23.154  24.955  1.00  0.00     0.017 A 
ATOM     89  C   UNL A   1      33.054  21.319  24.721  1.00  0.00     0.017 A 
ATOM     90  C   UNL A   1      31.676  23.145  26.335  1.00  0.00     0.040 A 
ATOM     91  C   UNL A   1      33.247  21.311  26.101  1.00  0.00     0.040 A 
ATOM     92  C   UNL A   1      32.565  22.231  26.894  1.00  0.00     0.123 A 
ATOM     93  F   UNL A   1      32.767  22.235  28.218  1.00  0.00    -0.207 F 
ENDBRANCH  84  87
ENDBRANCH  82  83
BRANCH  82  94
ATOM     94  C   UNL A   1      34.219  24.980  22.509  1.00  0.00     0.070 C 
BRANCH  94  95
ATOM     95  C   UNL A   1      35.033  24.214  23.528  1.00  0.00    -0.045 A 
ATOM     96  C   UNL A   1      35.879  23.157  23.162  1.00  0.00     0.007 A 
ATOM     97  C   UNL A   1      34.970  24.590  24.880  1.00  0.00     0.007 A 
ATOM     98  C   UNL A   1      36.596  22.452  24.134  1.00  0.00     0.046 A 
ATOM     99  C   UNL A   1      35.697  23.896  25.848  1.00  0.00     0.046 A 
ATOM    100  C   UNL A   1      36.492  22.824  25.470  1.00  0.00     0.115 A 
BRANCH 100 101
ATOM    101  O   UNL A   1      37.163  22.153  26.449  1.00  0.00    -0.508 OA
ATOM    102  H   UNL A   1      38.057  21.906  26.319  1.00  0.00     0.293 HD
ENDBRANCH 100 101
ENDBRANCH  94  95
ENDBRANCH  82  94
ENDBRANCH  79  82
ENDBRANCH  77  78
BRANCH  77 103
ATOM    103  C   UNL A   1      32.121  28.966  23.684  1.00  0.00     0.191 C 
BRANCH 103 104
ATOM    104  O   UNL A   1      30.994  29.696  24.156  1.00  0.00    -0.394 OA
ATOM    105  H   UNL A   1      30.603  29.232  24.913  1.00  0.00     0.210 HD
ENDBRANCH 103 104
ENDBRANCH  77 103
ENDBRANCH  74  77
ENDBRANCH   1  73
TORSDOF 22
ENDMDL
MODEL 2
REMARK VINA RESULT:     -11.0      2.110      2.903
REMARK SMILES O=C(NCCCNC(=O)[C@H](CO)NC(=O)[C@H](Cc1ccc(O)cc1)NC(=O)c1ccc(F)cc1)c1ccc(-c2c3nc(c(-c4cc(S(=O)(=O)[O-])ccc4F)c4ccc([nH]4)c(-c4cc(S(=O)(=O)[O-])ccc4F)c4nc(c(-c5cc(S(=O)(=O)[O-])ccc5F)c5ccc2[nH]5)C=C4)C=C3)cc1
REMARK SMILES IDX 6 1 5 2 4 3 3 4 1 5 2 6 35 8 36 9 97 10 37 11 96 12 38 13
REMARK SMILES IDX 39 14 40 15 90 16 41 17 95 18 89 19 91 20 42 21 94 22 88 23
REMARK SMILES IDX 87 24 43 26 75 27 55 28 74 29 56 30 59 31 73 32 92 33 57 34
REMARK SMILES IDX 58 35 72 37 93 38 60 39 44 40 45 41 53 42 46 43 52 44 54 45
REMARK SMILES IDX 51 46 47 47 48 48 49 49 50 50 76 51 77 52 85 53 78 54 84 55
REMARK SMILES IDX 86 56 83 57 79 58 80 59 81 60 82 61 61 62 62 63 70 64 63 65
REMARK SMILES IDX 69 66 71 67 68 68 64 69 65 70 66 71 67 72 7 73 8 74 9 76
REMARK SMILES IDX 10 77 13 78 14 79 15 81 16 82 25 83 26 84 27 86 28 87 29 88
REMARK SMILES IDX 34 89 30 90 33 91 31 92 32 93 17 94 18 95 19 96 24 97 20 98
REMARK SMILES IDX 23 99 21 100 22 101 11 103 12 104
REMARK H PARENT 3 7 91 25 59 36 7 75 13 80 25 85 22 102 12 105
REMARK Flexibility Score: inf
ROOT
ATOM      1  C   UNL A   1      31.397  28.016  25.555  1.00  0.00     0.117 C 
ENDROOT
BRANCH   1   2
ATOM      2  C   UNL A   1      31.525  29.255  26.434  1.00  0.00     0.042 C 
BRANCH   2   3
ATOM      3  C   UNL A   1      32.723  30.139  26.108  1.00  0.00     0.118 C 
BRANCH   3   4
ATOM      4  N   UNL A   1      32.509  31.534  26.459  1.00  0.00    -0.352 N 
ATOM      5  O   UNL A   1      32.730  33.441  27.627  1.00  0.00    -0.269 OA
ATOM      6  C   UNL A   1      33.190  32.337  27.344  1.00  0.00     0.251 C 
ATOM      7  H   UNL A   1      31.762  31.971  25.989  1.00  0.00     0.163 HD
BRANCH   6   8
ATOM      8  C   UNL A   1      34.450  31.875  27.975  1.00  0.00     0.039 A 
ATOM      9  C   UNL A   1      34.590  30.562  28.427  1.00  0.00     0.014 A 
ATOM     10  C   UNL A   1      35.523  32.765  28.090  1.00  0.00     0.014 A 
ATOM     11  C   UNL A   1      35.727  30.191  29.138  1.00  0.00     0.010 A 
ATOM     12  C   UNL A   1      36.706  32.359  28.721  1.00  0.00     0.010 A 
ATOM     13  C   UNL A   1      36.806  31.079  29.286  1.00  0.00    -0.014 A 
BRANCH  13  14
ATOM     14  C   UNL A   1      38.028  30.625  30.003  1.00  0.00     0.031 A 
ATOM     15  C   UNL A   1      38.305  31.056  31.420  1.00  0.00     0.074 A 
ATOM     16  C   UNL A   1      38.864  29.764  29.386  1.00  0.00     0.049 A 
ATOM     17  N   UNL A   1      39.304  30.727  32.198  1.00  0.00    -0.248 NA
ATOM     18  C   UNL A   1      37.342  31.977  32.043  1.00  0.00     0.031 C 
ATOM     19  C   UNL A   1      38.702  29.272  28.014  1.00  0.00     0.029 A 
ATOM     20  N   UNL A   1      39.991  29.122  29.833  1.00  0.00    -0.354 N 
ATOM     21  C   UNL A   1      39.103  31.408  33.393  1.00  0.00     0.074 A 
ATOM     22  C   UNL A   1      37.896  32.191  33.229  1.00  0.00     0.031 C 
ATOM     23  C   UNL A   1      39.649  28.358  27.759  1.00  0.00     0.029 A 
ATOM     24  C   UNL A   1      40.530  28.248  28.917  1.00  0.00     0.049 A 
ATOM     25  H   UNL A   1      40.378  29.273  30.726  1.00  0.00     0.167 HD
ATOM     26  C   UNL A   1      39.849  31.375  34.524  1.00  0.00     0.034 A 
ATOM     27  C   UNL A   1      41.617  27.455  28.988  1.00  0.00     0.034 A 
ATOM     28  C   UNL A   1      41.034  30.573  34.688  1.00  0.00     0.049 A 
ATOM     29  C   UNL A   1      42.447  27.467  30.241  1.00  0.00     0.074 A 
ATOM     30  C   UNL A   1      41.839  30.447  35.808  1.00  0.00     0.029 A 
ATOM     31  N   UNL A   1      41.588  29.760  33.708  1.00  0.00    -0.354 N 
ATOM     32  N   UNL A   1      42.246  28.137  31.351  1.00  0.00    -0.248 NA
ATOM     33  C   UNL A   1      43.655  26.633  30.247  1.00  0.00     0.031 C 
ATOM     34  C   UNL A   1      42.906  29.602  35.489  1.00  0.00     0.029 A 
ATOM     35  C   UNL A   1      42.737  29.154  34.189  1.00  0.00     0.049 A 
ATOM     36  H   UNL A   1      41.218  29.634  32.805  1.00  0.00     0.167 HD
ATOM     37  C   UNL A   1      43.304  27.803  32.189  1.00  0.00     0.074 A 
ATOM     38  C   UNL A   1      44.132  26.862  31.463  1.00  0.00     0.031 C 
ATOM     39  C   UNL A   1      43.564  28.239  33.445  1.00  0.00     0.034 A 
BRANCH  26  40
ATOM     40  C   UNL A   1      39.425  32.249  35.674  1.00  0.00     0.023 A 
ATOM     41  C   UNL A   1      39.833  33.590  35.770  1.00  0.00     0.031 A 
ATOM     42  C   UNL A   1      38.564  31.744  36.665  1.00  0.00     0.131 A 
ATOM     43  C   UNL A   1      39.407  34.372  36.854  1.00  0.00     0.055 A 
ATOM     44  C   UNL A   1      38.097  32.544  37.709  1.00  0.00     0.041 A 
ATOM     45  F   UNL A   1      38.157  30.465  36.626  1.00  0.00    -0.206 F 
ATOM     46  C   UNL A   1      38.523  33.865  37.810  1.00  0.00     0.022 A 
BRANCH  43  47
ATOM     47  S   UNL A   1      40.073  36.049  37.033  1.00  0.00     0.124 S 
ATOM     48  O   UNL A   1      39.806  36.612  35.711  1.00  0.00    -0.237 OA
ATOM     49  O   UNL A   1      39.280  36.593  38.128  1.00  0.00    -0.237 OA
ATOM     50  O   UNL A   1      41.486  35.826  37.336  1.00  0.00    -0.744 OA
ENDBRANCH  43  47
ENDBRANCH  26  40
BRANCH  27  51
ATOM     51  C   UNL A   1      42.001  26.619  27.818  1.00  0.00     0.023 A 
ATOM     52  C   UNL A   1      41.656  25.261  27.754  1.00  0.00     0.031 A 
ATOM     53  C   UNL A   1      42.712  27.176  26.741  1.00  0.00     0.131 A 
ATOM     54  C   UNL A   1      42.036  24.499  26.638  1.00  0.00     0.055 A 
ATOM     55  C   UNL A   1      43.053  26.425  25.617  1.00  0.00     0.041 A 
ATOM     56  F   UNL A   1      43.057  28.474  26.755  1.00  0.00    -0.206 F 
ATOM     57  C   UNL A   1      42.719  25.075  25.563  1.00  0.00     0.022 A 
BRANCH  54  58
ATOM     58  S   UNL A   1      41.645  22.729  26.616  1.00  0.00     0.124 S 
ATOM     59  O   UNL A   1      42.277  22.302  25.373  1.00  0.00    -0.237 OA
ATOM     60  O   UNL A   1      42.272  22.263  27.849  1.00  0.00    -0.237 OA
ATOM     61  O   UNL A   1      40.184  22.702  26.616  1.00  0.00    -0.744 OA
ENDBRANCH  54  58
ENDBRANCH  27  51
BRANCH  39  62
ATOM     62  C   UNL A   1      44.792  27.695  34.121  1.00  0.00     0.023 A 
ATOM     63  C   UNL A   1      44.747  26.500  34.857  1.00  0.00     0.031 A 
ATOM     64  C   UNL A   1      46.026  28.354  33.984  1.00  0.00     0.131 A 
ATOM     65  C   UNL A   1      45.918  26.008  35.452  1.00  0.00     0.055 A 
ATOM     66  C   UNL A   1      47.194  27.838  34.545  1.00  0.00     0.041 A 
ATOM     67  F   UNL A   1      46.115  29.497  33.285  1.00  0.00    -0.206 F 
ATOM     68  C   UNL A   1      47.144  26.661  35.287  1.00  0.00     0.022 A 
BRANCH  65  69
ATOM     69  S   UNL A   1      45.820  24.502  36.457  1.00  0.00     0.124 S 
ATOM     70  O   UNL A   1      45.989  23.458  35.452  1.00  0.00    -0.237 OA
ATOM     71  O   UNL A   1      46.927  24.671  37.393  1.00  0.00    -0.237 OA
ATOM     72  O   UNL A   1      44.489  24.577  37.056  1.00  0.00    -0.744 OA
ENDBRANCH  65  69
ENDBRANCH  39  62
ENDBRANCH  13  14
ENDBRANCH   6   8
ENDBRANCH   3   4
ENDBRANCH   2   3
ENDBRANCH   1   2
BRANCH   1  73
ATOM     73  N   UNL A   1      30.981  28.341  24.203  1.00  0.00    -0.354 N 
ATOM     74  C   UNL A   1      31.609  28.162  23.007  1.00  0.00     0.244 C 
ATOM     75  H   UNL A   1      30.093  28.763  24.138  1.00  0.00     0.163 HD
ATOM     76  O   UNL A   1      30.985  28.508  22.000  1.00  0.00    -0.273 OA
BRANCH  74  77
ATOM     77  C   UNL A   1      33.016  27.529  22.928  1.00  0.00     0.197 C 
BRANCH  77  78
ATOM     78  N   UNL A   1      33.146  26.853  21.626  1.00  0.00    -0.340 N 
ATOM     79  C   UNL A   1      32.837  25.579  21.255  1.00  0.00     0.243 C 
ATOM     80  H   UNL A   1      33.517  27.413  20.907  1.00  0.00     0.164 HD
ATOM     81  O   UNL A   1      32.940  25.264  20.068  1.00  0.00    -0.273 OA
BRANCH  79  82
ATOM     82  C   UNL A   1      32.441  24.560  22.339  1.00  0.00     0.176 C 
BRANCH  82  83
ATOM     83  N   UNL A   1      31.127  24.899  22.894  1.00  0.00    -0.340 N 
ATOM     84  C   UNL A   1      30.652  24.763  24.168  1.00  0.00     0.251 C 
ATOM     85  H   UNL A   1      30.489  25.282  22.250  1.00  0.00     0.164 HD
ATOM     86  O   UNL A   1      29.506  25.092  24.460  1.00  0.00    -0.269 OA
BRANCH  84  87
ATOM     87  C   UNL A   1      31.506  24.148  25.200  1.00  0.00     0.040 A 
ATOM     88  C   UNL A   1      31.123  22.969  25.850  1.00  0.00     0.017 A 
ATOM     89  C   UNL A   1      32.723  24.770  25.506  1.00  0.00     0.017 A 
ATOM     90  C   UNL A   1      31.938  22.444  26.853  1.00  0.00     0.040 A 
ATOM     91  C   UNL A   1      33.536  24.237  26.505  1.00  0.00     0.040 A 
ATOM     92  C   UNL A   1      33.131  23.085  27.176  1.00  0.00     0.123 A 
ATOM     93  F   UNL A   1      33.904  22.587  28.149  1.00  0.00    -0.207 F 
ENDBRANCH  84  87
ENDBRANCH  82  83
BRANCH  82  94
ATOM     94  C   UNL A   1      32.550  23.115  21.805  1.00  0.00     0.070 C 
BRANCH  94  95
ATOM     95  C   UNL A   1      32.925  22.024  22.783  1.00  0.00    -0.045 A 
ATOM     96  C   UNL A   1      32.153  20.864  22.936  1.00  0.00     0.007 A 
ATOM     97  C   UNL A   1      34.100  22.156  23.540  1.00  0.00     0.007 A 
ATOM     98  C   UNL A   1      32.514  19.888  23.870  1.00  0.00     0.046 A 
ATOM     99  C   UNL A   1      34.469  21.175  24.462  1.00  0.00     0.046 A 
ATOM    100  C   UNL A   1      33.666  20.057  24.631  1.00  0.00     0.115 A 
BRANCH 100 101
ATOM    101  O   UNL A   1      34.044  19.137  25.562  1.00  0.00    -0.508 OA
ATOM    102  H   UNL A   1      34.463  19.414  26.352  1.00  0.00     0.293 HD
ENDBRANCH 100 101
ENDBRANCH  94  95
ENDBRANCH  82  94
ENDBRANCH  79  82
ENDBRANCH  77  78
BRANCH  77 103
ATOM    103  C   UNL A   1      34.147  28.550  23.072  1.00  0.00     0.191 C 
BRANCH 103 104
ATOM    104  O   UNL A   1      33.652  29.884  23.123  1.00  0.00    -0.394 OA
ATOM    105  H   UNL A   1      34.380  30.491  23.333  1.00  0.00     0.210 HD
ENDBRANCH 103 104
ENDBRANCH  77 103
ENDBRANCH  74  77
ENDBRANCH   1  73
TORSDOF 22
ENDMDL
MODEL 3
REMARK VINA RESULT:     -11.0      3.315      4.659
REMARK SMILES O=C(NCCCNC(=O)[C@H](CO)NC(=O)[C@H](Cc1ccc(O)cc1)NC(=O)c1ccc(F)cc1)c1ccc(-c2c3nc(c(-c4cc(S(=O)(=O)[O-])ccc4F)c4ccc([nH]4)c(-c4cc(S(=O)(=O)[O-])ccc4F)c4nc(c(-c5cc(S(=O)(=O)[O-])ccc5F)c5ccc2[nH]5)C=C4)C=C3)cc1
REMARK SMILES IDX 6 1 5 2 4 3 3 4 1 5 2 6 35 8 36 9 97 10 37 11 96 12 38 13
REMARK SMILES IDX 39 14 40 15 90 16 41 17 95 18 89 19 91 20 42 21 94 22 88 23
REMARK SMILES IDX 87 24 43 26 75 27 55 28 74 29 56 30 59 31 73 32 92 33 57 34
REMARK SMILES IDX 58 35 72 37 93 38 60 39 44 40 45 41 53 42 46 43 52 44 54 45
REMARK SMILES IDX 51 46 47 47 48 48 49 49 50 50 76 51 77 52 85 53 78 54 84 55
REMARK SMILES IDX 86 56 83 57 79 58 80 59 81 60 82 61 61 62 62 63 70 64 63 65
REMARK SMILES IDX 69 66 71 67 68 68 64 69 65 70 66 71 67 72 7 73 8 74 9 76
REMARK SMILES IDX 10 77 13 78 14 79 15 81 16 82 25 83 26 84 27 86 28 87 29 88
REMARK SMILES IDX 34 89 30 90 33 91 31 92 32 93 17 94 18 95 19 96 24 97 20 98
REMARK SMILES IDX 23 99 21 100 22 101 11 103 12 104
REMARK H PARENT 3 7 91 25 59 36 7 75 13 80 25 85 22 102 12 105
REMARK Flexibility Score: inf
ROOT
ATOM      1  C   UNL A   1      31.660  30.555  25.799  1.00  0.00     0.117 C 
ENDROOT
BRANCH   1   2
ATOM      2  C   UNL A   1      31.440  31.799  26.653  1.00  0.00     0.042 C 
BRANCH   2   3
ATOM      3  C   UNL A   1      32.712  32.384  27.257  1.00  0.00     0.118 C 
BRANCH   3   4
ATOM      4  N   UNL A   1      32.567  33.780  27.637  1.00  0.00    -0.352 N 
ATOM      5  O   UNL A   1      32.829  35.634  28.880  1.00  0.00    -0.269 OA
ATOM      6  C   UNL A   1      33.233  34.509  28.595  1.00  0.00     0.251 C 
ATOM      7  H   UNL A   1      31.888  34.281  27.129  1.00  0.00     0.163 HD
BRANCH   6   8
ATOM      8  C   UNL A   1      34.408  33.942  29.300  1.00  0.00     0.039 A 
ATOM      9  C   UNL A   1      35.694  34.430  29.068  1.00  0.00     0.014 A 
ATOM     10  C   UNL A   1      34.214  32.920  30.236  1.00  0.00     0.014 A 
ATOM     11  C   UNL A   1      36.792  33.792  29.636  1.00  0.00     0.010 A 
ATOM     12  C   UNL A   1      35.316  32.342  30.881  1.00  0.00     0.010 A 
ATOM     13  C   UNL A   1      36.619  32.747  30.559  1.00  0.00    -0.014 A 
BRANCH  13  14
ATOM     14  C   UNL A   1      37.817  32.128  31.189  1.00  0.00     0.031 A 
ATOM     15  C   UNL A   1      38.257  32.521  32.576  1.00  0.00     0.074 A 
ATOM     16  C   UNL A   1      38.476  31.156  30.524  1.00  0.00     0.049 A 
ATOM     17  N   UNL A   1      39.256  32.058  33.282  1.00  0.00    -0.248 NA
ATOM     18  C   UNL A   1      37.481  33.570  33.256  1.00  0.00     0.031 C 
ATOM     19  C   UNL A   1      38.144  30.688  29.176  1.00  0.00     0.029 A 
ATOM     20  N   UNL A   1      39.533  30.364  30.896  1.00  0.00    -0.354 N 
ATOM     21  C   UNL A   1      39.242  32.764  34.480  1.00  0.00     0.074 A 
ATOM     22  C   UNL A   1      38.148  33.708  34.395  1.00  0.00     0.031 C 
ATOM     23  C   UNL A   1      38.933  29.650  28.863  1.00  0.00     0.029 A 
ATOM     24  C   UNL A   1      39.874  29.421  29.954  1.00  0.00     0.049 A 
ATOM     25  H   UNL A   1      40.003  30.463  31.755  1.00  0.00     0.167 HD
ATOM     26  C   UNL A   1      40.059  32.631  35.552  1.00  0.00     0.034 A 
ATOM     27  C   UNL A   1      40.842  28.484  29.955  1.00  0.00     0.034 A 
ATOM     28  C   UNL A   1      41.130  31.671  35.640  1.00  0.00     0.049 A 
ATOM     29  C   UNL A   1      41.758  28.384  31.143  1.00  0.00     0.074 A 
ATOM     30  C   UNL A   1      41.991  31.438  36.699  1.00  0.00     0.029 A 
ATOM     31  N   UNL A   1      41.490  30.786  34.633  1.00  0.00    -0.354 N 
ATOM     32  N   UNL A   1      41.736  29.078  32.256  1.00  0.00    -0.248 NA
ATOM     33  C   UNL A   1      42.835  27.389  31.072  1.00  0.00     0.031 C 
ATOM     34  C   UNL A   1      42.903  30.451  36.314  1.00  0.00     0.029 A 
ATOM     35  C   UNL A   1      42.576  30.027  35.036  1.00  0.00     0.049 A 
ATOM     36  H   UNL A   1      41.040  30.710  33.761  1.00  0.00     0.167 HD
ATOM     37  C   UNL A   1      42.797  28.603  33.018  1.00  0.00     0.074 A 
ATOM     38  C   UNL A   1      43.429  27.553  32.245  1.00  0.00     0.031 C 
ATOM     39  C   UNL A   1      43.210  29.002  34.245  1.00  0.00     0.034 A 
BRANCH  26  40
ATOM     40  C   UNL A   1      39.849  33.560  36.719  1.00  0.00     0.023 A 
ATOM     41  C   UNL A   1      39.228  33.128  37.902  1.00  0.00     0.031 A 
ATOM     42  C   UNL A   1      40.315  34.885  36.659  1.00  0.00     0.131 A 
ATOM     43  C   UNL A   1      39.060  34.025  38.968  1.00  0.00     0.055 A 
ATOM     44  C   UNL A   1      40.198  35.755  37.744  1.00  0.00     0.041 A 
ATOM     45  F   UNL A   1      40.902  35.351  35.544  1.00  0.00    -0.206 F 
ATOM     46  C   UNL A   1      39.563  35.327  38.906  1.00  0.00     0.022 A 
BRANCH  43  47
ATOM     47  S   UNL A   1      38.121  33.483  40.422  1.00  0.00     0.124 S 
ATOM     48  O   UNL A   1      37.688  34.761  40.984  1.00  0.00    -0.237 OA
ATOM     49  O   UNL A   1      37.072  32.658  39.835  1.00  0.00    -0.237 OA
ATOM     50  O   UNL A   1      39.110  32.760  41.220  1.00  0.00    -0.744 OA
ENDBRANCH  43  47
ENDBRANCH  26  40
BRANCH  27  51
ATOM     51  C   UNL A   1      41.017  27.598  28.772  1.00  0.00     0.023 A 
ATOM     52  C   UNL A   1      41.992  27.868  27.802  1.00  0.00     0.031 A 
ATOM     53  C   UNL A   1      40.210  26.459  28.605  1.00  0.00     0.131 A 
ATOM     54  C   UNL A   1      42.129  27.014  26.697  1.00  0.00     0.055 A 
ATOM     55  C   UNL A   1      40.375  25.592  27.525  1.00  0.00     0.041 A 
ATOM     56  F   UNL A   1      39.267  26.156  29.513  1.00  0.00    -0.206 F 
ATOM     57  C   UNL A   1      41.337  25.870  26.559  1.00  0.00     0.022 A 
BRANCH  54  58
ATOM     58  S   UNL A   1      43.346  27.429  25.418  1.00  0.00     0.124 S 
ATOM     59  O   UNL A   1      44.040  26.158  25.247  1.00  0.00    -0.237 OA
ATOM     60  O   UNL A   1      42.493  27.850  24.311  1.00  0.00    -0.237 OA
ATOM     61  O   UNL A   1      44.135  28.495  26.032  1.00  0.00    -0.744 OA
ENDBRANCH  54  58
ENDBRANCH  27  51
BRANCH  39  62
ATOM     62  C   UNL A   1      44.397  28.295  34.835  1.00  0.00     0.023 A 
ATOM     63  C   UNL A   1      44.243  27.113  35.578  1.00  0.00     0.031 A 
ATOM     64  C   UNL A   1      45.696  28.781  34.610  1.00  0.00     0.131 A 
ATOM     65  C   UNL A   1      45.375  26.464  36.092  1.00  0.00     0.055 A 
ATOM     66  C   UNL A   1      46.820  28.109  35.089  1.00  0.00     0.041 A 
ATOM     67  F   UNL A   1      45.890  29.904  33.900  1.00  0.00    -0.206 F 
ATOM     68  C   UNL A   1      46.663  26.946  35.839  1.00  0.00     0.022 A 
BRANCH  65  69
ATOM     69  S   UNL A   1      45.145  24.981  37.109  1.00  0.00     0.124 S 
ATOM     70  O   UNL A   1      45.242  23.917  36.115  1.00  0.00    -0.237 OA
ATOM     71  O   UNL A   1      46.251  25.070  38.057  1.00  0.00    -0.237 OA
ATOM     72  O   UNL A   1      43.817  25.167  37.691  1.00  0.00    -0.744 OA
ENDBRANCH  65  69
ENDBRANCH  39  62
ENDBRANCH  13  14
ENDBRANCH   6   8
ENDBRANCH   3   4
ENDBRANCH   2   3
ENDBRANCH   1   2
BRANCH   1  73
ATOM     73  N   UNL A   1      30.818  30.542  24.618  1.00  0.00    -0.354 N 
ATOM     74  C   UNL A   1      30.488  29.531  23.766  1.00  0.00     0.244 C 
ATOM     75  H   UNL A   1      30.416  31.413  24.392  1.00  0.00     0.163 HD
ATOM     76  O   UNL A   1      29.706  29.813  22.853  1.00  0.00    -0.273 OA
BRANCH  74  77
ATOM     77  C   UNL A   1      31.044  28.103  23.964  1.00  0.00     0.197 C 
BRANCH  77  78
ATOM     78  N   UNL A   1      29.939  27.233  24.400  1.00  0.00    -0.340 N 
ATOM     79  C   UNL A   1      29.952  26.081  25.126  1.00  0.00     0.243 C 
ATOM     80  H   UNL A   1      29.044  27.533  24.119  1.00  0.00     0.164 HD
ATOM     81  O   UNL A   1      28.879  25.574  25.458  1.00  0.00    -0.273 OA
BRANCH  79  82
ATOM     82  C   UNL A   1      31.303  25.415  25.445  1.00  0.00     0.176 C 
BRANCH  82  83
ATOM     83  N   UNL A   1      32.256  26.414  25.935  1.00  0.00    -0.340 N 
ATOM     84  C   UNL A   1      33.615  26.468  25.804  1.00  0.00     0.251 C 
ATOM     85  H   UNL A   1      31.855  27.160  26.436  1.00  0.00     0.164 HD
ATOM     86  O   UNL A   1      34.267  27.385  26.294  1.00  0.00    -0.269 OA
BRANCH  84  87
ATOM     87  C   UNL A   1      34.322  25.371  25.119  1.00  0.00     0.040 A 
ATOM     88  C   UNL A   1      34.048  25.055  23.783  1.00  0.00     0.017 A 
ATOM     89  C   UNL A   1      35.288  24.657  25.839  1.00  0.00     0.017 A 
ATOM     90  C   UNL A   1      34.706  23.980  23.185  1.00  0.00     0.040 A 
ATOM     91  C   UNL A   1      35.946  23.588  25.234  1.00  0.00     0.040 A 
ATOM     92  C   UNL A   1      35.641  23.252  23.917  1.00  0.00     0.123 A 
ATOM     93  F   UNL A   1      36.259  22.212  23.344  1.00  0.00    -0.207 F 
ENDBRANCH  84  87
ENDBRANCH  82  83
BRANCH  82  94
ATOM     94  C   UNL A   1      31.112  24.204  26.386  1.00  0.00     0.070 C 
BRANCH  94  95
ATOM     95  C   UNL A   1      31.912  22.952  26.101  1.00  0.00    -0.045 A 
ATOM     96  C   UNL A   1      31.833  22.283  24.871  1.00  0.00     0.007 A 
ATOM     97  C   UNL A   1      32.788  22.459  27.081  1.00  0.00     0.007 A 
ATOM     98  C   UNL A   1      32.566  21.113  24.651  1.00  0.00     0.046 A 
ATOM     99  C   UNL A   1      33.530  21.300  26.857  1.00  0.00     0.046 A 
ATOM    100  C   UNL A   1      33.402  20.627  25.650  1.00  0.00     0.115 A 
BRANCH 100 101
ATOM    101  O   UNL A   1      34.122  19.482  25.481  1.00  0.00    -0.508 OA
ATOM    102  H   UNL A   1      33.683  18.656  25.431  1.00  0.00     0.293 HD
ENDBRANCH 100 101
ENDBRANCH  94  95
ENDBRANCH  82  94
ENDBRANCH  79  82
ENDBRANCH  77  78
BRANCH  77 103
ATOM    103  C   UNL A   1      31.666  27.516  22.694  1.00  0.00     0.191 C 
BRANCH 103 104
ATOM    104  O   UNL A   1      30.740  27.492  21.613  1.00  0.00    -0.394 OA
ATOM    105  H   UNL A   1      31.021  28.124  20.933  1.00  0.00     0.210 HD
ENDBRANCH 103 104
ENDBRANCH  77 103
ENDBRANCH  74  77
ENDBRANCH   1  73
TORSDOF 22
ENDMDL
