MODEL 1
REMARK VINA RESULT:     -11.0      0.000      0.000
REMARK SMILES C#CCN(CC(=O)NCCCNC(=O)c1ccc(-c2c3nc(c(-c4cc(S(=O)(=O)[O-])ccc4F)c4ccc([nH]4)c(-c4cc(S(=O)(=O)[O-])ccc4F)c4nc(c(-c5cc(S(=O)(=O)[O-])ccc5F)c5ccc2[nH]5)C=C4)C=C3)cc1)C(=O)N1CCC(OCC)CC1
REMARK SMILES IDX 9 1 8 2 6 3 7 4 5 6 4 7 3 8 2 9 1 10 78 11 79 12 80 13 81 14
REMARK SMILES IDX 88 15 82 16 87 17 83 18 84 19 85 20 86 21 10 22 11 23 12 24
REMARK SMILES IDX 13 25 14 27 15 28 16 29 77 30 17 31 76 32 18 33 19 34 20 35
REMARK SMILES IDX 70 36 21 37 75 38 69 39 71 40 22 41 74 42 68 43 67 44 23 46
REMARK SMILES IDX 55 47 35 48 54 49 36 50 39 51 53 52 72 53 37 54 38 55 52 57
REMARK SMILES IDX 73 58 40 59 24 60 25 61 33 62 26 63 32 64 34 65 31 66 27 67
REMARK SMILES IDX 28 68 29 69 30 70 56 71 57 72 65 73 58 74 64 75 66 76 63 77
REMARK SMILES IDX 59 78 60 79 61 80 62 81 41 82 42 83 50 84 43 85 49 86 51 87
REMARK SMILES IDX 48 88 44 89 45 90 46 91 47 92
REMARK H PARENT 8 5 12 26 71 45 39 56
REMARK Flexibility Score: inf
ROOT
ATOM      1  C   UNL A   1      34.680  22.074  24.132  1.00  0.00     0.117 C 
ENDROOT
BRANCH   1   2
ATOM      2  N   UNL A   1      34.040  22.947  23.170  1.00  0.00    -0.354 N 
ATOM      3  C   UNL A   1      34.006  24.307  23.095  1.00  0.00     0.239 C 
ATOM      4  O   UNL A   1      33.769  24.793  21.982  1.00  0.00    -0.273 OA
ATOM      5  H   UNL A   1      33.550  22.481  22.454  1.00  0.00     0.163 HD
BRANCH   3   6
ATOM      6  C   UNL A   1      34.318  25.242  24.283  1.00  0.00     0.222 C 
BRANCH   6   7
ATOM      7  N   UNL A   1      33.227  25.611  25.187  1.00  0.00    -0.304 N 
BRANCH   7   8
ATOM      8  C   UNL A   1      32.957  24.679  26.294  1.00  0.00     0.211 C 
BRANCH   8   9
ATOM      9  C   UNL A   1      31.782  23.753  26.027  1.00  0.00    -0.085 C 
ATOM     10  C   UNL A   1      30.774  22.959  25.797  1.00  0.00     0.006 C 
ENDBRANCH   8   9
ENDBRANCH   7   8
BRANCH   7  11
ATOM     11  C   UNL A   1      32.558  26.832  25.206  1.00  0.00     0.321 C 
ATOM     12  O   UNL A   1      32.530  27.524  26.227  1.00  0.00    -0.248 OA
ATOM     13  N   UNL A   1      32.012  27.331  24.034  1.00  0.00    -0.324 N 
ATOM     14  C   UNL A   1      32.022  28.781  23.843  1.00  0.00     0.124 C 
ATOM     15  C   UNL A   1      31.088  26.625  23.157  1.00  0.00     0.124 C 
ATOM     16  C   UNL A   1      30.639  29.379  24.071  1.00  0.00     0.053 C 
ATOM     17  C   UNL A   1      29.675  27.197  23.175  1.00  0.00     0.053 C 
ATOM     18  C   UNL A   1      29.619  28.722  23.140  1.00  0.00     0.121 C 
BRANCH  18  19
ATOM     19  O   UNL A   1      28.272  29.187  23.276  1.00  0.00    -0.378 OA
BRANCH  19  20
ATOM     20  C   UNL A   1      27.838  30.324  22.530  1.00  0.00     0.157 C 
ATOM     21  C   UNL A   1      27.677  31.596  23.343  1.00  0.00     0.035 C 
ENDBRANCH  19  20
ENDBRANCH  18  19
ENDBRANCH   7  11
ENDBRANCH   6   7
ENDBRANCH   3   6
ENDBRANCH   1   2
BRANCH   1  22
ATOM     22  C   UNL A   1      36.206  22.116  24.122  1.00  0.00     0.042 C 
BRANCH  22  23
ATOM     23  C   UNL A   1      36.867  22.231  25.496  1.00  0.00     0.118 C 
BRANCH  23  24
ATOM     24  N   UNL A   1      37.919  21.247  25.708  1.00  0.00    -0.352 N 
ATOM     25  C   UNL A   1      39.218  21.380  26.138  1.00  0.00     0.251 C 
ATOM     26  H   UNL A   1      37.653  20.320  25.507  1.00  0.00     0.163 HD
ATOM     27  O   UNL A   1      39.977  20.422  26.024  1.00  0.00    -0.269 OA
BRANCH  25  28
ATOM     28  C   UNL A   1      39.714  22.653  26.708  1.00  0.00     0.039 A 
ATOM     29  C   UNL A   1      40.691  22.607  27.708  1.00  0.00     0.014 A 
ATOM     30  C   UNL A   1      39.197  23.885  26.300  1.00  0.00     0.014 A 
ATOM     31  C   UNL A   1      41.217  23.795  28.228  1.00  0.00     0.010 A 
ATOM     32  C   UNL A   1      39.768  25.068  26.770  1.00  0.00     0.010 A 
ATOM     33  C   UNL A   1      40.798  25.035  27.721  1.00  0.00    -0.014 A 
BRANCH  33  34
ATOM     34  C   UNL A   1      41.462  26.304  28.125  1.00  0.00     0.031 A 
ATOM     35  C   UNL A   1      40.684  27.390  28.815  1.00  0.00     0.074 A 
ATOM     36  C   UNL A   1      42.750  26.510  27.782  1.00  0.00     0.049 A 
ATOM     37  N   UNL A   1      41.053  28.608  29.116  1.00  0.00    -0.248 NA
ATOM     38  C   UNL A   1      39.301  27.068  29.195  1.00  0.00     0.031 C 
ATOM     39  C   UNL A   1      43.604  25.539  27.093  1.00  0.00     0.029 A 
ATOM     40  N   UNL A   1      43.563  27.606  27.944  1.00  0.00    -0.354 N 
ATOM     41  C   UNL A   1      39.948  29.205  29.713  1.00  0.00     0.074 A 
ATOM     42  C   UNL A   1      38.881  28.226  29.684  1.00  0.00     0.031 C 
ATOM     43  C   UNL A   1      44.818  26.077  26.903  1.00  0.00     0.029 A 
ATOM     44  C   UNL A   1      44.816  27.450  27.395  1.00  0.00     0.049 A 
ATOM     45  H   UNL A   1      43.275  28.425  28.408  1.00  0.00     0.167 HD
ATOM     46  C   UNL A   1      39.841  30.448  30.247  1.00  0.00     0.034 A 
ATOM     47  C   UNL A   1      45.835  28.323  27.268  1.00  0.00     0.034 A 
ATOM     48  C   UNL A   1      40.918  31.410  30.264  1.00  0.00     0.049 A 
ATOM     49  C   UNL A   1      45.664  29.725  27.797  1.00  0.00     0.074 A 
ATOM     50  C   UNL A   1      40.934  32.673  30.832  1.00  0.00     0.029 A 
ATOM     51  N   UNL A   1      42.160  31.228  29.671  1.00  0.00    -0.354 N 
ATOM     52  N   UNL A   1      44.629  30.256  28.405  1.00  0.00    -0.248 NA
ATOM     53  C   UNL A   1      46.795  30.645  27.618  1.00  0.00     0.031 C 
ATOM     54  C   UNL A   1      42.151  33.283  30.510  1.00  0.00     0.029 A 
ATOM     55  C   UNL A   1      42.930  32.373  29.815  1.00  0.00     0.049 A 
ATOM     56  H   UNL A   1      42.453  30.406  29.215  1.00  0.00     0.167 HD
ATOM     57  C   UNL A   1      44.995  31.567  28.701  1.00  0.00     0.074 A 
ATOM     58  C   UNL A   1      46.350  31.738  28.221  1.00  0.00     0.031 C 
ATOM     59  C   UNL A   1      44.274  32.539  29.313  1.00  0.00     0.034 A 
BRANCH  46  60
ATOM     60  C   UNL A   1      38.505  30.848  30.825  1.00  0.00     0.023 A 
ATOM     61  C   UNL A   1      37.516  31.470  30.043  1.00  0.00     0.031 A 
ATOM     62  C   UNL A   1      38.215  30.609  32.181  1.00  0.00     0.131 A 
ATOM     63  C   UNL A   1      36.318  31.898  30.637  1.00  0.00     0.055 A 
ATOM     64  C   UNL A   1      36.988  30.962  32.746  1.00  0.00     0.041 A 
ATOM     65  F   UNL A   1      39.126  30.035  32.983  1.00  0.00    -0.206 F 
ATOM     66  C   UNL A   1      36.037  31.624  31.976  1.00  0.00     0.022 A 
BRANCH  63  67
ATOM     67  S   UNL A   1      35.198  32.942  29.667  1.00  0.00     0.124 S 
ATOM     68  O   UNL A   1      34.893  32.075  28.531  1.00  0.00    -0.237 OA
ATOM     69  O   UNL A   1      34.103  33.181  30.600  1.00  0.00    -0.237 OA
ATOM     70  O   UNL A   1      36.012  34.113  29.346  1.00  0.00    -0.744 OA
ENDBRANCH  63  67
ENDBRANCH  46  60
BRANCH  47  71
ATOM     71  C   UNL A   1      47.094  27.919  26.577  1.00  0.00     0.023 A 
ATOM     72  C   UNL A   1      47.221  28.034  25.184  1.00  0.00     0.031 A 
ATOM     73  C   UNL A   1      48.174  27.370  27.293  1.00  0.00     0.131 A 
ATOM     74  C   UNL A   1      48.380  27.563  24.546  1.00  0.00     0.055 A 
ATOM     75  C   UNL A   1      49.348  26.960  26.660  1.00  0.00     0.041 A 
ATOM     76  F   UNL A   1      48.106  27.235  28.628  1.00  0.00    -0.206 F 
ATOM     77  C   UNL A   1      49.450  27.043  25.276  1.00  0.00     0.022 A 
BRANCH  74  78
ATOM     78  S   UNL A   1      48.427  27.555  22.732  1.00  0.00     0.124 S 
ATOM     79  O   UNL A   1      48.400  26.126  22.443  1.00  0.00    -0.237 OA
ATOM     80  O   UNL A   1      47.221  28.302  22.395  1.00  0.00    -0.237 OA
ATOM     81  O   UNL A   1      49.685  28.232  22.422  1.00  0.00    -0.744 OA
ENDBRANCH  74  78
ENDBRANCH  47  71
BRANCH  59  82
ATOM     82  C   UNL A   1      44.951  33.872  29.519  1.00  0.00     0.023 A 
ATOM     83  C   UNL A   1      44.772  34.937  28.619  1.00  0.00     0.031 A 
ATOM     84  C   UNL A   1      45.778  34.084  30.638  1.00  0.00     0.131 A 
ATOM     85  C   UNL A   1      45.440  36.152  28.832  1.00  0.00     0.055 A 
ATOM     86  C   UNL A   1      46.393  35.313  30.875  1.00  0.00     0.041 A 
ATOM     87  F   UNL A   1      45.988  33.100  31.527  1.00  0.00    -0.206 F 
ATOM     88  C   UNL A   1      46.233  36.354  29.964  1.00  0.00     0.022 A 
BRANCH  85  89
ATOM     89  S   UNL A   1      45.317  37.449  27.569  1.00  0.00     0.124 S 
ATOM     90  O   UNL A   1      46.435  37.122  26.690  1.00  0.00    -0.237 OA
ATOM     91  O   UNL A   1      43.985  37.224  27.017  1.00  0.00    -0.237 OA
ATOM     92  O   UNL A   1      45.469  38.686  28.332  1.00  0.00    -0.744 OA
ENDBRANCH  85  89
ENDBRANCH  59  82
ENDBRANCH  33  34
ENDBRANCH  25  28
ENDBRANCH  23  24
ENDBRANCH  22  23
ENDBRANCH   1  22
TORSDOF 19
ENDMDL
MODEL 2
REMARK VINA RESULT:     -10.9      5.037     10.281
REMARK SMILES C#CCN(CC(=O)NCCCNC(=O)c1ccc(-c2c3nc(c(-c4cc(S(=O)(=O)[O-])ccc4F)c4ccc([nH]4)c(-c4cc(S(=O)(=O)[O-])ccc4F)c4nc(c(-c5cc(S(=O)(=O)[O-])ccc5F)c5ccc2[nH]5)C=C4)C=C3)cc1)C(=O)N1CCC(OCC)CC1
REMARK SMILES IDX 9 1 8 2 6 3 7 4 5 6 4 7 3 8 2 9 1 10 78 11 79 12 80 13 81 14
REMARK SMILES IDX 88 15 82 16 87 17 83 18 84 19 85 20 86 21 10 22 11 23 12 24
REMARK SMILES IDX 13 25 14 27 15 28 16 29 77 30 17 31 76 32 18 33 19 34 20 35
REMARK SMILES IDX 70 36 21 37 75 38 69 39 71 40 22 41 74 42 68 43 67 44 23 46
REMARK SMILES IDX 55 47 35 48 54 49 36 50 39 51 53 52 72 53 37 54 38 55 52 57
REMARK SMILES IDX 73 58 40 59 24 60 25 61 33 62 26 63 32 64 34 65 31 66 27 67
REMARK SMILES IDX 28 68 29 69 30 70 56 71 57 72 65 73 58 74 64 75 66 76 63 77
REMARK SMILES IDX 59 78 60 79 61 80 62 81 41 82 42 83 50 84 43 85 49 86 51 87
REMARK SMILES IDX 48 88 44 89 45 90 46 91 47 92
REMARK H PARENT 8 5 12 26 71 45 39 56
REMARK Flexibility Score: inf
ROOT
ATOM      1  C   UNL A   1      31.426  28.519  24.940  1.00  0.00     0.117 C 
ENDROOT
BRANCH   1   2
ATOM      2  N   UNL A   1      31.248  27.218  25.551  1.00  0.00    -0.354 N 
ATOM      3  C   UNL A   1      32.152  26.231  25.810  1.00  0.00     0.239 C 
ATOM      4  O   UNL A   1      31.847  25.423  26.696  1.00  0.00    -0.273 OA
ATOM      5  H   UNL A   1      30.324  27.013  25.823  1.00  0.00     0.163 HD
BRANCH   3   6
ATOM      6  C   UNL A   1      33.529  26.125  25.123  1.00  0.00     0.222 C 
BRANCH   6   7
ATOM      7  N   UNL A   1      33.722  25.100  24.095  1.00  0.00    -0.304 N 
BRANCH   7   8
ATOM      8  C   UNL A   1      33.438  25.507  22.710  1.00  0.00     0.211 C 
BRANCH   8   9
ATOM      9  C   UNL A   1      33.664  26.989  22.461  1.00  0.00    -0.085 C 
ATOM     10  C   UNL A   1      33.858  28.261  22.248  1.00  0.00     0.006 C 
ENDBRANCH   8   9
ENDBRANCH   7   8
BRANCH   7  11
ATOM     11  C   UNL A   1      34.316  23.854  24.283  1.00  0.00     0.321 C 
ATOM     12  O   UNL A   1      35.525  23.694  24.096  1.00  0.00    -0.248 OA
ATOM     13  N   UNL A   1      33.565  22.808  24.796  1.00  0.00    -0.324 N 
ATOM     14  C   UNL A   1      34.242  21.849  25.669  1.00  0.00     0.124 C 
ATOM     15  C   UNL A   1      32.296  22.332  24.265  1.00  0.00     0.124 C 
ATOM     16  C   UNL A   1      34.522  20.540  24.940  1.00  0.00     0.053 C 
ATOM     17  C   UNL A   1      32.387  20.956  23.613  1.00  0.00     0.053 C 
ATOM     18  C   UNL A   1      33.220  19.947  24.399  1.00  0.00     0.121 C 
BRANCH  18  19
ATOM     19  O   UNL A   1      33.357  18.721  23.674  1.00  0.00    -0.378 OA
BRANCH  19  20
ATOM     20  C   UNL A   1      33.162  17.477  24.346  1.00  0.00     0.157 C 
ATOM     21  C   UNL A   1      32.645  17.595  25.769  1.00  0.00     0.035 C 
ENDBRANCH  19  20
ENDBRANCH  18  19
ENDBRANCH   7  11
ENDBRANCH   6   7
ENDBRANCH   3   6
ENDBRANCH   1   2
BRANCH   1  22
ATOM     22  C   UNL A   1      32.444  29.420  25.634  1.00  0.00     0.042 C 
BRANCH  22  23
ATOM     23  C   UNL A   1      31.972  30.057  26.941  1.00  0.00     0.118 C 
BRANCH  23  24
ATOM     24  N   UNL A   1      32.016  31.513  26.915  1.00  0.00    -0.352 N 
ATOM     25  C   UNL A   1      32.931  32.405  27.419  1.00  0.00     0.251 C 
ATOM     26  H   UNL A   1      31.252  31.932  26.456  1.00  0.00     0.163 HD
ATOM     27  O   UNL A   1      32.632  33.595  27.462  1.00  0.00    -0.269 OA
BRANCH  25  28
ATOM     28  C   UNL A   1      34.249  31.955  27.924  1.00  0.00     0.039 A 
ATOM     29  C   UNL A   1      35.305  32.871  27.958  1.00  0.00     0.014 A 
ATOM     30  C   UNL A   1      34.464  30.634  28.322  1.00  0.00     0.014 A 
ATOM     31  C   UNL A   1      36.545  32.489  28.480  1.00  0.00     0.010 A 
ATOM     32  C   UNL A   1      35.679  30.271  28.902  1.00  0.00     0.010 A 
ATOM     33  C   UNL A   1      36.725  31.201  29.008  1.00  0.00    -0.014 A 
BRANCH  33  34
ATOM     34  C   UNL A   1      37.971  30.822  29.728  1.00  0.00     0.031 A 
ATOM     35  C   UNL A   1      38.933  29.836  29.125  1.00  0.00     0.074 A 
ATOM     36  C   UNL A   1      38.185  31.301  30.970  1.00  0.00     0.049 A 
ATOM     37  N   UNL A   1      39.992  29.283  29.659  1.00  0.00    -0.248 NA
ATOM     38  C   UNL A   1      38.652  29.398  27.751  1.00  0.00     0.031 C 
ATOM     39  C   UNL A   1      37.312  32.249  31.668  1.00  0.00     0.029 A 
ATOM     40  N   UNL A   1      39.184  31.046  31.876  1.00  0.00    -0.354 N 
ATOM     41  C   UNL A   1      40.502  28.424  28.691  1.00  0.00     0.074 A 
ATOM     42  C   UNL A   1      39.603  28.496  27.557  1.00  0.00     0.031 C 
ATOM     43  C   UNL A   1      37.820  32.502  32.884  1.00  0.00     0.029 A 
ATOM     44  C   UNL A   1      39.016  31.690  33.081  1.00  0.00     0.049 A 
ATOM     45  H   UNL A   1      39.949  30.457  31.682  1.00  0.00     0.167 HD
ATOM     46  C   UNL A   1      41.622  27.660  28.741  1.00  0.00     0.034 A 
ATOM     47  C   UNL A   1      39.721  31.610  34.228  1.00  0.00     0.034 A 
ATOM     48  C   UNL A   1      42.504  27.602  29.883  1.00  0.00     0.049 A 
ATOM     49  C   UNL A   1      40.916  30.692  34.286  1.00  0.00     0.074 A 
ATOM     50  C   UNL A   1      43.695  26.909  30.015  1.00  0.00     0.029 A 
ATOM     51  N   UNL A   1      42.284  28.243  31.095  1.00  0.00    -0.354 N 
ATOM     52  N   UNL A   1      41.414  29.926  33.343  1.00  0.00    -0.248 NA
ATOM     53  C   UNL A   1      41.640  30.624  35.562  1.00  0.00     0.031 C 
ATOM     54  C   UNL A   1      44.148  27.062  31.329  1.00  0.00     0.029 A 
ATOM     55  C   UNL A   1      43.288  27.920  31.995  1.00  0.00     0.049 A 
ATOM     56  H   UNL A   1      41.526  28.841  31.287  1.00  0.00     0.167 HD
ATOM     57  C   UNL A   1      42.523  29.302  33.908  1.00  0.00     0.074 A 
ATOM     58  C   UNL A   1      42.631  29.796  35.265  1.00  0.00     0.031 C 
ATOM     59  C   UNL A   1      43.374  28.403  33.354  1.00  0.00     0.034 A 
BRANCH  46  60
ATOM     60  C   UNL A   1      41.937  26.802  27.540  1.00  0.00     0.023 A 
ATOM     61  C   UNL A   1      41.628  25.431  27.508  1.00  0.00     0.031 A 
ATOM     62  C   UNL A   1      42.562  27.360  26.409  1.00  0.00     0.131 A 
ATOM     63  C   UNL A   1      42.008  24.651  26.405  1.00  0.00     0.055 A 
ATOM     64  C   UNL A   1      42.862  26.595  25.280  1.00  0.00     0.041 A 
ATOM     65  F   UNL A   1      42.899  28.658  26.387  1.00  0.00    -0.206 F 
ATOM     66  C   UNL A   1      42.599  25.229  25.280  1.00  0.00     0.022 A 
BRANCH  63  67
ATOM     67  S   UNL A   1      41.848  22.849  26.524  1.00  0.00     0.124 S 
ATOM     68  O   UNL A   1      42.369  22.420  25.228  1.00  0.00    -0.237 OA
ATOM     69  O   UNL A   1      42.678  22.534  27.681  1.00  0.00    -0.237 OA
ATOM     70  O   UNL A   1      40.414  22.643  26.710  1.00  0.00    -0.744 OA
ENDBRANCH  63  67
ENDBRANCH  46  60
BRANCH  47  71
ATOM     71  C   UNL A   1      39.298  32.385  35.430  1.00  0.00     0.023 A 
ATOM     72  C   UNL A   1      39.693  33.720  35.605  1.00  0.00     0.031 A 
ATOM     73  C   UNL A   1      38.530  31.788  36.447  1.00  0.00     0.131 A 
ATOM     74  C   UNL A   1      39.358  34.400  36.787  1.00  0.00     0.055 A 
ATOM     75  C   UNL A   1      38.148  32.487  37.593  1.00  0.00     0.041 A 
ATOM     76  F   UNL A   1      38.127  30.511  36.334  1.00  0.00    -0.206 F 
ATOM     77  C   UNL A   1      38.575  33.799  37.774  1.00  0.00     0.022 A 
BRANCH  74  78
ATOM     78  S   UNL A   1      40.046  36.057  37.056  1.00  0.00     0.124 S 
ATOM     79  O   UNL A   1      41.449  35.757  37.316  1.00  0.00    -0.237 OA
ATOM     80  O   UNL A   1      39.754  36.716  35.788  1.00  0.00    -0.237 OA
ATOM     81  O   UNL A   1      39.290  36.555  38.204  1.00  0.00    -0.744 OA
ENDBRANCH  74  78
ENDBRANCH  47  71
BRANCH  59  82
ATOM     82  C   UNL A   1      44.514  27.913  34.213  1.00  0.00     0.023 A 
ATOM     83  C   UNL A   1      44.395  26.758  35.007  1.00  0.00     0.031 A 
ATOM     84  C   UNL A   1      45.739  28.603  34.229  1.00  0.00     0.131 A 
ATOM     85  C   UNL A   1      45.469  26.350  35.812  1.00  0.00     0.055 A 
ATOM     86  C   UNL A   1      46.823  28.159  34.987  1.00  0.00     0.041 A 
ATOM     87  F   UNL A   1      45.907  29.714  33.495  1.00  0.00    -0.206 F 
ATOM     88  C   UNL A   1      46.688  27.031  35.792  1.00  0.00     0.022 A 
BRANCH  85  89
ATOM     89  S   UNL A   1      45.229  24.954  36.944  1.00  0.00     0.124 S 
ATOM     90  O   UNL A   1      44.940  23.861  36.020  1.00  0.00    -0.237 OA
ATOM     91  O   UNL A   1      46.513  24.883  37.633  1.00  0.00    -0.237 OA
ATOM     92  O   UNL A   1      44.103  25.375  37.776  1.00  0.00    -0.744 OA
ENDBRANCH  85  89
ENDBRANCH  59  82
ENDBRANCH  33  34
ENDBRANCH  25  28
ENDBRANCH  23  24
ENDBRANCH  22  23
ENDBRANCH   1  22
TORSDOF 19
ENDMDL
MODEL 3
REMARK VINA RESULT:     -10.8      5.106     10.293
REMARK SMILES C#CCN(CC(=O)NCCCNC(=O)c1ccc(-c2c3nc(c(-c4cc(S(=O)(=O)[O-])ccc4F)c4ccc([nH]4)c(-c4cc(S(=O)(=O)[O-])ccc4F)c4nc(c(-c5cc(S(=O)(=O)[O-])ccc5F)c5ccc2[nH]5)C=C4)C=C3)cc1)C(=O)N1CCC(OCC)CC1
REMARK SMILES IDX 9 1 8 2 6 3 7 4 5 6 4 7 3 8 2 9 1 10 78 11 79 12 80 13 81 14
REMARK SMILES IDX 88 15 82 16 87 17 83 18 84 19 85 20 86 21 10 22 11 23 12 24
REMARK SMILES IDX 13 25 14 27 15 28 16 29 77 30 17 31 76 32 18 33 19 34 20 35
REMARK SMILES IDX 70 36 21 37 75 38 69 39 71 40 22 41 74 42 68 43 67 44 23 46
REMARK SMILES IDX 55 47 35 48 54 49 36 50 39 51 53 52 72 53 37 54 38 55 52 57
REMARK SMILES IDX 73 58 40 59 24 60 25 61 33 62 26 63 32 64 34 65 31 66 27 67
REMARK SMILES IDX 28 68 29 69 30 70 56 71 57 72 65 73 58 74 64 75 66 76 63 77
REMARK SMILES IDX 59 78 60 79 61 80 62 81 41 82 42 83 50 84 43 85 49 86 51 87
REMARK SMILES IDX 48 88 44 89 45 90 46 91 47 92
REMARK H PARENT 8 5 12 26 71 45 39 56
REMARK Flexibility Score: inf
ROOT
ATOM      1  C   UNL A   1      31.573  29.586  24.174  1.00  0.00     0.117 C 
ENDROOT
BRANCH   1   2
ATOM      2  N   UNL A   1      32.653  28.890  23.507  1.00  0.00    -0.354 N 
ATOM      3  C   UNL A   1      32.623  27.896  22.575  1.00  0.00     0.239 C 
ATOM      4  O   UNL A   1      33.630  27.772  21.867  1.00  0.00    -0.273 OA
ATOM      5  H   UNL A   1      33.557  29.181  23.770  1.00  0.00     0.163 HD
BRANCH   3   6
ATOM      6  C   UNL A   1      31.396  26.996  22.318  1.00  0.00     0.222 C 
BRANCH   6   7
ATOM      7  N   UNL A   1      31.062  25.968  23.306  1.00  0.00    -0.304 N 
BRANCH   7   8
ATOM      8  C   UNL A   1      29.917  26.258  24.183  1.00  0.00     0.211 C 
BRANCH   8   9
ATOM      9  C   UNL A   1      28.974  27.305  23.614  1.00  0.00    -0.085 C 
ATOM     10  C   UNL A   1      28.165  28.204  23.126  1.00  0.00     0.006 C 
ENDBRANCH   8   9
ENDBRANCH   7   8
BRANCH   7  11
ATOM     11  C   UNL A   1      31.602  24.685  23.366  1.00  0.00     0.321 C 
ATOM     12  O   UNL A   1      30.876  23.689  23.315  1.00  0.00    -0.248 OA
ATOM     13  N   UNL A   1      32.978  24.521  23.369  1.00  0.00    -0.324 N 
ATOM     14  C   UNL A   1      33.524  23.346  22.690  1.00  0.00     0.124 C 
ATOM     15  C   UNL A   1      33.909  25.159  24.289  1.00  0.00     0.124 C 
ATOM     16  C   UNL A   1      33.966  22.285  23.690  1.00  0.00     0.053 C 
ATOM     17  C   UNL A   1      34.545  24.190  25.280  1.00  0.00     0.053 C 
ATOM     18  C   UNL A   1      34.993  22.869  24.661  1.00  0.00     0.121 C 
BRANCH  18  19
ATOM     19  O   UNL A   1      35.471  21.970  25.666  1.00  0.00    -0.378 OA
BRANCH  19  20
ATOM     20  C   UNL A   1      36.866  21.681  25.751  1.00  0.00     0.157 C 
ATOM     21  C   UNL A   1      37.400  20.788  24.644  1.00  0.00     0.035 C 
ENDBRANCH  19  20
ENDBRANCH  18  19
ENDBRANCH   7  11
ENDBRANCH   6   7
ENDBRANCH   3   6
ENDBRANCH   1   2
BRANCH   1  22
ATOM     22  C   UNL A   1      31.425  29.269  25.660  1.00  0.00     0.042 C 
BRANCH  22  23
ATOM     23  C   UNL A   1      32.557  29.775  26.554  1.00  0.00     0.118 C 
BRANCH  23  24
ATOM     24  N   UNL A   1      32.524  31.217  26.756  1.00  0.00    -0.352 N 
ATOM     25  C   UNL A   1      33.361  32.058  27.450  1.00  0.00     0.251 C 
ATOM     26  H   UNL A   1      31.766  31.670  26.320  1.00  0.00     0.163 HD
ATOM     27  O   UNL A   1      32.997  33.212  27.657  1.00  0.00    -0.269 OA
BRANCH  25  28
ATOM     28  C   UNL A   1      34.670  31.593  27.962  1.00  0.00     0.039 A 
ATOM     29  C   UNL A   1      35.736  32.497  28.005  1.00  0.00     0.014 A 
ATOM     30  C   UNL A   1      34.868  30.269  28.360  1.00  0.00     0.014 A 
ATOM     31  C   UNL A   1      36.969  32.100  28.534  1.00  0.00     0.010 A 
ATOM     32  C   UNL A   1      36.075  29.892  28.948  1.00  0.00     0.010 A 
ATOM     33  C   UNL A   1      37.131  30.810  29.061  1.00  0.00    -0.014 A 
BRANCH  33  34
ATOM     34  C   UNL A   1      38.368  30.416  29.789  1.00  0.00     0.031 A 
ATOM     35  C   UNL A   1      39.302  29.390  29.209  1.00  0.00     0.074 A 
ATOM     36  C   UNL A   1      38.596  30.920  31.018  1.00  0.00     0.049 A 
ATOM     37  N   UNL A   1      40.347  28.822  29.755  1.00  0.00    -0.248 NA
ATOM     38  C   UNL A   1      39.006  28.926  27.847  1.00  0.00     0.031 C 
ATOM     39  C   UNL A   1      37.751  31.907  31.694  1.00  0.00     0.029 A 
ATOM     40  N   UNL A   1      39.591  30.660  31.929  1.00  0.00    -0.354 N 
ATOM     41  C   UNL A   1      40.832  27.926  28.808  1.00  0.00     0.074 A 
ATOM     42  C   UNL A   1      39.933  27.994  27.674  1.00  0.00     0.031 C 
ATOM     43  C   UNL A   1      38.268  32.177  32.902  1.00  0.00     0.029 A 
ATOM     44  C   UNL A   1      39.442  31.338  33.118  1.00  0.00     0.049 A 
ATOM     45  H   UNL A   1      40.339  30.047  31.748  1.00  0.00     0.167 HD
ATOM     46  C   UNL A   1      41.932  27.135  28.876  1.00  0.00     0.034 A 
ATOM     47  C   UNL A   1      40.148  31.268  34.265  1.00  0.00     0.034 A 
ATOM     48  C   UNL A   1      42.815  27.082  30.017  1.00  0.00     0.049 A 
ATOM     49  C   UNL A   1      41.317  30.321  34.344  1.00  0.00     0.074 A 
ATOM     50  C   UNL A   1      43.987  26.361  30.165  1.00  0.00     0.029 A 
ATOM     51  N   UNL A   1      42.614  27.758  31.213  1.00  0.00    -0.354 N 
ATOM     52  N   UNL A   1      41.793  29.519  33.420  1.00  0.00    -0.248 NA
ATOM     53  C   UNL A   1      42.042  30.265  35.621  1.00  0.00     0.031 C 
ATOM     54  C   UNL A   1      44.447  26.534  31.475  1.00  0.00     0.029 A 
ATOM     55  C   UNL A   1      43.611  27.431  32.120  1.00  0.00     0.049 A 
ATOM     56  H   UNL A   1      41.872  28.380  31.392  1.00  0.00     0.167 HD
ATOM     57  C   UNL A   1      42.886  28.880  33.999  1.00  0.00     0.074 A 
ATOM     58  C   UNL A   1      43.010  29.404  35.343  1.00  0.00     0.031 C 
ATOM     59  C   UNL A   1      43.712  27.945  33.466  1.00  0.00     0.034 A 
BRANCH  46  60
ATOM     60  C   UNL A   1      42.221  26.239  27.696  1.00  0.00     0.023 A 
ATOM     61  C   UNL A   1      41.737  24.920  27.630  1.00  0.00     0.031 A 
ATOM     62  C   UNL A   1      42.999  26.706  26.620  1.00  0.00     0.131 A 
ATOM     63  C   UNL A   1      42.094  24.094  26.554  1.00  0.00     0.055 A 
ATOM     64  C   UNL A   1      43.281  25.905  25.512  1.00  0.00     0.041 A 
ATOM     65  F   UNL A   1      43.506  27.948  26.633  1.00  0.00    -0.206 F 
ATOM     66  C   UNL A   1      42.841  24.585  25.481  1.00  0.00     0.022 A 
BRANCH  63  67
ATOM     67  S   UNL A   1      41.689  22.329  26.647  1.00  0.00     0.124 S 
ATOM     68  O   UNL A   1      42.215  21.837  25.376  1.00  0.00    -0.237 OA
ATOM     69  O   UNL A   1      42.406  21.904  27.843  1.00  0.00    -0.237 OA
ATOM     70  O   UNL A   1      40.231  22.317  26.755  1.00  0.00    -0.744 OA
ENDBRANCH  63  67
ENDBRANCH  46  60
BRANCH  47  71
ATOM     71  C   UNL A   1      39.747  32.084  35.449  1.00  0.00     0.023 A 
ATOM     72  C   UNL A   1      38.912  31.551  36.443  1.00  0.00     0.031 A 
ATOM     73  C   UNL A   1      40.157  33.423  35.582  1.00  0.00     0.131 A 
ATOM     74  C   UNL A   1      38.476  32.365  37.501  1.00  0.00     0.055 A 
ATOM     75  C   UNL A   1      39.769  34.210  36.667  1.00  0.00     0.041 A 
ATOM     76  F   UNL A   1      40.954  33.985  34.658  1.00  0.00    -0.206 F 
ATOM     77  C   UNL A   1      38.912  33.685  37.628  1.00  0.00     0.022 A 
BRANCH  74  78
ATOM     78  S   UNL A   1      37.249  31.697  38.658  1.00  0.00     0.124 S 
ATOM     79  O   UNL A   1      36.149  32.641  38.500  1.00  0.00    -0.237 OA
ATOM     80  O   UNL A   1      37.028  30.358  38.125  1.00  0.00    -0.237 OA
ATOM     81  O   UNL A   1      37.936  31.747  39.947  1.00  0.00    -0.744 OA
ENDBRANCH  74  78
ENDBRANCH  47  71
BRANCH  59  82
ATOM     82  C   UNL A   1      44.840  27.446  34.336  1.00  0.00     0.023 A 
ATOM     83  C   UNL A   1      44.704  26.295  35.131  1.00  0.00     0.031 A 
ATOM     84  C   UNL A   1      46.072  28.124  34.360  1.00  0.00     0.131 A 
ATOM     85  C   UNL A   1      45.767  25.879  35.947  1.00  0.00     0.055 A 
ATOM     86  C   UNL A   1      47.146  27.672  35.127  1.00  0.00     0.041 A 
ATOM     87  F   UNL A   1      46.256  29.232  33.623  1.00  0.00    -0.206 F 
ATOM     88  C   UNL A   1      46.993  26.548  35.934  1.00  0.00     0.022 A 
BRANCH  85  89
ATOM     89  S   UNL A   1      45.505  24.488  37.081  1.00  0.00     0.124 S 
ATOM     90  O   UNL A   1      44.346  24.937  37.847  1.00  0.00    -0.237 OA
ATOM     91  O   UNL A   1      45.271  23.376  36.165  1.00  0.00    -0.237 OA
ATOM     92  O   UNL A   1      46.756  24.418  37.833  1.00  0.00    -0.744 OA
ENDBRANCH  85  89
ENDBRANCH  59  82
ENDBRANCH  33  34
ENDBRANCH  25  28
ENDBRANCH  23  24
ENDBRANCH  22  23
ENDBRANCH   1  22
TORSDOF 19
ENDMDL
