MODEL 1
REMARK VINA RESULT:     -12.7      0.000      0.000
REMARK SMILES NC(=O)c1cc(NC(=O)/C=C\C(=O)NCCCNC(=O)c2ccc(-c3c4nc(c(-c5cc(S(=O)(=O)[O-])ccc5F)c5ccc([nH]5)c(-c5cc(S(=O)(=O)[O-])ccc5F)c5nc(c(-c6cc(S(=O)(=O)[O-])ccc6F)c6ccc3[nH]6)C=C5)C=C4)cc2)ccc1N1CCOCC1
REMARK SMILES IDX 16 1 15 2 14 3 12 4 13 5 11 7 10 8 8 9 7 10 9 12 6 13 4 14
REMARK SMILES IDX 5 15 86 16 85 17 84 18 2 19 1 20 3 23 87 24 88 25 92 26
REMARK SMILES IDX 89 27 91 28 90 29 17 30 18 31 19 32 20 34 21 35 22 36 83 37
REMARK SMILES IDX 23 38 82 39 24 40 25 41 26 42 76 43 27 44 81 45 75 46 77 47
REMARK SMILES IDX 28 48 80 49 74 50 73 51 29 53 61 54 41 55 60 56 42 57 45 58
REMARK SMILES IDX 59 59 78 60 43 61 44 62 58 64 79 65 46 66 30 67 31 68 39 69
REMARK SMILES IDX 32 70 38 71 40 72 37 73 33 74 34 75 35 76 36 77 62 78 63 79
REMARK SMILES IDX 71 80 64 81 70 82 72 83 69 84 65 85 66 86 67 87 68 88 47 89
REMARK SMILES IDX 48 90 56 91 49 92 55 93 57 94 54 95 50 96 51 97 52 98 53 99
REMARK H PARENT 14 6 7 11 1 21 1 22 18 33 77 52 45 63
REMARK Flexibility Score: inf
ROOT
ATOM      1  C   UNL A   1      31.605  31.904  26.758  1.00  0.00     0.042 C 
ENDROOT
BRANCH   1   2
ATOM      2  C   UNL A   1      31.742  30.479  26.232  1.00  0.00     0.118 C 
BRANCH   2   3
ATOM      3  N   UNL A   1      33.081  30.031  25.913  1.00  0.00    -0.352 N 
ATOM      4  C   UNL A   1      33.450  28.780  25.535  1.00  0.00     0.244 C 
ATOM      5  O   UNL A   1      34.248  28.627  24.615  1.00  0.00    -0.270 OA
ATOM      6  H   UNL A   1      33.799  30.704  25.977  1.00  0.00     0.163 HD
BRANCH   4   7
ATOM      7  C   UNL A   1      32.895  27.588  26.204  1.00  0.00     0.077 C 
ATOM      8  C   UNL A   1      32.521  26.424  25.651  1.00  0.00     0.077 C 
BRANCH   8   9
ATOM      9  C   UNL A   1      32.693  25.897  24.276  1.00  0.00     0.248 C 
ATOM     10  N   UNL A   1      32.150  26.474  23.171  1.00  0.00    -0.322 N 
ATOM     11  H   UNL A   1      32.566  26.189  22.325  1.00  0.00     0.170 HD
ATOM     12  O   UNL A   1      33.417  24.909  24.141  1.00  0.00    -0.270 OA
BRANCH  10  13
ATOM     13  C   UNL A   1      31.111  27.396  23.016  1.00  0.00     0.042 A 
ATOM     14  C   UNL A   1      28.807  28.108  23.250  1.00  0.00     0.064 A 
ATOM     15  C   UNL A   1      29.794  27.112  23.348  1.00  0.00     0.042 A 
ATOM     16  C   UNL A   1      29.103  29.396  22.770  1.00  0.00     0.050 A 
ATOM     17  C   UNL A   1      30.442  29.638  22.411  1.00  0.00     0.029 A 
ATOM     18  C   UNL A   1      31.425  28.652  22.504  1.00  0.00     0.028 A 
BRANCH  14  19
ATOM     19  C   UNL A   1      27.451  27.657  23.607  1.00  0.00     0.250 C 
ATOM     20  N   UNL A   1      27.371  26.368  24.056  1.00  0.00    -0.366 N 
ATOM     21  H   UNL A   1      26.499  25.992  24.315  1.00  0.00     0.159 HD
ATOM     22  H   UNL A   1      28.184  25.818  24.120  1.00  0.00     0.159 HD
ATOM     23  O   UNL A   1      26.467  28.383  23.553  1.00  0.00    -0.269 OA
ENDBRANCH  14  19
BRANCH  16  24
ATOM     24  N   UNL A   1      28.200  30.413  22.531  1.00  0.00    -0.366 N 
ATOM     25  C   UNL A   1      27.790  30.849  21.189  1.00  0.00     0.145 C 
ATOM     26  C   UNL A   1      28.037  31.427  23.581  1.00  0.00     0.145 C 
ATOM     27  C   UNL A   1      28.358  32.240  20.847  1.00  0.00     0.181 C 
ATOM     28  C   UNL A   1      28.741  32.714  23.134  1.00  0.00     0.181 C 
ATOM     29  O   UNL A   1      28.169  33.200  21.907  1.00  0.00    -0.378 OA
ENDBRANCH  16  24
ENDBRANCH  10  13
ENDBRANCH   8   9
ENDBRANCH   4   7
ENDBRANCH   2   3
ENDBRANCH   1   2
BRANCH   1  30
ATOM     30  C   UNL A   1      32.893  32.622  27.145  1.00  0.00     0.118 C 
BRANCH  30  31
ATOM     31  N   UNL A   1      32.677  33.972  27.630  1.00  0.00    -0.352 N 
ATOM     32  C   UNL A   1      33.275  34.618  28.683  1.00  0.00     0.251 C 
ATOM     33  H   UNL A   1      32.007  34.497  27.135  1.00  0.00     0.163 HD
ATOM     34  O   UNL A   1      32.837  35.702  29.056  1.00  0.00    -0.269 OA
BRANCH  32  35
ATOM     35  C   UNL A   1      34.433  34.009  29.373  1.00  0.00     0.039 A 
ATOM     36  C   UNL A   1      34.200  33.130  30.433  1.00  0.00     0.014 A 
ATOM     37  C   UNL A   1      35.743  34.346  29.015  1.00  0.00     0.014 A 
ATOM     38  C   UNL A   1      35.280  32.563  31.116  1.00  0.00     0.010 A 
ATOM     39  C   UNL A   1      36.821  33.747  29.676  1.00  0.00     0.010 A 
ATOM     40  C   UNL A   1      36.602  32.854  30.739  1.00  0.00    -0.014 A 
BRANCH  40  41
ATOM     41  C   UNL A   1      37.750  32.232  31.459  1.00  0.00     0.031 A 
ATOM     42  C   UNL A   1      38.538  31.116  30.829  1.00  0.00     0.074 A 
ATOM     43  C   UNL A   1      38.071  32.655  32.698  1.00  0.00     0.049 A 
ATOM     44  N   UNL A   1      39.553  30.441  31.310  1.00  0.00    -0.248 NA
ATOM     45  C   UNL A   1      38.115  30.692  29.490  1.00  0.00     0.031 C 
ATOM     46  C   UNL A   1      37.371  33.709  33.432  1.00  0.00     0.029 A 
ATOM     47  N   UNL A   1      39.060  32.249  33.561  1.00  0.00    -0.354 N 
ATOM     48  C   UNL A   1      39.887  29.507  30.336  1.00  0.00     0.074 A 
ATOM     49  C   UNL A   1      38.923  29.665  29.266  1.00  0.00     0.031 C 
ATOM     50  C   UNL A   1      37.962  33.880  34.625  1.00  0.00     0.029 A 
ATOM     51  C   UNL A   1      39.052  32.917  34.764  1.00  0.00     0.049 A 
ATOM     52  H   UNL A   1      39.712  31.547  33.339  1.00  0.00     0.167 HD
ATOM     53  C   UNL A   1      40.911  28.614  30.325  1.00  0.00     0.034 A 
ATOM     54  C   UNL A   1      39.818  32.764  35.862  1.00  0.00     0.034 A 
ATOM     55  C   UNL A   1      41.858  28.461  31.407  1.00  0.00     0.049 A 
ATOM     56  C   UNL A   1      40.918  31.734  35.856  1.00  0.00     0.074 A 
ATOM     57  C   UNL A   1      42.961  27.627  31.476  1.00  0.00     0.029 A 
ATOM     58  N   UNL A   1      41.803  29.139  32.620  1.00  0.00    -0.354 N 
ATOM     59  N   UNL A   1      41.258  30.895  34.904  1.00  0.00    -0.248 NA
ATOM     60  C   UNL A   1      41.744  31.637  37.066  1.00  0.00     0.031 C 
ATOM     61  C   UNL A   1      43.514  27.731  32.757  1.00  0.00     0.029 A 
ATOM     62  C   UNL A   1      42.822  28.705  33.458  1.00  0.00     0.049 A 
ATOM     63  H   UNL A   1      41.138  29.826  32.851  1.00  0.00     0.167 HD
ATOM     64  C   UNL A   1      42.356  30.190  35.392  1.00  0.00     0.074 A 
ATOM     65  C   UNL A   1      42.626  30.711  36.716  1.00  0.00     0.031 C 
ATOM     66  C   UNL A   1      43.078  29.209  34.790  1.00  0.00     0.034 A 
BRANCH  53  67
ATOM     67  C   UNL A   1      41.026  27.706  29.118  1.00  0.00     0.023 A 
ATOM     68  C   UNL A   1      42.012  27.901  28.135  1.00  0.00     0.031 A 
ATOM     69  C   UNL A   1      40.104  26.662  28.918  1.00  0.00     0.131 A 
ATOM     70  C   UNL A   1      41.986  27.144  26.954  1.00  0.00     0.055 A 
ATOM     71  C   UNL A   1      40.148  25.843  27.787  1.00  0.00     0.041 A 
ATOM     72  F   UNL A   1      39.127  26.432  29.809  1.00  0.00    -0.206 F 
ATOM     73  C   UNL A   1      41.079  26.097  26.785  1.00  0.00     0.022 A 
BRANCH  70  74
ATOM     74  S   UNL A   1      43.022  27.680  25.563  1.00  0.00     0.124 S 
ATOM     75  O   UNL A   1      44.001  28.531  26.236  1.00  0.00    -0.237 OA
ATOM     76  O   UNL A   1      43.526  26.416  25.040  1.00  0.00    -0.237 OA
ATOM     77  O   UNL A   1      42.087  28.390  24.694  1.00  0.00    -0.744 OA
ENDBRANCH  70  74
ENDBRANCH  53  67
BRANCH  54  78
ATOM     78  C   UNL A   1      39.551  33.594  37.073  1.00  0.00     0.023 A 
ATOM     79  C   UNL A   1      38.833  33.087  38.167  1.00  0.00     0.031 A 
ATOM     80  C   UNL A   1      40.014  34.921  37.146  1.00  0.00     0.131 A 
ATOM     81  C   UNL A   1      38.578  33.908  39.277  1.00  0.00     0.055 A 
ATOM     82  C   UNL A   1      39.803  35.716  38.272  1.00  0.00     0.041 A 
ATOM     83  F   UNL A   1      40.706  35.455  36.126  1.00  0.00    -0.206 F 
ATOM     84  C   UNL A   1      39.074  35.213  39.344  1.00  0.00     0.022 A 
BRANCH  81  85
ATOM     85  S   UNL A   1      37.536  33.268  40.616  1.00  0.00     0.124 S 
ATOM     86  O   UNL A   1      36.465  32.614  39.873  1.00  0.00    -0.237 OA
ATOM     87  O   UNL A   1      38.458  32.385  41.324  1.00  0.00    -0.237 OA
ATOM     88  O   UNL A   1      37.144  34.471  41.348  1.00  0.00    -0.744 OA
ENDBRANCH  81  85
ENDBRANCH  54  78
BRANCH  66  89
ATOM     89  C   UNL A   1      44.267  28.659  35.547  1.00  0.00     0.023 A 
ATOM     90  C   UNL A   1      44.141  27.615  36.480  1.00  0.00     0.031 A 
ATOM     91  C   UNL A   1      45.551  29.192  35.328  1.00  0.00     0.131 A 
ATOM     92  C   UNL A   1      45.266  27.174  37.196  1.00  0.00     0.055 A 
ATOM     93  C   UNL A   1      46.677  28.705  35.992  1.00  0.00     0.041 A 
ATOM     94  F   UNL A   1      45.733  30.197  34.455  1.00  0.00    -0.206 F 
ATOM     95  C   UNL A   1      46.536  27.698  36.942  1.00  0.00     0.022 A 
BRANCH  92  96
ATOM     96  S   UNL A   1      45.036  25.973  38.536  1.00  0.00     0.124 S 
ATOM     97  O   UNL A   1      44.022  26.628  39.357  1.00  0.00    -0.237 OA
ATOM     98  O   UNL A   1      44.601  24.780  37.816  1.00  0.00    -0.237 OA
ATOM     99  O   UNL A   1      46.361  25.879  39.146  1.00  0.00    -0.744 OA
ENDBRANCH  92  96
ENDBRANCH  66  89
ENDBRANCH  40  41
ENDBRANCH  32  35
ENDBRANCH  30  31
ENDBRANCH   1  30
TORSDOF 17
ENDMDL
MODEL 2
REMARK VINA RESULT:     -12.5      4.101      9.727
REMARK SMILES NC(=O)c1cc(NC(=O)/C=C\C(=O)NCCCNC(=O)c2ccc(-c3c4nc(c(-c5cc(S(=O)(=O)[O-])ccc5F)c5ccc([nH]5)c(-c5cc(S(=O)(=O)[O-])ccc5F)c5nc(c(-c6cc(S(=O)(=O)[O-])ccc6F)c6ccc3[nH]6)C=C5)C=C4)cc2)ccc1N1CCOCC1
REMARK SMILES IDX 16 1 15 2 14 3 12 4 13 5 11 7 10 8 8 9 7 10 9 12 6 13 4 14
REMARK SMILES IDX 5 15 86 16 85 17 84 18 2 19 1 20 3 23 87 24 88 25 92 26
REMARK SMILES IDX 89 27 91 28 90 29 17 30 18 31 19 32 20 34 21 35 22 36 83 37
REMARK SMILES IDX 23 38 82 39 24 40 25 41 26 42 76 43 27 44 81 45 75 46 77 47
REMARK SMILES IDX 28 48 80 49 74 50 73 51 29 53 61 54 41 55 60 56 42 57 45 58
REMARK SMILES IDX 59 59 78 60 43 61 44 62 58 64 79 65 46 66 30 67 31 68 39 69
REMARK SMILES IDX 32 70 38 71 40 72 37 73 33 74 34 75 35 76 36 77 62 78 63 79
REMARK SMILES IDX 71 80 64 81 70 82 72 83 69 84 65 85 66 86 67 87 68 88 47 89
REMARK SMILES IDX 48 90 56 91 49 92 55 93 57 94 54 95 50 96 51 97 52 98 53 99
REMARK H PARENT 14 6 7 11 1 21 1 22 18 33 77 52 45 63
REMARK Flexibility Score: inf
ROOT
ATOM      1  C   UNL A   1      32.579  28.102  25.343  1.00  0.00     0.042 C 
ENDROOT
BRANCH   1   2
ATOM      2  C   UNL A   1      31.458  27.396  26.099  1.00  0.00     0.118 C 
BRANCH   2   3
ATOM      3  N   UNL A   1      31.807  26.161  26.769  1.00  0.00    -0.352 N 
ATOM      4  C   UNL A   1      31.775  24.912  26.236  1.00  0.00     0.244 C 
ATOM      5  O   UNL A   1      32.697  24.130  26.450  1.00  0.00    -0.270 OA
ATOM      6  H   UNL A   1      32.098  26.234  27.708  1.00  0.00     0.163 HD
BRANCH   4   7
ATOM      7  C   UNL A   1      30.651  24.476  25.385  1.00  0.00     0.077 C 
ATOM      8  C   UNL A   1      30.587  24.447  24.045  1.00  0.00     0.077 C 
BRANCH   8   9
ATOM      9  C   UNL A   1      31.630  24.663  23.013  1.00  0.00     0.248 C 
ATOM     10  N   UNL A   1      32.511  23.708  22.616  1.00  0.00    -0.322 N 
ATOM     11  H   UNL A   1      32.946  23.897  21.753  1.00  0.00     0.170 HD
ATOM     12  O   UNL A   1      31.649  25.763  22.457  1.00  0.00    -0.270 OA
BRANCH  10  13
ATOM     13  C   UNL A   1      32.910  22.505  23.206  1.00  0.00     0.042 A 
ATOM     14  C   UNL A   1      34.260  21.199  24.737  1.00  0.00     0.064 A 
ATOM     15  C   UNL A   1      33.958  22.421  24.112  1.00  0.00     0.042 A 
ATOM     16  C   UNL A   1      33.555  20.021  24.433  1.00  0.00     0.050 A 
ATOM     17  C   UNL A   1      32.521  20.136  23.485  1.00  0.00     0.029 A 
ATOM     18  C   UNL A   1      32.220  21.346  22.859  1.00  0.00     0.028 A 
BRANCH  14  19
ATOM     19  C   UNL A   1      35.413  21.252  25.652  1.00  0.00     0.250 C 
ATOM     20  N   UNL A   1      35.095  21.397  26.973  1.00  0.00    -0.366 N 
ATOM     21  H   UNL A   1      35.810  21.440  27.649  1.00  0.00     0.159 HD
ATOM     22  H   UNL A   1      34.152  21.456  27.249  1.00  0.00     0.159 HD
ATOM     23  O   UNL A   1      36.572  21.133  25.277  1.00  0.00    -0.269 OA
ENDBRANCH  14  19
BRANCH  16  24
ATOM     24  N   UNL A   1      33.832  18.752  24.901  1.00  0.00    -0.366 N 
ATOM     25  C   UNL A   1      34.766  17.822  24.251  1.00  0.00     0.145 C 
ATOM     26  C   UNL A   1      32.815  18.108  25.743  1.00  0.00     0.145 C 
ATOM     27  C   UNL A   1      34.024  16.641  23.592  1.00  0.00     0.181 C 
ATOM     28  C   UNL A   1      32.101  17.033  24.916  1.00  0.00     0.181 C 
ATOM     29  O   UNL A   1      33.039  16.043  24.460  1.00  0.00    -0.378 OA
ENDBRANCH  16  24
ENDBRANCH  10  13
ENDBRANCH   8   9
ENDBRANCH   4   7
ENDBRANCH   2   3
ENDBRANCH   1   2
BRANCH   1  30
ATOM     30  C   UNL A   1      33.735  28.648  26.175  1.00  0.00     0.118 C 
BRANCH  30  31
ATOM     31  N   UNL A   1      33.601  30.056  26.495  1.00  0.00    -0.352 N 
ATOM     32  C   UNL A   1      34.345  30.820  27.359  1.00  0.00     0.251 C 
ATOM     33  H   UNL A   1      32.874  30.528  26.029  1.00  0.00     0.163 HD
ATOM     34  O   UNL A   1      33.973  31.956  27.637  1.00  0.00    -0.269 OA
BRANCH  32  35
ATOM     35  C   UNL A   1      35.582  30.276  27.962  1.00  0.00     0.039 A 
ATOM     36  C   UNL A   1      36.760  30.294  27.212  1.00  0.00     0.014 A 
ATOM     37  C   UNL A   1      35.569  29.701  29.237  1.00  0.00     0.014 A 
ATOM     38  C   UNL A   1      37.935  29.761  27.751  1.00  0.00     0.010 A 
ATOM     39  C   UNL A   1      36.755  29.203  29.788  1.00  0.00     0.010 A 
ATOM     40  C   UNL A   1      37.950  29.222  29.049  1.00  0.00    -0.014 A 
BRANCH  40  41
ATOM     41  C   UNL A   1      39.210  28.672  29.626  1.00  0.00     0.031 A 
ATOM     42  C   UNL A   1      39.813  29.273  30.866  1.00  0.00     0.074 A 
ATOM     43  C   UNL A   1      39.830  27.641  29.019  1.00  0.00     0.049 A 
ATOM     44  N   UNL A   1      40.912  28.944  31.500  1.00  0.00    -0.248 NA
ATOM     45  C   UNL A   1      39.096  30.409  31.458  1.00  0.00     0.031 C 
ATOM     46  C   UNL A   1      39.366  26.984  27.797  1.00  0.00     0.029 A 
ATOM     47  N   UNL A   1      40.985  26.969  29.339  1.00  0.00    -0.354 N 
ATOM     48  C   UNL A   1      41.022  29.835  32.563  1.00  0.00     0.074 A 
ATOM     49  C   UNL A   1      39.910  30.756  32.445  1.00  0.00     0.031 C 
ATOM     50  C   UNL A   1      40.215  25.994  27.481  1.00  0.00     0.029 A 
ATOM     51  C   UNL A   1      41.310  25.973  28.447  1.00  0.00     0.049 A 
ATOM     52  H   UNL A   1      41.528  27.180  30.132  1.00  0.00     0.167 HD
ATOM     53  C   UNL A   1      41.951  29.870  33.554  1.00  0.00     0.034 A 
ATOM     54  C   UNL A   1      42.375  25.148  28.396  1.00  0.00     0.034 A 
ATOM     55  C   UNL A   1      43.061  28.949  33.650  1.00  0.00     0.049 A 
ATOM     56  C   UNL A   1      43.425  25.233  29.473  1.00  0.00     0.074 A 
ATOM     57  C   UNL A   1      44.027  28.864  34.639  1.00  0.00     0.029 A 
ATOM     58  N   UNL A   1      43.372  27.969  32.714  1.00  0.00    -0.354 N 
ATOM     59  N   UNL A   1      43.486  26.045  30.505  1.00  0.00    -0.248 NA
ATOM     60  C   UNL A   1      44.543  24.285  29.388  1.00  0.00     0.031 C 
ATOM     61  C   UNL A   1      44.968  27.901  34.256  1.00  0.00     0.029 A 
ATOM     62  C   UNL A   1      44.539  27.311  33.078  1.00  0.00     0.049 A 
ATOM     63  H   UNL A   1      42.841  27.772  31.909  1.00  0.00     0.167 HD
ATOM     64  C   UNL A   1      44.636  25.685  31.205  1.00  0.00     0.074 A 
ATOM     65  C   UNL A   1      45.229  24.577  30.485  1.00  0.00     0.031 C 
ATOM     66  C   UNL A   1      45.144  26.219  32.347  1.00  0.00     0.034 A 
BRANCH  53  67
ATOM     67  C   UNL A   1      41.822  30.972  34.585  1.00  0.00     0.023 A 
ATOM     68  C   UNL A   1      40.760  31.005  35.506  1.00  0.00     0.031 A 
ATOM     69  C   UNL A   1      42.743  32.035  34.615  1.00  0.00     0.131 A 
ATOM     70  C   UNL A   1      40.583  32.123  36.335  1.00  0.00     0.055 A 
ATOM     71  C   UNL A   1      42.619  33.096  35.515  1.00  0.00     0.041 A 
ATOM     72  F   UNL A   1      43.771  32.075  33.752  1.00  0.00    -0.206 F 
ATOM     73  C   UNL A   1      41.521  33.156  36.367  1.00  0.00     0.022 A 
BRANCH  70  74
ATOM     74  S   UNL A   1      39.008  32.300  37.219  1.00  0.00     0.124 S 
ATOM     75  O   UNL A   1      38.391  30.996  36.985  1.00  0.00    -0.237 OA
ATOM     76  O   UNL A   1      39.443  32.565  38.586  1.00  0.00    -0.237 OA
ATOM     77  O   UNL A   1      38.358  33.418  36.540  1.00  0.00    -0.744 OA
ENDBRANCH  70  74
ENDBRANCH  53  67
BRANCH  54  78
ATOM     78  C   UNL A   1      42.512  24.185  27.265  1.00  0.00     0.023 A 
ATOM     79  C   UNL A   1      41.949  22.900  27.322  1.00  0.00     0.031 A 
ATOM     80  C   UNL A   1      43.219  24.544  26.102  1.00  0.00     0.131 A 
ATOM     81  C   UNL A   1      42.122  22.013  26.248  1.00  0.00     0.055 A 
ATOM     82  C   UNL A   1      43.344  23.677  25.016  1.00  0.00     0.041 A 
ATOM     83  F   UNL A   1      43.776  25.761  25.997  1.00  0.00    -0.206 F 
ATOM     84  C   UNL A   1      42.800  22.400  25.088  1.00  0.00     0.022 A 
BRANCH  81  85
ATOM     85  S   UNL A   1      41.497  20.317  26.406  1.00  0.00     0.124 S 
ATOM     86  O   UNL A   1      41.905  19.976  27.764  1.00  0.00    -0.237 OA
ATOM     87  O   UNL A   1      40.065  20.500  26.193  1.00  0.00    -0.237 OA
ATOM     88  O   UNL A   1      42.196  19.596  25.344  1.00  0.00    -0.744 OA
ENDBRANCH  81  85
ENDBRANCH  54  78
BRANCH  66  89
ATOM     89  C   UNL A   1      46.391  25.580  32.916  1.00  0.00     0.023 A 
ATOM     90  C   UNL A   1      46.334  24.514  33.832  1.00  0.00     0.031 A 
ATOM     91  C   UNL A   1      47.662  26.047  32.531  1.00  0.00     0.131 A 
ATOM     92  C   UNL A   1      47.519  23.988  34.370  1.00  0.00     0.055 A 
ATOM     93  C   UNL A   1      48.838  25.476  33.018  1.00  0.00     0.041 A 
ATOM     94  F   UNL A   1      47.781  27.068  31.666  1.00  0.00    -0.206 F 
ATOM     95  C   UNL A   1      48.771  24.448  33.954  1.00  0.00     0.022 A 
BRANCH  92  96
ATOM     96  S   UNL A   1      47.406  22.758  35.700  1.00  0.00     0.124 S 
ATOM     97  O   UNL A   1      47.827  23.533  36.864  1.00  0.00    -0.237 OA
ATOM     98  O   UNL A   1      45.996  22.383  35.660  1.00  0.00    -0.237 OA
ATOM     99  O   UNL A   1      48.338  21.713  35.282  1.00  0.00    -0.744 OA
ENDBRANCH  92  96
ENDBRANCH  66  89
ENDBRANCH  40  41
ENDBRANCH  32  35
ENDBRANCH  30  31
ENDBRANCH   1  30
TORSDOF 17
ENDMDL
MODEL 3
REMARK VINA RESULT:     -12.4      4.758      9.820
REMARK SMILES NC(=O)c1cc(NC(=O)/C=C\C(=O)NCCCNC(=O)c2ccc(-c3c4nc(c(-c5cc(S(=O)(=O)[O-])ccc5F)c5ccc([nH]5)c(-c5cc(S(=O)(=O)[O-])ccc5F)c5nc(c(-c6cc(S(=O)(=O)[O-])ccc6F)c6ccc3[nH]6)C=C5)C=C4)cc2)ccc1N1CCOCC1
REMARK SMILES IDX 16 1 15 2 14 3 12 4 13 5 11 7 10 8 8 9 7 10 9 12 6 13 4 14
REMARK SMILES IDX 5 15 86 16 85 17 84 18 2 19 1 20 3 23 87 24 88 25 92 26
REMARK SMILES IDX 89 27 91 28 90 29 17 30 18 31 19 32 20 34 21 35 22 36 83 37
REMARK SMILES IDX 23 38 82 39 24 40 25 41 26 42 76 43 27 44 81 45 75 46 77 47
REMARK SMILES IDX 28 48 80 49 74 50 73 51 29 53 61 54 41 55 60 56 42 57 45 58
REMARK SMILES IDX 59 59 78 60 43 61 44 62 58 64 79 65 46 66 30 67 31 68 39 69
REMARK SMILES IDX 32 70 38 71 40 72 37 73 33 74 34 75 35 76 36 77 62 78 63 79
REMARK SMILES IDX 71 80 64 81 70 82 72 83 69 84 65 85 66 86 67 87 68 88 47 89
REMARK SMILES IDX 48 90 56 91 49 92 55 93 57 94 54 95 50 96 51 97 52 98 53 99
REMARK H PARENT 14 6 7 11 1 21 1 22 18 33 77 52 45 63
REMARK Flexibility Score: inf
ROOT
ATOM      1  C   UNL A   1      32.870  28.275  25.194  1.00  0.00     0.042 C 
ENDROOT
BRANCH   1   2
ATOM      2  C   UNL A   1      31.725  27.438  25.755  1.00  0.00     0.118 C 
BRANCH   2   3
ATOM      3  N   UNL A   1      32.095  26.277  26.538  1.00  0.00    -0.352 N 
ATOM      4  C   UNL A   1      31.995  24.978  26.157  1.00  0.00     0.244 C 
ATOM      5  O   UNL A   1      32.912  24.197  26.394  1.00  0.00    -0.270 OA
ATOM      6  H   UNL A   1      32.456  26.448  27.439  1.00  0.00     0.163 HD
BRANCH   4   7
ATOM      7  C   UNL A   1      30.802  24.482  25.444  1.00  0.00     0.077 C 
ATOM      8  C   UNL A   1      30.616  24.361  24.121  1.00  0.00     0.077 C 
BRANCH   8   9
ATOM      9  C   UNL A   1      31.558  24.507  22.986  1.00  0.00     0.248 C 
ATOM     10  N   UNL A   1      32.377  23.514  22.550  1.00  0.00    -0.322 N 
ATOM     11  H   UNL A   1      32.731  23.655  21.642  1.00  0.00     0.170 HD
ATOM     12  O   UNL A   1      31.545  25.581  22.381  1.00  0.00    -0.270 OA
BRANCH  10  13
ATOM     13  C   UNL A   1      32.808  22.329  23.154  1.00  0.00     0.042 A 
ATOM     14  C   UNL A   1      34.201  21.075  24.690  1.00  0.00     0.064 A 
ATOM     15  C   UNL A   1      33.867  22.280  24.051  1.00  0.00     0.042 A 
ATOM     16  C   UNL A   1      33.518  19.878  24.411  1.00  0.00     0.050 A 
ATOM     17  C   UNL A   1      32.473  19.957  23.471  1.00  0.00     0.029 A 
ATOM     18  C   UNL A   1      32.140  21.151  22.831  1.00  0.00     0.028 A 
BRANCH  14  19
ATOM     19  C   UNL A   1      35.361  21.166  25.592  1.00  0.00     0.250 C 
ATOM     20  N   UNL A   1      35.084  21.645  26.842  1.00  0.00    -0.366 N 
ATOM     21  H   UNL A   1      35.807  21.736  27.504  1.00  0.00     0.159 HD
ATOM     22  H   UNL A   1      34.163  21.898  27.079  1.00  0.00     0.159 HD
ATOM     23  O   UNL A   1      36.487  20.803  25.276  1.00  0.00    -0.269 OA
ENDBRANCH  14  19
BRANCH  16  24
ATOM     24  N   UNL A   1      33.827  18.621  24.894  1.00  0.00    -0.366 N 
ATOM     25  C   UNL A   1      34.746  17.688  24.229  1.00  0.00     0.145 C 
ATOM     26  C   UNL A   1      32.848  17.986  25.787  1.00  0.00     0.145 C 
ATOM     27  C   UNL A   1      33.994  16.486  23.624  1.00  0.00     0.181 C 
ATOM     28  C   UNL A   1      32.117  16.886  25.010  1.00  0.00     0.181 C 
ATOM     29  O   UNL A   1      33.048  15.896  24.541  1.00  0.00    -0.378 OA
ENDBRANCH  16  24
ENDBRANCH  10  13
ENDBRANCH   8   9
ENDBRANCH   4   7
ENDBRANCH   2   3
ENDBRANCH   1   2
BRANCH   1  30
ATOM     30  C   UNL A   1      33.944  28.725  26.180  1.00  0.00     0.118 C 
BRANCH  30  31
ATOM     31  N   UNL A   1      33.788  30.099  26.615  1.00  0.00    -0.352 N 
ATOM     32  C   UNL A   1      34.540  30.811  27.516  1.00  0.00     0.251 C 
ATOM     33  H   UNL A   1      33.037  30.589  26.208  1.00  0.00     0.163 HD
ATOM     34  O   UNL A   1      34.152  31.912  27.893  1.00  0.00    -0.269 OA
BRANCH  32  35
ATOM     35  C   UNL A   1      35.806  30.252  28.039  1.00  0.00     0.039 A 
ATOM     36  C   UNL A   1      35.811  29.668  29.308  1.00  0.00     0.014 A 
ATOM     37  C   UNL A   1      36.995  30.352  27.308  1.00  0.00     0.014 A 
ATOM     38  C   UNL A   1      37.001  29.157  29.833  1.00  0.00     0.010 A 
ATOM     39  C   UNL A   1      38.176  29.806  27.821  1.00  0.00     0.010 A 
ATOM     40  C   UNL A   1      38.195  29.207  29.092  1.00  0.00    -0.014 A 
BRANCH  40  41
ATOM     41  C   UNL A   1      39.457  28.644  29.650  1.00  0.00     0.031 A 
ATOM     42  C   UNL A   1      40.089  29.244  30.877  1.00  0.00     0.074 A 
ATOM     43  C   UNL A   1      40.054  27.603  29.037  1.00  0.00     0.049 A 
ATOM     44  N   UNL A   1      41.194  28.904  31.494  1.00  0.00    -0.248 NA
ATOM     45  C   UNL A   1      39.396  30.392  31.475  1.00  0.00     0.031 C 
ATOM     46  C   UNL A   1      39.560  26.946  27.827  1.00  0.00     0.029 A 
ATOM     47  N   UNL A   1      41.205  26.918  29.341  1.00  0.00    -0.354 N 
ATOM     48  C   UNL A   1      41.333  29.798  32.550  1.00  0.00     0.074 A 
ATOM     49  C   UNL A   1      40.231  30.733  32.446  1.00  0.00     0.031 C 
ATOM     50  C   UNL A   1      40.391  25.944  27.501  1.00  0.00     0.029 A 
ATOM     51  C   UNL A   1      41.503  25.914  28.449  1.00  0.00     0.049 A 
ATOM     52  H   UNL A   1      41.764  27.126  30.124  1.00  0.00     0.167 HD
ATOM     53  C   UNL A   1      42.279  29.826  33.525  1.00  0.00     0.034 A 
ATOM     54  C   UNL A   1      42.556  25.075  28.384  1.00  0.00     0.034 A 
ATOM     55  C   UNL A   1      43.379  28.892  33.607  1.00  0.00     0.049 A 
ATOM     56  C   UNL A   1      43.625  25.152  29.443  1.00  0.00     0.074 A 
ATOM     57  C   UNL A   1      44.361  28.799  34.579  1.00  0.00     0.029 A 
ATOM     58  N   UNL A   1      43.661  27.904  32.670  1.00  0.00    -0.354 N 
ATOM     59  N   UNL A   1      43.714  25.967  30.469  1.00  0.00    -0.248 NA
ATOM     60  C   UNL A   1      44.730  24.189  29.343  1.00  0.00     0.031 C 
ATOM     61  C   UNL A   1      45.282  27.822  34.185  1.00  0.00     0.029 A 
ATOM     62  C   UNL A   1      44.826  27.232  33.018  1.00  0.00     0.049 A 
ATOM     63  H   UNL A   1      43.115  27.709  31.876  1.00  0.00     0.167 HD
ATOM     64  C   UNL A   1      44.871  25.597  31.151  1.00  0.00     0.074 A 
ATOM     65  C   UNL A   1      45.437  24.477  30.426  1.00  0.00     0.031 C 
ATOM     66  C   UNL A   1      45.405  26.129  32.282  1.00  0.00     0.034 A 
BRANCH  53  67
ATOM     67  C   UNL A   1      42.182  30.935  34.552  1.00  0.00     0.023 A 
ATOM     68  C   UNL A   1      42.696  32.220  34.306  1.00  0.00     0.031 A 
ATOM     69  C   UNL A   1      41.615  30.691  35.816  1.00  0.00     0.131 A 
ATOM     70  C   UNL A   1      42.735  33.171  35.337  1.00  0.00     0.055 A 
ATOM     71  C   UNL A   1      41.563  31.676  36.806  1.00  0.00     0.041 A 
ATOM     72  F   UNL A   1      41.121  29.481  36.124  1.00  0.00    -0.206 F 
ATOM     73  C   UNL A   1      42.146  32.918  36.577  1.00  0.00     0.022 A 
BRANCH  70  74
ATOM     74  S   UNL A   1      43.742  34.662  35.099  1.00  0.00     0.124 S 
ATOM     75  O   UNL A   1      44.845  34.423  36.027  1.00  0.00    -0.237 OA
ATOM     76  O   UNL A   1      44.074  34.593  33.680  1.00  0.00    -0.237 OA
ATOM     77  O   UNL A   1      42.843  35.748  35.480  1.00  0.00    -0.744 OA
ENDBRANCH  70  74
ENDBRANCH  53  67
BRANCH  54  78
ATOM     78  C   UNL A   1      42.661  24.105  27.255  1.00  0.00     0.023 A 
ATOM     79  C   UNL A   1      42.062  22.837  27.318  1.00  0.00     0.031 A 
ATOM     80  C   UNL A   1      43.374  24.440  26.089  1.00  0.00     0.131 A 
ATOM     81  C   UNL A   1      42.207  21.942  26.247  1.00  0.00     0.055 A 
ATOM     82  C   UNL A   1      43.471  23.567  25.005  1.00  0.00     0.041 A 
ATOM     83  F   UNL A   1      43.965  25.640  25.977  1.00  0.00    -0.206 F 
ATOM     84  C   UNL A   1      42.891  22.306  25.083  1.00  0.00     0.022 A 
BRANCH  81  85
ATOM     85  S   UNL A   1      41.534  20.265  26.413  1.00  0.00     0.124 S 
ATOM     86  O   UNL A   1      41.953  19.909  27.763  1.00  0.00    -0.237 OA
ATOM     87  O   UNL A   1      40.105  20.490  26.222  1.00  0.00    -0.237 OA
ATOM     88  O   UNL A   1      42.194  19.526  25.338  1.00  0.00    -0.744 OA
ENDBRANCH  81  85
ENDBRANCH  54  78
BRANCH  66  89
ATOM     89  C   UNL A   1      46.653  25.477  32.832  1.00  0.00     0.023 A 
ATOM     90  C   UNL A   1      47.933  25.760  32.322  1.00  0.00     0.031 A 
ATOM     91  C   UNL A   1      46.559  24.554  33.891  1.00  0.00     0.131 A 
ATOM     92  C   UNL A   1      49.056  25.089  32.833  1.00  0.00     0.055 A 
ATOM     93  C   UNL A   1      47.685  23.942  34.441  1.00  0.00     0.041 A 
ATOM     94  F   UNL A   1      45.363  24.236  34.415  1.00  0.00    -0.206 F 
ATOM     95  C   UNL A   1      48.943  24.198  33.903  1.00  0.00     0.022 A 
BRANCH  92  96
ATOM     96  S   UNL A   1      50.660  25.321  32.017  1.00  0.00     0.124 S 
ATOM     97  O   UNL A   1      50.987  23.961  31.602  1.00  0.00    -0.237 OA
ATOM     98  O   UNL A   1      50.333  26.254  30.943  1.00  0.00    -0.237 OA
ATOM     99  O   UNL A   1      51.508  25.868  33.075  1.00  0.00    -0.744 OA
ENDBRANCH  92  96
ENDBRANCH  66  89
ENDBRANCH  40  41
ENDBRANCH  32  35
ENDBRANCH  30  31
ENDBRANCH   1  30
TORSDOF 17
ENDMDL
