MODEL 1
REMARK VINA RESULT:     -12.7      0.000      0.000
REMARK SMILES COc1ccc(-c2ccc3n(c2=O)C[C@H]2C[C@@H]3CN(C(=O)CCCC(=O)NCCCNC(=O)c3ccc(-c4c5nc(c(-c6cc(S(=O)(=O)[O-])ccc6F)c6ccc([nH]6)c(-c6cc(S(=O)(=O)[O-])ccc6F)c6nc(c(-c7cc(S(=O)(=O)[O-])ccc7F)c7ccc4[nH]7)C=C6)C=C5)cc3)C2)cc1
REMARK SMILES IDX 25 1 26 2 27 3 24 5 23 6 22 7 20 8 21 9 19 10 7 11 8 12
REMARK SMILES IDX 12 13 9 14 11 15 13 16 10 17 14 18 17 19 15 20 16 21 18 22
REMARK SMILES IDX 97 23 6 24 3 25 4 26 99 27 5 28 98 29 2 30 1 31 28 32 29 33
REMARK SMILES IDX 30 34 31 35 32 36 33 38 34 39 35 40 96 41 36 42 95 43 37 44
REMARK SMILES IDX 38 45 39 46 89 47 40 48 94 49 88 50 90 51 41 52 93 53 87 54
REMARK SMILES IDX 86 55 42 57 74 58 54 59 73 60 55 61 58 62 72 63 91 64 56 65
REMARK SMILES IDX 57 66 71 68 92 69 59 70 43 71 44 72 52 73 45 74 51 75 53 76
REMARK SMILES IDX 50 77 46 78 47 79 48 80 49 81 75 82 76 83 84 84 77 85 83 86
REMARK SMILES IDX 85 87 82 88 78 89 79 90 80 91 81 92 60 93 61 94 69 95 62 96
REMARK SMILES IDX 68 97 70 98 67 99 63 100 64 101 65 102 66 103
REMARK H PARENT 27 4 31 37 90 56 58 67
REMARK Flexibility Score: inf
ROOT
ATOM      1  C   UNL A   1      37.453  23.449  25.837  1.00  0.00     0.220 C 
ATOM      2  O   UNL A   1      38.251  24.274  26.300  1.00  0.00    -0.275 OA
ATOM      3  N   UNL A   1      38.011  22.410  25.169  1.00  0.00    -0.356 N 
ATOM      4  H   UNL A   1      38.972  22.521  24.986  1.00  0.00     0.163 HD
ENDROOT
BRANCH   1   5
ATOM      5  C   UNL A   1      35.960  23.612  26.128  1.00  0.00     0.100 C 
BRANCH   5   6
ATOM      6  C   UNL A   1      35.087  24.536  25.286  1.00  0.00     0.020 C 
BRANCH   6   7
ATOM      7  C   UNL A   1      33.880  25.273  25.867  1.00  0.00     0.101 C 
BRANCH   7   8
ATOM      8  C   UNL A   1      33.642  26.769  25.634  1.00  0.00     0.222 C 
ATOM      9  O   UNL A   1      34.245  27.557  26.375  1.00  0.00    -0.275 OA
BRANCH   8  10
ATOM     10  N   UNL A   1      32.924  27.247  24.541  1.00  0.00    -0.342 N 
ATOM     11  C   UNL A   1      32.218  22.451  23.633  1.00  0.00     0.047 A 
ATOM     12  C   UNL A   1      31.157  22.862  24.346  1.00  0.00     0.016 A 
ATOM     13  C   UNL A   1      32.892  23.427  22.709  1.00  0.00     0.258 A 
ATOM     14  C   UNL A   1      30.660  24.204  24.243  1.00  0.00     0.023 A 
ATOM     15  N   UNL A   1      32.369  24.727  22.686  1.00  0.00    -0.311 N 
ATOM     16  O   UNL A   1      33.843  23.076  22.011  1.00  0.00    -0.269 OA
ATOM     17  C   UNL A   1      31.258  25.102  23.445  1.00  0.00     0.026 A 
ATOM     18  C   UNL A   1      33.017  25.668  21.776  1.00  0.00     0.131 C 
ATOM     19  C   UNL A   1      30.800  26.551  23.455  1.00  0.00     0.056 C 
ATOM     20  C   UNL A   1      32.690  27.144  22.016  1.00  0.00     0.029 C 
ATOM     21  C   UNL A   1      31.185  27.279  22.168  1.00  0.00     0.019 C 
ATOM     22  C   UNL A   1      31.462  27.270  24.646  1.00  0.00     0.129 C 
ATOM     23  C   UNL A   1      33.416  27.719  23.249  1.00  0.00     0.125 C 
BRANCH  11  24
ATOM     24  C   UNL A   1      32.696  21.067  23.773  1.00  0.00    -0.013 A 
ATOM     25  C   UNL A   1      33.593  18.413  24.017  1.00  0.00     0.118 A 
ATOM     26  C   UNL A   1      34.154  19.425  24.800  1.00  0.00     0.047 A 
ATOM     27  C   UNL A   1      32.568  18.726  23.125  1.00  0.00     0.047 A 
ATOM     28  C   UNL A   1      33.716  20.746  24.673  1.00  0.00     0.013 A 
ATOM     29  C   UNL A   1      32.124  20.045  23.003  1.00  0.00     0.013 A 
BRANCH  25  30
ATOM     30  O   UNL A   1      34.104  17.161  24.226  1.00  0.00    -0.497 OA
ATOM     31  C   UNL A   1      33.531  16.434  25.305  1.00  0.00     0.278 C 
ENDBRANCH  25  30
ENDBRANCH  11  24
ENDBRANCH   8  10
ENDBRANCH   7   8
ENDBRANCH   6   7
ENDBRANCH   5   6
ENDBRANCH   1   5
BRANCH   3  32
ATOM     32  C   UNL A   1      37.462  21.173  24.677  1.00  0.00     0.117 C 
BRANCH  32  33
ATOM     33  C   UNL A   1      38.343  19.963  24.905  1.00  0.00     0.042 C 
BRANCH  33  34
ATOM     34  C   UNL A   1      39.248  20.150  26.103  1.00  0.00     0.118 C 
BRANCH  34  35
ATOM     35  N   UNL A   1      40.473  19.352  26.020  1.00  0.00    -0.352 N 
ATOM     36  C   UNL A   1      41.782  19.756  26.165  1.00  0.00     0.251 C 
ATOM     37  H   UNL A   1      40.342  18.395  25.834  1.00  0.00     0.163 HD
ATOM     38  O   UNL A   1      42.693  18.967  25.931  1.00  0.00    -0.269 OA
BRANCH  36  39
ATOM     39  C   UNL A   1      42.066  21.155  26.552  1.00  0.00     0.039 A 
ATOM     40  C   UNL A   1      42.492  21.441  27.850  1.00  0.00     0.014 A 
ATOM     41  C   UNL A   1      41.998  22.168  25.596  1.00  0.00     0.014 A 
ATOM     42  C   UNL A   1      42.946  22.726  28.155  1.00  0.00     0.010 A 
ATOM     43  C   UNL A   1      42.583  23.396  25.859  1.00  0.00     0.010 A 
ATOM     44  C   UNL A   1      43.050  23.699  27.146  1.00  0.00    -0.014 A 
BRANCH  44  45
ATOM     45  C   UNL A   1      43.603  25.055  27.403  1.00  0.00     0.031 A 
ATOM     46  C   UNL A   1      42.707  26.117  27.987  1.00  0.00     0.074 A 
ATOM     47  C   UNL A   1      44.864  25.354  27.030  1.00  0.00     0.049 A 
ATOM     48  N   UNL A   1      42.933  27.393  28.155  1.00  0.00    -0.248 NA
ATOM     49  C   UNL A   1      41.352  25.693  28.377  1.00  0.00     0.031 C 
ATOM     50  C   UNL A   1      45.805  24.427  26.395  1.00  0.00     0.029 A 
ATOM     51  N   UNL A   1      45.569  26.527  27.121  1.00  0.00    -0.354 N 
ATOM     52  C   UNL A   1      41.740  27.926  28.636  1.00  0.00     0.074 A 
ATOM     53  C   UNL A   1      40.773  26.852  28.643  1.00  0.00     0.031 C 
ATOM     54  C   UNL A   1      46.975  25.056  26.194  1.00  0.00     0.029 A 
ATOM     55  C   UNL A   1      46.855  26.442  26.636  1.00  0.00     0.049 A 
ATOM     56  H   UNL A   1      45.191  27.354  27.499  1.00  0.00     0.167 HD
ATOM     57  C   UNL A   1      41.485  29.185  29.069  1.00  0.00     0.034 A 
ATOM     58  C   UNL A   1      47.822  27.376  26.555  1.00  0.00     0.034 A 
ATOM     59  C   UNL A   1      42.478  30.228  29.097  1.00  0.00     0.049 A 
ATOM     60  C   UNL A   1      47.524  28.765  27.060  1.00  0.00     0.074 A 
ATOM     61  C   UNL A   1      42.359  31.521  29.574  1.00  0.00     0.029 A 
ATOM     62  N   UNL A   1      43.781  30.093  28.631  1.00  0.00    -0.354 N 
ATOM     63  N   UNL A   1      46.406  29.242  27.559  1.00  0.00    -0.248 NA
ATOM     64  C   UNL A   1      48.622  29.738  27.005  1.00  0.00     0.031 C 
ATOM     65  C   UNL A   1      43.571  32.183  29.345  1.00  0.00     0.029 A 
ATOM     66  C   UNL A   1      44.469  31.284  28.792  1.00  0.00     0.049 A 
ATOM     67  H   UNL A   1      44.158  29.271  28.244  1.00  0.00     0.167 HD
ATOM     68  C   UNL A   1      46.678  30.562  27.905  1.00  0.00     0.074 A 
ATOM     69  C   UNL A   1      48.067  30.799  27.573  1.00  0.00     0.031 C 
ATOM     70  C   UNL A   1      45.855  31.496  28.449  1.00  0.00     0.034 A 
BRANCH  57  71
ATOM     71  C   UNL A   1      40.078  29.486  29.534  1.00  0.00     0.023 A 
ATOM     72  C   UNL A   1      39.762  29.602  30.900  1.00  0.00     0.031 A 
ATOM     73  C   UNL A   1      39.030  29.609  28.607  1.00  0.00     0.131 A 
ATOM     74  C   UNL A   1      38.425  29.731  31.304  1.00  0.00     0.055 A 
ATOM     75  C   UNL A   1      37.711  29.835  29.012  1.00  0.00     0.041 A 
ATOM     76  F   UNL A   1      39.262  29.489  27.291  1.00  0.00    -0.206 F 
ATOM     77  C   UNL A   1      37.399  29.878  30.368  1.00  0.00     0.022 A 
BRANCH  74  78
ATOM     78  S   UNL A   1      38.033  29.540  33.064  1.00  0.00     0.124 S 
ATOM     79  O   UNL A   1      37.230  30.734  33.317  1.00  0.00    -0.237 OA
ATOM     80  O   UNL A   1      37.315  28.271  33.092  1.00  0.00    -0.237 OA
ATOM     81  O   UNL A   1      39.345  29.531  33.709  1.00  0.00    -0.744 OA
ENDBRANCH  74  78
ENDBRANCH  57  71
BRANCH  58  82
ATOM     82  C   UNL A   1      49.159  27.039  25.987  1.00  0.00     0.023 A 
ATOM     83  C   UNL A   1      49.502  27.421  24.679  1.00  0.00     0.031 A 
ATOM     84  C   UNL A   1      50.099  26.298  26.724  1.00  0.00     0.131 A 
ATOM     85  C   UNL A   1      50.732  27.021  24.132  1.00  0.00     0.055 A 
ATOM     86  C   UNL A   1      51.343  25.948  26.194  1.00  0.00     0.041 A 
ATOM     87  F   UNL A   1      49.826  25.915  27.981  1.00  0.00    -0.206 F 
ATOM     88  C   UNL A   1      51.660  26.298  24.885  1.00  0.00     0.022 A 
BRANCH  85  89
ATOM     89  S   UNL A   1      51.068  27.392  22.388  1.00  0.00     0.124 S 
ATOM     90  O   UNL A   1      49.895  26.825  21.733  1.00  0.00    -0.237 OA
ATOM     91  O   UNL A   1      51.155  28.849  22.401  1.00  0.00    -0.237 OA
ATOM     92  O   UNL A   1      52.326  26.696  22.129  1.00  0.00    -0.744 OA
ENDBRANCH  85  89
ENDBRANCH  58  82
BRANCH  70  93
ATOM     93  C   UNL A   1      46.463  32.840  28.761  1.00  0.00     0.023 A 
ATOM     94  C   UNL A   1      46.440  33.895  27.834  1.00  0.00     0.031 A 
ATOM     95  C   UNL A   1      47.080  33.064  30.005  1.00  0.00     0.131 A 
ATOM     96  C   UNL A   1      47.073  35.108  28.142  1.00  0.00     0.055 A 
ATOM     97  C   UNL A   1      47.654  34.292  30.330  1.00  0.00     0.041 A 
ATOM     98  F   UNL A   1      47.128  32.089  30.929  1.00  0.00    -0.206 F 
ATOM     99  C   UNL A   1      47.665  35.319  29.390  1.00  0.00     0.022 A 
BRANCH  96 100
ATOM    100  S   UNL A   1      47.196  36.377  26.852  1.00  0.00     0.124 S 
ATOM    101  O   UNL A   1      45.794  36.709  26.620  1.00  0.00    -0.237 OA
ATOM    102  O   UNL A   1      47.995  37.408  27.506  1.00  0.00    -0.237 OA
ATOM    103  O   UNL A   1      47.861  35.683  25.750  1.00  0.00    -0.744 OA
ENDBRANCH  96 100
ENDBRANCH  70  93
ENDBRANCH  44  45
ENDBRANCH  36  39
ENDBRANCH  34  35
ENDBRANCH  33  34
ENDBRANCH  32  33
ENDBRANCH   3  32
TORSDOF 19
ENDMDL
MODEL 2
REMARK VINA RESULT:     -12.4      1.765      7.371
REMARK SMILES COc1ccc(-c2ccc3n(c2=O)C[C@H]2C[C@@H]3CN(C(=O)CCCC(=O)NCCCNC(=O)c3ccc(-c4c5nc(c(-c6cc(S(=O)(=O)[O-])ccc6F)c6ccc([nH]6)c(-c6cc(S(=O)(=O)[O-])ccc6F)c6nc(c(-c7cc(S(=O)(=O)[O-])ccc7F)c7ccc4[nH]7)C=C6)C=C5)cc3)C2)cc1
REMARK SMILES IDX 25 1 26 2 27 3 24 5 23 6 22 7 20 8 21 9 19 10 7 11 8 12
REMARK SMILES IDX 12 13 9 14 11 15 13 16 10 17 14 18 17 19 15 20 16 21 18 22
REMARK SMILES IDX 97 23 6 24 3 25 4 26 99 27 5 28 98 29 2 30 1 31 28 32 29 33
REMARK SMILES IDX 30 34 31 35 32 36 33 38 34 39 35 40 96 41 36 42 95 43 37 44
REMARK SMILES IDX 38 45 39 46 89 47 40 48 94 49 88 50 90 51 41 52 93 53 87 54
REMARK SMILES IDX 86 55 42 57 74 58 54 59 73 60 55 61 58 62 72 63 91 64 56 65
REMARK SMILES IDX 57 66 71 68 92 69 59 70 43 71 44 72 52 73 45 74 51 75 53 76
REMARK SMILES IDX 50 77 46 78 47 79 48 80 49 81 75 82 76 83 84 84 77 85 83 86
REMARK SMILES IDX 85 87 82 88 78 89 79 90 80 91 81 92 60 93 61 94 69 95 62 96
REMARK SMILES IDX 68 97 70 98 67 99 63 100 64 101 65 102 66 103
REMARK H PARENT 27 4 31 37 90 56 58 67
REMARK Flexibility Score: inf
ROOT
ATOM      1  C   UNL A   1      36.646  22.965  23.908  1.00  0.00     0.220 C 
ATOM      2  O   UNL A   1      36.448  23.231  22.716  1.00  0.00    -0.275 OA
ATOM      3  N   UNL A   1      37.428  21.882  24.142  1.00  0.00    -0.356 N 
ATOM      4  H   UNL A   1      37.606  21.337  23.341  1.00  0.00     0.163 HD
ENDROOT
BRANCH   1   5
ATOM      5  C   UNL A   1      36.093  23.903  24.983  1.00  0.00     0.100 C 
BRANCH   5   6
ATOM      6  C   UNL A   1      34.757  24.613  24.800  1.00  0.00     0.020 C 
BRANCH   6   7
ATOM      7  C   UNL A   1      33.965  25.180  25.978  1.00  0.00     0.101 C 
BRANCH   7   8
ATOM      8  C   UNL A   1      33.349  26.584  25.954  1.00  0.00     0.222 C 
ATOM      9  O   UNL A   1      34.043  27.510  26.394  1.00  0.00    -0.275 OA
BRANCH   8  10
ATOM     10  N   UNL A   1      32.141  26.856  25.317  1.00  0.00    -0.342 N 
ATOM     11  C   UNL A   1      32.039  21.968  24.668  1.00  0.00     0.047 A 
ATOM     12  C   UNL A   1      31.352  22.216  25.794  1.00  0.00     0.016 A 
ATOM     13  C   UNL A   1      32.026  22.997  23.571  1.00  0.00     0.258 A 
ATOM     14  C   UNL A   1      30.614  23.433  25.970  1.00  0.00     0.023 A 
ATOM     15  N   UNL A   1      31.310  24.174  23.828  1.00  0.00    -0.311 N 
ATOM     16  O   UNL A   1      32.613  22.789  22.509  1.00  0.00    -0.269 OA
ATOM     17  C   UNL A   1      30.608  24.379  25.018  1.00  0.00     0.026 A 
ATOM     18  C   UNL A   1      31.288  25.165  22.756  1.00  0.00     0.131 C 
ATOM     19  C   UNL A   1      29.934  25.716  25.281  1.00  0.00     0.056 C 
ATOM     20  C   UNL A   1      30.827  26.566  23.165  1.00  0.00     0.029 C 
ATOM     21  C   UNL A   1      29.555  26.427  23.983  1.00  0.00     0.019 C 
ATOM     22  C   UNL A   1      30.907  26.612  26.070  1.00  0.00     0.129 C 
ATOM     23  C   UNL A   1      31.902  27.335  23.958  1.00  0.00     0.125 C 
BRANCH  11  24
ATOM     24  C   UNL A   1      32.784  20.707  24.532  1.00  0.00    -0.013 A 
ATOM     25  C   UNL A   1      34.231  18.308  24.288  1.00  0.00     0.118 A 
ATOM     26  C   UNL A   1      32.927  18.402  23.795  1.00  0.00     0.047 A 
ATOM     27  C   UNL A   1      34.819  19.422  24.887  1.00  0.00     0.047 A 
ATOM     28  C   UNL A   1      32.203  19.591  23.923  1.00  0.00     0.013 A 
ATOM     29  C   UNL A   1      34.099  20.613  25.009  1.00  0.00     0.013 A 
BRANCH  25  30
ATOM     30  O   UNL A   1      34.839  17.096  24.108  1.00  0.00    -0.497 OA
ATOM     31  C   UNL A   1      34.720  16.180  25.190  1.00  0.00     0.278 C 
ENDBRANCH  25  30
ENDBRANCH  11  24
ENDBRANCH   8  10
ENDBRANCH   7   8
ENDBRANCH   6   7
ENDBRANCH   5   6
ENDBRANCH   1   5
BRANCH   3  32
ATOM     32  C   UNL A   1      38.045  21.379  25.341  1.00  0.00     0.117 C 
BRANCH  32  33
ATOM     33  C   UNL A   1      38.846  20.109  25.147  1.00  0.00     0.042 C 
BRANCH  33  34
ATOM     34  C   UNL A   1      39.650  19.762  26.380  1.00  0.00     0.118 C 
BRANCH  34  35
ATOM     35  N   UNL A   1      40.999  19.288  26.065  1.00  0.00    -0.352 N 
ATOM     36  C   UNL A   1      42.186  19.988  26.061  1.00  0.00     0.251 C 
ATOM     37  H   UNL A   1      41.067  18.336  25.822  1.00  0.00     0.163 HD
ATOM     38  O   UNL A   1      43.208  19.453  25.640  1.00  0.00    -0.269 OA
BRANCH  36  39
ATOM     39  C   UNL A   1      42.194  21.394  26.516  1.00  0.00     0.039 A 
ATOM     40  C   UNL A   1      42.488  21.689  27.849  1.00  0.00     0.014 A 
ATOM     41  C   UNL A   1      42.002  22.424  25.595  1.00  0.00     0.014 A 
ATOM     42  C   UNL A   1      42.687  23.018  28.229  1.00  0.00     0.010 A 
ATOM     43  C   UNL A   1      42.344  23.722  25.941  1.00  0.00     0.010 A 
ATOM     44  C   UNL A   1      42.674  24.041  27.266  1.00  0.00    -0.014 A 
BRANCH  44  45
ATOM     45  C   UNL A   1      42.962  25.458  27.607  1.00  0.00     0.031 A 
ATOM     46  C   UNL A   1      44.367  25.981  27.456  1.00  0.00     0.074 A 
ATOM     47  C   UNL A   1      41.996  26.237  28.134  1.00  0.00     0.049 A 
ATOM     48  N   UNL A   1      44.872  27.128  27.830  1.00  0.00    -0.248 NA
ATOM     49  C   UNL A   1      45.351  25.062  26.859  1.00  0.00     0.031 C 
ATOM     50  C   UNL A   1      40.614  25.823  28.389  1.00  0.00     0.029 A 
ATOM     51  N   UNL A   1      42.032  27.541  28.562  1.00  0.00    -0.354 N 
ATOM     52  C   UNL A   1      46.232  27.052  27.544  1.00  0.00     0.074 A 
ATOM     53  C   UNL A   1      46.484  25.715  27.053  1.00  0.00     0.031 C 
ATOM     54  C   UNL A   1      39.926  26.864  28.887  1.00  0.00     0.029 A 
ATOM     55  C   UNL A   1      40.825  28.004  29.036  1.00  0.00     0.049 A 
ATOM     56  H   UNL A   1      42.845  28.095  28.530  1.00  0.00     0.167 HD
ATOM     57  C   UNL A   1      47.177  28.019  27.643  1.00  0.00     0.034 A 
ATOM     58  C   UNL A   1      40.488  29.207  29.538  1.00  0.00     0.034 A 
ATOM     59  C   UNL A   1      46.893  29.358  28.091  1.00  0.00     0.049 A 
ATOM     60  C   UNL A   1      41.549  30.276  29.622  1.00  0.00     0.074 A 
ATOM     61  C   UNL A   1      47.750  30.441  28.171  1.00  0.00     0.029 A 
ATOM     62  N   UNL A   1      45.650  29.799  28.529  1.00  0.00    -0.354 N 
ATOM     63  N   UNL A   1      42.821  30.204  29.301  1.00  0.00    -0.248 NA
ATOM     64  C   UNL A   1      41.126  31.589  30.123  1.00  0.00     0.031 C 
ATOM     65  C   UNL A   1      47.039  31.520  28.710  1.00  0.00     0.029 A 
ATOM     66  C   UNL A   1      45.722  31.133  28.900  1.00  0.00     0.049 A 
ATOM     67  H   UNL A   1      44.838  29.245  28.571  1.00  0.00     0.167 HD
ATOM     68  C   UNL A   1      43.342  31.474  29.533  1.00  0.00     0.074 A 
ATOM     69  C   UNL A   1      42.243  32.292  30.004  1.00  0.00     0.031 C 
ATOM     70  C   UNL A   1      44.612  31.926  29.370  1.00  0.00     0.034 A 
BRANCH  57  71
ATOM     71  C   UNL A   1      48.593  27.645  27.267  1.00  0.00     0.023 A 
ATOM     72  C   UNL A   1      49.123  27.947  26.000  1.00  0.00     0.031 A 
ATOM     73  C   UNL A   1      49.407  26.935  28.165  1.00  0.00     0.131 A 
ATOM     74  C   UNL A   1      50.383  27.456  25.630  1.00  0.00     0.055 A 
ATOM     75  C   UNL A   1      50.701  26.531  27.824  1.00  0.00     0.041 A 
ATOM     76  F   UNL A   1      48.954  26.599  29.383  1.00  0.00    -0.206 F 
ATOM     77  C   UNL A   1      51.189  26.774  26.543  1.00  0.00     0.022 A 
BRANCH  74  78
ATOM     78  S   UNL A   1      50.881  27.578  23.890  1.00  0.00     0.124 S 
ATOM     79  O   UNL A   1      49.743  26.956  23.215  1.00  0.00    -0.237 OA
ATOM     80  O   UNL A   1      51.025  29.017  23.702  1.00  0.00    -0.237 OA
ATOM     81  O   UNL A   1      52.125  26.812  23.834  1.00  0.00    -0.744 OA
ENDBRANCH  74  78
ENDBRANCH  57  71
BRANCH  58  82
ATOM     82  C   UNL A   1      39.093  29.478  29.991  1.00  0.00     0.023 A 
ATOM     83  C   UNL A   1      38.204  30.210  29.186  1.00  0.00     0.031 A 
ATOM     84  C   UNL A   1      38.636  29.044  31.248  1.00  0.00     0.131 A 
ATOM     85  C   UNL A   1      36.923  30.527  29.665  1.00  0.00     0.055 A 
ATOM     86  C   UNL A   1      37.342  29.317  31.698  1.00  0.00     0.041 A 
ATOM     87  F   UNL A   1      39.440  28.333  32.053  1.00  0.00    -0.206 F 
ATOM     88  C   UNL A   1      36.481  30.075  30.909  1.00  0.00     0.022 A 
BRANCH  85  89
ATOM     89  S   UNL A   1      35.867  31.614  28.665  1.00  0.00     0.124 S 
ATOM     90  O   UNL A   1      36.772  32.718  28.372  1.00  0.00    -0.237 OA
ATOM     91  O   UNL A   1      35.524  30.749  27.541  1.00  0.00    -0.237 OA
ATOM     92  O   UNL A   1      34.762  31.933  29.565  1.00  0.00    -0.744 OA
ENDBRANCH  85  89
ENDBRANCH  58  82
BRANCH  70  93
ATOM     93  C   UNL A   1      44.858  33.385  29.659  1.00  0.00     0.023 A 
ATOM     94  C   UNL A   1      44.780  34.362  28.653  1.00  0.00     0.031 A 
ATOM     95  C   UNL A   1      45.182  33.801  30.963  1.00  0.00     0.131 A 
ATOM     96  C   UNL A   1      45.079  35.698  28.953  1.00  0.00     0.055 A 
ATOM     97  C   UNL A   1      45.418  35.140  31.270  1.00  0.00     0.041 A 
ATOM     98  F   UNL A   1      45.269  32.908  31.963  1.00  0.00    -0.206 F 
ATOM     99  C   UNL A   1      45.380  36.097  30.259  1.00  0.00     0.022 A 
BRANCH  96 100
ATOM    100  S   UNL A   1      45.160  36.898  27.596  1.00  0.00     0.124 S 
ATOM    101  O   UNL A   1      45.986  36.196  26.620  1.00  0.00    -0.237 OA
ATOM    102  O   UNL A   1      43.754  37.061  27.241  1.00  0.00    -0.237 OA
ATOM    103  O   UNL A   1      45.783  38.069  28.210  1.00  0.00    -0.744 OA
ENDBRANCH  96 100
ENDBRANCH  70  93
ENDBRANCH  44  45
ENDBRANCH  36  39
ENDBRANCH  34  35
ENDBRANCH  33  34
ENDBRANCH  32  33
ENDBRANCH   3  32
TORSDOF 19
ENDMDL
MODEL 3
REMARK VINA RESULT:     -12.1      1.738      7.266
REMARK SMILES COc1ccc(-c2ccc3n(c2=O)C[C@H]2C[C@@H]3CN(C(=O)CCCC(=O)NCCCNC(=O)c3ccc(-c4c5nc(c(-c6cc(S(=O)(=O)[O-])ccc6F)c6ccc([nH]6)c(-c6cc(S(=O)(=O)[O-])ccc6F)c6nc(c(-c7cc(S(=O)(=O)[O-])ccc7F)c7ccc4[nH]7)C=C6)C=C5)cc3)C2)cc1
REMARK SMILES IDX 25 1 26 2 27 3 24 5 23 6 22 7 20 8 21 9 19 10 7 11 8 12
REMARK SMILES IDX 12 13 9 14 11 15 13 16 10 17 14 18 17 19 15 20 16 21 18 22
REMARK SMILES IDX 97 23 6 24 3 25 4 26 99 27 5 28 98 29 2 30 1 31 28 32 29 33
REMARK SMILES IDX 30 34 31 35 32 36 33 38 34 39 35 40 96 41 36 42 95 43 37 44
REMARK SMILES IDX 38 45 39 46 89 47 40 48 94 49 88 50 90 51 41 52 93 53 87 54
REMARK SMILES IDX 86 55 42 57 74 58 54 59 73 60 55 61 58 62 72 63 91 64 56 65
REMARK SMILES IDX 57 66 71 68 92 69 59 70 43 71 44 72 52 73 45 74 51 75 53 76
REMARK SMILES IDX 50 77 46 78 47 79 48 80 49 81 75 82 76 83 84 84 77 85 83 86
REMARK SMILES IDX 85 87 82 88 78 89 79 90 80 91 81 92 60 93 61 94 69 95 62 96
REMARK SMILES IDX 68 97 70 98 67 99 63 100 64 101 65 102 66 103
REMARK H PARENT 27 4 31 37 90 56 58 67
REMARK Flexibility Score: inf
ROOT
ATOM      1  C   UNL A   1      37.232  23.257  25.553  1.00  0.00     0.220 C 
ATOM      2  O   UNL A   1      37.655  24.099  26.355  1.00  0.00    -0.275 OA
ATOM      3  N   UNL A   1      38.057  22.206  25.321  1.00  0.00    -0.356 N 
ATOM      4  H   UNL A   1      38.964  22.321  25.687  1.00  0.00     0.163 HD
ENDROOT
BRANCH   1   5
ATOM      5  C   UNL A   1      35.821  23.414  24.982  1.00  0.00     0.100 C 
BRANCH   5   6
ATOM      6  C   UNL A   1      34.809  24.354  25.626  1.00  0.00     0.020 C 
BRANCH   6   7
ATOM      7  C   UNL A   1      34.382  25.667  24.970  1.00  0.00     0.101 C 
BRANCH   7   8
ATOM      8  C   UNL A   1      33.442  26.662  25.661  1.00  0.00     0.222 C 
ATOM      9  O   UNL A   1      33.928  27.365  26.557  1.00  0.00    -0.275 OA
BRANCH   8  10
ATOM     10  N   UNL A   1      32.147  26.902  25.207  1.00  0.00    -0.342 N 
ATOM     11  C   UNL A   1      31.996  21.990  24.787  1.00  0.00     0.047 A 
ATOM     12  C   UNL A   1      31.488  22.284  25.995  1.00  0.00     0.016 A 
ATOM     13  C   UNL A   1      31.805  22.971  23.664  1.00  0.00     0.258 A 
ATOM     14  C   UNL A   1      30.774  23.505  26.230  1.00  0.00     0.023 A 
ATOM     15  N   UNL A   1      31.125  24.155  23.978  1.00  0.00    -0.311 N 
ATOM     16  O   UNL A   1      32.224  22.719  22.533  1.00  0.00    -0.269 OA
ATOM     17  C   UNL A   1      30.611  24.409  25.252  1.00  0.00     0.026 A 
ATOM     18  C   UNL A   1      30.929  25.099  22.881  1.00  0.00     0.131 C 
ATOM     19  C   UNL A   1      29.972  25.753  25.559  1.00  0.00     0.056 C 
ATOM     20  C   UNL A   1      30.522  26.515  23.297  1.00  0.00     0.029 C 
ATOM     21  C   UNL A   1      29.391  26.407  24.306  1.00  0.00     0.019 C 
ATOM     22  C   UNL A   1      31.046  26.687  26.150  1.00  0.00     0.129 C 
ATOM     23  C   UNL A   1      31.698  27.321  23.882  1.00  0.00     0.125 C 
BRANCH  11  24
ATOM     24  C   UNL A   1      32.725  20.727  24.592  1.00  0.00    -0.013 A 
ATOM     25  C   UNL A   1      34.098  18.305  24.198  1.00  0.00     0.118 A 
ATOM     26  C   UNL A   1      34.649  19.310  24.997  1.00  0.00     0.047 A 
ATOM     27  C   UNL A   1      32.848  18.505  23.612  1.00  0.00     0.047 A 
ATOM     28  C   UNL A   1      33.973  20.518  25.186  1.00  0.00     0.013 A 
ATOM     29  C   UNL A   1      32.168  19.709  23.806  1.00  0.00     0.013 A 
BRANCH  25  30
ATOM     30  O   UNL A   1      34.852  17.169  24.084  1.00  0.00    -0.497 OA
ATOM     31  C   UNL A   1      34.773  16.264  25.178  1.00  0.00     0.278 C 
ENDBRANCH  25  30
ENDBRANCH  11  24
ENDBRANCH   8  10
ENDBRANCH   7   8
ENDBRANCH   6   7
ENDBRANCH   5   6
ENDBRANCH   1   5
BRANCH   3  32
ATOM     32  C   UNL A   1      37.857  20.954  24.640  1.00  0.00     0.117 C 
BRANCH  32  33
ATOM     33  C   UNL A   1      38.538  19.771  25.293  1.00  0.00     0.042 C 
BRANCH  33  34
ATOM     34  C   UNL A   1      39.804  20.183  26.012  1.00  0.00     0.118 C 
BRANCH  34  35
ATOM     35  N   UNL A   1      40.796  19.108  26.079  1.00  0.00    -0.352 N 
ATOM     36  C   UNL A   1      42.158  19.196  26.269  1.00  0.00     0.251 C 
ATOM     37  H   UNL A   1      40.440  18.197  25.972  1.00  0.00     0.163 HD
ATOM     38  O   UNL A   1      42.854  18.189  26.165  1.00  0.00    -0.269 OA
BRANCH  36  39
ATOM     39  C   UNL A   1      42.763  20.516  26.545  1.00  0.00     0.039 A 
ATOM     40  C   UNL A   1      43.326  21.251  25.500  1.00  0.00     0.014 A 
ATOM     41  C   UNL A   1      42.688  21.061  27.826  1.00  0.00     0.014 A 
ATOM     42  C   UNL A   1      43.718  22.573  25.726  1.00  0.00     0.010 A 
ATOM     43  C   UNL A   1      42.940  22.412  28.010  1.00  0.00     0.010 A 
ATOM     44  C   UNL A   1      43.474  23.182  26.968  1.00  0.00    -0.014 A 
BRANCH  44  45
ATOM     45  C   UNL A   1      43.798  24.609  27.231  1.00  0.00     0.031 A 
ATOM     46  C   UNL A   1      45.226  25.075  27.107  1.00  0.00     0.074 A 
ATOM     47  C   UNL A   1      42.840  25.452  27.666  1.00  0.00     0.049 A 
ATOM     48  N   UNL A   1      45.755  26.226  27.427  1.00  0.00    -0.248 NA
ATOM     49  C   UNL A   1      46.200  24.087  26.611  1.00  0.00     0.031 C 
ATOM     50  C   UNL A   1      41.435  25.101  27.887  1.00  0.00     0.029 A 
ATOM     51  N   UNL A   1      42.905  26.778  28.010  1.00  0.00    -0.354 N 
ATOM     52  C   UNL A   1      47.123  26.087  27.206  1.00  0.00     0.074 A 
ATOM     53  C   UNL A   1      47.346  24.714  26.812  1.00  0.00     0.031 C 
ATOM     54  C   UNL A   1      40.765  26.194  28.288  1.00  0.00     0.029 A 
ATOM     55  C   UNL A   1      41.697  27.311  28.403  1.00  0.00     0.049 A 
ATOM     56  H   UNL A   1      43.738  27.302  27.979  1.00  0.00     0.167 HD
ATOM     57  C   UNL A   1      48.097  27.027  27.283  1.00  0.00     0.034 A 
ATOM     58  C   UNL A   1      41.383  28.555  28.812  1.00  0.00     0.034 A 
ATOM     59  C   UNL A   1      47.843  28.401  27.632  1.00  0.00     0.049 A 
ATOM     60  C   UNL A   1      42.477  29.591  28.873  1.00  0.00     0.074 A 
ATOM     61  C   UNL A   1      48.733  29.458  27.680  1.00  0.00     0.029 A 
ATOM     62  N   UNL A   1      46.600  28.910  27.988  1.00  0.00    -0.354 N 
ATOM     63  N   UNL A   1      43.758  29.457  28.612  1.00  0.00    -0.248 NA
ATOM     64  C   UNL A   1      42.081  30.948  29.271  1.00  0.00     0.031 C 
ATOM     65  C   UNL A   1      48.041  30.593  28.118  1.00  0.00     0.029 A 
ATOM     66  C   UNL A   1      46.704  30.262  28.276  1.00  0.00     0.049 A 
ATOM     67  H   UNL A   1      45.767  28.387  28.030  1.00  0.00     0.167 HD
ATOM     68  C   UNL A   1      44.313  30.721  28.784  1.00  0.00     0.074 A 
ATOM     69  C   UNL A   1      43.226  31.604  29.155  1.00  0.00     0.031 C 
ATOM     70  C   UNL A   1      45.604  31.120  28.647  1.00  0.00     0.034 A 
BRANCH  57  71
ATOM     71  C   UNL A   1      49.512  26.583  26.992  1.00  0.00     0.023 A 
ATOM     72  C   UNL A   1      50.489  26.523  28.003  1.00  0.00     0.031 A 
ATOM     73  C   UNL A   1      49.907  26.267  25.681  1.00  0.00     0.131 A 
ATOM     74  C   UNL A   1      51.825  26.253  27.675  1.00  0.00     0.055 A 
ATOM     75  C   UNL A   1      51.222  25.904  25.376  1.00  0.00     0.041 A 
ATOM     76  F   UNL A   1      49.029  26.325  24.669  1.00  0.00    -0.206 F 
ATOM     77  C   UNL A   1      52.194  25.916  26.371  1.00  0.00     0.022 A 
BRANCH  74  78
ATOM     78  S   UNL A   1      53.095  26.514  28.943  1.00  0.00     0.124 S 
ATOM     79  O   UNL A   1      53.230  27.969  28.928  1.00  0.00    -0.237 OA
ATOM     80  O   UNL A   1      52.476  25.943  30.133  1.00  0.00    -0.237 OA
ATOM     81  O   UNL A   1      54.251  25.782  28.427  1.00  0.00    -0.744 OA
ENDBRANCH  74  78
ENDBRANCH  57  71
BRANCH  58  82
ATOM     82  C   UNL A   1      39.981  28.900  29.187  1.00  0.00     0.023 A 
ATOM     83  C   UNL A   1      39.594  28.977  30.535  1.00  0.00     0.031 A 
ATOM     84  C   UNL A   1      38.997  29.120  28.206  1.00  0.00     0.131 A 
ATOM     85  C   UNL A   1      38.251  29.220  30.866  1.00  0.00     0.055 A 
ATOM     86  C   UNL A   1      37.673  29.413  28.541  1.00  0.00     0.041 A 
ATOM     87  F   UNL A   1      39.314  29.067  26.903  1.00  0.00    -0.206 F 
ATOM     88  C   UNL A   1      37.291  29.450  29.880  1.00  0.00     0.022 A 
BRANCH  85  89
ATOM     89  S   UNL A   1      37.762  29.147  32.612  1.00  0.00     0.124 S 
ATOM     90  O   UNL A   1      37.753  27.710  32.858  1.00  0.00    -0.237 OA
ATOM     91  O   UNL A   1      38.831  29.902  33.257  1.00  0.00    -0.237 OA
ATOM     92  O   UNL A   1      36.451  29.792  32.624  1.00  0.00    -0.744 OA
ENDBRANCH  85  89
ENDBRANCH  58  82
BRANCH  70  93
ATOM     93  C   UNL A   1      45.890  32.586  28.853  1.00  0.00     0.023 A 
ATOM     94  C   UNL A   1      45.929  33.490  27.778  1.00  0.00     0.031 A 
ATOM     95  C   UNL A   1      46.133  33.082  30.147  1.00  0.00     0.131 A 
ATOM     96  C   UNL A   1      46.261  34.833  28.009  1.00  0.00     0.055 A 
ATOM     97  C   UNL A   1      46.403  34.430  30.377  1.00  0.00     0.041 A 
ATOM     98  F   UNL A   1      46.107  32.261  31.209  1.00  0.00    -0.206 F 
ATOM     99  C   UNL A   1      46.481  35.312  29.303  1.00  0.00     0.022 A 
BRANCH  96 100
ATOM    100  S   UNL A   1      46.494  35.928  26.582  1.00  0.00     0.124 S 
ATOM    101  O   UNL A   1      45.404  36.882  26.751  1.00  0.00    -0.237 OA
ATOM    102  O   UNL A   1      47.838  36.450  26.807  1.00  0.00    -0.237 OA
ATOM    103  O   UNL A   1      46.362  35.031  25.435  1.00  0.00    -0.744 OA
ENDBRANCH  96 100
ENDBRANCH  70  93
ENDBRANCH  44  45
ENDBRANCH  36  39
ENDBRANCH  34  35
ENDBRANCH  33  34
ENDBRANCH  32  33
ENDBRANCH   3  32
TORSDOF 19
ENDMDL
