MODEL 1
REMARK VINA RESULT:     -11.3      0.000      0.000
REMARK SMILES O=C(NCCCNC(=O)c1ccn(Cc2c(Cl)cccc2Cl)c1)c1ccc(-c2c3nc(c(-c4cc(S(=O)(=O)[O-])ccc4F)c4ccc([nH]4)c(-c4cc(S(=O)(=O)[O-])ccc4F)c4nc(c(-c5cc(S(=O)(=O)[O-])ccc5F)c5ccc2[nH]5)C=C4)C=C3)cc1
REMARK SMILES IDX 4 1 3 2 1 3 2 4 24 6 25 7 86 8 26 9 85 10 27 11 28 12 29 13
REMARK SMILES IDX 79 14 30 15 84 16 78 17 80 18 31 19 83 20 77 21 76 22 32 24
REMARK SMILES IDX 64 25 44 26 63 27 45 28 48 29 62 30 81 31 46 32 47 33 61 35
REMARK SMILES IDX 82 36 49 37 33 38 34 39 42 40 35 41 41 42 43 43 40 44 36 45
REMARK SMILES IDX 37 46 38 47 39 48 65 49 66 50 74 51 67 52 73 53 75 54 72 55
REMARK SMILES IDX 68 56 69 57 70 58 71 59 50 60 51 61 59 62 52 63 58 64 60 65
REMARK SMILES IDX 57 66 53 67 54 68 55 69 56 70 5 71 6 72 7 73 8 74 9 76 10 77
REMARK SMILES IDX 11 78 23 79 12 80 13 81 14 82 15 83 16 84 21 85 17 86 18 87
REMARK SMILES IDX 20 88 22 89 19 90
REMARK H PARENT 3 5 80 23 48 34 7 75
REMARK Flexibility Score: inf
ROOT
ATOM      1  C   UNL A   1      35.693  33.203  28.041  1.00  0.00     0.118 C 
ENDROOT
BRANCH   1   2
ATOM      2  N   UNL A   1      34.895  32.007  27.827  1.00  0.00    -0.352 N 
ATOM      3  O   UNL A   1      34.198  29.893  27.824  1.00  0.00    -0.269 OA
ATOM      4  C   UNL A   1      35.146  30.666  27.968  1.00  0.00     0.251 C 
ATOM      5  H   UNL A   1      33.982  32.201  27.515  1.00  0.00     0.163 HD
BRANCH   4   6
ATOM      6  C   UNL A   1      36.504  30.111  28.198  1.00  0.00     0.039 A 
ATOM      7  C   UNL A   1      37.508  30.085  27.232  1.00  0.00     0.014 A 
ATOM      8  C   UNL A   1      36.770  29.581  29.476  1.00  0.00     0.014 A 
ATOM      9  C   UNL A   1      38.705  29.430  27.484  1.00  0.00     0.010 A 
ATOM     10  C   UNL A   1      37.986  28.957  29.750  1.00  0.00     0.010 A 
ATOM     11  C   UNL A   1      38.943  28.864  28.740  1.00  0.00    -0.014 A 
BRANCH  11  12
ATOM     12  C   UNL A   1      40.317  28.370  28.984  1.00  0.00     0.031 A 
ATOM     13  C   UNL A   1      41.262  29.564  29.326  1.00  0.00     0.074 A 
ATOM     14  C   UNL A   1      40.522  27.035  28.738  1.00  0.00     0.049 A 
ATOM     15  N   UNL A   1      42.513  29.773  29.044  1.00  0.00    -0.248 NA
ATOM     16  C   UNL A   1      40.677  30.767  29.995  1.00  0.00     0.031 C 
ATOM     17  C   UNL A   1      39.460  26.033  28.449  1.00  0.00     0.029 A 
ATOM     18  N   UNL A   1      41.644  26.239  28.659  1.00  0.00    -0.354 N 
ATOM     19  C   UNL A   1      42.915  30.971  29.697  1.00  0.00     0.074 A 
ATOM     20  C   UNL A   1      41.710  31.601  30.139  1.00  0.00     0.031 C 
ATOM     21  C   UNL A   1      39.990  24.825  28.133  1.00  0.00     0.029 A 
ATOM     22  C   UNL A   1      41.436  24.904  28.187  1.00  0.00     0.049 A 
ATOM     23  H   UNL A   1      42.537  26.569  28.911  1.00  0.00     0.167 HD
ATOM     24  C   UNL A   1      44.222  31.302  29.943  1.00  0.00     0.034 A 
ATOM     25  C   UNL A   1      42.373  23.968  27.816  1.00  0.00     0.034 A 
ATOM     26  C   UNL A   1      45.073  30.308  29.386  1.00  0.00     0.049 A 
ATOM     27  C   UNL A   1      43.646  24.627  28.140  1.00  0.00     0.074 A 
ATOM     28  C   UNL A   1      45.453  30.035  28.102  1.00  0.00     0.029 A 
ATOM     29  N   UNL A   1      45.399  29.243  30.191  1.00  0.00    -0.354 N 
ATOM     30  N   UNL A   1      44.103  24.805  29.340  1.00  0.00    -0.248 NA
ATOM     31  C   UNL A   1      44.427  25.219  27.047  1.00  0.00     0.031 C 
ATOM     32  C   UNL A   1      45.498  28.627  28.084  1.00  0.00     0.029 A 
ATOM     33  C   UNL A   1      45.380  28.130  29.390  1.00  0.00     0.049 A 
ATOM     34  H   UNL A   1      45.605  29.274  31.153  1.00  0.00     0.167 HD
ATOM     35  C   UNL A   1      45.043  25.787  29.163  1.00  0.00     0.074 A 
ATOM     36  C   UNL A   1      45.412  25.752  27.764  1.00  0.00     0.031 C 
ATOM     37  C   UNL A   1      45.077  26.853  30.001  1.00  0.00     0.034 A 
BRANCH  24  38
ATOM     38  C   UNL A   1      44.901  32.345  30.802  1.00  0.00     0.023 A 
ATOM     39  C   UNL A   1      44.471  32.437  32.156  1.00  0.00     0.031 A 
ATOM     40  C   UNL A   1      45.680  33.409  30.334  1.00  0.00     0.131 A 
ATOM     41  C   UNL A   1      44.698  33.581  32.933  1.00  0.00     0.055 A 
ATOM     42  C   UNL A   1      45.958  34.532  31.135  1.00  0.00     0.041 A 
ATOM     43  F   UNL A   1      46.131  33.445  29.074  1.00  0.00    -0.206 F 
ATOM     44  C   UNL A   1      45.439  34.640  32.425  1.00  0.00     0.022 A 
BRANCH  41  45
ATOM     45  S   UNL A   1      43.863  33.716  34.544  1.00  0.00     0.124 S 
ATOM     46  O   UNL A   1      43.861  32.335  35.012  1.00  0.00    -0.237 OA
ATOM     47  O   UNL A   1      44.740  34.634  35.265  1.00  0.00    -0.237 OA
ATOM     48  O   UNL A   1      42.549  34.256  34.201  1.00  0.00    -0.744 OA
ENDBRANCH  41  45
ENDBRANCH  24  38
BRANCH  25  49
ATOM     49  C   UNL A   1      42.507  22.606  27.128  1.00  0.00     0.023 A 
ATOM     50  C   UNL A   1      43.554  22.162  26.301  1.00  0.00     0.031 A 
ATOM     51  C   UNL A   1      41.507  21.608  27.388  1.00  0.00     0.131 A 
ATOM     52  C   UNL A   1      43.608  20.794  25.877  1.00  0.00     0.055 A 
ATOM     53  C   UNL A   1      41.612  20.259  27.051  1.00  0.00     0.041 A 
ATOM     54  F   UNL A   1      40.352  21.894  28.006  1.00  0.00    -0.206 F 
ATOM     55  C   UNL A   1      42.680  19.839  26.302  1.00  0.00     0.022 A 
BRANCH  52  56
ATOM     56  S   UNL A   1      44.919  20.187  24.767  1.00  0.00     0.124 S 
ATOM     57  O   UNL A   1      46.117  20.754  25.375  1.00  0.00    -0.237 OA
ATOM     58  O   UNL A   1      44.770  18.738  24.855  1.00  0.00    -0.237 OA
ATOM     59  O   UNL A   1      44.554  20.756  23.470  1.00  0.00    -0.744 OA
ENDBRANCH  52  56
ENDBRANCH  25  49
BRANCH  37  60
ATOM     60  C   UNL A   1      44.403  26.622  31.357  1.00  0.00     0.023 A 
ATOM     61  C   UNL A   1      43.302  27.409  31.743  1.00  0.00     0.031 A 
ATOM     62  C   UNL A   1      44.881  25.729  32.335  1.00  0.00     0.131 A 
ATOM     63  C   UNL A   1      42.753  27.307  33.039  1.00  0.00     0.055 A 
ATOM     64  C   UNL A   1      44.338  25.619  33.621  1.00  0.00     0.041 A 
ATOM     65  F   UNL A   1      45.909  24.923  32.082  1.00  0.00    -0.206 F 
ATOM     66  C   UNL A   1      43.265  26.416  33.982  1.00  0.00     0.022 A 
BRANCH  63  67
ATOM     67  S   UNL A   1      41.333  28.343  33.482  1.00  0.00     0.124 S 
ATOM     68  O   UNL A   1      41.012  27.887  34.829  1.00  0.00    -0.237 OA
ATOM     69  O   UNL A   1      41.885  29.691  33.377  1.00  0.00    -0.237 OA
ATOM     70  O   UNL A   1      40.336  28.011  32.464  1.00  0.00    -0.744 OA
ENDBRANCH  63  67
ENDBRANCH  37  60
ENDBRANCH  11  12
ENDBRANCH   4   6
ENDBRANCH   1   2
BRANCH   1  71
ATOM     71  C   UNL A   1      34.906  34.461  28.405  1.00  0.00     0.042 C 
BRANCH  71  72
ATOM     72  C   UNL A   1      33.609  34.174  29.160  1.00  0.00     0.118 C 
BRANCH  72  73
ATOM     73  N   UNL A   1      33.039  35.392  29.722  1.00  0.00    -0.352 N 
ATOM     74  C   UNL A   1      32.959  35.779  31.037  1.00  0.00     0.252 C 
ATOM     75  H   UNL A   1      32.662  36.024  29.069  1.00  0.00     0.163 HD
ATOM     76  O   UNL A   1      32.176  36.670  31.351  1.00  0.00    -0.269 OA
BRANCH  74  77
ATOM     77  C   UNL A   1      33.844  35.138  31.993  1.00  0.00     0.057 A 
ATOM     78  C   UNL A   1      33.518  34.089  32.896  1.00  0.00     0.033 A 
ATOM     79  C   UNL A   1      35.202  35.375  32.142  1.00  0.00     0.099 A 
ATOM     80  C   UNL A   1      34.667  33.739  33.563  1.00  0.00     0.087 A 
ATOM     81  N   UNL A   1      35.675  34.574  33.156  1.00  0.00    -0.349 N 
BRANCH  81  82
ATOM     82  C   UNL A   1      37.061  34.510  33.627  1.00  0.00     0.160 C 
BRANCH  82  83
ATOM     83  C   UNL A   1      37.536  33.093  33.871  1.00  0.00     0.009 A 
ATOM     84  C   UNL A   1      37.649  32.564  35.176  1.00  0.00     0.047 A 
ATOM     85  C   UNL A   1      37.879  32.236  32.805  1.00  0.00     0.047 A 
ATOM     86  Cl  UNL A   1      37.109  33.423  36.577  1.00  0.00    -0.084 Cl
ATOM     87  C   UNL A   1      38.142  31.273  35.404  1.00  0.00     0.021 A 
ATOM     88  C   UNL A   1      38.337  30.931  33.035  1.00  0.00     0.021 A 
ATOM     89  Cl  UNL A   1      37.718  32.713  31.147  1.00  0.00    -0.084 Cl
ATOM     90  C   UNL A   1      38.487  30.457  34.334  1.00  0.00     0.003 A 
ENDBRANCH  82  83
ENDBRANCH  81  82
ENDBRANCH  74  77
ENDBRANCH  72  73
ENDBRANCH  71  72
ENDBRANCH   1  71
TORSDOF 15
ENDMDL
MODEL 2
REMARK VINA RESULT:     -11.3      3.477      6.247
REMARK SMILES O=C(NCCCNC(=O)c1ccn(Cc2c(Cl)cccc2Cl)c1)c1ccc(-c2c3nc(c(-c4cc(S(=O)(=O)[O-])ccc4F)c4ccc([nH]4)c(-c4cc(S(=O)(=O)[O-])ccc4F)c4nc(c(-c5cc(S(=O)(=O)[O-])ccc5F)c5ccc2[nH]5)C=C4)C=C3)cc1
REMARK SMILES IDX 4 1 3 2 1 3 2 4 24 6 25 7 86 8 26 9 85 10 27 11 28 12 29 13
REMARK SMILES IDX 79 14 30 15 84 16 78 17 80 18 31 19 83 20 77 21 76 22 32 24
REMARK SMILES IDX 64 25 44 26 63 27 45 28 48 29 62 30 81 31 46 32 47 33 61 35
REMARK SMILES IDX 82 36 49 37 33 38 34 39 42 40 35 41 41 42 43 43 40 44 36 45
REMARK SMILES IDX 37 46 38 47 39 48 65 49 66 50 74 51 67 52 73 53 75 54 72 55
REMARK SMILES IDX 68 56 69 57 70 58 71 59 50 60 51 61 59 62 52 63 58 64 60 65
REMARK SMILES IDX 57 66 53 67 54 68 55 69 56 70 5 71 6 72 7 73 8 74 9 76 10 77
REMARK SMILES IDX 11 78 23 79 12 80 13 81 14 82 15 83 16 84 21 85 17 86 18 87
REMARK SMILES IDX 20 88 22 89 19 90
REMARK H PARENT 3 5 80 23 48 34 7 75
REMARK Flexibility Score: inf
ROOT
ATOM      1  C   UNL A   1      33.870  28.417  26.879  1.00  0.00     0.118 C 
ENDROOT
BRANCH   1   2
ATOM      2  N   UNL A   1      33.816  29.668  27.617  1.00  0.00    -0.352 N 
ATOM      3  O   UNL A   1      34.408  31.529  28.686  1.00  0.00    -0.269 OA
ATOM      4  C   UNL A   1      34.764  30.433  28.249  1.00  0.00     0.251 C 
ATOM      5  H   UNL A   1      32.909  30.045  27.677  1.00  0.00     0.163 HD
BRANCH   4   6
ATOM      6  C   UNL A   1      36.152  29.969  28.500  1.00  0.00     0.039 A 
ATOM      7  C   UNL A   1      36.591  29.451  29.717  1.00  0.00     0.014 A 
ATOM      8  C   UNL A   1      37.063  30.071  27.431  1.00  0.00     0.014 A 
ATOM      9  C   UNL A   1      37.934  29.162  29.911  1.00  0.00     0.010 A 
ATOM     10  C   UNL A   1      38.407  29.745  27.606  1.00  0.00     0.010 A 
ATOM     11  C   UNL A   1      38.843  29.312  28.858  1.00  0.00    -0.014 A 
BRANCH  11  12
ATOM     12  C   UNL A   1      40.207  28.790  29.093  1.00  0.00     0.031 A 
ATOM     13  C   UNL A   1      41.172  29.960  29.461  1.00  0.00     0.074 A 
ATOM     14  C   UNL A   1      40.389  27.457  28.819  1.00  0.00     0.049 A 
ATOM     15  N   UNL A   1      42.426  30.152  29.185  1.00  0.00    -0.248 NA
ATOM     16  C   UNL A   1      40.607  31.158  30.155  1.00  0.00     0.031 C 
ATOM     17  C   UNL A   1      39.310  26.480  28.508  1.00  0.00     0.029 A 
ATOM     18  N   UNL A   1      41.497  26.643  28.724  1.00  0.00    -0.354 N 
ATOM     19  C   UNL A   1      42.849  31.329  29.864  1.00  0.00     0.074 A 
ATOM     20  C   UNL A   1      41.654  31.970  30.317  1.00  0.00     0.031 C 
ATOM     21  C   UNL A   1      39.820  25.269  28.167  1.00  0.00     0.029 A 
ATOM     22  C   UNL A   1      41.267  25.322  28.224  1.00  0.00     0.049 A 
ATOM     23  H   UNL A   1      42.395  26.952  28.985  1.00  0.00     0.167 HD
ATOM     24  C   UNL A   1      44.161  31.632  30.118  1.00  0.00     0.034 A 
ATOM     25  C   UNL A   1      42.187  24.378  27.835  1.00  0.00     0.034 A 
ATOM     26  C   UNL A   1      44.996  30.636  29.541  1.00  0.00     0.049 A 
ATOM     27  C   UNL A   1      43.472  25.008  28.174  1.00  0.00     0.074 A 
ATOM     28  C   UNL A   1      45.372  30.383  28.252  1.00  0.00     0.029 A 
ATOM     29  N   UNL A   1      45.301  29.548  30.324  1.00  0.00    -0.354 N 
ATOM     30  N   UNL A   1      43.930  25.153  29.378  1.00  0.00    -0.248 NA
ATOM     31  C   UNL A   1      44.264  25.609  27.094  1.00  0.00     0.031 C 
ATOM     32  C   UNL A   1      45.393  28.975  28.205  1.00  0.00     0.029 A 
ATOM     33  C   UNL A   1      45.264  28.452  29.500  1.00  0.00     0.049 A 
ATOM     34  H   UNL A   1      45.507  29.555  31.287  1.00  0.00     0.167 HD
ATOM     35  C   UNL A   1      44.887  26.121  29.223  1.00  0.00     0.074 A 
ATOM     36  C   UNL A   1      45.257  26.109  27.824  1.00  0.00     0.031 C 
ATOM     37  C   UNL A   1      44.938  27.169  30.084  1.00  0.00     0.034 A 
BRANCH  24  38
ATOM     38  C   UNL A   1      44.857  32.645  31.000  1.00  0.00     0.023 A 
ATOM     39  C   UNL A   1      44.868  32.375  32.398  1.00  0.00     0.031 A 
ATOM     40  C   UNL A   1      45.221  33.943  30.625  1.00  0.00     0.131 A 
ATOM     41  C   UNL A   1      45.098  33.379  33.348  1.00  0.00     0.055 A 
ATOM     42  C   UNL A   1      45.510  34.936  31.578  1.00  0.00     0.041 A 
ATOM     43  F   UNL A   1      45.233  34.323  29.341  1.00  0.00    -0.206 F 
ATOM     44  C   UNL A   1      45.415  34.670  32.944  1.00  0.00     0.022 A 
BRANCH  41  45
ATOM     45  S   UNL A   1      44.807  32.998  35.102  1.00  0.00     0.124 S 
ATOM     46  O   UNL A   1      44.856  34.317  35.722  1.00  0.00    -0.237 OA
ATOM     47  O   UNL A   1      43.495  32.359  35.062  1.00  0.00    -0.237 OA
ATOM     48  O   UNL A   1      45.917  32.110  35.446  1.00  0.00    -0.744 OA
ENDBRANCH  41  45
ENDBRANCH  24  38
BRANCH  25  49
ATOM     49  C   UNL A   1      42.299  23.029  27.118  1.00  0.00     0.023 A 
ATOM     50  C   UNL A   1      43.397  22.529  26.396  1.00  0.00     0.031 A 
ATOM     51  C   UNL A   1      41.207  22.102  27.233  1.00  0.00     0.131 A 
ATOM     52  C   UNL A   1      43.399  21.173  25.932  1.00  0.00     0.055 A 
ATOM     53  C   UNL A   1      41.251  20.759  26.861  1.00  0.00     0.041 A 
ATOM     54  F   UNL A   1      40.014  22.458  27.730  1.00  0.00    -0.206 F 
ATOM     55  C   UNL A   1      42.364  20.279  26.219  1.00  0.00     0.022 A 
BRANCH  52  56
ATOM     56  S   UNL A   1      44.779  20.499  24.952  1.00  0.00     0.124 S 
ATOM     57  O   UNL A   1      44.590  19.062  25.112  1.00  0.00    -0.237 OA
ATOM     58  O   UNL A   1      44.526  21.044  23.622  1.00  0.00    -0.237 OA
ATOM     59  O   UNL A   1      45.962  21.046  25.616  1.00  0.00    -0.744 OA
ENDBRANCH  52  56
ENDBRANCH  25  49
BRANCH  37  60
ATOM     60  C   UNL A   1      44.258  26.921  31.434  1.00  0.00     0.023 A 
ATOM     61  C   UNL A   1      43.130  27.674  31.806  1.00  0.00     0.031 A 
ATOM     62  C   UNL A   1      44.754  26.045  32.418  1.00  0.00     0.131 A 
ATOM     63  C   UNL A   1      42.572  27.560  33.097  1.00  0.00     0.055 A 
ATOM     64  C   UNL A   1      44.201  25.923  33.700  1.00  0.00     0.041 A 
ATOM     65  F   UNL A   1      45.808  25.270  32.178  1.00  0.00    -0.206 F 
ATOM     66  C   UNL A   1      43.101  26.688  34.048  1.00  0.00     0.022 A 
BRANCH  63  67
ATOM     67  S   UNL A   1      41.117  28.553  33.523  1.00  0.00     0.124 S 
ATOM     68  O   UNL A   1      41.607  29.919  33.376  1.00  0.00    -0.237 OA
ATOM     69  O   UNL A   1      40.138  28.115  32.532  1.00  0.00    -0.237 OA
ATOM     70  O   UNL A   1      40.816  28.150  34.897  1.00  0.00    -0.744 OA
ENDBRANCH  63  67
ENDBRANCH  37  60
ENDBRANCH  11  12
ENDBRANCH   4   6
ENDBRANCH   1   2
BRANCH   1  71
ATOM     71  C   UNL A   1      33.919  28.555  25.358  1.00  0.00     0.042 C 
BRANCH  71  72
ATOM     72  C   UNL A   1      32.654  28.059  24.657  1.00  0.00     0.118 C 
BRANCH  72  73
ATOM     73  N   UNL A   1      32.925  27.676  23.278  1.00  0.00    -0.352 N 
ATOM     74  C   UNL A   1      33.412  26.486  22.794  1.00  0.00     0.252 C 
ATOM     75  H   UNL A   1      32.732  28.363  22.601  1.00  0.00     0.163 HD
ATOM     76  O   UNL A   1      33.873  26.447  21.658  1.00  0.00    -0.269 OA
BRANCH  74  77
ATOM     77  C   UNL A   1      33.315  25.313  23.644  1.00  0.00     0.057 A 
ATOM     78  C   UNL A   1      32.332  24.287  23.584  1.00  0.00     0.033 A 
ATOM     79  C   UNL A   1      34.221  24.930  24.622  1.00  0.00     0.099 A 
ATOM     80  C   UNL A   1      32.659  23.338  24.522  1.00  0.00     0.087 A 
ATOM     81  N   UNL A   1      33.768  23.768  25.204  1.00  0.00    -0.349 N 
BRANCH  81  82
ATOM     82  C   UNL A   1      34.436  23.025  26.275  1.00  0.00     0.160 C 
BRANCH  82  83
ATOM     83  C   UNL A   1      35.512  22.092  25.763  1.00  0.00     0.009 A 
ATOM     84  C   UNL A   1      36.857  22.508  25.643  1.00  0.00     0.047 A 
ATOM     85  C   UNL A   1      35.222  20.764  25.391  1.00  0.00     0.047 A 
ATOM     86  Cl  UNL A   1      37.410  24.045  26.214  1.00  0.00    -0.084 Cl
ATOM     87  C   UNL A   1      37.842  21.663  25.115  1.00  0.00     0.021 A 
ATOM     88  C   UNL A   1      36.218  19.908  24.898  1.00  0.00     0.021 A 
ATOM     89  Cl  UNL A   1      33.637  20.083  25.556  1.00  0.00    -0.084 Cl
ATOM     90  C   UNL A   1      37.522  20.363  24.742  1.00  0.00     0.003 A 
ENDBRANCH  82  83
ENDBRANCH  81  82
ENDBRANCH  74  77
ENDBRANCH  72  73
ENDBRANCH  71  72
ENDBRANCH   1  71
TORSDOF 15
ENDMDL
MODEL 3
REMARK VINA RESULT:     -11.1      4.397      6.458
REMARK SMILES O=C(NCCCNC(=O)c1ccn(Cc2c(Cl)cccc2Cl)c1)c1ccc(-c2c3nc(c(-c4cc(S(=O)(=O)[O-])ccc4F)c4ccc([nH]4)c(-c4cc(S(=O)(=O)[O-])ccc4F)c4nc(c(-c5cc(S(=O)(=O)[O-])ccc5F)c5ccc2[nH]5)C=C4)C=C3)cc1
REMARK SMILES IDX 4 1 3 2 1 3 2 4 24 6 25 7 86 8 26 9 85 10 27 11 28 12 29 13
REMARK SMILES IDX 79 14 30 15 84 16 78 17 80 18 31 19 83 20 77 21 76 22 32 24
REMARK SMILES IDX 64 25 44 26 63 27 45 28 48 29 62 30 81 31 46 32 47 33 61 35
REMARK SMILES IDX 82 36 49 37 33 38 34 39 42 40 35 41 41 42 43 43 40 44 36 45
REMARK SMILES IDX 37 46 38 47 39 48 65 49 66 50 74 51 67 52 73 53 75 54 72 55
REMARK SMILES IDX 68 56 69 57 70 58 71 59 50 60 51 61 59 62 52 63 58 64 60 65
REMARK SMILES IDX 57 66 53 67 54 68 55 69 56 70 5 71 6 72 7 73 8 74 9 76 10 77
REMARK SMILES IDX 11 78 23 79 12 80 13 81 14 82 15 83 16 84 21 85 17 86 18 87
REMARK SMILES IDX 20 88 22 89 19 90
REMARK H PARENT 3 5 80 23 48 34 7 75
REMARK Flexibility Score: inf
ROOT
ATOM      1  C   UNL A   1      35.125  29.006  27.171  1.00  0.00     0.118 C 
ENDROOT
BRANCH   1   2
ATOM      2  N   UNL A   1      35.264  29.701  28.439  1.00  0.00    -0.352 N 
ATOM      3  O   UNL A   1      36.129  30.764  30.194  1.00  0.00    -0.269 OA
ATOM      4  C   UNL A   1      36.343  30.053  29.211  1.00  0.00     0.251 C 
ATOM      5  H   UNL A   1      34.402  29.977  28.827  1.00  0.00     0.163 HD
BRANCH   4   6
ATOM      6  C   UNL A   1      37.718  29.553  28.964  1.00  0.00     0.039 A 
ATOM      7  C   UNL A   1      38.381  29.666  27.742  1.00  0.00     0.014 A 
ATOM      8  C   UNL A   1      38.374  28.926  30.042  1.00  0.00     0.014 A 
ATOM      9  C   UNL A   1      39.612  29.057  27.555  1.00  0.00     0.010 A 
ATOM     10  C   UNL A   1      39.630  28.347  29.873  1.00  0.00     0.010 A 
ATOM     11  C   UNL A   1      40.236  28.394  28.617  1.00  0.00    -0.014 A 
BRANCH  11  12
ATOM     12  C   UNL A   1      41.630  27.954  28.385  1.00  0.00     0.031 A 
ATOM     13  C   UNL A   1      42.573  29.194  28.294  1.00  0.00     0.074 A 
ATOM     14  C   UNL A   1      41.800  26.610  28.164  1.00  0.00     0.049 A 
ATOM     15  N   UNL A   1      43.631  29.411  27.571  1.00  0.00    -0.248 NA
ATOM     16  C   UNL A   1      42.205  30.428  29.052  1.00  0.00     0.031 C 
ATOM     17  C   UNL A   1      40.756  25.563  28.334  1.00  0.00     0.029 A 
ATOM     18  N   UNL A   1      42.860  25.838  27.738  1.00  0.00    -0.354 N 
ATOM     19  C   UNL A   1      44.179  30.664  27.964  1.00  0.00     0.074 A 
ATOM     20  C   UNL A   1      43.179  31.295  28.767  1.00  0.00     0.031 C 
ATOM     21  C   UNL A   1      41.200  24.348  27.925  1.00  0.00     0.029 A 
ATOM     22  C   UNL A   1      42.565  24.467  27.454  1.00  0.00     0.049 A 
ATOM     23  H   UNL A   1      43.767  26.209  27.635  1.00  0.00     0.167 HD
ATOM     24  C   UNL A   1      45.470  31.046  27.707  1.00  0.00     0.034 A 
ATOM     25  C   UNL A   1      43.355  23.529  26.832  1.00  0.00     0.034 A 
ATOM     26  C   UNL A   1      46.117  30.034  26.945  1.00  0.00     0.049 A 
ATOM     27  C   UNL A   1      44.626  24.242  26.639  1.00  0.00     0.074 A 
ATOM     28  C   UNL A   1      46.031  29.675  25.629  1.00  0.00     0.029 A 
ATOM     29  N   UNL A   1      46.759  29.041  27.644  1.00  0.00    -0.354 N 
ATOM     30  N   UNL A   1      45.469  24.521  27.584  1.00  0.00    -0.248 NA
ATOM     31  C   UNL A   1      44.938  24.770  25.306  1.00  0.00     0.031 C 
ATOM     32  C   UNL A   1      46.137  28.271  25.683  1.00  0.00     0.029 A 
ATOM     33  C   UNL A   1      46.513  27.870  26.972  1.00  0.00     0.049 A 
ATOM     34  H   UNL A   1      47.291  29.148  28.466  1.00  0.00     0.167 HD
ATOM     35  C   UNL A   1      46.235  25.510  27.024  1.00  0.00     0.074 A 
ATOM     36  C   UNL A   1      46.086  25.379  25.591  1.00  0.00     0.031 C 
ATOM     37  C   UNL A   1      46.511  26.636  27.728  1.00  0.00     0.034 A 
BRANCH  24  38
ATOM     38  C   UNL A   1      46.356  32.167  28.202  1.00  0.00     0.023 A 
ATOM     39  C   UNL A   1      46.792  33.113  27.233  1.00  0.00     0.031 A 
ATOM     40  C   UNL A   1      47.022  32.199  29.432  1.00  0.00     0.131 A 
ATOM     41  C   UNL A   1      47.907  33.936  27.445  1.00  0.00     0.055 A 
ATOM     42  C   UNL A   1      48.104  33.068  29.666  1.00  0.00     0.041 A 
ATOM     43  F   UNL A   1      46.714  31.348  30.418  1.00  0.00    -0.206 F 
ATOM     44  C   UNL A   1      48.575  33.915  28.662  1.00  0.00     0.022 A 
BRANCH  41  45
ATOM     45  S   UNL A   1      48.555  34.899  26.044  1.00  0.00     0.124 S 
ATOM     46  O   UNL A   1      49.843  34.261  25.795  1.00  0.00    -0.237 OA
ATOM     47  O   UNL A   1      47.530  34.684  25.027  1.00  0.00    -0.237 OA
ATOM     48  O   UNL A   1      48.628  36.260  26.571  1.00  0.00    -0.744 OA
ENDBRANCH  41  45
ENDBRANCH  24  38
BRANCH  25  49
ATOM     49  C   UNL A   1      43.305  22.124  26.225  1.00  0.00     0.023 A 
ATOM     50  C   UNL A   1      44.362  21.400  25.645  1.00  0.00     0.031 A 
ATOM     51  C   UNL A   1      42.072  21.390  26.303  1.00  0.00     0.131 A 
ATOM     52  C   UNL A   1      44.182  20.027  25.281  1.00  0.00     0.055 A 
ATOM     53  C   UNL A   1      41.928  20.030  26.033  1.00  0.00     0.041 A 
ATOM     54  F   UNL A   1      40.916  21.967  26.660  1.00  0.00    -0.206 F 
ATOM     55  C   UNL A   1      42.996  19.331  25.532  1.00  0.00     0.022 A 
BRANCH  52  56
ATOM     56  S   UNL A   1      45.509  19.066  24.484  1.00  0.00     0.124 S 
ATOM     57  O   UNL A   1      44.967  18.851  23.147  1.00  0.00    -0.237 OA
ATOM     58  O   UNL A   1      46.658  19.960  24.583  1.00  0.00    -0.237 OA
ATOM     59  O   UNL A   1      45.603  17.866  25.315  1.00  0.00    -0.744 OA
ENDBRANCH  52  56
ENDBRANCH  25  49
BRANCH  37  60
ATOM     60  C   UNL A   1      46.373  26.490  29.247  1.00  0.00     0.023 A 
ATOM     61  C   UNL A   1      45.331  27.146  29.928  1.00  0.00     0.031 A 
ATOM     62  C   UNL A   1      47.303  25.820  30.063  1.00  0.00     0.131 A 
ATOM     63  C   UNL A   1      45.265  27.138  31.338  1.00  0.00     0.055 A 
ATOM     64  C   UNL A   1      47.240  25.803  31.463  1.00  0.00     0.041 A 
ATOM     65  F   UNL A   1      48.324  25.152  29.533  1.00  0.00    -0.206 F 
ATOM     66  C   UNL A   1      46.214  26.470  32.110  1.00  0.00     0.022 A 
BRANCH  63  67
ATOM     67  S   UNL A   1      43.899  27.997  32.164  1.00  0.00     0.124 S 
ATOM     68  O   UNL A   1      42.725  27.449  31.496  1.00  0.00    -0.237 OA
ATOM     69  O   UNL A   1      44.082  27.607  33.559  1.00  0.00    -0.237 OA
ATOM     70  O   UNL A   1      44.165  29.409  31.886  1.00  0.00    -0.744 OA
ENDBRANCH  63  67
ENDBRANCH  37  60
ENDBRANCH  11  12
ENDBRANCH   4   6
ENDBRANCH   1   2
BRANCH   1  71
ATOM     71  C   UNL A   1      33.732  28.451  26.876  1.00  0.00     0.042 C 
BRANCH  71  72
ATOM     72  C   UNL A   1      32.799  29.462  26.211  1.00  0.00     0.118 C 
BRANCH  72  73
ATOM     73  N   UNL A   1      33.164  29.689  24.819  1.00  0.00    -0.352 N 
ATOM     74  C   UNL A   1      33.174  28.797  23.774  1.00  0.00     0.252 C 
ATOM     75  H   UNL A   1      33.441  30.606  24.597  1.00  0.00     0.163 HD
ATOM     76  O   UNL A   1      33.804  29.074  22.758  1.00  0.00    -0.269 OA
BRANCH  74  77
ATOM     77  C   UNL A   1      32.396  27.579  23.908  1.00  0.00     0.057 A 
ATOM     78  C   UNL A   1      30.982  27.471  24.025  1.00  0.00     0.033 A 
ATOM     79  C   UNL A   1      32.884  26.282  23.861  1.00  0.00     0.099 A 
ATOM     80  C   UNL A   1      30.665  26.135  24.060  1.00  0.00     0.087 A 
ATOM     81  N   UNL A   1      31.830  25.413  24.035  1.00  0.00    -0.349 N 
BRANCH  81  82
ATOM     82  C   UNL A   1      31.913  23.951  24.041  1.00  0.00     0.160 C 
BRANCH  82  83
ATOM     83  C   UNL A   1      32.691  23.410  25.221  1.00  0.00     0.009 A 
ATOM     84  C   UNL A   1      32.079  23.196  26.477  1.00  0.00     0.047 A 
ATOM     85  C   UNL A   1      34.060  23.088  25.118  1.00  0.00     0.047 A 
ATOM     86  Cl  UNL A   1      30.376  23.378  26.724  1.00  0.00    -0.084 Cl
ATOM     87  C   UNL A   1      32.812  22.749  27.584  1.00  0.00     0.021 A 
ATOM     88  C   UNL A   1      34.782  22.605  26.219  1.00  0.00     0.021 A 
ATOM     89  Cl  UNL A   1      34.931  23.221  23.627  1.00  0.00    -0.084 Cl
ATOM     90  C   UNL A   1      34.163  22.455  27.455  1.00  0.00     0.003 A 
ENDBRANCH  82  83
ENDBRANCH  81  82
ENDBRANCH  74  77
ENDBRANCH  72  73
ENDBRANCH  71  72
ENDBRANCH   1  71
TORSDOF 15
ENDMDL
