MODEL 1
REMARK VINA RESULT:     -12.3      0.000      0.000
REMARK SMILES CS(=O)(=O)[C@@H]1CCC[C@@H](Sc2ccc(C(=O)NCCCNC(=O)c3ccc(-c4c5nc(c(-c6cc(S(=O)(=O)[O-])ccc6F)c6ccc([nH]6)c(-c6cc(S(=O)(=O)[O-])ccc6F)c6nc(c(-c7cc(S(=O)(=O)[O-])ccc7F)c7ccc4[nH]7)C=C6)C=C5)cc3)cn2)C1
REMARK SMILES IDX 19 1 18 2 17 3 15 4 16 5 14 7 11 8 12 9 88 10 13 11 87 12
REMARK SMILES IDX 10 13 9 14 5 15 6 16 89 17 7 18 8 19 2 20 1 21 3 22 4 23
REMARK SMILES IDX 20 24 21 25 22 26 23 28 24 29 25 30 86 31 26 32 85 33 27 34
REMARK SMILES IDX 28 35 29 36 79 37 30 38 84 39 78 40 80 41 31 42 83 43 77 44
REMARK SMILES IDX 76 45 32 47 64 48 44 49 63 50 45 51 48 52 62 53 81 54 46 55
REMARK SMILES IDX 47 56 61 58 82 59 49 60 33 61 34 62 42 63 35 64 41 65 43 66
REMARK SMILES IDX 40 67 36 68 37 69 38 70 39 71 65 72 66 73 74 74 67 75 73 76
REMARK SMILES IDX 75 77 72 78 68 79 69 80 70 81 71 82 50 83 51 84 59 85 52 86
REMARK SMILES IDX 58 87 60 88 57 89 53 90 54 91 55 92 56 93
REMARK H PARENT 17 6 21 27 80 46 48 57
REMARK Flexibility Score: inf
ROOT
ATOM      1  C   UNL A   1      35.588  21.561  25.922  1.00  0.00     0.042 C 
ENDROOT
BRANCH   1   2
ATOM      2  C   UNL A   1      35.439  20.354  24.984  1.00  0.00     0.118 C 
BRANCH   2   3
ATOM      3  N   UNL A   1      34.252  19.555  25.292  1.00  0.00    -0.352 N 
ATOM      4  C   UNL A   1      32.891  19.757  25.170  1.00  0.00     0.252 C 
ATOM      5  O   UNL A   1      32.142  18.815  25.419  1.00  0.00    -0.269 OA
ATOM      6  H   UNL A   1      34.475  18.674  25.670  1.00  0.00     0.163 HD
BRANCH   4   7
ATOM      7  C   UNL A   1      32.290  21.037  24.734  1.00  0.00     0.058 A 
ATOM      8  C   UNL A   1      31.046  23.420  23.953  1.00  0.00     0.096 A 
ATOM      9  C   UNL A   1      31.619  22.570  23.058  1.00  0.00     0.036 A 
ATOM     10  N   UNL A   1      31.024  23.082  25.257  1.00  0.00    -0.249 NA
ATOM     11  C   UNL A   1      32.354  21.471  23.439  1.00  0.00     0.018 A 
ATOM     12  C   UNL A   1      31.609  21.882  25.613  1.00  0.00     0.126 A 
BRANCH   8  13
ATOM     13  S   UNL A   1      30.409  24.988  23.390  1.00  0.00    -0.103 SA
BRANCH  13  14
ATOM     14  C   UNL A   1      31.781  26.315  23.485  1.00  0.00     0.054 C 
ATOM     15  C   UNL A   1      32.385  27.086  25.870  1.00  0.00     0.109 C 
ATOM     16  C   UNL A   1      33.846  26.646  25.666  1.00  0.00     0.020 C 
ATOM     17  C   UNL A   1      31.684  27.421  24.556  1.00  0.00     0.034 C 
ATOM     18  C   UNL A   1      34.141  25.705  24.485  1.00  0.00     0.002 C 
ATOM     19  C   UNL A   1      33.229  25.839  23.259  1.00  0.00     0.015 C 
BRANCH  15  20
ATOM     20  S   UNL A   1      32.244  28.378  27.117  1.00  0.00     0.150 S 
ATOM     21  C   UNL A   1      31.774  29.799  26.138  1.00  0.00     0.158 C 
ATOM     22  O   UNL A   1      33.572  28.645  27.638  1.00  0.00    -0.229 OA
ATOM     23  O   UNL A   1      31.148  28.056  28.002  1.00  0.00    -0.229 OA
ENDBRANCH  15  20
ENDBRANCH  13  14
ENDBRANCH   8  13
ENDBRANCH   4   7
ENDBRANCH   2   3
ENDBRANCH   1   2
BRANCH   1  24
ATOM     24  C   UNL A   1      36.950  22.241  25.790  1.00  0.00     0.118 C 
BRANCH  24  25
ATOM     25  N   UNL A   1      38.034  21.312  26.076  1.00  0.00    -0.352 N 
ATOM     26  C   UNL A   1      39.334  21.535  26.443  1.00  0.00     0.251 C 
ATOM     27  H   UNL A   1      37.790  20.361  25.992  1.00  0.00     0.163 HD
ATOM     28  O   UNL A   1      40.121  20.592  26.396  1.00  0.00    -0.269 OA
BRANCH  26  29
ATOM     29  C   UNL A   1      39.798  22.872  26.879  1.00  0.00     0.039 A 
ATOM     30  C   UNL A   1      39.390  23.989  26.143  1.00  0.00     0.014 A 
ATOM     31  C   UNL A   1      40.686  23.033  27.945  1.00  0.00     0.014 A 
ATOM     32  C   UNL A   1      39.856  25.259  26.486  1.00  0.00     0.010 A 
ATOM     33  C   UNL A   1      41.081  24.309  28.340  1.00  0.00     0.010 A 
ATOM     34  C   UNL A   1      40.694  25.434  27.598  1.00  0.00    -0.014 A 
BRANCH  34  35
ATOM     35  C   UNL A   1      41.220  26.777  27.957  1.00  0.00     0.031 A 
ATOM     36  C   UNL A   1      42.646  27.138  27.629  1.00  0.00     0.074 A 
ATOM     37  C   UNL A   1      40.428  27.658  28.598  1.00  0.00     0.049 A 
ATOM     38  N   UNL A   1      43.307  28.235  27.899  1.00  0.00    -0.248 NA
ATOM     39  C   UNL A   1      43.442  26.116  26.932  1.00  0.00     0.031 C 
ATOM     40  C   UNL A   1      39.039  27.411  28.994  1.00  0.00     0.029 A 
ATOM     41  N   UNL A   1      40.672  28.937  29.032  1.00  0.00    -0.354 N 
ATOM     42  C   UNL A   1      44.597  28.029  27.418  1.00  0.00     0.074 A 
ATOM     43  C   UNL A   1      44.642  26.677  26.907  1.00  0.00     0.031 C 
ATOM     44  C   UNL A   1      38.545  28.514  29.580  1.00  0.00     0.029 A 
ATOM     45  C   UNL A   1      39.594  29.528  29.649  1.00  0.00     0.049 A 
ATOM     46  H   UNL A   1      41.538  29.389  28.912  1.00  0.00     0.167 HD
ATOM     47  C   UNL A   1      45.637  28.898  27.379  1.00  0.00     0.034 A 
ATOM     48  C   UNL A   1      39.467  30.744  30.215  1.00  0.00     0.034 A 
ATOM     49  C   UNL A   1      45.569  30.248  27.883  1.00  0.00     0.049 A 
ATOM     50  C   UNL A   1      40.648  31.683  30.188  1.00  0.00     0.074 A 
ATOM     51  C   UNL A   1      46.546  31.228  27.860  1.00  0.00     0.029 A 
ATOM     52  N   UNL A   1      44.461  30.810  28.508  1.00  0.00    -0.354 N 
ATOM     53  N   UNL A   1      41.849  31.488  29.692  1.00  0.00    -0.248 NA
ATOM     54  C   UNL A   1      40.451  33.010  30.782  1.00  0.00     0.031 C 
ATOM     55  C   UNL A   1      46.059  32.350  28.537  1.00  0.00     0.029 A 
ATOM     56  C   UNL A   1      44.743  32.110  28.899  1.00  0.00     0.049 A 
ATOM     57  H   UNL A   1      43.602  30.351  28.650  1.00  0.00     0.167 HD
ATOM     58  C   UNL A   1      42.534  32.686  29.877  1.00  0.00     0.074 A 
ATOM     59  C   UNL A   1      41.609  33.598  30.517  1.00  0.00     0.031 C 
ATOM     60  C   UNL A   1      43.810  33.008  29.540  1.00  0.00     0.034 A 
BRANCH  47  61
ATOM     61  C   UNL A   1      46.942  28.399  26.797  1.00  0.00     0.023 A 
ATOM     62  C   UNL A   1      47.163  28.354  25.409  1.00  0.00     0.031 A 
ATOM     63  C   UNL A   1      47.966  27.932  27.639  1.00  0.00     0.131 A 
ATOM     64  C   UNL A   1      48.339  27.777  24.904  1.00  0.00     0.055 A 
ATOM     65  C   UNL A   1      49.174  27.447  27.132  1.00  0.00     0.041 A 
ATOM     66  F   UNL A   1      47.808  27.926  28.972  1.00  0.00    -0.206 F 
ATOM     67  C   UNL A   1      49.359  27.350  25.756  1.00  0.00     0.022 A 
BRANCH  64  68
ATOM     68  S   UNL A   1      48.443  27.445  23.124  1.00  0.00     0.124 S 
ATOM     69  O   UNL A   1      47.283  28.177  22.620  1.00  0.00    -0.237 OA
ATOM     70  O   UNL A   1      49.747  27.995  22.776  1.00  0.00    -0.237 OA
ATOM     71  O   UNL A   1      48.336  25.990  23.040  1.00  0.00    -0.744 OA
ENDBRANCH  64  68
ENDBRANCH  47  61
BRANCH  48  72
ATOM     72  C   UNL A   1      38.182  31.152  30.857  1.00  0.00     0.023 A 
ATOM     73  C   UNL A   1      37.179  31.802  30.122  1.00  0.00     0.031 A 
ATOM     74  C   UNL A   1      37.959  30.940  32.230  1.00  0.00     0.131 A 
ATOM     75  C   UNL A   1      36.024  32.268  30.771  1.00  0.00     0.055 A 
ATOM     76  C   UNL A   1      36.782  31.349  32.858  1.00  0.00     0.041 A 
ATOM     77  F   UNL A   1      38.883  30.320  32.980  1.00  0.00    -0.206 F 
ATOM     78  C   UNL A   1      35.812  32.032  32.131  1.00  0.00     0.022 A 
BRANCH  75  79
ATOM     79  S   UNL A   1      34.848  33.280  29.830  1.00  0.00     0.124 S 
ATOM     80  O   UNL A   1      35.741  34.197  29.130  1.00  0.00    -0.237 OA
ATOM     81  O   UNL A   1      34.181  32.279  29.006  1.00  0.00    -0.237 OA
ATOM     82  O   UNL A   1      34.017  33.887  30.868  1.00  0.00    -0.744 OA
ENDBRANCH  75  79
ENDBRANCH  48  72
BRANCH  60  83
ATOM     83  C   UNL A   1      44.255  34.429  29.799  1.00  0.00     0.023 A 
ATOM     84  C   UNL A   1      44.041  35.460  28.868  1.00  0.00     0.031 A 
ATOM     85  C   UNL A   1      44.919  34.748  30.997  1.00  0.00     0.131 A 
ATOM     86  C   UNL A   1      44.547  36.745  29.121  1.00  0.00     0.055 A 
ATOM     87  C   UNL A   1      45.354  36.046  31.276  1.00  0.00     0.041 A 
ATOM     88  F   UNL A   1      45.156  33.804  31.922  1.00  0.00    -0.206 F 
ATOM     89  C   UNL A   1      45.182  37.049  30.327  1.00  0.00     0.022 A 
BRANCH  86  90
ATOM     90  S   UNL A   1      44.465  37.987  27.801  1.00  0.00     0.124 S 
ATOM     91  O   UNL A   1      45.859  38.067  27.375  1.00  0.00    -0.237 OA
ATOM     92  O   UNL A   1      43.543  37.372  26.852  1.00  0.00    -0.237 OA
ATOM     93  O   UNL A   1      43.956  39.176  28.481  1.00  0.00    -0.744 OA
ENDBRANCH  86  90
ENDBRANCH  60  83
ENDBRANCH  34  35
ENDBRANCH  26  29
ENDBRANCH  24  25
ENDBRANCH   1  24
TORSDOF 16
ENDMDL
MODEL 2
REMARK VINA RESULT:     -12.0      4.803      9.773
REMARK SMILES CS(=O)(=O)[C@@H]1CCC[C@@H](Sc2ccc(C(=O)NCCCNC(=O)c3ccc(-c4c5nc(c(-c6cc(S(=O)(=O)[O-])ccc6F)c6ccc([nH]6)c(-c6cc(S(=O)(=O)[O-])ccc6F)c6nc(c(-c7cc(S(=O)(=O)[O-])ccc7F)c7ccc4[nH]7)C=C6)C=C5)cc3)cn2)C1
REMARK SMILES IDX 19 1 18 2 17 3 15 4 16 5 14 7 11 8 12 9 88 10 13 11 87 12
REMARK SMILES IDX 10 13 9 14 5 15 6 16 89 17 7 18 8 19 2 20 1 21 3 22 4 23
REMARK SMILES IDX 20 24 21 25 22 26 23 28 24 29 25 30 86 31 26 32 85 33 27 34
REMARK SMILES IDX 28 35 29 36 79 37 30 38 84 39 78 40 80 41 31 42 83 43 77 44
REMARK SMILES IDX 76 45 32 47 64 48 44 49 63 50 45 51 48 52 62 53 81 54 46 55
REMARK SMILES IDX 47 56 61 58 82 59 49 60 33 61 34 62 42 63 35 64 41 65 43 66
REMARK SMILES IDX 40 67 36 68 37 69 38 70 39 71 65 72 66 73 74 74 67 75 73 76
REMARK SMILES IDX 75 77 72 78 68 79 69 80 70 81 71 82 50 83 51 84 59 85 52 86
REMARK SMILES IDX 58 87 60 88 57 89 53 90 54 91 55 92 56 93
REMARK H PARENT 17 6 21 27 80 46 48 57
REMARK Flexibility Score: inf
ROOT
ATOM      1  C   UNL A   1      33.071  28.831  24.930  1.00  0.00     0.042 C 
ENDROOT
BRANCH   1   2
ATOM      2  C   UNL A   1      31.760  29.628  24.998  1.00  0.00     0.118 C 
BRANCH   2   3
ATOM      3  N   UNL A   1      31.111  29.742  23.692  1.00  0.00    -0.352 N 
ATOM      4  C   UNL A   1      30.613  28.835  22.776  1.00  0.00     0.252 C 
ATOM      5  O   UNL A   1      30.008  29.272  21.800  1.00  0.00    -0.269 OA
ATOM      6  H   UNL A   1      31.004  30.676  23.400  1.00  0.00     0.163 HD
BRANCH   4   7
ATOM      7  C   UNL A   1      30.750  27.369  22.921  1.00  0.00     0.058 A 
ATOM      8  C   UNL A   1      30.986  24.583  23.074  1.00  0.00     0.096 A 
ATOM      9  C   UNL A   1      30.021  25.271  23.743  1.00  0.00     0.036 A 
ATOM     10  N   UNL A   1      31.828  25.256  22.263  1.00  0.00    -0.249 NA
ATOM     11  C   UNL A   1      29.980  26.645  23.788  1.00  0.00     0.018 A 
ATOM     12  C   UNL A   1      31.665  26.625  22.173  1.00  0.00     0.126 A 
BRANCH   8  13
ATOM     13  S   UNL A   1      31.162  22.830  23.344  1.00  0.00    -0.103 SA
BRANCH  13  14
ATOM     14  C   UNL A   1      32.318  22.518  24.835  1.00  0.00     0.054 C 
ATOM     15  C   UNL A   1      34.774  23.209  24.469  1.00  0.00     0.109 C 
ATOM     16  C   UNL A   1      34.704  24.175  25.666  1.00  0.00     0.020 C 
ATOM     17  C   UNL A   1      33.770  22.066  24.578  1.00  0.00     0.034 C 
ATOM     18  C   UNL A   1      33.306  24.552  26.187  1.00  0.00     0.002 C 
ATOM     19  C   UNL A   1      32.206  23.496  26.020  1.00  0.00     0.015 C 
BRANCH  15  20
ATOM     20  S   UNL A   1      36.461  22.664  24.149  1.00  0.00     0.150 S 
ATOM     21  C   UNL A   1      37.407  23.673  25.282  1.00  0.00     0.158 C 
ATOM     22  O   UNL A   1      36.822  23.087  22.807  1.00  0.00    -0.229 OA
ATOM     23  O   UNL A   1      36.591  21.283  24.554  1.00  0.00    -0.229 OA
ENDBRANCH  15  20
ENDBRANCH  13  14
ENDBRANCH   8  13
ENDBRANCH   4   7
ENDBRANCH   2   3
ENDBRANCH   1   2
BRANCH   1  24
ATOM     24  C   UNL A   1      33.967  29.072  26.143  1.00  0.00     0.118 C 
BRANCH  24  25
ATOM     25  N   UNL A   1      33.770  30.408  26.689  1.00  0.00    -0.352 N 
ATOM     26  C   UNL A   1      34.413  31.069  27.701  1.00  0.00     0.251 C 
ATOM     27  H   UNL A   1      33.052  30.924  26.255  1.00  0.00     0.163 HD
ATOM     28  O   UNL A   1      33.906  32.101  28.134  1.00  0.00    -0.269 OA
BRANCH  26  29
ATOM     29  C   UNL A   1      35.679  30.561  28.276  1.00  0.00     0.039 A 
ATOM     30  C   UNL A   1      36.880  30.910  27.649  1.00  0.00     0.014 A 
ATOM     31  C   UNL A   1      35.697  29.687  29.366  1.00  0.00     0.014 A 
ATOM     32  C   UNL A   1      38.089  30.401  28.125  1.00  0.00     0.010 A 
ATOM     33  C   UNL A   1      36.910  29.249  29.892  1.00  0.00     0.010 A 
ATOM     34  C   UNL A   1      38.118  29.577  29.261  1.00  0.00    -0.014 A 
BRANCH  34  35
ATOM     35  C   UNL A   1      39.396  29.006  29.761  1.00  0.00     0.031 A 
ATOM     36  C   UNL A   1      40.094  29.642  30.937  1.00  0.00     0.074 A 
ATOM     37  C   UNL A   1      39.942  27.940  29.144  1.00  0.00     0.049 A 
ATOM     38  N   UNL A   1      41.235  29.326  31.492  1.00  0.00    -0.248 NA
ATOM     39  C   UNL A   1      39.432  30.804  31.547  1.00  0.00     0.031 C 
ATOM     40  C   UNL A   1      39.373  27.258  27.978  1.00  0.00     0.029 A 
ATOM     41  N   UNL A   1      41.093  27.241  29.406  1.00  0.00    -0.354 N 
ATOM     42  C   UNL A   1      41.434  30.258  32.506  1.00  0.00     0.074 A 
ATOM     43  C   UNL A   1      40.331  31.191  32.439  1.00  0.00     0.031 C 
ATOM     44  C   UNL A   1      40.159  26.220  27.650  1.00  0.00     0.029 A 
ATOM     45  C   UNL A   1      41.312  26.191  28.545  1.00  0.00     0.049 A 
ATOM     46  H   UNL A   1      41.704  27.470  30.143  1.00  0.00     0.167 HD
ATOM     47  C   UNL A   1      42.428  30.313  33.427  1.00  0.00     0.034 A 
ATOM     48  C   UNL A   1      42.330  25.311  28.478  1.00  0.00     0.034 A 
ATOM     49  C   UNL A   1      43.514  29.365  33.487  1.00  0.00     0.049 A 
ATOM     50  C   UNL A   1      43.442  25.411  29.494  1.00  0.00     0.074 A 
ATOM     51  C   UNL A   1      44.553  29.299  34.399  1.00  0.00     0.029 A 
ATOM     52  N   UNL A   1      43.706  28.318  32.593  1.00  0.00    -0.354 N 
ATOM     53  N   UNL A   1      43.594  26.273  30.473  1.00  0.00    -0.248 NA
ATOM     54  C   UNL A   1      44.509  24.407  29.405  1.00  0.00     0.031 C 
ATOM     55  C   UNL A   1      45.412  28.266  34.012  1.00  0.00     0.029 A 
ATOM     56  C   UNL A   1      44.861  27.622  32.915  1.00  0.00     0.049 A 
ATOM     57  H   UNL A   1      43.109  28.102  31.841  1.00  0.00     0.167 HD
ATOM     58  C   UNL A   1      44.752  25.886  31.142  1.00  0.00     0.074 A 
ATOM     59  C   UNL A   1      45.250  24.709  30.462  1.00  0.00     0.031 C 
ATOM     60  C   UNL A   1      45.347  26.448  32.226  1.00  0.00     0.034 A 
BRANCH  47  61
ATOM     61  C   UNL A   1      42.396  31.452  34.423  1.00  0.00     0.023 A 
ATOM     62  C   UNL A   1      41.509  31.457  35.513  1.00  0.00     0.031 A 
ATOM     63  C   UNL A   1      43.242  32.564  34.262  1.00  0.00     0.131 A 
ATOM     64  C   UNL A   1      41.427  32.582  36.348  1.00  0.00     0.055 A 
ATOM     65  C   UNL A   1      43.222  33.640  35.152  1.00  0.00     0.041 A 
ATOM     66  F   UNL A   1      44.095  32.631  33.228  1.00  0.00    -0.206 F 
ATOM     67  C   UNL A   1      42.298  33.663  36.192  1.00  0.00     0.022 A 
BRANCH  64  68
ATOM     68  S   UNL A   1      40.058  32.683  37.533  1.00  0.00     0.124 S 
ATOM     69  O   UNL A   1      39.186  31.608  37.067  1.00  0.00    -0.237 OA
ATOM     70  O   UNL A   1      40.727  32.457  38.808  1.00  0.00    -0.237 OA
ATOM     71  O   UNL A   1      39.531  34.031  37.334  1.00  0.00    -0.744 OA
ENDBRANCH  64  68
ENDBRANCH  47  61
BRANCH  48  72
ATOM     72  C   UNL A   1      42.357  24.261  27.417  1.00  0.00     0.023 A 
ATOM     73  C   UNL A   1      41.758  23.008  27.623  1.00  0.00     0.031 A 
ATOM     74  C   UNL A   1      43.025  24.479  26.199  1.00  0.00     0.131 A 
ATOM     75  C   UNL A   1      41.887  22.002  26.651  1.00  0.00     0.055 A 
ATOM     76  C   UNL A   1      43.097  23.497  25.209  1.00  0.00     0.041 A 
ATOM     77  F   UNL A   1      43.613  25.660  25.948  1.00  0.00    -0.206 F 
ATOM     78  C   UNL A   1      42.538  22.243  25.440  1.00  0.00     0.022 A 
BRANCH  75  79
ATOM     79  S   UNL A   1      41.277  20.338  27.039  1.00  0.00     0.124 S 
ATOM     80  O   UNL A   1      40.300  20.127  25.977  1.00  0.00    -0.237 OA
ATOM     81  O   UNL A   1      42.496  19.543  26.958  1.00  0.00    -0.237 OA
ATOM     82  O   UNL A   1      40.719  20.486  28.382  1.00  0.00    -0.744 OA
ENDBRANCH  75  79
ENDBRANCH  48  72
BRANCH  60  83
ATOM     83  C   UNL A   1      46.568  25.752  32.783  1.00  0.00     0.023 A 
ATOM     84  C   UNL A   1      47.852  25.953  32.248  1.00  0.00     0.031 A 
ATOM     85  C   UNL A   1      46.434  24.858  33.860  1.00  0.00     0.131 A 
ATOM     86  C   UNL A   1      48.940  25.220  32.749  1.00  0.00     0.055 A 
ATOM     87  C   UNL A   1      47.532  24.187  34.403  1.00  0.00     0.041 A 
ATOM     88  F   UNL A   1      45.232  24.621  34.409  1.00  0.00    -0.206 F 
ATOM     89  C   UNL A   1      48.792  24.355  33.835  1.00  0.00     0.022 A 
BRANCH  86  90
ATOM     90  S   UNL A   1      50.530  25.324  31.883  1.00  0.00     0.124 S 
ATOM     91  O   UNL A   1      50.189  26.137  30.720  1.00  0.00    -0.237 OA
ATOM     92  O   UNL A   1      51.385  25.964  32.878  1.00  0.00    -0.237 OA
ATOM     93  O   UNL A   1      50.854  23.929  31.592  1.00  0.00    -0.744 OA
ENDBRANCH  86  90
ENDBRANCH  60  83
ENDBRANCH  34  35
ENDBRANCH  26  29
ENDBRANCH  24  25
ENDBRANCH   1  24
TORSDOF 16
ENDMDL
MODEL 3
REMARK VINA RESULT:     -11.9      4.987     10.133
REMARK SMILES CS(=O)(=O)[C@@H]1CCC[C@@H](Sc2ccc(C(=O)NCCCNC(=O)c3ccc(-c4c5nc(c(-c6cc(S(=O)(=O)[O-])ccc6F)c6ccc([nH]6)c(-c6cc(S(=O)(=O)[O-])ccc6F)c6nc(c(-c7cc(S(=O)(=O)[O-])ccc7F)c7ccc4[nH]7)C=C6)C=C5)cc3)cn2)C1
REMARK SMILES IDX 19 1 18 2 17 3 15 4 16 5 14 7 11 8 12 9 88 10 13 11 87 12
REMARK SMILES IDX 10 13 9 14 5 15 6 16 89 17 7 18 8 19 2 20 1 21 3 22 4 23
REMARK SMILES IDX 20 24 21 25 22 26 23 28 24 29 25 30 86 31 26 32 85 33 27 34
REMARK SMILES IDX 28 35 29 36 79 37 30 38 84 39 78 40 80 41 31 42 83 43 77 44
REMARK SMILES IDX 76 45 32 47 64 48 44 49 63 50 45 51 48 52 62 53 81 54 46 55
REMARK SMILES IDX 47 56 61 58 82 59 49 60 33 61 34 62 42 63 35 64 41 65 43 66
REMARK SMILES IDX 40 67 36 68 37 69 38 70 39 71 65 72 66 73 74 74 67 75 73 76
REMARK SMILES IDX 75 77 72 78 68 79 69 80 70 81 71 82 50 83 51 84 59 85 52 86
REMARK SMILES IDX 58 87 60 88 57 89 53 90 54 91 55 92 56 93
REMARK H PARENT 17 6 21 27 80 46 48 57
REMARK Flexibility Score: inf
ROOT
ATOM      1  C   UNL A   1      32.126  29.090  25.095  1.00  0.00     0.042 C 
ENDROOT
BRANCH   1   2
ATOM      2  C   UNL A   1      31.072  30.197  24.948  1.00  0.00     0.118 C 
BRANCH   2   3
ATOM      3  N   UNL A   1      30.471  30.217  23.614  1.00  0.00    -0.352 N 
ATOM      4  C   UNL A   1      30.076  29.245  22.715  1.00  0.00     0.252 C 
ATOM      5  O   UNL A   1      29.483  29.602  21.700  1.00  0.00    -0.269 OA
ATOM      6  H   UNL A   1      30.310  31.130  23.283  1.00  0.00     0.163 HD
BRANCH   4   7
ATOM      7  C   UNL A   1      30.310  27.798  22.921  1.00  0.00     0.058 A 
ATOM      8  C   UNL A   1      30.739  25.045  23.189  1.00  0.00     0.096 A 
ATOM      9  C   UNL A   1      29.683  25.678  23.769  1.00  0.00     0.036 A 
ATOM     10  N   UNL A   1      31.581  25.753  22.410  1.00  0.00    -0.249 NA
ATOM     11  C   UNL A   1      29.539  27.045  23.762  1.00  0.00     0.018 A 
ATOM     12  C   UNL A   1      31.325  27.102  22.261  1.00  0.00     0.126 A 
BRANCH   8  13
ATOM     13  S   UNL A   1      31.024  23.318  23.533  1.00  0.00    -0.103 SA
BRANCH  13  14
ATOM     14  C   UNL A   1      32.240  23.144  24.998  1.00  0.00     0.054 C 
ATOM     15  C   UNL A   1      34.723  23.483  24.396  1.00  0.00     0.109 C 
ATOM     16  C   UNL A   1      34.831  24.644  25.402  1.00  0.00     0.020 C 
ATOM     17  C   UNL A   1      33.618  22.495  24.757  1.00  0.00     0.034 C 
ATOM     18  C   UNL A   1      33.517  25.258  25.913  1.00  0.00     0.002 C 
ATOM     19  C   UNL A   1      32.307  24.319  25.992  1.00  0.00     0.015 C 
BRANCH  15  20
ATOM     20  S   UNL A   1      36.321  22.706  24.098  1.00  0.00     0.150 S 
ATOM     21  C   UNL A   1      37.394  23.609  25.208  1.00  0.00     0.158 C 
ATOM     22  O   UNL A   1      36.736  23.039  22.747  1.00  0.00    -0.229 OA
ATOM     23  O   UNL A   1      36.263  21.332  24.541  1.00  0.00    -0.229 OA
ENDBRANCH  15  20
ENDBRANCH  13  14
ENDBRANCH   8  13
ENDBRANCH   4   7
ENDBRANCH   2   3
ENDBRANCH   1   2
BRANCH   1  24
ATOM     24  C   UNL A   1      33.258  29.481  26.044  1.00  0.00     0.118 C 
BRANCH  24  25
ATOM     25  N   UNL A   1      33.113  30.856  26.500  1.00  0.00    -0.352 N 
ATOM     26  C   UNL A   1      33.819  31.573  27.429  1.00  0.00     0.251 C 
ATOM     27  H   UNL A   1      32.384  31.356  26.066  1.00  0.00     0.163 HD
ATOM     28  O   UNL A   1      33.354  32.645  27.811  1.00  0.00    -0.269 OA
BRANCH  26  29
ATOM     29  C   UNL A   1      35.104  31.080  27.975  1.00  0.00     0.039 A 
ATOM     30  C   UNL A   1      35.157  29.774  28.472  1.00  0.00     0.014 A 
ATOM     31  C   UNL A   1      36.226  31.906  28.079  1.00  0.00     0.014 A 
ATOM     32  C   UNL A   1      36.333  29.295  29.050  1.00  0.00     0.010 A 
ATOM     33  C   UNL A   1      37.424  31.399  28.578  1.00  0.00     0.010 A 
ATOM     34  C   UNL A   1      37.483  30.098  29.095  1.00  0.00    -0.014 A 
BRANCH  34  35
ATOM     35  C   UNL A   1      38.734  29.609  29.734  1.00  0.00     0.031 A 
ATOM     36  C   UNL A   1      39.148  30.144  31.081  1.00  0.00     0.074 A 
ATOM     37  C   UNL A   1      39.507  28.709  29.095  1.00  0.00     0.049 A 
ATOM     38  N   UNL A   1      40.222  29.883  31.782  1.00  0.00    -0.248 NA
ATOM     39  C   UNL A   1      38.249  31.126  31.706  1.00  0.00     0.031 C 
ATOM     40  C   UNL A   1      39.223  28.141  27.775  1.00  0.00     0.029 A 
ATOM     41  N   UNL A   1      40.687  28.114  29.464  1.00  0.00    -0.354 N 
ATOM     42  C   UNL A   1      40.133  30.678  32.921  1.00  0.00     0.074 A 
ATOM     43  C   UNL A   1      38.938  31.481  32.779  1.00  0.00     0.031 C 
ATOM     44  C   UNL A   1      40.183  27.255  27.462  1.00  0.00     0.029 A 
ATOM     45  C   UNL A   1      41.176  27.229  28.532  1.00  0.00     0.049 A 
ATOM     46  H   UNL A   1      41.140  28.303  30.317  1.00  0.00     0.167 HD
ATOM     47  C   UNL A   1      40.955  30.712  33.999  1.00  0.00     0.034 A 
ATOM     48  C   UNL A   1      42.302  26.488  28.534  1.00  0.00     0.034 A 
ATOM     49  C   UNL A   1      42.137  29.894  34.128  1.00  0.00     0.049 A 
ATOM     50  C   UNL A   1      43.219  26.567  29.730  1.00  0.00     0.074 A 
ATOM     51  C   UNL A   1      43.021  29.816  35.190  1.00  0.00     0.029 A 
ATOM     52  N   UNL A   1      42.605  29.013  33.159  1.00  0.00    -0.354 N 
ATOM     53  N   UNL A   1      43.099  27.292  30.818  1.00  0.00    -0.248 NA
ATOM     54  C   UNL A   1      44.412  25.713  29.704  1.00  0.00     0.031 C 
ATOM     55  C   UNL A   1      44.060  28.952  34.834  1.00  0.00     0.029 A 
ATOM     56  C   UNL A   1      43.779  28.413  33.588  1.00  0.00     0.049 A 
ATOM     57  H   UNL A   1      42.166  28.841  32.295  1.00  0.00     0.167 HD
ATOM     58  C   UNL A   1      44.181  26.947  31.624  1.00  0.00     0.074 A 
ATOM     59  C   UNL A   1      44.932  25.942  30.901  1.00  0.00     0.031 C 
ATOM     60  C   UNL A   1      44.519  27.412  32.855  1.00  0.00     0.034 A 
BRANCH  47  61
ATOM     61  C   UNL A   1      40.617  31.686  35.106  1.00  0.00     0.023 A 
ATOM     62  C   UNL A   1      39.628  31.403  36.065  1.00  0.00     0.031 A 
ATOM     63  C   UNL A   1      41.267  32.931  35.185  1.00  0.00     0.131 A 
ATOM     64  C   UNL A   1      39.260  32.377  37.005  1.00  0.00     0.055 A 
ATOM     65  C   UNL A   1      40.962  33.860  36.182  1.00  0.00     0.041 A 
ATOM     66  F   UNL A   1      42.202  33.273  34.285  1.00  0.00    -0.206 F 
ATOM     67  C   UNL A   1      39.940  33.594  37.089  1.00  0.00     0.022 A 
BRANCH  64  68
ATOM     68  S   UNL A   1      37.774  32.097  38.006  1.00  0.00     0.124 S 
ATOM     69  O   UNL A   1      36.845  33.067  37.431  1.00  0.00    -0.237 OA
ATOM     70  O   UNL A   1      37.477  30.694  37.744  1.00  0.00    -0.237 OA
ATOM     71  O   UNL A   1      38.215  32.400  39.366  1.00  0.00    -0.744 OA
ENDBRANCH  64  68
ENDBRANCH  47  61
BRANCH  48  72
ATOM     72  C   UNL A   1      42.634  25.611  27.373  1.00  0.00     0.023 A 
ATOM     73  C   UNL A   1      42.146  24.296  27.296  1.00  0.00     0.031 A 
ATOM     74  C   UNL A   1      43.486  26.057  26.347  1.00  0.00     0.131 A 
ATOM     75  C   UNL A   1      42.557  23.457  26.247  1.00  0.00     0.055 A 
ATOM     76  C   UNL A   1      43.842  25.239  25.273  1.00  0.00     0.041 A 
ATOM     77  F   UNL A   1      43.979  27.306  26.369  1.00  0.00    -0.206 F 
ATOM     78  C   UNL A   1      43.389  23.924  25.228  1.00  0.00     0.022 A 
BRANCH  75  79
ATOM     79  S   UNL A   1      42.069  21.710  26.293  1.00  0.00     0.124 S 
ATOM     80  O   UNL A   1      40.656  21.789  25.938  1.00  0.00    -0.237 OA
ATOM     81  O   UNL A   1      42.951  21.123  25.291  1.00  0.00    -0.237 OA
ATOM     82  O   UNL A   1      42.346  21.316  27.673  1.00  0.00    -0.744 OA
ENDBRANCH  75  79
ENDBRANCH  48  72
BRANCH  60  83
ATOM     83  C   UNL A   1      45.721  26.785  33.524  1.00  0.00     0.023 A 
ATOM     84  C   UNL A   1      45.612  25.645  34.340  1.00  0.00     0.031 A 
ATOM     85  C   UNL A   1      46.996  27.352  33.349  1.00  0.00     0.131 A 
ATOM     86  C   UNL A   1      46.746  25.151  35.003  1.00  0.00     0.055 A 
ATOM     87  C   UNL A   1      48.133  26.810  33.953  1.00  0.00     0.041 A 
ATOM     88  F   UNL A   1      47.162  28.444  32.585  1.00  0.00    -0.206 F 
ATOM     89  C   UNL A   1      48.008  25.712  34.798  1.00  0.00     0.022 A 
BRANCH  86  90
ATOM     90  S   UNL A   1      46.528  23.833  36.231  1.00  0.00     0.124 S 
ATOM     91  O   UNL A   1      45.087  23.611  36.185  1.00  0.00    -0.237 OA
ATOM     92  O   UNL A   1      47.356  22.761  35.687  1.00  0.00    -0.237 OA
ATOM     93  O   UNL A   1      47.024  24.433  37.468  1.00  0.00    -0.744 OA
ENDBRANCH  86  90
ENDBRANCH  60  83
ENDBRANCH  34  35
ENDBRANCH  26  29
ENDBRANCH  24  25
ENDBRANCH   1  24
TORSDOF 16
ENDMDL
