MODEL 1
REMARK VINA RESULT:     -11.0      0.000      0.000
REMARK SMILES CC(C)OCCS(=O)(=O)N1CCC[C@H](C(=O)NCCCNC(=O)c2ccc(-c3c4nc(c(-c5cc(S(=O)(=O)[O-])ccc5F)c5ccc([nH]5)c(-c5cc(S(=O)(=O)[O-])ccc5F)c5nc(c(-c6cc(S(=O)(=O)[O-])ccc6F)c6ccc3[nH]6)C=C5)C=C4)cc2)C1
REMARK SMILES IDX 18 1 17 2 15 3 16 4 14 6 10 7 11 8 87 9 12 10 13 11 7 12
REMARK SMILES IDX 8 13 9 14 6 15 5 16 4 17 2 18 1 19 3 20 19 21 20 22 21 23
REMARK SMILES IDX 22 24 23 26 24 27 25 28 86 29 26 30 85 31 27 32 28 33 29 34
REMARK SMILES IDX 79 35 30 36 84 37 78 38 80 39 31 40 83 41 77 42 76 43 32 45
REMARK SMILES IDX 64 46 44 47 63 48 45 49 48 50 62 51 81 52 46 53 47 54 61 56
REMARK SMILES IDX 82 57 49 58 33 59 34 60 42 61 35 62 41 63 43 64 40 65 36 66
REMARK SMILES IDX 37 67 38 68 39 69 65 70 66 71 74 72 67 73 73 74 75 75 72 76
REMARK SMILES IDX 68 77 69 78 70 79 71 80 50 81 51 82 59 83 52 84 58 85 60 86
REMARK SMILES IDX 57 87 53 88 54 89 55 90 56 91
REMARK H PARENT 17 5 21 25 80 44 48 55
REMARK Flexibility Score: inf
ROOT
ATOM      1  C   UNL A   1      33.958  28.200  23.711  1.00  0.00     0.117 C 
ENDROOT
BRANCH   1   2
ATOM      2  N   UNL A   1      33.380  27.056  23.034  1.00  0.00    -0.356 N 
ATOM      3  C   UNL A   1      32.961  25.864  23.524  1.00  0.00     0.224 C 
ATOM      4  O   UNL A   1      32.509  25.044  22.718  1.00  0.00    -0.275 OA
ATOM      5  H   UNL A   1      33.272  27.164  22.061  1.00  0.00     0.163 HD
BRANCH   3   6
ATOM      6  C   UNL A   1      33.059  25.500  25.002  1.00  0.00     0.093 C 
ATOM      7  N   UNL A   1      33.223  23.088  25.823  1.00  0.00    -0.201 NA
ATOM      8  C   UNL A   1      31.959  23.239  26.563  1.00  0.00     0.102 C 
ATOM      9  C   UNL A   1      33.927  24.274  25.276  1.00  0.00     0.115 C 
ATOM     10  C   UNL A   1      31.031  24.244  25.905  1.00  0.00     0.018 C 
ATOM     11  C   UNL A   1      31.715  25.583  25.718  1.00  0.00     0.016 C 
BRANCH   7  12
ATOM     12  S   UNL A   1      34.081  21.637  25.970  1.00  0.00     0.216 S 
ATOM     13  O   UNL A   1      34.459  21.487  27.359  1.00  0.00    -0.212 OA
ATOM     14  O   UNL A   1      35.092  21.653  24.935  1.00  0.00    -0.212 OA
BRANCH  12  15
ATOM     15  C   UNL A   1      32.885  20.373  25.519  1.00  0.00     0.182 C 
BRANCH  15  16
ATOM     16  C   UNL A   1      33.493  19.136  24.885  1.00  0.00     0.178 C 
BRANCH  16  17
ATOM     17  O   UNL A   1      32.756  17.938  25.153  1.00  0.00    -0.378 OA
BRANCH  17  18
ATOM     18  C   UNL A   1      32.960  16.794  24.318  1.00  0.00     0.112 C 
ATOM     19  C   UNL A   1      34.082  16.935  23.292  1.00  0.00     0.038 C 
ATOM     20  C   UNL A   1      33.047  15.524  25.155  1.00  0.00     0.038 C 
ENDBRANCH  17  18
ENDBRANCH  16  17
ENDBRANCH  15  16
ENDBRANCH  12  15
ENDBRANCH   7  12
ENDBRANCH   3   6
ENDBRANCH   1   2
BRANCH   1  21
ATOM     21  C   UNL A   1      32.889  29.153  24.199  1.00  0.00     0.042 C 
BRANCH  21  22
ATOM     22  C   UNL A   1      32.952  29.313  25.699  1.00  0.00     0.118 C 
BRANCH  22  23
ATOM     23  N   UNL A   1      32.596  30.669  26.110  1.00  0.00    -0.352 N 
ATOM     24  C   UNL A   1      33.170  31.473  27.067  1.00  0.00     0.251 C 
ATOM     25  H   UNL A   1      31.833  31.065  25.633  1.00  0.00     0.163 HD
ATOM     26  O   UNL A   1      32.591  32.486  27.446  1.00  0.00    -0.269 OA
BRANCH  24  27
ATOM     27  C   UNL A   1      34.472  31.085  27.645  1.00  0.00     0.039 A 
ATOM     28  C   UNL A   1      35.508  32.015  27.710  1.00  0.00     0.014 A 
ATOM     29  C   UNL A   1      34.645  29.802  28.164  1.00  0.00     0.014 A 
ATOM     30  C   UNL A   1      36.694  31.668  28.357  1.00  0.00     0.010 A 
ATOM     31  C   UNL A   1      35.748  29.523  28.950  1.00  0.00     0.010 A 
ATOM     32  C   UNL A   1      36.807  30.433  29.017  1.00  0.00    -0.014 A 
BRANCH  32  33
ATOM     33  C   UNL A   1      38.051  30.038  29.723  1.00  0.00     0.031 A 
ATOM     34  C   UNL A   1      38.289  30.524  31.133  1.00  0.00     0.074 A 
ATOM     35  C   UNL A   1      38.977  29.302  29.081  1.00  0.00     0.049 A 
ATOM     36  N   UNL A   1      39.326  30.341  31.909  1.00  0.00    -0.248 NA
ATOM     37  C   UNL A   1      37.250  31.383  31.726  1.00  0.00     0.031 C 
ATOM     38  C   UNL A   1      38.893  28.858  27.686  1.00  0.00     0.029 A 
ATOM     39  N   UNL A   1      40.169  28.785  29.518  1.00  0.00    -0.354 N 
ATOM     40  C   UNL A   1      39.074  31.088  33.056  1.00  0.00     0.074 A 
ATOM     41  C   UNL A   1      37.841  31.805  32.830  1.00  0.00     0.031 C 
ATOM     42  C   UNL A   1      39.953  28.084  27.404  1.00  0.00     0.029 A 
ATOM     43  C   UNL A   1      40.809  28.006  28.582  1.00  0.00     0.049 A 
ATOM     44  H   UNL A   1      40.532  28.955  30.417  1.00  0.00     0.167 HD
ATOM     45  C   UNL A   1      39.779  31.134  34.213  1.00  0.00     0.034 A 
ATOM     46  C   UNL A   1      41.949  27.295  28.678  1.00  0.00     0.034 A 
ATOM     47  C   UNL A   1      40.975  30.362  34.432  1.00  0.00     0.049 A 
ATOM     48  C   UNL A   1      42.677  27.297  29.997  1.00  0.00     0.074 A 
ATOM     49  C   UNL A   1      41.747  30.264  35.574  1.00  0.00     0.029 A 
ATOM     50  N   UNL A   1      41.565  29.540  33.479  1.00  0.00    -0.354 N 
ATOM     51  N   UNL A   1      42.393  27.956  31.098  1.00  0.00    -0.248 NA
ATOM     52  C   UNL A   1      43.862  26.439  30.094  1.00  0.00     0.031 C 
ATOM     53  C   UNL A   1      42.830  29.420  35.297  1.00  0.00     0.029 A 
ATOM     54  C   UNL A   1      42.699  28.939  34.004  1.00  0.00     0.049 A 
ATOM     55  H   UNL A   1      41.228  29.403  32.565  1.00  0.00     0.167 HD
ATOM     56  C   UNL A   1      43.355  27.574  32.027  1.00  0.00     0.074 A 
ATOM     57  C   UNL A   1      44.203  26.603  31.362  1.00  0.00     0.031 C 
ATOM     58  C   UNL A   1      43.534  27.988  33.309  1.00  0.00     0.034 A 
BRANCH  45  59
ATOM     59  C   UNL A   1      39.265  32.047  35.304  1.00  0.00     0.023 A 
ATOM     60  C   UNL A   1      39.692  33.385  35.413  1.00  0.00     0.031 A 
ATOM     61  C   UNL A   1      38.388  31.561  36.288  1.00  0.00     0.131 A 
ATOM     62  C   UNL A   1      39.324  34.153  36.527  1.00  0.00     0.055 A 
ATOM     63  C   UNL A   1      37.948  32.362  37.346  1.00  0.00     0.041 A 
ATOM     64  F   UNL A   1      37.959  30.289  36.254  1.00  0.00    -0.206 F 
ATOM     65  C   UNL A   1      38.432  33.660  37.481  1.00  0.00     0.022 A 
BRANCH  62  66
ATOM     66  S   UNL A   1      40.156  35.743  36.797  1.00  0.00     0.124 S 
ATOM     67  O   UNL A   1      39.644  36.535  35.681  1.00  0.00    -0.237 OA
ATOM     68  O   UNL A   1      39.684  36.127  38.122  1.00  0.00    -0.237 OA
ATOM     69  O   UNL A   1      41.575  35.407  36.712  1.00  0.00    -0.744 OA
ENDBRANCH  62  66
ENDBRANCH  45  59
BRANCH  46  70
ATOM     70  C   UNL A   1      42.447  26.499  27.521  1.00  0.00     0.023 A 
ATOM     71  C   UNL A   1      42.084  25.151  27.361  1.00  0.00     0.031 A 
ATOM     72  C   UNL A   1      43.313  27.064  26.569  1.00  0.00     0.131 A 
ATOM     73  C   UNL A   1      42.624  24.399  26.306  1.00  0.00     0.055 A 
ATOM     74  C   UNL A   1      43.810  26.325  25.492  1.00  0.00     0.041 A 
ATOM     75  F   UNL A   1      43.680  28.352  26.665  1.00  0.00    -0.206 F 
ATOM     76  C   UNL A   1      43.476  24.981  25.364  1.00  0.00     0.022 A 
BRANCH  73  77
ATOM     77  S   UNL A   1      42.258  22.625  26.225  1.00  0.00     0.124 S 
ATOM     78  O   UNL A   1      40.800  22.620  26.223  1.00  0.00    -0.237 OA
ATOM     79  O   UNL A   1      42.902  22.241  24.973  1.00  0.00    -0.237 OA
ATOM     80  O   UNL A   1      42.883  22.092  27.434  1.00  0.00    -0.744 OA
ENDBRANCH  73  77
ENDBRANCH  46  70
BRANCH  58  81
ATOM     81  C   UNL A   1      44.676  27.360  34.064  1.00  0.00     0.023 A 
ATOM     82  C   UNL A   1      44.513  26.152  34.765  1.00  0.00     0.031 A 
ATOM     83  C   UNL A   1      45.927  27.998  34.121  1.00  0.00     0.131 A 
ATOM     84  C   UNL A   1      45.557  25.662  35.559  1.00  0.00     0.055 A 
ATOM     85  C   UNL A   1      46.986  27.468  34.856  1.00  0.00     0.041 A 
ATOM     86  F   UNL A   1      46.136  29.153  33.468  1.00  0.00    -0.206 F 
ATOM     87  C   UNL A   1      46.799  26.303  35.598  1.00  0.00     0.022 A 
BRANCH  84  88
ATOM     88  S   UNL A   1      45.226  24.249  36.646  1.00  0.00     0.124 S 
ATOM     89  O   UNL A   1      44.302  23.457  35.840  1.00  0.00    -0.237 OA
ATOM     90  O   UNL A   1      46.557  23.682  36.832  1.00  0.00    -0.237 OA
ATOM     91  O   UNL A   1      44.641  24.862  37.837  1.00  0.00    -0.744 OA
ENDBRANCH  84  88
ENDBRANCH  58  81
ENDBRANCH  32  33
ENDBRANCH  24  27
ENDBRANCH  22  23
ENDBRANCH  21  22
ENDBRANCH   1  21
TORSDOF 18
ENDMDL
MODEL 2
REMARK VINA RESULT:     -10.7      5.062     10.124
REMARK SMILES CC(C)OCCS(=O)(=O)N1CCC[C@H](C(=O)NCCCNC(=O)c2ccc(-c3c4nc(c(-c5cc(S(=O)(=O)[O-])ccc5F)c5ccc([nH]5)c(-c5cc(S(=O)(=O)[O-])ccc5F)c5nc(c(-c6cc(S(=O)(=O)[O-])ccc6F)c6ccc3[nH]6)C=C5)C=C4)cc2)C1
REMARK SMILES IDX 18 1 17 2 15 3 16 4 14 6 10 7 11 8 87 9 12 10 13 11 7 12
REMARK SMILES IDX 8 13 9 14 6 15 5 16 4 17 2 18 1 19 3 20 19 21 20 22 21 23
REMARK SMILES IDX 22 24 23 26 24 27 25 28 86 29 26 30 85 31 27 32 28 33 29 34
REMARK SMILES IDX 79 35 30 36 84 37 78 38 80 39 31 40 83 41 77 42 76 43 32 45
REMARK SMILES IDX 64 46 44 47 63 48 45 49 48 50 62 51 81 52 46 53 47 54 61 56
REMARK SMILES IDX 82 57 49 58 33 59 34 60 42 61 35 62 41 63 43 64 40 65 36 66
REMARK SMILES IDX 37 67 38 68 39 69 65 70 66 71 74 72 67 73 73 74 75 75 72 76
REMARK SMILES IDX 68 77 69 78 70 79 71 80 50 81 51 82 59 83 52 84 58 85 60 86
REMARK SMILES IDX 57 87 53 88 54 89 55 90 56 91
REMARK H PARENT 17 5 21 25 80 44 48 55
REMARK Flexibility Score: inf
ROOT
ATOM      1  C   UNL A   1      34.880  23.152  24.220  1.00  0.00     0.117 C 
ENDROOT
BRANCH   1   2
ATOM      2  N   UNL A   1      34.521  23.470  22.852  1.00  0.00    -0.356 N 
ATOM      3  C   UNL A   1      33.350  23.305  22.190  1.00  0.00     0.224 C 
ATOM      4  O   UNL A   1      33.311  23.656  21.006  1.00  0.00    -0.275 OA
ATOM      5  H   UNL A   1      35.244  23.872  22.318  1.00  0.00     0.163 HD
BRANCH   3   6
ATOM      6  C   UNL A   1      32.117  22.685  22.839  1.00  0.00     0.093 C 
ATOM      7  N   UNL A   1      31.459  23.137  25.264  1.00  0.00    -0.201 NA
ATOM      8  C   UNL A   1      31.605  21.708  25.586  1.00  0.00     0.102 C 
ATOM      9  C   UNL A   1      31.434  23.598  23.854  1.00  0.00     0.115 C 
ATOM     10  C   UNL A   1      32.642  21.031  24.708  1.00  0.00     0.018 C 
ATOM     11  C   UNL A   1      32.333  21.228  23.238  1.00  0.00     0.016 C 
BRANCH   7  12
ATOM     12  S   UNL A   1      30.893  24.185  26.466  1.00  0.00     0.216 S 
ATOM     13  O   UNL A   1      32.044  24.808  27.086  1.00  0.00    -0.212 OA
ATOM     14  O   UNL A   1      29.956  23.424  27.264  1.00  0.00    -0.212 OA
BRANCH  12  15
ATOM     15  C   UNL A   1      29.941  25.415  25.564  1.00  0.00     0.182 C 
BRANCH  15  16
ATOM     16  C   UNL A   1      30.662  26.734  25.359  1.00  0.00     0.178 C 
BRANCH  16  17
ATOM     17  O   UNL A   1      30.174  27.481  24.239  1.00  0.00    -0.378 OA
BRANCH  17  18
ATOM     18  C   UNL A   1      31.112  28.129  23.373  1.00  0.00     0.112 C 
ATOM     19  C   UNL A   1      30.534  29.260  22.526  1.00  0.00     0.038 C 
ATOM     20  C   UNL A   1      32.372  28.514  24.136  1.00  0.00     0.038 C 
ENDBRANCH  17  18
ENDBRANCH  16  17
ENDBRANCH  15  16
ENDBRANCH  12  15
ENDBRANCH   7  12
ENDBRANCH   3   6
ENDBRANCH   1   2
BRANCH   1  21
ATOM     21  C   UNL A   1      36.163  22.353  24.283  1.00  0.00     0.042 C 
BRANCH  21  22
ATOM     22  C   UNL A   1      36.808  22.473  25.644  1.00  0.00     0.118 C 
BRANCH  22  23
ATOM     23  N   UNL A   1      37.822  21.442  25.851  1.00  0.00    -0.352 N 
ATOM     24  C   UNL A   1      39.132  21.570  26.248  1.00  0.00     0.251 C 
ATOM     25  H   UNL A   1      37.524  20.520  25.681  1.00  0.00     0.163 HD
ATOM     26  O   UNL A   1      39.903  20.624  26.135  1.00  0.00    -0.269 OA
BRANCH  24  27
ATOM     27  C   UNL A   1      39.597  22.866  26.783  1.00  0.00     0.039 A 
ATOM     28  C   UNL A   1      40.544  22.895  27.805  1.00  0.00     0.014 A 
ATOM     29  C   UNL A   1      39.119  24.055  26.232  1.00  0.00     0.014 A 
ATOM     30  C   UNL A   1      41.055  24.124  28.224  1.00  0.00     0.010 A 
ATOM     31  C   UNL A   1      39.750  25.249  26.527  1.00  0.00     0.010 A 
ATOM     32  C   UNL A   1      40.691  25.308  27.560  1.00  0.00    -0.014 A 
BRANCH  32  33
ATOM     33  C   UNL A   1      41.224  26.629  27.974  1.00  0.00     0.031 A 
ATOM     34  C   UNL A   1      42.649  26.993  27.632  1.00  0.00     0.074 A 
ATOM     35  C   UNL A   1      40.453  27.462  28.697  1.00  0.00     0.049 A 
ATOM     36  N   UNL A   1      43.327  28.068  27.942  1.00  0.00    -0.248 NA
ATOM     37  C   UNL A   1      43.436  25.988  26.899  1.00  0.00     0.031 C 
ATOM     38  C   UNL A   1      39.094  27.172  29.165  1.00  0.00     0.029 A 
ATOM     39  N   UNL A   1      40.695  28.729  29.160  1.00  0.00    -0.354 N 
ATOM     40  C   UNL A   1      44.618  27.847  27.472  1.00  0.00     0.074 A 
ATOM     41  C   UNL A   1      44.653  26.500  26.953  1.00  0.00     0.031 C 
ATOM     42  C   UNL A   1      38.602  28.253  29.790  1.00  0.00     0.029 A 
ATOM     43  C   UNL A   1      39.618  29.298  29.800  1.00  0.00     0.049 A 
ATOM     44  H   UNL A   1      41.557  29.189  29.044  1.00  0.00     0.167 HD
ATOM     45  C   UNL A   1      45.667  28.705  27.431  1.00  0.00     0.034 A 
ATOM     46  C   UNL A   1      39.469  30.532  30.319  1.00  0.00     0.034 A 
ATOM     47  C   UNL A   1      45.586  30.063  27.903  1.00  0.00     0.049 A 
ATOM     48  C   UNL A   1      40.620  31.497  30.193  1.00  0.00     0.074 A 
ATOM     49  C   UNL A   1      46.547  31.055  27.859  1.00  0.00     0.029 A 
ATOM     50  N   UNL A   1      44.461  30.623  28.497  1.00  0.00    -0.354 N 
ATOM     51  N   UNL A   1      41.817  31.297  29.687  1.00  0.00    -0.248 NA
ATOM     52  C   UNL A   1      40.390  32.859  30.684  1.00  0.00     0.031 C 
ATOM     53  C   UNL A   1      46.021  32.200  28.471  1.00  0.00     0.029 A 
ATOM     54  C   UNL A   1      44.708  31.944  28.836  1.00  0.00     0.049 A 
ATOM     55  H   UNL A   1      43.611  30.152  28.654  1.00  0.00     0.167 HD
ATOM     56  C   UNL A   1      42.476  32.518  29.780  1.00  0.00     0.074 A 
ATOM     57  C   UNL A   1      41.529  33.451  30.360  1.00  0.00     0.031 C 
ATOM     58  C   UNL A   1      43.748  32.844  29.430  1.00  0.00     0.034 A 
BRANCH  45  59
ATOM     59  C   UNL A   1      46.968  28.185  26.861  1.00  0.00     0.023 A 
ATOM     60  C   UNL A   1      47.232  28.207  25.478  1.00  0.00     0.031 A 
ATOM     61  C   UNL A   1      47.932  27.600  27.700  1.00  0.00     0.131 A 
ATOM     62  C   UNL A   1      48.374  27.571  24.969  1.00  0.00     0.055 A 
ATOM     63  C   UNL A   1      49.115  27.052  27.195  1.00  0.00     0.041 A 
ATOM     64  F   UNL A   1      47.733  27.528  29.025  1.00  0.00    -0.206 F 
ATOM     65  C   UNL A   1      49.332  27.017  25.820  1.00  0.00     0.022 A 
BRANCH  62  66
ATOM     66  S   UNL A   1      48.506  27.334  23.174  1.00  0.00     0.124 S 
ATOM     67  O   UNL A   1      48.375  25.883  23.061  1.00  0.00    -0.237 OA
ATOM     68  O   UNL A   1      47.386  28.117  22.668  1.00  0.00    -0.237 OA
ATOM     69  O   UNL A   1      49.832  27.858  22.855  1.00  0.00    -0.744 OA
ENDBRANCH  62  66
ENDBRANCH  45  59
BRANCH  46  70
ATOM     70  C   UNL A   1      38.187  30.938  30.959  1.00  0.00     0.023 A 
ATOM     71  C   UNL A   1      37.210  31.645  30.237  1.00  0.00     0.031 A 
ATOM     72  C   UNL A   1      37.924  30.648  32.308  1.00  0.00     0.131 A 
ATOM     73  C   UNL A   1      36.041  32.082  30.879  1.00  0.00     0.055 A 
ATOM     74  C   UNL A   1      36.737  31.042  32.931  1.00  0.00     0.041 A 
ATOM     75  F   UNL A   1      38.815  29.961  33.041  1.00  0.00    -0.206 F 
ATOM     76  C   UNL A   1      35.793  31.775  32.218  1.00  0.00     0.022 A 
BRANCH  73  77
ATOM     77  S   UNL A   1      34.881  33.127  29.956  1.00  0.00     0.124 S 
ATOM     78  O   UNL A   1      35.782  34.063  29.294  1.00  0.00    -0.237 OA
ATOM     79  O   UNL A   1      34.219  32.153  29.093  1.00  0.00    -0.237 OA
ATOM     80  O   UNL A   1      34.037  33.704  31.001  1.00  0.00    -0.744 OA
ENDBRANCH  73  77
ENDBRANCH  46  70
BRANCH  58  81
ATOM     81  C   UNL A   1      44.156  34.279  29.646  1.00  0.00     0.023 A 
ATOM     82  C   UNL A   1      43.927  35.260  28.666  1.00  0.00     0.031 A 
ATOM     83  C   UNL A   1      44.822  34.658  30.824  1.00  0.00     0.131 A 
ATOM     84  C   UNL A   1      44.433  36.554  28.845  1.00  0.00     0.055 A 
ATOM     85  C   UNL A   1      45.260  35.966  31.028  1.00  0.00     0.041 A 
ATOM     86  F   UNL A   1      45.065  33.759  31.792  1.00  0.00    -0.206 F 
ATOM     87  C   UNL A   1      45.084  36.918  30.027  1.00  0.00     0.022 A 
BRANCH  84  88
ATOM     88  S   UNL A   1      44.343  37.716  27.457  1.00  0.00     0.124 S 
ATOM     89  O   UNL A   1      44.280  39.003  28.143  1.00  0.00    -0.237 OA
ATOM     90  O   UNL A   1      45.581  37.437  26.738  1.00  0.00    -0.237 OA
ATOM     91  O   UNL A   1      43.118  37.325  26.761  1.00  0.00    -0.744 OA
ENDBRANCH  84  88
ENDBRANCH  58  81
ENDBRANCH  32  33
ENDBRANCH  24  27
ENDBRANCH  22  23
ENDBRANCH  21  22
ENDBRANCH   1  21
TORSDOF 18
ENDMDL
MODEL 3
REMARK VINA RESULT:     -10.7      4.743     10.447
REMARK SMILES CC(C)OCCS(=O)(=O)N1CCC[C@H](C(=O)NCCCNC(=O)c2ccc(-c3c4nc(c(-c5cc(S(=O)(=O)[O-])ccc5F)c5ccc([nH]5)c(-c5cc(S(=O)(=O)[O-])ccc5F)c5nc(c(-c6cc(S(=O)(=O)[O-])ccc6F)c6ccc3[nH]6)C=C5)C=C4)cc2)C1
REMARK SMILES IDX 18 1 17 2 15 3 16 4 14 6 10 7 11 8 87 9 12 10 13 11 7 12
REMARK SMILES IDX 8 13 9 14 6 15 5 16 4 17 2 18 1 19 3 20 19 21 20 22 21 23
REMARK SMILES IDX 22 24 23 26 24 27 25 28 86 29 26 30 85 31 27 32 28 33 29 34
REMARK SMILES IDX 79 35 30 36 84 37 78 38 80 39 31 40 83 41 77 42 76 43 32 45
REMARK SMILES IDX 64 46 44 47 63 48 45 49 48 50 62 51 81 52 46 53 47 54 61 56
REMARK SMILES IDX 82 57 49 58 33 59 34 60 42 61 35 62 41 63 43 64 40 65 36 66
REMARK SMILES IDX 37 67 38 68 39 69 65 70 66 71 74 72 67 73 73 74 75 75 72 76
REMARK SMILES IDX 68 77 69 78 70 79 71 80 50 81 51 82 59 83 52 84 58 85 60 86
REMARK SMILES IDX 57 87 53 88 54 89 55 90 56 91
REMARK H PARENT 17 5 21 25 80 44 48 55
REMARK Flexibility Score: inf
ROOT
ATOM      1  C   UNL A   1      34.280  21.419  24.723  1.00  0.00     0.117 C 
ENDROOT
BRANCH   1   2
ATOM      2  N   UNL A   1      34.625  22.442  23.757  1.00  0.00    -0.356 N 
ATOM      3  C   UNL A   1      34.156  23.705  23.608  1.00  0.00     0.224 C 
ATOM      4  O   UNL A   1      34.619  24.379  22.681  1.00  0.00    -0.275 OA
ATOM      5  H   UNL A   1      35.313  22.178  23.103  1.00  0.00     0.163 HD
BRANCH   3   6
ATOM      6  C   UNL A   1      33.078  24.295  24.511  1.00  0.00     0.093 C 
ATOM      7  N   UNL A   1      31.769  26.402  23.905  1.00  0.00    -0.201 NA
ATOM      8  C   UNL A   1      32.295  27.088  25.097  1.00  0.00     0.102 C 
ATOM      9  C   UNL A   1      31.921  24.934  23.748  1.00  0.00     0.115 C 
ATOM     10  C   UNL A   1      33.668  26.575  25.490  1.00  0.00     0.018 C 
ATOM     11  C   UNL A   1      33.658  25.073  25.689  1.00  0.00     0.016 C 
BRANCH   7  12
ATOM     12  S   UNL A   1      30.633  27.204  22.942  1.00  0.00     0.216 S 
ATOM     13  O   UNL A   1      29.317  26.891  23.457  1.00  0.00    -0.212 OA
ATOM     14  O   UNL A   1      30.972  26.898  21.569  1.00  0.00    -0.212 OA
BRANCH  12  15
ATOM     15  C   UNL A   1      30.994  28.947  23.197  1.00  0.00     0.182 C 
BRANCH  15  16
ATOM     16  C   UNL A   1      29.814  29.762  23.694  1.00  0.00     0.178 C 
BRANCH  16  17
ATOM     17  O   UNL A   1      29.875  31.141  23.314  1.00  0.00    -0.378 OA
BRANCH  17  18
ATOM     18  C   UNL A   1      28.665  31.821  22.965  1.00  0.00     0.112 C 
ATOM     19  C   UNL A   1      27.419  31.344  23.708  1.00  0.00     0.038 C 
ATOM     20  C   UNL A   1      28.864  33.330  23.004  1.00  0.00     0.038 C 
ENDBRANCH  17  18
ENDBRANCH  16  17
ENDBRANCH  15  16
ENDBRANCH  12  15
ENDBRANCH   7  12
ENDBRANCH   3   6
ENDBRANCH   1   2
BRANCH   1  21
ATOM     21  C   UNL A   1      34.936  21.678  26.061  1.00  0.00     0.042 C 
BRANCH  21  22
ATOM     22  C   UNL A   1      36.327  22.240  25.881  1.00  0.00     0.118 C 
BRANCH  22  23
ATOM     23  N   UNL A   1      37.329  21.180  25.803  1.00  0.00    -0.352 N 
ATOM     24  C   UNL A   1      38.693  21.251  25.962  1.00  0.00     0.251 C 
ATOM     25  H   UNL A   1      36.976  20.283  25.607  1.00  0.00     0.163 HD
ATOM     26  O   UNL A   1      39.401  20.309  25.622  1.00  0.00    -0.269 OA
BRANCH  24  27
ATOM     27  C   UNL A   1      39.288  22.483  26.518  1.00  0.00     0.039 A 
ATOM     28  C   UNL A   1      40.327  22.395  27.443  1.00  0.00     0.014 A 
ATOM     29  C   UNL A   1      38.838  23.729  26.080  1.00  0.00     0.014 A 
ATOM     30  C   UNL A   1      40.952  23.565  27.876  1.00  0.00     0.010 A 
ATOM     31  C   UNL A   1      39.569  24.864  26.376  1.00  0.00     0.010 A 
ATOM     32  C   UNL A   1      40.604  24.806  27.315  1.00  0.00    -0.014 A 
BRANCH  32  33
ATOM     33  C   UNL A   1      41.258  26.066  27.745  1.00  0.00     0.031 A 
ATOM     34  C   UNL A   1      42.670  26.359  27.298  1.00  0.00     0.074 A 
ATOM     35  C   UNL A   1      40.608  26.904  28.574  1.00  0.00     0.049 A 
ATOM     36  N   UNL A   1      43.442  27.371  27.600  1.00  0.00    -0.248 NA
ATOM     37  C   UNL A   1      43.324  25.349  26.450  1.00  0.00     0.031 C 
ATOM     38  C   UNL A   1      39.277  26.674  29.144  1.00  0.00     0.029 A 
ATOM     39  N   UNL A   1      40.972  28.127  29.076  1.00  0.00    -0.354 N 
ATOM     40  C   UNL A   1      44.672  27.096  27.009  1.00  0.00     0.074 A 
ATOM     41  C   UNL A   1      44.572  25.780  26.422  1.00  0.00     0.031 C 
ATOM     42  C   UNL A   1      38.912  27.747  29.863  1.00  0.00     0.029 A 
ATOM     43  C   UNL A   1      39.994  28.725  29.836  1.00  0.00     0.049 A 
ATOM     44  H   UNL A   1      41.851  28.538  28.908  1.00  0.00     0.167 HD
ATOM     45  C   UNL A   1      45.768  27.888  26.919  1.00  0.00     0.034 A 
ATOM     46  C   UNL A   1      39.972  29.935  30.426  1.00  0.00     0.034 A 
ATOM     47  C   UNL A   1      45.818  29.220  27.463  1.00  0.00     0.049 A 
ATOM     48  C   UNL A   1      41.170  30.832  30.249  1.00  0.00     0.074 A 
ATOM     49  C   UNL A   1      46.837  30.151  27.385  1.00  0.00     0.029 A 
ATOM     50  N   UNL A   1      44.787  29.816  28.180  1.00  0.00    -0.354 N 
ATOM     51  N   UNL A   1      42.304  30.586  29.630  1.00  0.00    -0.248 NA
ATOM     52  C   UNL A   1      41.074  32.177  30.825  1.00  0.00     0.031 C 
ATOM     53  C   UNL A   1      46.441  31.291  28.096  1.00  0.00     0.029 A 
ATOM     54  C   UNL A   1      45.150  31.098  28.561  1.00  0.00     0.049 A 
ATOM     55  H   UNL A   1      43.924  29.390  28.388  1.00  0.00     0.167 HD
ATOM     56  C   UNL A   1      43.048  31.757  29.726  1.00  0.00     0.074 A 
ATOM     57  C   UNL A   1      42.219  32.714  30.431  1.00  0.00     0.031 C 
ATOM     58  C   UNL A   1      44.305  32.022  29.281  1.00  0.00     0.034 A 
BRANCH  45  59
ATOM     59  C   UNL A   1      46.979  27.320  26.212  1.00  0.00     0.023 A 
ATOM     60  C   UNL A   1      47.959  26.580  26.901  1.00  0.00     0.031 A 
ATOM     61  C   UNL A   1      47.193  27.574  24.847  1.00  0.00     0.131 A 
ATOM     62  C   UNL A   1      49.146  26.209  26.252  1.00  0.00     0.055 A 
ATOM     63  C   UNL A   1      48.335  27.119  24.182  1.00  0.00     0.041 A 
ATOM     64  F   UNL A   1      46.308  28.292  24.137  1.00  0.00    -0.206 F 
ATOM     65  C   UNL A   1      49.330  26.450  24.889  1.00  0.00     0.022 A 
BRANCH  62  66
ATOM     66  S   UNL A   1      50.513  25.557  27.252  1.00  0.00     0.124 S 
ATOM     67  O   UNL A   1      49.963  24.280  27.702  1.00  0.00    -0.237 OA
ATOM     68  O   UNL A   1      51.602  25.478  26.286  1.00  0.00    -0.237 OA
ATOM     69  O   UNL A   1      50.680  26.559  28.302  1.00  0.00    -0.744 OA
ENDBRANCH  62  66
ENDBRANCH  45  59
BRANCH  46  70
ATOM     70  C   UNL A   1      38.778  30.385  31.195  1.00  0.00     0.023 A 
ATOM     71  C   UNL A   1      37.711  31.039  30.557  1.00  0.00     0.031 A 
ATOM     72  C   UNL A   1      38.692  30.188  32.584  1.00  0.00     0.131 A 
ATOM     73  C   UNL A   1      36.630  31.520  31.312  1.00  0.00     0.055 A 
ATOM     74  C   UNL A   1      37.591  30.625  33.325  1.00  0.00     0.041 A 
ATOM     75  F   UNL A   1      39.676  29.555  33.243  1.00  0.00    -0.206 F 
ATOM     76  C   UNL A   1      36.558  31.307  32.690  1.00  0.00     0.022 A 
BRANCH  73  77
ATOM     77  S   UNL A   1      35.351  32.498  30.476  1.00  0.00     0.124 S 
ATOM     78  O   UNL A   1      34.299  32.540  31.485  1.00  0.00    -0.237 OA
ATOM     79  O   UNL A   1      36.050  33.756  30.226  1.00  0.00    -0.237 OA
ATOM     80  O   UNL A   1      35.045  31.711  29.284  1.00  0.00    -0.744 OA
ENDBRANCH  73  77
ENDBRANCH  46  70
BRANCH  58  81
ATOM     81  C   UNL A   1      44.826  33.414  29.532  1.00  0.00     0.023 A 
ATOM     82  C   UNL A   1      44.488  34.484  28.685  1.00  0.00     0.031 A 
ATOM     83  C   UNL A   1      45.704  33.662  30.601  1.00  0.00     0.131 A 
ATOM     84  C   UNL A   1      45.090  35.735  28.872  1.00  0.00     0.055 A 
ATOM     85  C   UNL A   1      46.244  34.928  30.824  1.00  0.00     0.041 A 
ATOM     86  F   UNL A   1      46.057  32.675  31.440  1.00  0.00    -0.206 F 
ATOM     87  C   UNL A   1      45.954  35.969  29.946  1.00  0.00     0.022 A 
BRANCH  84  88
ATOM     88  S   UNL A   1      44.831  37.014  27.614  1.00  0.00     0.124 S 
ATOM     89  O   UNL A   1      44.226  38.090  28.395  1.00  0.00    -0.237 OA
ATOM     90  O   UNL A   1      46.186  37.259  27.135  1.00  0.00    -0.237 OA
ATOM     91  O   UNL A   1      43.938  36.372  26.650  1.00  0.00    -0.744 OA
ENDBRANCH  84  88
ENDBRANCH  58  81
ENDBRANCH  32  33
ENDBRANCH  24  27
ENDBRANCH  22  23
ENDBRANCH  21  22
ENDBRANCH   1  21
TORSDOF 18
ENDMDL
