MODEL 1
REMARK VINA RESULT:     -12.9      0.000      0.000
REMARK SMILES CC1(C)Cc2c(-c3ccccc3)c(-c3ccc(Cl)cc3)c(CC(=O)NCCCNC(=O)c3ccc(-c4c5nc(c(-c6cc(S(=O)(=O)[O-])ccc6F)c6ccc([nH]6)c(-c6cc(S(=O)(=O)[O-])ccc6F)c6nc(c(-c7cc(S(=O)(=O)[O-])ccc7F)c7ccc4[nH]7)C=C6)C=C5)cc3)n2C1
REMARK SMILES IDX 27 1 26 2 25 3 23 4 24 5 22 7 21 8 1 9 2 10 3 11 4 12 96 13
REMARK SMILES IDX 5 14 95 15 6 16 13 17 7 18 8 19 12 20 9 21 11 22 10 23 14 24
REMARK SMILES IDX 15 25 20 26 16 27 19 28 17 29 18 30 28 31 29 32 30 33 31 35
REMARK SMILES IDX 32 36 33 37 94 38 34 39 93 40 35 41 36 42 37 43 87 44 38 45
REMARK SMILES IDX 92 46 86 47 88 48 39 49 91 50 85 51 84 52 40 54 72 55 52 56
REMARK SMILES IDX 71 57 53 58 56 59 70 60 89 61 54 62 55 63 69 65 90 66 57 67
REMARK SMILES IDX 41 68 42 69 50 70 43 71 49 72 51 73 48 74 44 75 45 76 46 77
REMARK SMILES IDX 47 78 73 79 74 80 82 81 75 82 81 83 83 84 80 85 76 86 77 87
REMARK SMILES IDX 78 88 79 89 58 90 59 91 67 92 60 93 66 94 68 95 65 96 61 97
REMARK SMILES IDX 62 98 63 99 64 100
REMARK H PARENT 25 6 29 34 88 53 56 64
REMARK Flexibility Score: inf
ROOT
ATOM      1  C   UNL A   1      34.370  30.853  27.245  1.00  0.00     0.042 C 
ENDROOT
BRANCH   1   2
ATOM      2  C   UNL A   1      33.328  30.121  26.404  1.00  0.00     0.117 C 
BRANCH   2   3
ATOM      3  N   UNL A   1      32.563  29.133  27.131  1.00  0.00    -0.356 N 
ATOM      4  C   UNL A   1      32.673  27.771  27.092  1.00  0.00     0.225 C 
ATOM      5  O   UNL A   1      32.092  27.120  27.964  1.00  0.00    -0.275 OA
ATOM      6  H   UNL A   1      31.871  29.489  27.735  1.00  0.00     0.163 HD
BRANCH   4   7
ATOM      7  C   UNL A   1      33.544  27.088  26.047  1.00  0.00     0.154 C 
BRANCH   7   8
ATOM      8  C   UNL A   1      32.882  25.916  25.382  1.00  0.00     0.036 A 
ATOM      9  C   UNL A   1      28.330  26.930  23.631  1.00  0.00     0.013 C 
ATOM     10  C   UNL A   1      29.280  26.116  24.509  1.00  0.00    -0.012 C 
ATOM     11  C   UNL A   1      28.504  25.646  25.754  1.00  0.00     0.013 C 
ATOM     12  C   UNL A   1      29.859  24.873  23.760  1.00  0.00     0.063 C 
ATOM     13  C   UNL A   1      30.537  26.954  24.892  1.00  0.00     0.129 C 
ATOM     14  C   UNL A   1      31.248  24.812  24.274  1.00  0.00     0.027 A 
ATOM     15  N   UNL A   1      31.607  25.969  24.899  1.00  0.00    -0.346 N 
ATOM     16  C   UNL A   1      32.303  23.940  24.349  1.00  0.00     0.011 A 
ATOM     17  C   UNL A   1      33.350  24.637  25.054  1.00  0.00     0.011 A 
BRANCH  16  18
ATOM     18  C   UNL A   1      32.276  22.591  23.817  1.00  0.00    -0.016 A 
ATOM     19  C   UNL A   1      32.347  21.487  24.674  1.00  0.00     0.009 A 
ATOM     20  C   UNL A   1      32.155  22.384  22.438  1.00  0.00     0.009 A 
ATOM     21  C   UNL A   1      32.299  20.191  24.157  1.00  0.00     0.001 A 
ATOM     22  C   UNL A   1      32.108  21.089  21.923  1.00  0.00     0.001 A 
ATOM     23  C   UNL A   1      32.181  19.994  22.782  1.00  0.00     0.000 A 
ENDBRANCH  16  18
BRANCH  17  24
ATOM     24  C   UNL A   1      34.690  24.137  25.337  1.00  0.00    -0.016 A 
ATOM     25  C   UNL A   1      35.655  24.130  24.322  1.00  0.00     0.010 A 
ATOM     26  C   UNL A   1      34.997  23.560  26.575  1.00  0.00     0.010 A 
ATOM     27  C   UNL A   1      36.918  23.573  24.550  1.00  0.00     0.021 A 
ATOM     28  C   UNL A   1      36.265  23.018  26.810  1.00  0.00     0.021 A 
ATOM     29  C   UNL A   1      37.218  23.025  25.795  1.00  0.00     0.041 A 
ATOM     30  Cl  UNL A   1      38.771  22.337  26.069  1.00  0.00    -0.084 Cl
ENDBRANCH  17  24
ENDBRANCH   7   8
ENDBRANCH   4   7
ENDBRANCH   2   3
ENDBRANCH   1   2
BRANCH   1  31
ATOM     31  C   UNL A   1      35.385  29.929  27.882  1.00  0.00     0.118 C 
BRANCH  31  32
ATOM     32  N   UNL A   1      35.554  30.201  29.312  1.00  0.00    -0.352 N 
ATOM     33  C   UNL A   1      36.502  29.682  30.181  1.00  0.00     0.251 C 
ATOM     34  H   UNL A   1      34.913  30.834  29.708  1.00  0.00     0.163 HD
ATOM     35  O   UNL A   1      36.328  29.731  31.384  1.00  0.00    -0.269 OA
BRANCH  33  36
ATOM     36  C   UNL A   1      37.701  29.047  29.598  1.00  0.00     0.039 A 
ATOM     37  C   UNL A   1      38.300  29.538  28.436  1.00  0.00     0.014 A 
ATOM     38  C   UNL A   1      38.273  27.995  30.299  1.00  0.00     0.014 A 
ATOM     39  C   UNL A   1      39.538  29.022  28.052  1.00  0.00     0.010 A 
ATOM     40  C   UNL A   1      39.569  27.642  30.041  1.00  0.00     0.010 A 
ATOM     41  C   UNL A   1      40.188  28.094  28.882  1.00  0.00    -0.014 A 
BRANCH  41  42
ATOM     42  C   UNL A   1      41.556  27.649  28.620  1.00  0.00     0.031 A 
ATOM     43  C   UNL A   1      41.677  26.382  27.853  1.00  0.00     0.074 A 
ATOM     44  C   UNL A   1      42.634  28.437  28.836  1.00  0.00     0.049 A 
ATOM     45  N   UNL A   1      42.125  25.247  28.276  1.00  0.00    -0.248 NA
ATOM     46  C   UNL A   1      41.113  26.323  26.497  1.00  0.00     0.031 C 
ATOM     47  C   UNL A   1      42.655  29.820  29.332  1.00  0.00     0.029 A 
ATOM     48  N   UNL A   1      43.944  28.208  28.541  1.00  0.00    -0.354 N 
ATOM     49  C   UNL A   1      42.132  24.398  27.174  1.00  0.00     0.074 A 
ATOM     50  C   UNL A   1      41.313  25.041  26.183  1.00  0.00     0.031 C 
ATOM     51  C   UNL A   1      43.855  30.382  29.076  1.00  0.00     0.029 A 
ATOM     52  C   UNL A   1      44.747  29.344  28.598  1.00  0.00     0.049 A 
ATOM     53  H   UNL A   1      44.293  27.317  28.310  1.00  0.00     0.167 HD
ATOM     54  C   UNL A   1      43.011  23.358  27.095  1.00  0.00     0.034 A 
ATOM     55  C   UNL A   1      46.067  29.446  28.305  1.00  0.00     0.034 A 
ATOM     56  C   UNL A   1      43.619  23.106  28.384  1.00  0.00     0.049 A 
ATOM     57  C   UNL A   1      46.638  28.092  28.459  1.00  0.00     0.074 A 
ATOM     58  C   UNL A   1      43.154  22.732  29.629  1.00  0.00     0.029 A 
ATOM     59  N   UNL A   1      44.878  23.625  28.593  1.00  0.00    -0.354 N 
ATOM     60  N   UNL A   1      46.675  27.464  29.603  1.00  0.00    -0.248 NA
ATOM     61  C   UNL A   1      46.757  27.238  27.287  1.00  0.00     0.031 C 
ATOM     62  C   UNL A   1      43.953  23.463  30.559  1.00  0.00     0.029 A 
ATOM     63  C   UNL A   1      44.909  24.189  29.844  1.00  0.00     0.049 A 
ATOM     64  H   UNL A   1      45.627  23.595  27.954  1.00  0.00     0.167 HD
ATOM     65  C   UNL A   1      46.363  26.149  29.298  1.00  0.00     0.074 A 
ATOM     66  C   UNL A   1      46.575  26.042  27.857  1.00  0.00     0.031 C 
ATOM     67  C   UNL A   1      45.695  25.361  30.192  1.00  0.00     0.034 A 
BRANCH  54  68
ATOM     68  C   UNL A   1      43.618  22.807  25.818  1.00  0.00     0.023 A 
ATOM     69  C   UNL A   1      43.729  21.405  25.710  1.00  0.00     0.031 A 
ATOM     70  C   UNL A   1      44.337  23.548  24.854  1.00  0.00     0.131 A 
ATOM     71  C   UNL A   1      44.593  20.812  24.773  1.00  0.00     0.055 A 
ATOM     72  C   UNL A   1      45.144  22.952  23.879  1.00  0.00     0.041 A 
ATOM     73  F   UNL A   1      44.381  24.885  24.850  1.00  0.00    -0.206 F 
ATOM     74  C   UNL A   1      45.303  21.578  23.854  1.00  0.00     0.022 A 
BRANCH  71  75
ATOM     75  S   UNL A   1      44.915  19.033  24.898  1.00  0.00     0.124 S 
ATOM     76  O   UNL A   1      46.157  19.012  25.664  1.00  0.00    -0.237 OA
ATOM     77  O   UNL A   1      43.721  18.561  25.590  1.00  0.00    -0.237 OA
ATOM     78  O   UNL A   1      45.037  18.612  23.505  1.00  0.00    -0.744 OA
ENDBRANCH  71  75
ENDBRANCH  54  68
BRANCH  55  79
ATOM     79  C   UNL A   1      46.756  30.592  27.663  1.00  0.00     0.023 A 
ATOM     80  C   UNL A   1      46.080  31.616  26.975  1.00  0.00     0.031 A 
ATOM     81  C   UNL A   1      48.129  30.798  27.932  1.00  0.00     0.131 A 
ATOM     82  C   UNL A   1      46.773  32.790  26.592  1.00  0.00     0.055 A 
ATOM     83  C   UNL A   1      48.809  31.956  27.551  1.00  0.00     0.041 A 
ATOM     84  F   UNL A   1      48.833  29.907  28.651  1.00  0.00    -0.206 F 
ATOM     85  C   UNL A   1      48.129  32.963  26.885  1.00  0.00     0.022 A 
BRANCH  82  86
ATOM     86  S   UNL A   1      45.888  34.151  25.766  1.00  0.00     0.124 S 
ATOM     87  O   UNL A   1      45.351  34.907  26.891  1.00  0.00    -0.237 OA
ATOM     88  O   UNL A   1      46.952  34.792  25.001  1.00  0.00    -0.237 OA
ATOM     89  O   UNL A   1      44.883  33.463  24.954  1.00  0.00    -0.744 OA
ENDBRANCH  82  86
ENDBRANCH  55  79
BRANCH  67  90
ATOM     90  C   UNL A   1      45.597  25.851  31.626  1.00  0.00     0.023 A 
ATOM     91  C   UNL A   1      44.422  26.359  32.227  1.00  0.00     0.031 A 
ATOM     92  C   UNL A   1      46.728  25.687  32.442  1.00  0.00     0.131 A 
ATOM     93  C   UNL A   1      44.416  26.691  33.597  1.00  0.00     0.055 A 
ATOM     94  C   UNL A   1      46.713  25.997  33.802  1.00  0.00     0.041 A 
ATOM     95  F   UNL A   1      47.865  25.181  31.936  1.00  0.00    -0.206 F 
ATOM     96  C   UNL A   1      45.557  26.505  34.384  1.00  0.00     0.022 A 
BRANCH  93  97
ATOM     97  S   UNL A   1      42.916  27.370  34.382  1.00  0.00     0.124 S 
ATOM     98  O   UNL A   1      43.442  28.212  35.449  1.00  0.00    -0.237 OA
ATOM     99  O   UNL A   1      42.265  28.070  33.278  1.00  0.00    -0.237 OA
ATOM    100  O   UNL A   1      42.203  26.177  34.845  1.00  0.00    -0.744 OA
ENDBRANCH  93  97
ENDBRANCH  67  90
ENDBRANCH  41  42
ENDBRANCH  33  36
ENDBRANCH  31  32
ENDBRANCH   1  31
TORSDOF 16
ENDMDL
MODEL 2
REMARK VINA RESULT:     -12.5      5.321     10.788
REMARK SMILES CC1(C)Cc2c(-c3ccccc3)c(-c3ccc(Cl)cc3)c(CC(=O)NCCCNC(=O)c3ccc(-c4c5nc(c(-c6cc(S(=O)(=O)[O-])ccc6F)c6ccc([nH]6)c(-c6cc(S(=O)(=O)[O-])ccc6F)c6nc(c(-c7cc(S(=O)(=O)[O-])ccc7F)c7ccc4[nH]7)C=C6)C=C5)cc3)n2C1
REMARK SMILES IDX 27 1 26 2 25 3 23 4 24 5 22 7 21 8 1 9 2 10 3 11 4 12 96 13
REMARK SMILES IDX 5 14 95 15 6 16 13 17 7 18 8 19 12 20 9 21 11 22 10 23 14 24
REMARK SMILES IDX 15 25 20 26 16 27 19 28 17 29 18 30 28 31 29 32 30 33 31 35
REMARK SMILES IDX 32 36 33 37 94 38 34 39 93 40 35 41 36 42 37 43 87 44 38 45
REMARK SMILES IDX 92 46 86 47 88 48 39 49 91 50 85 51 84 52 40 54 72 55 52 56
REMARK SMILES IDX 71 57 53 58 56 59 70 60 89 61 54 62 55 63 69 65 90 66 57 67
REMARK SMILES IDX 41 68 42 69 50 70 43 71 49 72 51 73 48 74 44 75 45 76 46 77
REMARK SMILES IDX 47 78 73 79 74 80 82 81 75 82 81 83 83 84 80 85 76 86 77 87
REMARK SMILES IDX 78 88 79 89 58 90 59 91 67 92 60 93 66 94 68 95 65 96 61 97
REMARK SMILES IDX 62 98 63 99 64 100
REMARK H PARENT 25 6 29 34 88 53 56 64
REMARK Flexibility Score: inf
ROOT
ATOM      1  C   UNL A   1      43.102  28.386  35.737  1.00  0.00     0.042 C 
ENDROOT
BRANCH   1   2
ATOM      2  C   UNL A   1      41.751  29.052  35.493  1.00  0.00     0.117 C 
BRANCH   2   3
ATOM      3  N   UNL A   1      41.771  30.088  34.484  1.00  0.00    -0.356 N 
ATOM      4  C   UNL A   1      40.714  30.712  33.881  1.00  0.00     0.225 C 
ATOM      5  O   UNL A   1      40.943  31.731  33.225  1.00  0.00    -0.275 OA
ATOM      6  H   UNL A   1      42.664  30.383  34.193  1.00  0.00     0.163 HD
BRANCH   4   7
ATOM      7  C   UNL A   1      39.293  30.203  34.076  1.00  0.00     0.154 C 
BRANCH   7   8
ATOM      8  C   UNL A   1      38.278  31.297  34.245  1.00  0.00     0.036 A 
ATOM      9  C   UNL A   1      38.733  33.788  38.535  1.00  0.00     0.013 C 
ATOM     10  C   UNL A   1      37.920  32.949  37.549  1.00  0.00    -0.012 C 
ATOM     11  C   UNL A   1      36.911  32.105  38.350  1.00  0.00     0.013 C 
ATOM     12  C   UNL A   1      37.150  33.832  36.516  1.00  0.00     0.063 C 
ATOM     13  C   UNL A   1      38.855  32.060  36.675  1.00  0.00     0.129 C 
ATOM     14  C   UNL A   1      37.246  33.025  35.275  1.00  0.00     0.027 A 
ATOM     15  N   UNL A   1      38.190  32.049  35.380  1.00  0.00    -0.346 N 
ATOM     16  C   UNL A   1      36.661  32.925  34.040  1.00  0.00     0.011 A 
ATOM     17  C   UNL A   1      37.315  31.824  33.376  1.00  0.00     0.011 A 
BRANCH  16  18
ATOM     18  C   UNL A   1      35.586  33.783  33.582  1.00  0.00    -0.016 A 
ATOM     19  C   UNL A   1      35.826  35.131  33.293  1.00  0.00     0.009 A 
ATOM     20  C   UNL A   1      34.300  33.260  33.405  1.00  0.00     0.009 A 
ATOM     21  C   UNL A   1      34.790  35.947  32.833  1.00  0.00     0.001 A 
ATOM     22  C   UNL A   1      33.266  34.076  32.946  1.00  0.00     0.001 A 
ATOM     23  C   UNL A   1      33.512  35.418  32.661  1.00  0.00     0.000 A 
ENDBRANCH  16  18
BRANCH  17  24
ATOM     24  C   UNL A   1      37.070  31.361  32.015  1.00  0.00    -0.016 A 
ATOM     25  C   UNL A   1      36.609  30.056  31.799  1.00  0.00     0.010 A 
ATOM     26  C   UNL A   1      37.391  32.163  30.913  1.00  0.00     0.010 A 
ATOM     27  C   UNL A   1      36.453  29.566  30.499  1.00  0.00     0.021 A 
ATOM     28  C   UNL A   1      37.218  31.680  29.611  1.00  0.00     0.021 A 
ATOM     29  C   UNL A   1      36.753  30.383  29.411  1.00  0.00     0.041 A 
ATOM     30  Cl  UNL A   1      36.562  29.775  27.813  1.00  0.00    -0.084 Cl
ENDBRANCH  17  24
ENDBRANCH   7   8
ENDBRANCH   4   7
ENDBRANCH   2   3
ENDBRANCH   1   2
BRANCH   1  31
ATOM     31  C   UNL A   1      43.040  26.875  35.711  1.00  0.00     0.118 C 
BRANCH  31  32
ATOM     32  N   UNL A   1      44.078  26.267  36.549  1.00  0.00    -0.352 N 
ATOM     33  C   UNL A   1      45.081  25.387  36.175  1.00  0.00     0.251 C 
ATOM     34  H   UNL A   1      44.061  26.517  37.501  1.00  0.00     0.163 HD
ATOM     35  O   UNL A   1      45.655  24.715  37.010  1.00  0.00    -0.269 OA
BRANCH  33  36
ATOM     36  C   UNL A   1      45.401  25.273  34.737  1.00  0.00     0.039 A 
ATOM     37  C   UNL A   1      45.060  24.140  33.997  1.00  0.00     0.014 A 
ATOM     38  C   UNL A   1      45.974  26.376  34.121  1.00  0.00     0.014 A 
ATOM     39  C   UNL A   1      45.207  24.178  32.609  1.00  0.00     0.010 A 
ATOM     40  C   UNL A   1      45.921  26.487  32.758  1.00  0.00     0.010 A 
ATOM     41  C   UNL A   1      45.608  25.372  31.989  1.00  0.00    -0.014 A 
BRANCH  41  42
ATOM     42  C   UNL A   1      45.614  25.522  30.534  1.00  0.00     0.031 A 
ATOM     43  C   UNL A   1      46.778  26.257  29.976  1.00  0.00     0.074 A 
ATOM     44  C   UNL A   1      44.767  24.845  29.726  1.00  0.00     0.049 A 
ATOM     45  N   UNL A   1      46.777  27.414  29.403  1.00  0.00    -0.248 NA
ATOM     46  C   UNL A   1      48.126  25.711  30.194  1.00  0.00     0.031 C 
ATOM     47  C   UNL A   1      43.740  23.867  30.113  1.00  0.00     0.029 A 
ATOM     48  N   UNL A   1      44.725  24.795  28.366  1.00  0.00    -0.354 N 
ATOM     49  C   UNL A   1      48.080  27.633  28.967  1.00  0.00     0.074 A 
ATOM     50  C   UNL A   1      48.889  26.668  29.660  1.00  0.00     0.031 C 
ATOM     51  C   UNL A   1      43.355  23.153  29.035  1.00  0.00     0.029 A 
ATOM     52  C   UNL A   1      43.945  23.760  27.858  1.00  0.00     0.049 A 
ATOM     53  H   UNL A   1      45.204  25.435  27.792  1.00  0.00     0.167 HD
ATOM     54  C   UNL A   1      48.335  28.433  27.892  1.00  0.00     0.034 A 
ATOM     55  C   UNL A   1      43.755  23.420  26.559  1.00  0.00     0.034 A 
ATOM     56  C   UNL A   1      47.166  29.215  27.551  1.00  0.00     0.049 A 
ATOM     57  C   UNL A   1      44.041  24.632  25.761  1.00  0.00     0.074 A 
ATOM     58  C   UNL A   1      46.408  30.174  28.193  1.00  0.00     0.029 A 
ATOM     59  N   UNL A   1      46.387  28.755  26.512  1.00  0.00    -0.354 N 
ATOM     60  N   UNL A   1      43.329  25.723  25.850  1.00  0.00    -0.248 NA
ATOM     61  C   UNL A   1      45.372  24.812  25.202  1.00  0.00     0.031 C 
ATOM     62  C   UNL A   1      45.062  29.909  27.799  1.00  0.00     0.029 A 
ATOM     63  C   UNL A   1      45.070  28.853  26.884  1.00  0.00     0.049 A 
ATOM     64  H   UNL A   1      46.720  28.414  25.649  1.00  0.00     0.167 HD
ATOM     65  C   UNL A   1      44.251  26.755  25.797  1.00  0.00     0.074 A 
ATOM     66  C   UNL A   1      45.459  26.145  25.248  1.00  0.00     0.031 C 
ATOM     67  C   UNL A   1      44.031  27.926  26.466  1.00  0.00     0.034 A 
BRANCH  54  68
ATOM     68  C   UNL A   1      49.478  28.257  26.910  1.00  0.00     0.023 A 
ATOM     69  C   UNL A   1      50.386  29.329  26.780  1.00  0.00     0.031 A 
ATOM     70  C   UNL A   1      49.569  27.260  25.912  1.00  0.00     0.131 A 
ATOM     71  C   UNL A   1      51.235  29.433  25.664  1.00  0.00     0.055 A 
ATOM     72  C   UNL A   1      50.463  27.335  24.839  1.00  0.00     0.041 A 
ATOM     73  F   UNL A   1      48.745  26.208  25.860  1.00  0.00    -0.206 F 
ATOM     74  C   UNL A   1      51.280  28.441  24.690  1.00  0.00     0.022 A 
BRANCH  71  75
ATOM     75  S   UNL A   1      52.145  30.980  25.413  1.00  0.00     0.124 S 
ATOM     76  O   UNL A   1      51.520  31.497  24.200  1.00  0.00    -0.237 OA
ATOM     77  O   UNL A   1      51.856  31.701  26.647  1.00  0.00    -0.237 OA
ATOM     78  O   UNL A   1      53.529  30.537  25.258  1.00  0.00    -0.744 OA
ENDBRANCH  71  75
ENDBRANCH  54  68
BRANCH  55  79
ATOM     79  C   UNL A   1      43.599  22.054  26.003  1.00  0.00     0.023 A 
ATOM     80  C   UNL A   1      44.665  21.310  25.465  1.00  0.00     0.031 A 
ATOM     81  C   UNL A   1      42.382  21.367  26.217  1.00  0.00     0.131 A 
ATOM     82  C   UNL A   1      44.493  19.936  25.169  1.00  0.00     0.055 A 
ATOM     83  C   UNL A   1      42.216  20.013  25.922  1.00  0.00     0.041 A 
ATOM     84  F   UNL A   1      41.337  21.980  26.798  1.00  0.00    -0.206 F 
ATOM     85  C   UNL A   1      43.277  19.288  25.404  1.00  0.00     0.022 A 
BRANCH  82  86
ATOM     86  S   UNL A   1      45.889  18.950  24.540  1.00  0.00     0.124 S 
ATOM     87  O   UNL A   1      45.883  17.793  25.426  1.00  0.00    -0.237 OA
ATOM     88  O   UNL A   1      45.498  18.709  23.155  1.00  0.00    -0.237 OA
ATOM     89  O   UNL A   1      47.039  19.841  24.703  1.00  0.00    -0.744 OA
ENDBRANCH  82  86
ENDBRANCH  55  79
BRANCH  67  90
ATOM     90  C   UNL A   1      42.629  28.187  26.986  1.00  0.00     0.023 A 
ATOM     91  C   UNL A   1      42.252  28.141  28.348  1.00  0.00     0.031 A 
ATOM     92  C   UNL A   1      41.664  28.609  26.057  1.00  0.00     0.131 A 
ATOM     93  C   UNL A   1      40.945  28.501  28.733  1.00  0.00     0.055 A 
ATOM     94  C   UNL A   1      40.378  28.985  26.442  1.00  0.00     0.041 A 
ATOM     95  F   UNL A   1      41.971  28.702  24.753  1.00  0.00    -0.206 F 
ATOM     96  C   UNL A   1      40.011  28.927  27.782  1.00  0.00     0.022 A 
BRANCH  93  97
ATOM     97  S   UNL A   1      40.435  28.424  30.483  1.00  0.00     0.124 S 
ATOM     98  O   UNL A   1      41.634  27.953  31.165  1.00  0.00    -0.237 OA
ATOM     99  O   UNL A   1      40.038  29.801  30.763  1.00  0.00    -0.237 OA
ATOM    100  O   UNL A   1      39.327  27.465  30.473  1.00  0.00    -0.744 OA
ENDBRANCH  93  97
ENDBRANCH  67  90
ENDBRANCH  41  42
ENDBRANCH  33  36
ENDBRANCH  31  32
ENDBRANCH   1  31
TORSDOF 16
ENDMDL
MODEL 3
REMARK VINA RESULT:     -12.4      4.573      8.404
REMARK SMILES CC1(C)Cc2c(-c3ccccc3)c(-c3ccc(Cl)cc3)c(CC(=O)NCCCNC(=O)c3ccc(-c4c5nc(c(-c6cc(S(=O)(=O)[O-])ccc6F)c6ccc([nH]6)c(-c6cc(S(=O)(=O)[O-])ccc6F)c6nc(c(-c7cc(S(=O)(=O)[O-])ccc7F)c7ccc4[nH]7)C=C6)C=C5)cc3)n2C1
REMARK SMILES IDX 27 1 26 2 25 3 23 4 24 5 22 7 21 8 1 9 2 10 3 11 4 12 96 13
REMARK SMILES IDX 5 14 95 15 6 16 13 17 7 18 8 19 12 20 9 21 11 22 10 23 14 24
REMARK SMILES IDX 15 25 20 26 16 27 19 28 17 29 18 30 28 31 29 32 30 33 31 35
REMARK SMILES IDX 32 36 33 37 94 38 34 39 93 40 35 41 36 42 37 43 87 44 38 45
REMARK SMILES IDX 92 46 86 47 88 48 39 49 91 50 85 51 84 52 40 54 72 55 52 56
REMARK SMILES IDX 71 57 53 58 56 59 70 60 89 61 54 62 55 63 69 65 90 66 57 67
REMARK SMILES IDX 41 68 42 69 50 70 43 71 49 72 51 73 48 74 44 75 45 76 46 77
REMARK SMILES IDX 47 78 73 79 74 80 82 81 75 82 81 83 83 84 80 85 76 86 77 87
REMARK SMILES IDX 78 88 79 89 58 90 59 91 67 92 60 93 66 94 68 95 65 96 61 97
REMARK SMILES IDX 62 98 63 99 64 100
REMARK H PARENT 25 6 29 34 88 53 56 64
REMARK Flexibility Score: inf
ROOT
ATOM      1  C   UNL A   1      36.170  32.906  28.180  1.00  0.00     0.042 C 
ENDROOT
BRANCH   1   2
ATOM      2  C   UNL A   1      36.759  33.621  29.393  1.00  0.00     0.117 C 
BRANCH   2   3
ATOM      3  N   UNL A   1      37.894  34.466  29.092  1.00  0.00    -0.356 N 
ATOM      4  C   UNL A   1      39.220  34.228  29.327  1.00  0.00     0.225 C 
ATOM      5  O   UNL A   1      40.043  34.965  28.781  1.00  0.00    -0.275 OA
ATOM      6  H   UNL A   1      37.684  35.326  28.662  1.00  0.00     0.163 HD
BRANCH   4   7
ATOM      7  C   UNL A   1      39.662  33.046  30.178  1.00  0.00     0.154 C 
BRANCH   7   8
ATOM      8  C   UNL A   1      40.036  33.420  31.583  1.00  0.00     0.036 A 
ATOM      9  C   UNL A   1      44.900  34.315  32.179  1.00  0.00     0.013 C 
ATOM     10  C   UNL A   1      43.620  33.559  32.536  1.00  0.00    -0.012 C 
ATOM     11  C   UNL A   1      44.008  32.136  32.979  1.00  0.00     0.013 C 
ATOM     12  C   UNL A   1      42.820  34.258  33.681  1.00  0.00     0.063 C 
ATOM     13  C   UNL A   1      42.632  33.541  31.331  1.00  0.00     0.129 C 
ATOM     14  C   UNL A   1      41.413  34.033  33.268  1.00  0.00     0.027 A 
ATOM     15  N   UNL A   1      41.326  33.636  31.968  1.00  0.00    -0.346 N 
ATOM     16  C   UNL A   1      40.146  34.073  33.789  1.00  0.00     0.011 A 
ATOM     17  C   UNL A   1      39.261  33.682  32.720  1.00  0.00     0.011 A 
BRANCH  16  18
ATOM     18  C   UNL A   1      39.849  34.425  35.165  1.00  0.00    -0.016 A 
ATOM     19  C   UNL A   1      40.261  35.654  35.689  1.00  0.00     0.009 A 
ATOM     20  C   UNL A   1      39.124  33.541  35.972  1.00  0.00     0.009 A 
ATOM     21  C   UNL A   1      39.954  35.995  37.007  1.00  0.00     0.001 A 
ATOM     22  C   UNL A   1      38.817  33.882  37.289  1.00  0.00     0.001 A 
ATOM     23  C   UNL A   1      39.233  35.108  37.806  1.00  0.00     0.000 A 
ENDBRANCH  16  18
BRANCH  17  24
ATOM     24  C   UNL A   1      37.806  33.621  32.776  1.00  0.00    -0.016 A 
ATOM     25  C   UNL A   1      37.061  34.808  32.776  1.00  0.00     0.010 A 
ATOM     26  C   UNL A   1      37.142  32.399  32.942  1.00  0.00     0.010 A 
ATOM     27  C   UNL A   1      35.671  34.771  32.918  1.00  0.00     0.021 A 
ATOM     28  C   UNL A   1      35.749  32.360  33.066  1.00  0.00     0.021 A 
ATOM     29  C   UNL A   1      35.021  33.547  33.057  1.00  0.00     0.041 A 
ATOM     30  Cl  UNL A   1      33.310  33.507  33.234  1.00  0.00    -0.084 Cl
ENDBRANCH  17  24
ENDBRANCH   7   8
ENDBRANCH   4   7
ENDBRANCH   2   3
ENDBRANCH   1   2
BRANCH   1  31
ATOM     31  C   UNL A   1      36.251  31.398  28.275  1.00  0.00     0.118 C 
BRANCH  31  32
ATOM     32  N   UNL A   1      35.998  30.918  29.637  1.00  0.00    -0.352 N 
ATOM     33  C   UNL A   1      36.515  29.795  30.264  1.00  0.00     0.251 C 
ATOM     34  H   UNL A   1      35.382  31.464  30.176  1.00  0.00     0.163 HD
ATOM     35  O   UNL A   1      35.977  29.340  31.254  1.00  0.00    -0.269 OA
BRANCH  33  36
ATOM     36  C   UNL A   1      37.711  29.160  29.672  1.00  0.00     0.039 A 
ATOM     37  C   UNL A   1      38.241  29.588  28.453  1.00  0.00     0.014 A 
ATOM     38  C   UNL A   1      38.349  28.179  30.417  1.00  0.00     0.014 A 
ATOM     39  C   UNL A   1      39.480  29.088  28.050  1.00  0.00     0.010 A 
ATOM     40  C   UNL A   1      39.645  27.851  30.125  1.00  0.00     0.010 A 
ATOM     41  C   UNL A   1      40.197  28.242  28.911  1.00  0.00    -0.014 A 
BRANCH  41  42
ATOM     42  C   UNL A   1      41.568  27.825  28.619  1.00  0.00     0.031 A 
ATOM     43  C   UNL A   1      41.699  26.545  27.875  1.00  0.00     0.074 A 
ATOM     44  C   UNL A   1      42.632  28.643  28.788  1.00  0.00     0.049 A 
ATOM     45  N   UNL A   1      42.187  25.431  28.307  1.00  0.00    -0.248 NA
ATOM     46  C   UNL A   1      41.099  26.445  26.537  1.00  0.00     0.031 C 
ATOM     47  C   UNL A   1      42.633  30.037  29.256  1.00  0.00     0.029 A 
ATOM     48  N   UNL A   1      43.938  28.440  28.461  1.00  0.00    -0.354 N 
ATOM     49  C   UNL A   1      42.184  24.559  27.223  1.00  0.00     0.074 A 
ATOM     50  C   UNL A   1      41.321  25.161  26.243  1.00  0.00     0.031 C 
ATOM     51  C   UNL A   1      43.811  30.622  28.955  1.00  0.00     0.029 A 
ATOM     52  C   UNL A   1      44.714  29.596  28.472  1.00  0.00     0.049 A 
ATOM     53  H   UNL A   1      44.303  27.554  28.237  1.00  0.00     0.167 HD
ATOM     54  C   UNL A   1      43.086  23.539  27.139  1.00  0.00     0.034 A 
ATOM     55  C   UNL A   1      46.022  29.724  28.139  1.00  0.00     0.034 A 
ATOM     56  C   UNL A   1      43.736  23.329  28.416  1.00  0.00     0.049 A 
ATOM     57  C   UNL A   1      46.631  28.388  28.304  1.00  0.00     0.074 A 
ATOM     58  C   UNL A   1      43.316  22.970  29.681  1.00  0.00     0.029 A 
ATOM     59  N   UNL A   1      44.987  23.883  28.578  1.00  0.00    -0.354 N 
ATOM     60  N   UNL A   1      46.716  27.785  29.459  1.00  0.00    -0.248 NA
ATOM     61  C   UNL A   1      46.738  27.513  27.146  1.00  0.00     0.031 C 
ATOM     62  C   UNL A   1      44.123  23.739  30.572  1.00  0.00     0.029 A 
ATOM     63  C   UNL A   1      45.039  24.474  29.816  1.00  0.00     0.049 A 
ATOM     64  H   UNL A   1      45.718  23.858  27.919  1.00  0.00     0.167 HD
ATOM     65  C   UNL A   1      46.428  26.457  29.189  1.00  0.00     0.074 A 
ATOM     66  C   UNL A   1      46.603  26.325  27.745  1.00  0.00     0.031 C 
ATOM     67  C   UNL A   1      45.805  25.671  30.118  1.00  0.00     0.034 A 
BRANCH  54  68
ATOM     68  C   UNL A   1      43.670  22.977  25.858  1.00  0.00     0.023 A 
ATOM     69  C   UNL A   1      43.690  21.573  25.720  1.00  0.00     0.031 A 
ATOM     70  C   UNL A   1      44.448  23.690  24.918  1.00  0.00     0.131 A 
ATOM     71  C   UNL A   1      44.524  20.945  24.778  1.00  0.00     0.055 A 
ATOM     72  C   UNL A   1      45.225  23.062  23.938  1.00  0.00     0.041 A 
ATOM     73  F   UNL A   1      44.581  25.020  24.944  1.00  0.00    -0.206 F 
ATOM     74  C   UNL A   1      45.293  21.682  23.884  1.00  0.00     0.022 A 
BRANCH  71  75
ATOM     75  S   UNL A   1      44.725  19.146  24.867  1.00  0.00     0.124 S 
ATOM     76  O   UNL A   1      46.016  19.027  25.539  1.00  0.00    -0.237 OA
ATOM     77  O   UNL A   1      43.555  18.752  25.643  1.00  0.00    -0.237 OA
ATOM     78  O   UNL A   1      44.714  18.734  23.466  1.00  0.00    -0.744 OA
ENDBRANCH  71  75
ENDBRANCH  54  68
BRANCH  55  79
ATOM     79  C   UNL A   1      46.664  30.872  27.455  1.00  0.00     0.023 A 
ATOM     80  C   UNL A   1      45.945  31.956  26.918  1.00  0.00     0.031 A 
ATOM     81  C   UNL A   1      48.070  31.011  27.530  1.00  0.00     0.131 A 
ATOM     82  C   UNL A   1      46.629  33.119  26.490  1.00  0.00     0.055 A 
ATOM     83  C   UNL A   1      48.741  32.159  27.106  1.00  0.00     0.041 A 
ATOM     84  F   UNL A   1      48.828  30.058  28.099  1.00  0.00    -0.206 F 
ATOM     85  C   UNL A   1      48.019  33.224  26.590  1.00  0.00     0.022 A 
BRANCH  82  86
ATOM     86  S   UNL A   1      45.698  34.553  25.862  1.00  0.00     0.124 S 
ATOM     87  O   UNL A   1      46.730  35.577  25.753  1.00  0.00    -0.237 OA
ATOM     88  O   UNL A   1      45.155  34.044  24.607  1.00  0.00    -0.237 OA
ATOM     89  O   UNL A   1      44.700  34.798  26.904  1.00  0.00    -0.744 OA
ENDBRANCH  82  86
ENDBRANCH  55  79
BRANCH  67  90
ATOM     90  C   UNL A   1      45.736  26.188  31.544  1.00  0.00     0.023 A 
ATOM     91  C   UNL A   1      44.587  26.757  32.141  1.00  0.00     0.031 A 
ATOM     92  C   UNL A   1      46.862  25.989  32.358  1.00  0.00     0.131 A 
ATOM     93  C   UNL A   1      44.602  27.111  33.505  1.00  0.00     0.055 A 
ATOM     94  C   UNL A   1      46.867  26.321  33.713  1.00  0.00     0.041 A 
ATOM     95  F   UNL A   1      47.973  25.425  31.856  1.00  0.00    -0.206 F 
ATOM     96  C   UNL A   1      45.738  26.889  34.291  1.00  0.00     0.022 A 
BRANCH  93  97
ATOM     97  S   UNL A   1      43.136  27.869  34.285  1.00  0.00     0.124 S 
ATOM     98  O   UNL A   1      43.637  29.144  34.782  1.00  0.00    -0.237 OA
ATOM     99  O   UNL A   1      42.186  27.942  33.178  1.00  0.00    -0.237 OA
ATOM    100  O   UNL A   1      42.773  26.910  35.331  1.00  0.00    -0.744 OA
ENDBRANCH  93  97
ENDBRANCH  67  90
ENDBRANCH  41  42
ENDBRANCH  33  36
ENDBRANCH  31  32
ENDBRANCH   1  31
TORSDOF 16
ENDMDL
