MODEL 1
REMARK VINA RESULT:     -14.2      0.000      0.000
REMARK SMILES Cc1cc(C(=O)NCCCNC(=O)c2ccc(-c3c4nc(c(-c5cc(S(=O)(=O)[O-])ccc5F)c5ccc([nH]5)c(-c5cc(S(=O)(=O)[O-])ccc5F)c5nc(c(-c6cc(S(=O)(=O)[O-])ccc6F)c6ccc3[nH]6)C=C5)C=C4)cc2)ccc1-c1ccc(C(=O)N2CCCCC2)cc1
REMARK SMILES IDX 9 1 8 2 7 3 5 4 6 5 4 7 1 8 2 9 3 10 79 11 78 12 77 13 80 14
REMARK SMILES IDX 81 15 93 16 82 17 92 18 83 19 84 20 85 21 86 22 87 23 91 24
REMARK SMILES IDX 88 25 90 26 89 27 10 28 11 29 12 30 13 32 14 33 15 34 76 35
REMARK SMILES IDX 16 36 75 37 17 38 18 39 19 40 69 41 20 42 74 43 68 44 70 45
REMARK SMILES IDX 21 46 73 47 67 48 66 49 22 51 54 52 34 53 53 54 35 55 38 56
REMARK SMILES IDX 52 57 71 58 36 59 37 60 51 62 72 63 39 64 23 65 24 66 32 67
REMARK SMILES IDX 25 68 31 69 33 70 30 71 26 72 27 73 28 74 29 75 55 76 56 77
REMARK SMILES IDX 64 78 57 79 63 80 65 81 62 82 58 83 59 84 60 85 61 86 40 87
REMARK SMILES IDX 41 88 49 89 42 90 48 91 50 92 47 93 43 94 44 95 45 96 46 97
REMARK H PARENT 7 6 11 31 70 50 38 61
REMARK Flexibility Score: inf
ROOT
ATOM      1  C   UNL A   1      32.390  31.005  26.518  1.00  0.00     0.042 C 
ENDROOT
BRANCH   1   2
ATOM      2  C   UNL A   1      31.830  29.942  25.604  1.00  0.00     0.118 C 
BRANCH   2   3
ATOM      3  N   UNL A   1      30.849  30.397  24.626  1.00  0.00    -0.352 N 
ATOM      4  C   UNL A   1      30.208  29.663  23.647  1.00  0.00     0.251 C 
ATOM      5  O   UNL A   1      29.443  30.207  22.852  1.00  0.00    -0.269 OA
ATOM      6  H   UNL A   1      30.613  31.352  24.668  1.00  0.00     0.163 HD
BRANCH   4   7
ATOM      7  C   UNL A   1      30.531  28.221  23.469  1.00  0.00     0.040 A 
ATOM      8  C   UNL A   1      33.547  26.185  22.442  1.00  0.00     0.045 C 
ATOM      9  C   UNL A   1      32.221  26.507  23.077  1.00  0.00    -0.042 A 
ATOM     10  C   UNL A   1      31.810  27.855  23.044  1.00  0.00     0.018 A 
ATOM     11  C   UNL A   1      31.373  25.539  23.665  1.00  0.00    -0.015 A 
ATOM     12  C   UNL A   1      30.051  25.917  23.955  1.00  0.00     0.010 A 
ATOM     13  C   UNL A   1      29.613  27.222  23.764  1.00  0.00     0.014 A 
BRANCH  11  14
ATOM     14  C   UNL A   1      31.789  24.162  23.991  1.00  0.00    -0.018 A 
ATOM     15  C   UNL A   1      31.549  23.606  25.257  1.00  0.00     0.009 A 
ATOM     16  C   UNL A   1      32.418  23.354  23.030  1.00  0.00     0.009 A 
ATOM     17  C   UNL A   1      32.021  22.331  25.585  1.00  0.00     0.014 A 
ATOM     18  C   UNL A   1      32.848  22.063  23.338  1.00  0.00     0.014 A 
ATOM     19  C   UNL A   1      32.682  21.554  24.629  1.00  0.00     0.040 A 
BRANCH  19  20
ATOM     20  C   UNL A   1      33.408  20.297  24.977  1.00  0.00     0.253 C 
ATOM     21  O   UNL A   1      34.408  20.364  25.691  1.00  0.00    -0.269 OA
ATOM     22  N   UNL A   1      32.836  19.080  24.637  1.00  0.00    -0.339 N 
ATOM     23  C   UNL A   1      32.855  18.013  25.624  1.00  0.00     0.120 C 
ATOM     24  C   UNL A   1      32.394  18.732  23.289  1.00  0.00     0.120 C 
ATOM     25  C   UNL A   1      33.636  16.806  25.131  1.00  0.00     0.022 C 
ATOM     26  C   UNL A   1      33.162  17.517  22.765  1.00  0.00     0.022 C 
ATOM     27  C   UNL A   1      33.124  16.359  23.763  1.00  0.00     0.004 C 
ENDBRANCH  19  20
ENDBRANCH  11  14
ENDBRANCH   4   7
ENDBRANCH   2   3
ENDBRANCH   1   2
BRANCH   1  28
ATOM     28  C   UNL A   1      33.215  30.468  27.671  1.00  0.00     0.118 C 
BRANCH  28  29
ATOM     29  N   UNL A   1      34.137  31.452  28.261  1.00  0.00    -0.352 N 
ATOM     30  C   UNL A   1      35.374  31.286  28.874  1.00  0.00     0.251 C 
ATOM     31  H   UNL A   1      33.825  32.384  28.213  1.00  0.00     0.163 HD
ATOM     32  O   UNL A   1      36.038  32.247  29.254  1.00  0.00    -0.269 OA
BRANCH  30  33
ATOM     33  C   UNL A   1      35.985  29.933  28.928  1.00  0.00     0.039 A 
ATOM     34  C   UNL A   1      36.570  29.584  30.151  1.00  0.00     0.014 A 
ATOM     35  C   UNL A   1      36.434  29.370  27.749  1.00  0.00     0.014 A 
ATOM     36  C   UNL A   1      37.853  29.057  30.143  1.00  0.00     0.010 A 
ATOM     37  C   UNL A   1      37.766  29.025  27.721  1.00  0.00     0.010 A 
ATOM     38  C   UNL A   1      38.492  28.955  28.914  1.00  0.00    -0.014 A 
BRANCH  38  39
ATOM     39  C   UNL A   1      39.906  28.687  28.757  1.00  0.00     0.031 A 
ATOM     40  C   UNL A   1      40.261  27.294  28.469  1.00  0.00     0.074 A 
ATOM     41  C   UNL A   1      40.824  29.675  28.822  1.00  0.00     0.049 A 
ATOM     42  N   UNL A   1      41.373  26.741  28.787  1.00  0.00    -0.248 NA
ATOM     43  C   UNL A   1      39.306  26.366  27.869  1.00  0.00     0.031 C 
ATOM     44  C   UNL A   1      42.245  29.602  28.494  1.00  0.00     0.029 A 
ATOM     45  N   UNL A   1      40.674  30.927  29.414  1.00  0.00    -0.354 N 
ATOM     46  C   UNL A   1      41.403  25.509  28.174  1.00  0.00     0.074 A 
ATOM     47  C   UNL A   1      40.054  25.273  27.737  1.00  0.00     0.031 C 
ATOM     48  C   UNL A   1      42.885  30.615  29.105  1.00  0.00     0.029 A 
ATOM     49  C   UNL A   1      41.927  31.284  29.964  1.00  0.00     0.049 A 
ATOM     50  H   UNL A   1      39.849  31.462  29.446  1.00  0.00     0.167 HD
ATOM     51  C   UNL A   1      42.611  24.916  27.972  1.00  0.00     0.034 A 
ATOM     52  C   UNL A   1      42.046  31.433  31.319  1.00  0.00     0.034 A 
ATOM     53  C   UNL A   1      43.674  25.715  28.600  1.00  0.00     0.049 A 
ATOM     54  C   UNL A   1      42.852  30.313  31.963  1.00  0.00     0.074 A 
ATOM     55  C   UNL A   1      44.574  26.654  28.124  1.00  0.00     0.029 A 
ATOM     56  N   UNL A   1      43.647  25.886  29.976  1.00  0.00    -0.354 N 
ATOM     57  N   UNL A   1      43.382  29.305  31.319  1.00  0.00    -0.248 NA
ATOM     58  C   UNL A   1      43.051  30.210  33.405  1.00  0.00     0.031 C 
ATOM     59  C   UNL A   1      45.040  27.425  29.234  1.00  0.00     0.029 A 
ATOM     60  C   UNL A   1      44.467  26.921  30.388  1.00  0.00     0.049 A 
ATOM     61  H   UNL A   1      43.108  25.334  30.589  1.00  0.00     0.167 HD
ATOM     62  C   UNL A   1      43.930  28.414  32.207  1.00  0.00     0.074 A 
ATOM     63  C   UNL A   1      43.670  29.021  33.506  1.00  0.00     0.031 C 
ATOM     64  C   UNL A   1      44.526  27.240  31.813  1.00  0.00     0.034 A 
BRANCH  51  65
ATOM     65  C   UNL A   1      42.862  23.807  26.972  1.00  0.00     0.023 A 
ATOM     66  C   UNL A   1      42.192  22.581  27.158  1.00  0.00     0.031 A 
ATOM     67  C   UNL A   1      43.755  23.833  25.878  1.00  0.00     0.131 A 
ATOM     68  C   UNL A   1      42.477  21.455  26.363  1.00  0.00     0.055 A 
ATOM     69  C   UNL A   1      44.076  22.702  25.116  1.00  0.00     0.041 A 
ATOM     70  F   UNL A   1      44.324  24.959  25.441  1.00  0.00    -0.206 F 
ATOM     71  C   UNL A   1      43.441  21.499  25.361  1.00  0.00     0.022 A 
BRANCH  68  72
ATOM     72  S   UNL A   1      41.562  19.921  26.659  1.00  0.00     0.124 S 
ATOM     73  O   UNL A   1      41.735  19.213  25.395  1.00  0.00    -0.237 OA
ATOM     74  O   UNL A   1      42.256  19.367  27.815  1.00  0.00    -0.237 OA
ATOM     75  O   UNL A   1      40.201  20.387  26.924  1.00  0.00    -0.744 OA
ENDBRANCH  68  72
ENDBRANCH  51  65
BRANCH  52  76
ATOM     76  C   UNL A   1      40.819  32.086  31.892  1.00  0.00     0.023 A 
ATOM     77  C   UNL A   1      39.959  31.254  32.650  1.00  0.00     0.031 A 
ATOM     78  C   UNL A   1      40.828  33.457  32.181  1.00  0.00     0.131 A 
ATOM     79  C   UNL A   1      39.375  31.750  33.828  1.00  0.00     0.055 A 
ATOM     80  C   UNL A   1      40.180  33.954  33.315  1.00  0.00     0.041 A 
ATOM     81  F   UNL A   1      41.600  34.302  31.482  1.00  0.00    -0.206 F 
ATOM     82  C   UNL A   1      39.522  33.089  34.187  1.00  0.00     0.022 A 
BRANCH  79  83
ATOM     83  S   UNL A   1      38.685  30.575  35.031  1.00  0.00     0.124 S 
ATOM     84  O   UNL A   1      39.842  30.266  35.863  1.00  0.00    -0.237 OA
ATOM     85  O   UNL A   1      37.627  31.354  35.664  1.00  0.00    -0.237 OA
ATOM     86  O   UNL A   1      38.195  29.473  34.201  1.00  0.00    -0.744 OA
ENDBRANCH  79  83
ENDBRANCH  52  76
BRANCH  64  87
ATOM     87  C   UNL A   1      45.185  26.249  32.760  1.00  0.00     0.023 A 
ATOM     88  C   UNL A   1      44.457  25.535  33.718  1.00  0.00     0.031 A 
ATOM     89  C   UNL A   1      46.584  26.015  32.777  1.00  0.00     0.131 A 
ATOM     90  C   UNL A   1      45.055  24.531  34.496  1.00  0.00     0.055 A 
ATOM     91  C   UNL A   1      47.195  25.072  33.609  1.00  0.00     0.041 A 
ATOM     92  F   UNL A   1      47.437  26.677  31.987  1.00  0.00    -0.206 F 
ATOM     93  C   UNL A   1      46.425  24.294  34.453  1.00  0.00     0.022 A 
BRANCH  90  94
ATOM     94  S   UNL A   1      43.983  23.487  35.511  1.00  0.00     0.124 S 
ATOM     95  O   UNL A   1      43.998  24.181  36.799  1.00  0.00    -0.237 OA
ATOM     96  O   UNL A   1      42.720  23.559  34.775  1.00  0.00    -0.237 OA
ATOM     97  O   UNL A   1      44.642  22.192  35.493  1.00  0.00    -0.744 OA
ENDBRANCH  90  94
ENDBRANCH  64  87
ENDBRANCH  38  39
ENDBRANCH  30  33
ENDBRANCH  28  29
ENDBRANCH   1  28
TORSDOF 15
ENDMDL
MODEL 2
REMARK VINA RESULT:     -13.9      4.304     10.013
REMARK SMILES Cc1cc(C(=O)NCCCNC(=O)c2ccc(-c3c4nc(c(-c5cc(S(=O)(=O)[O-])ccc5F)c5ccc([nH]5)c(-c5cc(S(=O)(=O)[O-])ccc5F)c5nc(c(-c6cc(S(=O)(=O)[O-])ccc6F)c6ccc3[nH]6)C=C5)C=C4)cc2)ccc1-c1ccc(C(=O)N2CCCCC2)cc1
REMARK SMILES IDX 9 1 8 2 7 3 5 4 6 5 4 7 1 8 2 9 3 10 79 11 78 12 77 13 80 14
REMARK SMILES IDX 81 15 93 16 82 17 92 18 83 19 84 20 85 21 86 22 87 23 91 24
REMARK SMILES IDX 88 25 90 26 89 27 10 28 11 29 12 30 13 32 14 33 15 34 76 35
REMARK SMILES IDX 16 36 75 37 17 38 18 39 19 40 69 41 20 42 74 43 68 44 70 45
REMARK SMILES IDX 21 46 73 47 67 48 66 49 22 51 54 52 34 53 53 54 35 55 38 56
REMARK SMILES IDX 52 57 71 58 36 59 37 60 51 62 72 63 39 64 23 65 24 66 32 67
REMARK SMILES IDX 25 68 31 69 33 70 30 71 26 72 27 73 28 74 29 75 55 76 56 77
REMARK SMILES IDX 64 78 57 79 63 80 65 81 62 82 58 83 59 84 60 85 61 86 40 87
REMARK SMILES IDX 41 88 49 89 42 90 48 91 50 92 47 93 43 94 44 95 45 96 46 97
REMARK H PARENT 7 6 11 31 70 50 38 61
REMARK Flexibility Score: inf
ROOT
ATOM      1  C   UNL A   1      40.430  22.666  27.136  1.00  0.00     0.042 C 
ENDROOT
BRANCH   1   2
ATOM      2  C   UNL A   1      39.186  22.533  26.293  1.00  0.00     0.118 C 
BRANCH   2   3
ATOM      3  N   UNL A   1      38.907  21.197  25.777  1.00  0.00    -0.352 N 
ATOM      4  C   UNL A   1      37.794  20.758  25.087  1.00  0.00     0.251 C 
ATOM      5  O   UNL A   1      37.677  19.577  24.767  1.00  0.00    -0.269 OA
ATOM      6  H   UNL A   1      39.602  20.520  25.944  1.00  0.00     0.163 HD
BRANCH   4   7
ATOM      7  C   UNL A   1      36.666  21.693  24.826  1.00  0.00     0.040 A 
ATOM      8  C   UNL A   1      33.542  22.806  26.643  1.00  0.00     0.045 C 
ATOM      9  C   UNL A   1      34.692  22.849  25.673  1.00  0.00    -0.042 A 
ATOM     10  C   UNL A   1      35.652  21.822  25.778  1.00  0.00     0.018 A 
ATOM     11  C   UNL A   1      34.835  23.830  24.664  1.00  0.00    -0.015 A 
ATOM     12  C   UNL A   1      35.780  23.592  23.651  1.00  0.00     0.010 A 
ATOM     13  C   UNL A   1      36.615  22.483  23.685  1.00  0.00     0.014 A 
BRANCH  11  14
ATOM     14  C   UNL A   1      34.057  25.082  24.610  1.00  0.00    -0.018 A 
ATOM     15  C   UNL A   1      33.995  25.951  25.710  1.00  0.00     0.009 A 
ATOM     16  C   UNL A   1      33.376  25.455  23.441  1.00  0.00     0.009 A 
ATOM     17  C   UNL A   1      33.189  27.093  25.681  1.00  0.00     0.014 A 
ATOM     18  C   UNL A   1      32.608  26.619  23.390  1.00  0.00     0.014 A 
ATOM     19  C   UNL A   1      32.482  27.431  24.522  1.00  0.00     0.040 A 
BRANCH  19  20
ATOM     20  C   UNL A   1      31.433  28.492  24.500  1.00  0.00     0.253 C 
ATOM     21  O   UNL A   1      31.579  29.490  25.205  1.00  0.00    -0.269 OA
ATOM     22  N   UNL A   1      30.419  28.409  23.558  1.00  0.00    -0.339 N 
ATOM     23  C   UNL A   1      30.040  29.619  22.848  1.00  0.00     0.120 C 
ATOM     24  C   UNL A   1      29.571  27.234  23.371  1.00  0.00     0.120 C 
ATOM     25  C   UNL A   1      28.591  29.994  23.112  1.00  0.00     0.022 C 
ATOM     26  C   UNL A   1      28.103  27.581  23.627  1.00  0.00     0.022 C 
ATOM     27  C   UNL A   1      27.671  28.809  22.826  1.00  0.00     0.004 C 
ENDBRANCH  19  20
ENDBRANCH  11  14
ENDBRANCH   4   7
ENDBRANCH   2   3
ENDBRANCH   1   2
BRANCH   1  28
ATOM     28  C   UNL A   1      41.569  23.404  26.461  1.00  0.00     0.118 C 
BRANCH  28  29
ATOM     29  N   UNL A   1      42.213  22.650  25.373  1.00  0.00    -0.352 N 
ATOM     30  C   UNL A   1      43.545  22.582  24.977  1.00  0.00     0.251 C 
ATOM     31  H   UNL A   1      41.598  22.101  24.836  1.00  0.00     0.163 HD
ATOM     32  O   UNL A   1      43.910  21.837  24.072  1.00  0.00    -0.269 OA
BRANCH  30  33
ATOM     33  C   UNL A   1      44.577  23.303  25.766  1.00  0.00     0.039 A 
ATOM     34  C   UNL A   1      44.636  22.973  27.126  1.00  0.00     0.014 A 
ATOM     35  C   UNL A   1      44.984  24.548  25.328  1.00  0.00     0.014 A 
ATOM     36  C   UNL A   1      44.656  24.003  28.054  1.00  0.00     0.010 A 
ATOM     37  C   UNL A   1      44.818  25.581  26.222  1.00  0.00     0.010 A 
ATOM     38  C   UNL A   1      44.568  25.301  27.568  1.00  0.00    -0.014 A 
BRANCH  38  39
ATOM     39  C   UNL A   1      44.306  26.459  28.398  1.00  0.00     0.031 A 
ATOM     40  C   UNL A   1      42.943  26.996  28.329  1.00  0.00     0.074 A 
ATOM     41  C   UNL A   1      45.250  26.968  29.218  1.00  0.00     0.049 A 
ATOM     42  N   UNL A   1      42.628  28.221  28.535  1.00  0.00    -0.248 NA
ATOM     43  C   UNL A   1      41.814  26.172  27.907  1.00  0.00     0.031 C 
ATOM     44  C   UNL A   1      45.086  27.990  30.247  1.00  0.00     0.029 A 
ATOM     45  N   UNL A   1      46.629  26.790  29.129  1.00  0.00    -0.354 N 
ATOM     46  C   UNL A   1      41.254  28.285  28.578  1.00  0.00     0.074 A 
ATOM     47  C   UNL A   1      40.803  27.026  28.051  1.00  0.00     0.031 C 
ATOM     48  C   UNL A   1      46.286  28.537  30.511  1.00  0.00     0.029 A 
ATOM     49  C   UNL A   1      47.236  27.992  29.559  1.00  0.00     0.049 A 
ATOM     50  H   UNL A   1      47.094  25.979  28.821  1.00  0.00     0.167 HD
ATOM     51  C   UNL A   1      40.675  29.341  29.211  1.00  0.00     0.034 A 
ATOM     52  C   UNL A   1      47.977  28.724  28.672  1.00  0.00     0.034 A 
ATOM     53  C   UNL A   1      41.705  30.303  29.628  1.00  0.00     0.049 A 
ATOM     54  C   UNL A   1      47.289  30.020  28.262  1.00  0.00     0.074 A 
ATOM     55  C   UNL A   1      42.363  30.541  30.824  1.00  0.00     0.029 A 
ATOM     56  N   UNL A   1      42.470  30.919  28.649  1.00  0.00    -0.354 N 
ATOM     57  N   UNL A   1      46.118  30.416  28.692  1.00  0.00    -0.248 NA
ATOM     58  C   UNL A   1      47.846  30.932  27.267  1.00  0.00     0.031 C 
ATOM     59  C   UNL A   1      43.564  31.262  30.533  1.00  0.00     0.029 A 
ATOM     60  C   UNL A   1      43.608  31.508  29.172  1.00  0.00     0.049 A 
ATOM     61  H   UNL A   1      42.231  30.937  27.694  1.00  0.00     0.167 HD
ATOM     62  C   UNL A   1      45.735  31.557  28.033  1.00  0.00     0.074 A 
ATOM     63  C   UNL A   1      46.848  31.821  27.131  1.00  0.00     0.031 C 
ATOM     64  C   UNL A   1      44.530  32.177  28.257  1.00  0.00     0.034 A 
BRANCH  51  65
ATOM     65  C   UNL A   1      39.245  29.357  29.711  1.00  0.00     0.023 A 
ATOM     66  C   UNL A   1      38.361  30.308  29.163  1.00  0.00     0.031 A 
ATOM     67  C   UNL A   1      38.690  28.552  30.730  1.00  0.00     0.131 A 
ATOM     68  C   UNL A   1      37.061  30.488  29.672  1.00  0.00     0.055 A 
ATOM     69  C   UNL A   1      37.415  28.761  31.271  1.00  0.00     0.041 A 
ATOM     70  F   UNL A   1      39.319  27.481  31.222  1.00  0.00    -0.206 F 
ATOM     71  C   UNL A   1      36.593  29.740  30.747  1.00  0.00     0.022 A 
BRANCH  68  72
ATOM     72  S   UNL A   1      35.984  31.723  28.902  1.00  0.00     0.124 S 
ATOM     73  O   UNL A   1      35.357  30.956  27.831  1.00  0.00    -0.237 OA
ATOM     74  O   UNL A   1      35.122  32.113  30.012  1.00  0.00    -0.237 OA
ATOM     75  O   UNL A   1      36.919  32.756  28.457  1.00  0.00    -0.744 OA
ENDBRANCH  68  72
ENDBRANCH  51  65
BRANCH  52  76
ATOM     76  C   UNL A   1      48.775  27.821  27.773  1.00  0.00     0.023 A 
ATOM     77  C   UNL A   1      48.139  27.399  26.579  1.00  0.00     0.031 A 
ATOM     78  C   UNL A   1      50.174  27.884  27.784  1.00  0.00     0.131 A 
ATOM     79  C   UNL A   1      48.876  27.340  25.384  1.00  0.00     0.055 A 
ATOM     80  C   UNL A   1      50.906  27.748  26.601  1.00  0.00     0.041 A 
ATOM     81  F   UNL A   1      50.838  28.250  28.891  1.00  0.00    -0.206 F 
ATOM     82  C   UNL A   1      50.253  27.559  25.386  1.00  0.00     0.022 A 
BRANCH  79  83
ATOM     83  S   UNL A   1      47.984  27.275  23.802  1.00  0.00     0.124 S 
ATOM     84  O   UNL A   1      47.918  25.843  23.541  1.00  0.00    -0.237 OA
ATOM     85  O   UNL A   1      46.721  27.930  24.124  1.00  0.00    -0.237 OA
ATOM     86  O   UNL A   1      48.835  28.042  22.891  1.00  0.00    -0.744 OA
ENDBRANCH  79  83
ENDBRANCH  52  76
BRANCH  64  87
ATOM     87  C   UNL A   1      44.088  33.467  27.583  1.00  0.00     0.023 A 
ATOM     88  C   UNL A   1      43.808  34.630  28.310  1.00  0.00     0.031 A 
ATOM     89  C   UNL A   1      43.880  33.573  26.184  1.00  0.00     0.131 A 
ATOM     90  C   UNL A   1      43.527  35.847  27.667  1.00  0.00     0.055 A 
ATOM     91  C   UNL A   1      43.521  34.765  25.548  1.00  0.00     0.041 A 
ATOM     92  F   UNL A   1      44.018  32.533  25.352  1.00  0.00    -0.206 F 
ATOM     93  C   UNL A   1      43.377  35.925  26.287  1.00  0.00     0.022 A 
BRANCH  90  94
ATOM     94  S   UNL A   1      43.441  37.344  28.677  1.00  0.00     0.124 S 
ATOM     95  O   UNL A   1      42.084  37.823  28.412  1.00  0.00    -0.237 OA
ATOM     96  O   UNL A   1      43.665  36.806  30.019  1.00  0.00    -0.237 OA
ATOM     97  O   UNL A   1      44.510  38.178  28.153  1.00  0.00    -0.744 OA
ENDBRANCH  90  94
ENDBRANCH  64  87
ENDBRANCH  38  39
ENDBRANCH  30  33
ENDBRANCH  28  29
ENDBRANCH   1  28
TORSDOF 15
ENDMDL
MODEL 3
REMARK VINA RESULT:     -13.8      2.158      2.698
REMARK SMILES Cc1cc(C(=O)NCCCNC(=O)c2ccc(-c3c4nc(c(-c5cc(S(=O)(=O)[O-])ccc5F)c5ccc([nH]5)c(-c5cc(S(=O)(=O)[O-])ccc5F)c5nc(c(-c6cc(S(=O)(=O)[O-])ccc6F)c6ccc3[nH]6)C=C5)C=C4)cc2)ccc1-c1ccc(C(=O)N2CCCCC2)cc1
REMARK SMILES IDX 9 1 8 2 7 3 5 4 6 5 4 7 1 8 2 9 3 10 79 11 78 12 77 13 80 14
REMARK SMILES IDX 81 15 93 16 82 17 92 18 83 19 84 20 85 21 86 22 87 23 91 24
REMARK SMILES IDX 88 25 90 26 89 27 10 28 11 29 12 30 13 32 14 33 15 34 76 35
REMARK SMILES IDX 16 36 75 37 17 38 18 39 19 40 69 41 20 42 74 43 68 44 70 45
REMARK SMILES IDX 21 46 73 47 67 48 66 49 22 51 54 52 34 53 53 54 35 55 38 56
REMARK SMILES IDX 52 57 71 58 36 59 37 60 51 62 72 63 39 64 23 65 24 66 32 67
REMARK SMILES IDX 25 68 31 69 33 70 30 71 26 72 27 73 28 74 29 75 55 76 56 77
REMARK SMILES IDX 64 78 57 79 63 80 65 81 62 82 58 83 59 84 60 85 61 86 40 87
REMARK SMILES IDX 41 88 49 89 42 90 48 91 50 92 47 93 43 94 44 95 45 96 46 97
REMARK H PARENT 7 6 11 31 70 50 38 61
REMARK Flexibility Score: inf
ROOT
ATOM      1  C   UNL A   1      32.266  30.812  26.545  1.00  0.00     0.042 C 
ENDROOT
BRANCH   1   2
ATOM      2  C   UNL A   1      31.543  29.769  25.727  1.00  0.00     0.118 C 
BRANCH   2   3
ATOM      3  N   UNL A   1      30.698  30.277  24.652  1.00  0.00    -0.352 N 
ATOM      4  C   UNL A   1      30.175  29.590  23.574  1.00  0.00     0.251 C 
ATOM      5  O   UNL A   1      29.523  30.176  22.711  1.00  0.00    -0.269 OA
ATOM      6  H   UNL A   1      30.471  31.233  24.702  1.00  0.00     0.163 HD
BRANCH   4   7
ATOM      7  C   UNL A   1      30.498  28.150  23.383  1.00  0.00     0.040 A 
ATOM      8  C   UNL A   1      33.038  26.136  21.436  1.00  0.00     0.045 C 
ATOM      9  C   UNL A   1      32.025  26.466  22.499  1.00  0.00    -0.042 A 
ATOM     10  C   UNL A   1      31.548  27.792  22.534  1.00  0.00     0.018 A 
ATOM     11  C   UNL A   1      31.518  25.523  23.424  1.00  0.00    -0.015 A 
ATOM     12  C   UNL A   1      30.377  25.880  24.162  1.00  0.00     0.010 A 
ATOM     13  C   UNL A   1      29.819  27.149  24.065  1.00  0.00     0.014 A 
BRANCH  11  14
ATOM     14  C   UNL A   1      32.110  24.193  23.659  1.00  0.00    -0.018 A 
ATOM     15  C   UNL A   1      31.393  23.016  23.392  1.00  0.00     0.009 A 
ATOM     16  C   UNL A   1      33.425  24.065  24.133  1.00  0.00     0.009 A 
ATOM     17  C   UNL A   1      31.930  21.761  23.696  1.00  0.00     0.014 A 
ATOM     18  C   UNL A   1      33.983  22.813  24.394  1.00  0.00     0.014 A 
ATOM     19  C   UNL A   1      33.227  21.652  24.207  1.00  0.00     0.040 A 
BRANCH  19  20
ATOM     20  C   UNL A   1      33.766  20.377  24.767  1.00  0.00     0.253 C 
ATOM     21  O   UNL A   1      34.732  20.420  25.528  1.00  0.00    -0.269 OA
ATOM     22  N   UNL A   1      33.057  19.204  24.556  1.00  0.00    -0.339 N 
ATOM     23  C   UNL A   1      32.890  18.292  25.676  1.00  0.00     0.120 C 
ATOM     24  C   UNL A   1      32.637  18.726  23.242  1.00  0.00     0.120 C 
ATOM     25  C   UNL A   1      33.529  16.941  25.401  1.00  0.00     0.022 C 
ATOM     26  C   UNL A   1      33.263  17.365  22.936  1.00  0.00     0.022 C 
ATOM     27  C   UNL A   1      33.027  16.372  24.075  1.00  0.00     0.004 C 
ENDBRANCH  19  20
ENDBRANCH  11  14
ENDBRANCH   4   7
ENDBRANCH   2   3
ENDBRANCH   1   2
BRANCH   1  28
ATOM     28  C   UNL A   1      33.686  30.438  26.920  1.00  0.00     0.118 C 
BRANCH  28  29
ATOM     29  N   UNL A   1      34.303  31.337  27.909  1.00  0.00    -0.352 N 
ATOM     30  C   UNL A   1      35.430  31.176  28.708  1.00  0.00     0.251 C 
ATOM     31  H   UNL A   1      33.839  32.197  28.025  1.00  0.00     0.163 HD
ATOM     32  O   UNL A   1      35.835  32.075  29.439  1.00  0.00    -0.269 OA
BRANCH  30  33
ATOM     33  C   UNL A   1      36.259  29.952  28.559  1.00  0.00     0.039 A 
ATOM     34  C   UNL A   1      36.455  29.210  29.730  1.00  0.00     0.014 A 
ATOM     35  C   UNL A   1      37.189  29.911  27.539  1.00  0.00     0.014 A 
ATOM     36  C   UNL A   1      37.746  28.823  30.057  1.00  0.00     0.010 A 
ATOM     37  C   UNL A   1      38.493  29.703  27.926  1.00  0.00     0.010 A 
ATOM     38  C   UNL A   1      38.769  29.241  29.216  1.00  0.00    -0.014 A 
BRANCH  38  39
ATOM     39  C   UNL A   1      40.176  29.157  29.550  1.00  0.00     0.031 A 
ATOM     40  C   UNL A   1      40.916  28.062  28.916  1.00  0.00     0.074 A 
ATOM     41  C   UNL A   1      40.767  30.068  30.353  1.00  0.00     0.049 A 
ATOM     42  N   UNL A   1      41.953  27.496  29.413  1.00  0.00    -0.248 NA
ATOM     43  C   UNL A   1      40.457  27.441  27.676  1.00  0.00     0.031 C 
ATOM     44  C   UNL A   1      42.192  30.236  30.621  1.00  0.00     0.029 A 
ATOM     45  N   UNL A   1      40.144  30.915  31.268  1.00  0.00    -0.354 N 
ATOM     46  C   UNL A   1      42.468  26.669  28.441  1.00  0.00     0.074 A 
ATOM     47  C   UNL A   1      41.435  26.569  27.446  1.00  0.00     0.031 C 
ATOM     48  C   UNL A   1      42.340  30.910  31.777  1.00  0.00     0.029 A 
ATOM     49  C   UNL A   1      41.023  31.067  32.364  1.00  0.00     0.049 A 
ATOM     50  H   UNL A   1      39.256  31.329  31.169  1.00  0.00     0.167 HD
ATOM     51  C   UNL A   1      43.776  26.303  28.529  1.00  0.00     0.034 A 
ATOM     52  C   UNL A   1      40.644  30.606  33.596  1.00  0.00     0.034 A 
ATOM     53  C   UNL A   1      44.354  26.803  29.785  1.00  0.00     0.049 A 
ATOM     54  C   UNL A   1      41.422  29.368  34.022  1.00  0.00     0.074 A 
ATOM     55  C   UNL A   1      45.120  27.909  30.112  1.00  0.00     0.029 A 
ATOM     56  N   UNL A   1      43.829  26.343  30.984  1.00  0.00    -0.354 N 
ATOM     57  N   UNL A   1      42.353  28.785  33.311  1.00  0.00    -0.248 NA
ATOM     58  C   UNL A   1      41.145  28.647  35.261  1.00  0.00     0.031 C 
ATOM     59  C   UNL A   1      44.998  28.134  31.519  1.00  0.00     0.029 A 
ATOM     60  C   UNL A   1      44.203  27.136  32.054  1.00  0.00     0.049 A 
ATOM     61  H   UNL A   1      43.258  25.544  31.064  1.00  0.00     0.167 HD
ATOM     62  C   UNL A   1      42.761  27.628  33.925  1.00  0.00     0.074 A 
ATOM     63  C   UNL A   1      41.949  27.578  35.134  1.00  0.00     0.031 C 
ATOM     64  C   UNL A   1      43.707  26.791  33.384  1.00  0.00     0.034 A 
BRANCH  51  65
ATOM     65  C   UNL A   1      44.594  25.771  27.370  1.00  0.00     0.023 A 
ATOM     66  C   UNL A   1      44.325  24.466  26.911  1.00  0.00     0.031 A 
ATOM     67  C   UNL A   1      45.663  26.421  26.715  1.00  0.00     0.131 A 
ATOM     68  C   UNL A   1      45.132  23.844  25.941  1.00  0.00     0.055 A 
ATOM     69  C   UNL A   1      46.497  25.788  25.784  1.00  0.00     0.041 A 
ATOM     70  F   UNL A   1      45.930  27.719  26.886  1.00  0.00    -0.206 F 
ATOM     71  C   UNL A   1      46.239  24.487  25.396  1.00  0.00     0.022 A 
BRANCH  68  72
ATOM     72  S   UNL A   1      44.711  22.170  25.396  1.00  0.00     0.124 S 
ATOM     73  O   UNL A   1      45.998  21.488  25.478  1.00  0.00    -0.237 OA
ATOM     74  O   UNL A   1      43.703  21.773  26.371  1.00  0.00    -0.237 OA
ATOM     75  O   UNL A   1      44.206  22.374  24.038  1.00  0.00    -0.744 OA
ENDBRANCH  68  72
ENDBRANCH  51  65
BRANCH  52  76
ATOM     76  C   UNL A   1      39.181  30.859  33.832  1.00  0.00     0.023 A 
ATOM     77  C   UNL A   1      38.802  32.206  34.045  1.00  0.00     0.031 A 
ATOM     78  C   UNL A   1      38.226  29.985  33.296  1.00  0.00     0.131 A 
ATOM     79  C   UNL A   1      37.619  32.694  33.464  1.00  0.00     0.055 A 
ATOM     80  C   UNL A   1      37.018  30.470  32.788  1.00  0.00     0.041 A 
ATOM     81  F   UNL A   1      38.514  28.690  33.096  1.00  0.00    -0.206 F 
ATOM     82  C   UNL A   1      36.748  31.836  32.794  1.00  0.00     0.022 A 
BRANCH  79  83
ATOM     83  S   UNL A   1      37.382  34.491  33.326  1.00  0.00     0.124 S 
ATOM     84  O   UNL A   1      38.630  35.012  33.870  1.00  0.00    -0.237 OA
ATOM     85  O   UNL A   1      37.178  34.675  31.894  1.00  0.00    -0.237 OA
ATOM     86  O   UNL A   1      36.189  34.749  34.133  1.00  0.00    -0.744 OA
ENDBRANCH  79  83
ENDBRANCH  52  76
BRANCH  64  87
ATOM     87  C   UNL A   1      44.219  25.525  34.054  1.00  0.00     0.023 A 
ATOM     88  C   UNL A   1      45.579  25.199  34.091  1.00  0.00     0.031 A 
ATOM     89  C   UNL A   1      43.358  24.563  34.641  1.00  0.00     0.131 A 
ATOM     90  C   UNL A   1      46.050  24.097  34.824  1.00  0.00     0.055 A 
ATOM     91  C   UNL A   1      43.820  23.420  35.302  1.00  0.00     0.041 A 
ATOM     92  F   UNL A   1      42.025  24.675  34.617  1.00  0.00    -0.206 F 
ATOM     93  C   UNL A   1      45.179  23.198  35.429  1.00  0.00     0.022 A 
BRANCH  90  94
ATOM     94  S   UNL A   1      47.837  23.912  35.031  1.00  0.00     0.124 S 
ATOM     95  O   UNL A   1      48.367  24.809  34.003  1.00  0.00    -0.237 OA
ATOM     96  O   UNL A   1      48.020  24.363  36.411  1.00  0.00    -0.237 OA
ATOM     97  O   UNL A   1      48.068  22.496  34.801  1.00  0.00    -0.744 OA
ENDBRANCH  90  94
ENDBRANCH  64  87
ENDBRANCH  38  39
ENDBRANCH  30  33
ENDBRANCH  28  29
ENDBRANCH   1  28
TORSDOF 15
ENDMDL
