MODEL 1
REMARK VINA RESULT:     -13.6      0.000      0.000
REMARK SMILES Cc1ccc([C@@H](C)Nc2ccccc2C(=O)NCCCNC(=O)c2ccc(-c3c4nc(c(-c5cc(S(=O)(=O)[O-])ccc5F)c5ccc([nH]5)c(-c5cc(S(=O)(=O)[O-])ccc5F)c5nc(c(-c6cc(S(=O)(=O)[O-])ccc6F)c6ccc3[nH]6)C=C5)C=C4)cc2)cc1F
REMARK SMILES IDX 19 1 18 2 17 3 15 4 16 5 14 7 9 8 10 9 11 10 13 11 12 12
REMARK SMILES IDX 8 13 6 15 7 16 5 17 1 18 2 19 3 20 88 21 4 22 87 23 89 24
REMARK SMILES IDX 20 25 21 26 22 27 23 29 24 30 25 31 86 32 26 33 85 34 27 35
REMARK SMILES IDX 28 36 29 37 79 38 30 39 84 40 78 41 80 42 31 43 83 44 77 45
REMARK SMILES IDX 76 46 32 48 64 49 44 50 63 51 45 52 48 53 62 54 81 55 46 56
REMARK SMILES IDX 47 57 61 59 82 60 49 61 33 62 34 63 42 64 35 65 41 66 43 67
REMARK SMILES IDX 40 68 36 69 37 70 38 71 39 72 65 73 66 74 74 75 67 76 73 77
REMARK SMILES IDX 75 78 72 79 68 80 69 81 70 82 71 83 50 84 51 85 59 86 52 87
REMARK SMILES IDX 58 88 60 89 57 90 53 91 54 92 55 93 56 94
REMARK H PARENT 17 6 8 14 21 28 80 47 48 58
REMARK Flexibility Score: inf
ROOT
ATOM      1  C   UNL A   1      33.017  29.422  27.257  1.00  0.00     0.042 C 
ENDROOT
BRANCH   1   2
ATOM      2  C   UNL A   1      32.336  30.060  26.056  1.00  0.00     0.118 C 
BRANCH   2   3
ATOM      3  N   UNL A   1      32.931  29.759  24.762  1.00  0.00    -0.352 N 
ATOM      4  C   UNL A   1      32.402  29.005  23.735  1.00  0.00     0.253 C 
ATOM      5  O   UNL A   1      33.058  28.820  22.711  1.00  0.00    -0.269 OA
ATOM      6  H   UNL A   1      33.824  30.141  24.600  1.00  0.00     0.163 HD
BRANCH   4   7
ATOM      7  C   UNL A   1      31.092  28.320  23.882  1.00  0.00     0.062 A 
ATOM      8  C   UNL A   1      30.893  27.053  24.453  1.00  0.00     0.047 A 
ATOM      9  C   UNL A   1      29.647  26.433  24.218  1.00  0.00     0.026 A 
ATOM     10  C   UNL A   1      28.609  27.076  23.540  1.00  0.00     0.002 A 
ATOM     11  C   UNL A   1      30.017  28.998  23.267  1.00  0.00     0.016 A 
ATOM     12  C   UNL A   1      28.779  28.381  23.105  1.00  0.00     0.001 A 
BRANCH   8  13
ATOM     13  N   UNL A   1      31.786  26.348  25.253  1.00  0.00    -0.378 N 
ATOM     14  H   UNL A   1      32.445  26.872  25.762  1.00  0.00     0.161 HD
BRANCH  13  15
ATOM     15  C   UNL A   1      31.829  24.886  25.404  1.00  0.00     0.106 C 
ATOM     16  C   UNL A   1      31.739  24.377  26.840  1.00  0.00     0.036 C 
BRANCH  15  17
ATOM     17  C   UNL A   1      33.145  24.383  24.809  1.00  0.00    -0.023 A 
ATOM     18  C   UNL A   1      36.812  22.828  23.128  1.00  0.00     0.047 C 
ATOM     19  C   UNL A   1      35.532  23.362  23.690  1.00  0.00    -0.015 A 
ATOM     20  C   UNL A   1      34.322  23.254  22.998  1.00  0.00     0.007 A 
ATOM     21  C   UNL A   1      35.535  23.969  24.942  1.00  0.00     0.126 A 
ATOM     22  C   UNL A   1      33.141  23.762  23.551  1.00  0.00     0.006 A 
ATOM     23  C   UNL A   1      34.364  24.467  25.501  1.00  0.00     0.045 A 
ATOM     24  F   UNL A   1      36.684  24.106  25.619  1.00  0.00    -0.207 F 
ENDBRANCH  15  17
ENDBRANCH  13  15
ENDBRANCH   8  13
ENDBRANCH   4   7
ENDBRANCH   2   3
ENDBRANCH   1   2
BRANCH   1  25
ATOM     25  C   UNL A   1      34.534  29.569  27.282  1.00  0.00     0.118 C 
BRANCH  25  26
ATOM     26  N   UNL A   1      35.035  30.691  28.079  1.00  0.00    -0.352 N 
ATOM     27  C   UNL A   1      36.289  30.841  28.667  1.00  0.00     0.251 C 
ATOM     28  H   UNL A   1      34.406  31.434  28.219  1.00  0.00     0.163 HD
ATOM     29  O   UNL A   1      36.584  31.812  29.323  1.00  0.00    -0.269 OA
BRANCH  27  30
ATOM     30  C   UNL A   1      37.267  29.783  28.371  1.00  0.00     0.039 A 
ATOM     31  C   UNL A   1      38.118  29.835  27.263  1.00  0.00     0.014 A 
ATOM     32  C   UNL A   1      37.431  28.855  29.389  1.00  0.00     0.014 A 
ATOM     33  C   UNL A   1      39.244  29.012  27.243  1.00  0.00     0.010 A 
ATOM     34  C   UNL A   1      38.611  28.183  29.445  1.00  0.00     0.010 A 
ATOM     35  C   UNL A   1      39.510  28.232  28.368  1.00  0.00    -0.014 A 
BRANCH  35  36
ATOM     36  C   UNL A   1      40.703  27.429  28.581  1.00  0.00     0.031 A 
ATOM     37  C   UNL A   1      40.699  25.972  28.360  1.00  0.00     0.074 A 
ATOM     38  C   UNL A   1      41.834  28.150  28.765  1.00  0.00     0.049 A 
ATOM     39  N   UNL A   1      41.619  25.195  28.810  1.00  0.00    -0.248 NA
ATOM     40  C   UNL A   1      39.667  25.249  27.611  1.00  0.00     0.031 C 
ATOM     41  C   UNL A   1      43.225  27.774  28.617  1.00  0.00     0.029 A 
ATOM     42  N   UNL A   1      41.908  29.471  29.231  1.00  0.00    -0.354 N 
ATOM     43  C   UNL A   1      41.486  23.978  28.174  1.00  0.00     0.074 A 
ATOM     44  C   UNL A   1      40.188  24.014  27.545  1.00  0.00     0.031 C 
ATOM     45  C   UNL A   1      43.982  28.691  29.253  1.00  0.00     0.029 A 
ATOM     46  C   UNL A   1      43.070  29.553  29.997  1.00  0.00     0.049 A 
ATOM     47  H   UNL A   1      41.267  30.195  29.054  1.00  0.00     0.167 HD
ATOM     48  C   UNL A   1      42.573  23.156  28.115  1.00  0.00     0.034 A 
ATOM     49  C   UNL A   1      42.999  29.686  31.359  1.00  0.00     0.034 A 
ATOM     50  C   UNL A   1      43.705  23.784  28.804  1.00  0.00     0.049 A 
ATOM     51  C   UNL A   1      43.588  28.485  32.080  1.00  0.00     0.074 A 
ATOM     52  C   UNL A   1      44.773  24.549  28.368  1.00  0.00     0.029 A 
ATOM     53  N   UNL A   1      43.616  23.994  30.166  1.00  0.00    -0.354 N 
ATOM     54  N   UNL A   1      43.979  27.397  31.479  1.00  0.00    -0.248 NA
ATOM     55  C   UNL A   1      43.700  28.377  33.534  1.00  0.00     0.031 C 
ATOM     56  C   UNL A   1      45.331  25.216  29.496  1.00  0.00     0.029 A 
ATOM     57  C   UNL A   1      44.609  24.846  30.617  1.00  0.00     0.049 A 
ATOM     58  H   UNL A   1      42.931  23.589  30.746  1.00  0.00     0.167 HD
ATOM     59  C   UNL A   1      44.307  26.443  32.398  1.00  0.00     0.074 A 
ATOM     60  C   UNL A   1      44.126  27.109  33.675  1.00  0.00     0.031 C 
ATOM     61  C   UNL A   1      44.654  25.172  32.036  1.00  0.00     0.034 A 
BRANCH  48  62
ATOM     62  C   UNL A   1      42.720  21.911  27.260  1.00  0.00     0.023 A 
ATOM     63  C   UNL A   1      43.713  21.713  26.273  1.00  0.00     0.031 A 
ATOM     64  C   UNL A   1      41.814  20.836  27.431  1.00  0.00     0.131 A 
ATOM     65  C   UNL A   1      43.803  20.491  25.566  1.00  0.00     0.055 A 
ATOM     66  C   UNL A   1      41.885  19.643  26.706  1.00  0.00     0.041 A 
ATOM     67  F   UNL A   1      40.830  20.877  28.342  1.00  0.00    -0.206 F 
ATOM     68  C   UNL A   1      42.888  19.459  25.774  1.00  0.00     0.022 A 
BRANCH  65  69
ATOM     69  S   UNL A   1      45.149  20.153  24.389  1.00  0.00     0.124 S 
ATOM     70  O   UNL A   1      44.687  20.845  23.185  1.00  0.00    -0.237 OA
ATOM     71  O   UNL A   1      46.304  20.758  25.044  1.00  0.00    -0.237 OA
ATOM     72  O   UNL A   1      45.167  18.696  24.288  1.00  0.00    -0.744 OA
ENDBRANCH  65  69
ENDBRANCH  48  62
BRANCH  49  73
ATOM     73  C   UNL A   1      41.766  30.423  31.813  1.00  0.00     0.023 A 
ATOM     74  C   UNL A   1      40.730  29.746  32.482  1.00  0.00     0.031 A 
ATOM     75  C   UNL A   1      41.447  31.641  31.166  1.00  0.00     0.131 A 
ATOM     76  C   UNL A   1      39.408  30.214  32.367  1.00  0.00     0.055 A 
ATOM     77  C   UNL A   1      40.125  32.067  31.011  1.00  0.00     0.041 A 
ATOM     78  F   UNL A   1      42.404  32.342  30.535  1.00  0.00    -0.206 F 
ATOM     79  C   UNL A   1      39.094  31.328  31.579  1.00  0.00     0.022 A 
BRANCH  76  80
ATOM     80  S   UNL A   1      38.047  29.294  33.145  1.00  0.00     0.124 S 
ATOM     81  O   UNL A   1      38.174  29.724  34.534  1.00  0.00    -0.237 OA
ATOM     82  O   UNL A   1      36.866  29.787  32.443  1.00  0.00    -0.237 OA
ATOM     83  O   UNL A   1      38.391  27.904  32.870  1.00  0.00    -0.744 OA
ENDBRANCH  76  80
ENDBRANCH  49  73
BRANCH  61  84
ATOM     84  C   UNL A   1      45.029  24.089  33.011  1.00  0.00     0.023 A 
ATOM     85  C   UNL A   1      46.264  24.151  33.696  1.00  0.00     0.031 A 
ATOM     86  C   UNL A   1      44.159  23.061  33.395  1.00  0.00     0.131 A 
ATOM     87  C   UNL A   1      46.619  23.205  34.657  1.00  0.00     0.055 A 
ATOM     88  C   UNL A   1      44.533  22.079  34.321  1.00  0.00     0.041 A 
ATOM     89  F   UNL A   1      42.899  23.006  32.932  1.00  0.00    -0.206 F 
ATOM     90  C   UNL A   1      45.772  22.144  34.952  1.00  0.00     0.022 A 
BRANCH  87  91
ATOM     91  S   UNL A   1      48.153  23.387  35.607  1.00  0.00     0.124 S 
ATOM     92  O   UNL A   1      47.814  22.709  36.855  1.00  0.00    -0.237 OA
ATOM     93  O   UNL A   1      49.114  22.690  34.756  1.00  0.00    -0.237 OA
ATOM     94  O   UNL A   1      48.333  24.830  35.707  1.00  0.00    -0.744 OA
ENDBRANCH  87  91
ENDBRANCH  61  84
ENDBRANCH  35  36
ENDBRANCH  27  30
ENDBRANCH  25  26
ENDBRANCH   1  25
TORSDOF 16
ENDMDL
MODEL 2
REMARK VINA RESULT:     -13.3      1.451      3.164
REMARK SMILES Cc1ccc([C@@H](C)Nc2ccccc2C(=O)NCCCNC(=O)c2ccc(-c3c4nc(c(-c5cc(S(=O)(=O)[O-])ccc5F)c5ccc([nH]5)c(-c5cc(S(=O)(=O)[O-])ccc5F)c5nc(c(-c6cc(S(=O)(=O)[O-])ccc6F)c6ccc3[nH]6)C=C5)C=C4)cc2)cc1F
REMARK SMILES IDX 19 1 18 2 17 3 15 4 16 5 14 7 9 8 10 9 11 10 13 11 12 12
REMARK SMILES IDX 8 13 6 15 7 16 5 17 1 18 2 19 3 20 88 21 4 22 87 23 89 24
REMARK SMILES IDX 20 25 21 26 22 27 23 29 24 30 25 31 86 32 26 33 85 34 27 35
REMARK SMILES IDX 28 36 29 37 79 38 30 39 84 40 78 41 80 42 31 43 83 44 77 45
REMARK SMILES IDX 76 46 32 48 64 49 44 50 63 51 45 52 48 53 62 54 81 55 46 56
REMARK SMILES IDX 47 57 61 59 82 60 49 61 33 62 34 63 42 64 35 65 41 66 43 67
REMARK SMILES IDX 40 68 36 69 37 70 38 71 39 72 65 73 66 74 74 75 67 76 73 77
REMARK SMILES IDX 75 78 72 79 68 80 69 81 70 82 71 83 50 84 51 85 59 86 52 87
REMARK SMILES IDX 58 88 60 89 57 90 53 91 54 92 55 93 56 94
REMARK H PARENT 17 6 8 14 21 28 80 47 48 58
REMARK Flexibility Score: inf
ROOT
ATOM      1  C   UNL A   1      33.622  29.583  26.430  1.00  0.00     0.042 C 
ENDROOT
BRANCH   1   2
ATOM      2  C   UNL A   1      33.349  28.333  25.607  1.00  0.00     0.118 C 
BRANCH   2   3
ATOM      3  N   UNL A   1      32.471  27.351  26.227  1.00  0.00    -0.352 N 
ATOM      4  C   UNL A   1      32.502  25.978  26.097  1.00  0.00     0.253 C 
ATOM      5  O   UNL A   1      31.657  25.291  26.670  1.00  0.00    -0.269 OA
ATOM      6  H   UNL A   1      31.767  27.713  26.812  1.00  0.00     0.163 HD
BRANCH   4   7
ATOM      7  C   UNL A   1      33.474  25.314  25.191  1.00  0.00     0.062 A 
ATOM      8  C   UNL A   1      33.236  24.968  23.851  1.00  0.00     0.047 A 
ATOM      9  C   UNL A   1      34.142  24.068  23.252  1.00  0.00     0.026 A 
ATOM     10  C   UNL A   1      35.287  23.611  23.909  1.00  0.00     0.002 A 
ATOM     11  C   UNL A   1      34.670  24.915  25.825  1.00  0.00     0.016 A 
ATOM     12  C   UNL A   1      35.576  24.074  25.184  1.00  0.00     0.001 A 
BRANCH   8  13
ATOM     13  N   UNL A   1      32.213  25.440  23.036  1.00  0.00    -0.378 N 
ATOM     14  H   UNL A   1      31.373  24.928  23.026  1.00  0.00     0.161 HD
BRANCH  13  15
ATOM     15  C   UNL A   1      32.280  26.638  22.185  1.00  0.00     0.106 C 
ATOM     16  C   UNL A   1      33.522  27.503  22.377  1.00  0.00     0.036 C 
BRANCH  15  17
ATOM     17  C   UNL A   1      31.054  27.503  22.481  1.00  0.00    -0.023 A 
ATOM     18  C   UNL A   1      27.508  29.859  23.236  1.00  0.00     0.047 C 
ATOM     19  C   UNL A   1      28.727  29.027  22.987  1.00  0.00    -0.015 A 
ATOM     20  C   UNL A   1      28.809  27.696  23.411  1.00  0.00     0.007 A 
ATOM     21  C   UNL A   1      29.805  29.579  22.302  1.00  0.00     0.126 A 
ATOM     22  C   UNL A   1      29.962  26.943  23.162  1.00  0.00     0.006 A 
ATOM     23  C   UNL A   1      30.949  28.833  22.044  1.00  0.00     0.045 A 
ATOM     24  F   UNL A   1      29.763  30.858  21.904  1.00  0.00    -0.207 F 
ENDBRANCH  15  17
ENDBRANCH  13  15
ENDBRANCH   8  13
ENDBRANCH   4   7
ENDBRANCH   2   3
ENDBRANCH   1   2
BRANCH   1  25
ATOM     25  C   UNL A   1      34.500  29.361  27.655  1.00  0.00     0.118 C 
BRANCH  25  26
ATOM     26  N   UNL A   1      35.051  30.580  28.252  1.00  0.00    -0.352 N 
ATOM     27  C   UNL A   1      36.360  30.828  28.658  1.00  0.00     0.251 C 
ATOM     28  H   UNL A   1      34.416  31.320  28.383  1.00  0.00     0.163 HD
ATOM     29  O   UNL A   1      36.695  31.875  29.158  1.00  0.00    -0.269 OA
BRANCH  27  30
ATOM     30  C   UNL A   1      37.335  29.766  28.364  1.00  0.00     0.039 A 
ATOM     31  C   UNL A   1      38.205  29.827  27.272  1.00  0.00     0.014 A 
ATOM     32  C   UNL A   1      37.474  28.823  29.372  1.00  0.00     0.014 A 
ATOM     33  C   UNL A   1      39.325  28.995  27.259  1.00  0.00     0.010 A 
ATOM     34  C   UNL A   1      38.648  28.141  29.439  1.00  0.00     0.010 A 
ATOM     35  C   UNL A   1      39.565  28.198  28.377  1.00  0.00    -0.014 A 
BRANCH  35  36
ATOM     36  C   UNL A   1      40.748  27.382  28.599  1.00  0.00     0.031 A 
ATOM     37  C   UNL A   1      40.732  25.926  28.373  1.00  0.00     0.074 A 
ATOM     38  C   UNL A   1      41.885  28.091  28.798  1.00  0.00     0.049 A 
ATOM     39  N   UNL A   1      41.640  25.139  28.829  1.00  0.00    -0.248 NA
ATOM     40  C   UNL A   1      39.701  25.216  27.610  1.00  0.00     0.031 C 
ATOM     41  C   UNL A   1      43.273  27.702  28.662  1.00  0.00     0.029 A 
ATOM     42  N   UNL A   1      41.967  29.410  29.270  1.00  0.00    -0.354 N 
ATOM     43  C   UNL A   1      41.502  23.925  28.187  1.00  0.00     0.074 A 
ATOM     44  C   UNL A   1      40.211  23.976  27.545  1.00  0.00     0.031 C 
ATOM     45  C   UNL A   1      44.032  28.610  29.309  1.00  0.00     0.029 A 
ATOM     46  C   UNL A   1      43.121  29.478  30.048  1.00  0.00     0.049 A 
ATOM     47  H   UNL A   1      41.334  30.141  29.089  1.00  0.00     0.167 HD
ATOM     48  C   UNL A   1      42.582  23.093  28.136  1.00  0.00     0.034 A 
ATOM     49  C   UNL A   1      43.038  29.606  31.410  1.00  0.00     0.034 A 
ATOM     50  C   UNL A   1      43.712  23.707  28.838  1.00  0.00     0.049 A 
ATOM     51  C   UNL A   1      43.608  28.397  32.132  1.00  0.00     0.074 A 
ATOM     52  C   UNL A   1      44.792  24.464  28.416  1.00  0.00     0.029 A 
ATOM     53  N   UNL A   1      43.611  23.913  30.201  1.00  0.00    -0.354 N 
ATOM     54  N   UNL A   1      43.995  27.307  31.531  1.00  0.00    -0.248 NA
ATOM     55  C   UNL A   1      43.704  28.282  33.586  1.00  0.00     0.031 C 
ATOM     56  C   UNL A   1      45.345  25.121  29.552  1.00  0.00     0.029 A 
ATOM     57  C   UNL A   1      44.609  24.754  30.665  1.00  0.00     0.049 A 
ATOM     58  H   UNL A   1      42.917  23.512  30.772  1.00  0.00     0.167 HD
ATOM     59  C   UNL A   1      44.304  26.346  32.448  1.00  0.00     0.074 A 
ATOM     60  C   UNL A   1      44.116  27.009  33.727  1.00  0.00     0.031 C 
ATOM     61  C   UNL A   1      44.642  25.074  32.085  1.00  0.00     0.034 A 
BRANCH  48  62
ATOM     62  C   UNL A   1      42.725  21.850  27.278  1.00  0.00     0.023 A 
ATOM     63  C   UNL A   1      43.737  21.637  26.314  1.00  0.00     0.031 A 
ATOM     64  C   UNL A   1      41.794  20.791  27.421  1.00  0.00     0.131 A 
ATOM     65  C   UNL A   1      43.821  20.418  25.601  1.00  0.00     0.055 A 
ATOM     66  C   UNL A   1      41.860  19.601  26.691  1.00  0.00     0.041 A 
ATOM     67  F   UNL A   1      40.790  20.846  28.308  1.00  0.00    -0.206 F 
ATOM     68  C   UNL A   1      42.882  19.403  25.782  1.00  0.00     0.022 A 
BRANCH  65  69
ATOM     69  S   UNL A   1      45.187  20.060  24.455  1.00  0.00     0.124 S 
ATOM     70  O   UNL A   1      45.277  18.601  24.528  1.00  0.00    -0.237 OA
ATOM     71  O   UNL A   1      44.687  20.585  23.188  1.00  0.00    -0.237 OA
ATOM     72  O   UNL A   1      46.324  20.771  25.033  1.00  0.00    -0.744 OA
ENDBRANCH  65  69
ENDBRANCH  48  62
BRANCH  49  73
ATOM     73  C   UNL A   1      41.808  30.353  31.853  1.00  0.00     0.023 A 
ATOM     74  C   UNL A   1      40.756  29.683  32.504  1.00  0.00     0.031 A 
ATOM     75  C   UNL A   1      41.511  31.579  31.213  1.00  0.00     0.131 A 
ATOM     76  C   UNL A   1      39.440  30.167  32.376  1.00  0.00     0.055 A 
ATOM     77  C   UNL A   1      40.195  32.022  31.044  1.00  0.00     0.041 A 
ATOM     78  F   UNL A   1      42.483  32.275  30.600  1.00  0.00    -0.206 F 
ATOM     79  C   UNL A   1      39.149  31.290  31.593  1.00  0.00     0.022 A 
BRANCH  76  80
ATOM     80  S   UNL A   1      38.059  29.256  33.129  1.00  0.00     0.124 S 
ATOM     81  O   UNL A   1      38.162  29.687  34.520  1.00  0.00    -0.237 OA
ATOM     82  O   UNL A   1      36.895  29.755  32.404  1.00  0.00    -0.237 OA
ATOM     83  O   UNL A   1      38.401  27.864  32.863  1.00  0.00    -0.744 OA
ENDBRANCH  76  80
ENDBRANCH  49  73
BRANCH  61  84
ATOM     84  C   UNL A   1      44.996  23.983  33.060  1.00  0.00     0.023 A 
ATOM     85  C   UNL A   1      46.287  23.941  33.634  1.00  0.00     0.031 A 
ATOM     86  C   UNL A   1      44.069  23.055  33.551  1.00  0.00     0.131 A 
ATOM     87  C   UNL A   1      46.634  22.988  34.592  1.00  0.00     0.055 A 
ATOM     88  C   UNL A   1      44.429  22.064  34.473  1.00  0.00     0.041 A 
ATOM     89  F   UNL A   1      42.775  23.113  33.199  1.00  0.00    -0.206 F 
ATOM     90  C   UNL A   1      45.719  22.023  34.993  1.00  0.00     0.022 A 
BRANCH  87  91
ATOM     91  S   UNL A   1      48.257  23.043  35.400  1.00  0.00     0.124 S 
ATOM     92  O   UNL A   1      48.040  24.051  36.436  1.00  0.00    -0.237 OA
ATOM     93  O   UNL A   1      48.396  21.671  35.881  1.00  0.00    -0.237 OA
ATOM     94  O   UNL A   1      49.168  23.430  34.331  1.00  0.00    -0.744 OA
ENDBRANCH  87  91
ENDBRANCH  61  84
ENDBRANCH  35  36
ENDBRANCH  27  30
ENDBRANCH  25  26
ENDBRANCH   1  25
TORSDOF 16
ENDMDL
MODEL 3
REMARK VINA RESULT:     -13.2      1.862      2.322
REMARK SMILES Cc1ccc([C@@H](C)Nc2ccccc2C(=O)NCCCNC(=O)c2ccc(-c3c4nc(c(-c5cc(S(=O)(=O)[O-])ccc5F)c5ccc([nH]5)c(-c5cc(S(=O)(=O)[O-])ccc5F)c5nc(c(-c6cc(S(=O)(=O)[O-])ccc6F)c6ccc3[nH]6)C=C5)C=C4)cc2)cc1F
REMARK SMILES IDX 19 1 18 2 17 3 15 4 16 5 14 7 9 8 10 9 11 10 13 11 12 12
REMARK SMILES IDX 8 13 6 15 7 16 5 17 1 18 2 19 3 20 88 21 4 22 87 23 89 24
REMARK SMILES IDX 20 25 21 26 22 27 23 29 24 30 25 31 86 32 26 33 85 34 27 35
REMARK SMILES IDX 28 36 29 37 79 38 30 39 84 40 78 41 80 42 31 43 83 44 77 45
REMARK SMILES IDX 76 46 32 48 64 49 44 50 63 51 45 52 48 53 62 54 81 55 46 56
REMARK SMILES IDX 47 57 61 59 82 60 49 61 33 62 34 63 42 64 35 65 41 66 43 67
REMARK SMILES IDX 40 68 36 69 37 70 38 71 39 72 65 73 66 74 74 75 67 76 73 77
REMARK SMILES IDX 75 78 72 79 68 80 69 81 70 82 71 83 50 84 51 85 59 86 52 87
REMARK SMILES IDX 58 88 60 89 57 90 53 91 54 92 55 93 56 94
REMARK H PARENT 17 6 8 14 21 28 80 47 48 58
REMARK Flexibility Score: inf
ROOT
ATOM      1  C   UNL A   1      32.641  29.398  27.342  1.00  0.00     0.042 C 
ENDROOT
BRANCH   1   2
ATOM      2  C   UNL A   1      32.619  28.079  26.584  1.00  0.00     0.118 C 
BRANCH   2   3
ATOM      3  N   UNL A   1      31.535  27.172  26.933  1.00  0.00    -0.352 N 
ATOM      4  C   UNL A   1      30.879  26.273  26.116  1.00  0.00     0.253 C 
ATOM      5  O   UNL A   1      29.954  25.599  26.568  1.00  0.00    -0.269 OA
ATOM      6  H   UNL A   1      31.230  27.205  27.869  1.00  0.00     0.163 HD
BRANCH   4   7
ATOM      7  C   UNL A   1      31.199  26.176  24.669  1.00  0.00     0.062 A 
ATOM      8  C   UNL A   1      32.314  25.521  24.122  1.00  0.00     0.047 A 
ATOM      9  C   UNL A   1      32.626  25.803  22.775  1.00  0.00     0.026 A 
ATOM     10  C   UNL A   1      31.815  26.612  21.974  1.00  0.00     0.002 A 
ATOM     11  C   UNL A   1      30.340  26.927  23.839  1.00  0.00     0.016 A 
ATOM     12  C   UNL A   1      30.643  27.137  22.496  1.00  0.00     0.001 A 
BRANCH   8  13
ATOM     13  N   UNL A   1      33.136  24.598  24.759  1.00  0.00    -0.378 N 
ATOM     14  H   UNL A   1      33.567  24.881  25.597  1.00  0.00     0.161 HD
BRANCH  13  15
ATOM     15  C   UNL A   1      33.418  23.233  24.287  1.00  0.00     0.106 C 
ATOM     16  C   UNL A   1      32.464  22.158  24.799  1.00  0.00     0.036 C 
BRANCH  15  17
ATOM     17  C   UNL A   1      34.832  22.857  24.731  1.00  0.00    -0.023 A 
ATOM     18  C   UNL A   1      38.883  21.868  25.873  1.00  0.00     0.047 C 
ATOM     19  C   UNL A   1      37.485  22.232  25.484  1.00  0.00    -0.015 A 
ATOM     20  C   UNL A   1      37.041  23.558  25.486  1.00  0.00     0.007 A 
ATOM     21  C   UNL A   1      36.600  21.231  25.093  1.00  0.00     0.126 A 
ATOM     22  C   UNL A   1      35.727  23.867  25.115  1.00  0.00     0.006 A 
ATOM     23  C   UNL A   1      35.298  21.532  24.715  1.00  0.00     0.045 A 
ATOM     24  F   UNL A   1      36.991  19.949  25.103  1.00  0.00    -0.207 F 
ENDBRANCH  15  17
ENDBRANCH  13  15
ENDBRANCH   8  13
ENDBRANCH   4   7
ENDBRANCH   2   3
ENDBRANCH   1   2
BRANCH   1  25
ATOM     25  C   UNL A   1      33.943  30.180  27.222  1.00  0.00     0.118 C 
BRANCH  25  26
ATOM     26  N   UNL A   1      34.240  31.068  28.349  1.00  0.00    -0.352 N 
ATOM     27  C   UNL A   1      35.376  31.092  29.154  1.00  0.00     0.251 C 
ATOM     28  H   UNL A   1      33.548  31.733  28.566  1.00  0.00     0.163 HD
ATOM     29  O   UNL A   1      35.501  31.865  30.073  1.00  0.00    -0.269 OA
BRANCH  27  30
ATOM     30  C   UNL A   1      36.457  30.174  28.765  1.00  0.00     0.039 A 
ATOM     31  C   UNL A   1      37.171  30.316  27.571  1.00  0.00     0.014 A 
ATOM     32  C   UNL A   1      36.857  29.303  29.768  1.00  0.00     0.014 A 
ATOM     33  C   UNL A   1      38.394  29.658  27.438  1.00  0.00     0.010 A 
ATOM     34  C   UNL A   1      38.120  28.804  29.704  1.00  0.00     0.010 A 
ATOM     35  C   UNL A   1      38.884  28.951  28.535  1.00  0.00    -0.014 A 
BRANCH  35  36
ATOM     36  C   UNL A   1      40.194  28.328  28.627  1.00  0.00     0.031 A 
ATOM     37  C   UNL A   1      40.364  26.870  28.493  1.00  0.00     0.074 A 
ATOM     38  C   UNL A   1      41.229  29.202  28.610  1.00  0.00     0.049 A 
ATOM     39  N   UNL A   1      41.433  26.256  28.854  1.00  0.00    -0.248 NA
ATOM     40  C   UNL A   1      39.353  25.965  27.937  1.00  0.00     0.031 C 
ATOM     41  C   UNL A   1      42.627  28.999  28.292  1.00  0.00     0.029 A 
ATOM     42  N   UNL A   1      41.179  30.552  28.985  1.00  0.00    -0.354 N 
ATOM     43  C   UNL A   1      41.389  24.986  28.315  1.00  0.00     0.074 A 
ATOM     44  C   UNL A   1      40.028  24.806  27.871  1.00  0.00     0.031 C 
ATOM     45  C   UNL A   1      43.325  30.052  28.764  1.00  0.00     0.029 A 
ATOM     46  C   UNL A   1      42.407  30.842  29.576  1.00  0.00     0.049 A 
ATOM     47  H   UNL A   1      40.425  31.172  28.857  1.00  0.00     0.167 HD
ATOM     48  C   UNL A   1      42.563  24.311  28.153  1.00  0.00     0.034 A 
ATOM     49  C   UNL A   1      42.496  31.068  30.925  1.00  0.00     0.034 A 
ATOM     50  C   UNL A   1      43.676  25.130  28.640  1.00  0.00     0.049 A 
ATOM     51  C   UNL A   1      43.334  30.012  31.625  1.00  0.00     0.074 A 
ATOM     52  C   UNL A   1      44.562  25.993  28.017  1.00  0.00     0.029 A 
ATOM     53  N   UNL A   1      43.736  25.430  29.988  1.00  0.00    -0.354 N 
ATOM     54  N   UNL A   1      43.791  28.941  31.040  1.00  0.00    -0.248 NA
ATOM     55  C   UNL A   1      43.647  30.029  33.053  1.00  0.00     0.031 C 
ATOM     56  C   UNL A   1      45.163  26.810  29.016  1.00  0.00     0.029 A 
ATOM     57  C   UNL A   1      44.652  26.435  30.247  1.00  0.00     0.049 A 
ATOM     58  H   UNL A   1      43.195  24.985  30.679  1.00  0.00     0.167 HD
ATOM     59  C   UNL A   1      44.364  28.110  31.957  1.00  0.00     0.074 A 
ATOM     60  C   UNL A   1      44.260  28.841  33.207  1.00  0.00     0.031 C 
ATOM     61  C   UNL A   1      44.835  26.871  31.624  1.00  0.00     0.034 A 
BRANCH  48  62
ATOM     62  C   UNL A   1      42.769  23.034  27.359  1.00  0.00     0.023 A 
ATOM     63  C   UNL A   1      43.666  22.884  26.276  1.00  0.00     0.031 A 
ATOM     64  C   UNL A   1      42.026  21.876  27.695  1.00  0.00     0.131 A 
ATOM     65  C   UNL A   1      43.829  21.633  25.634  1.00  0.00     0.055 A 
ATOM     66  C   UNL A   1      42.165  20.651  27.035  1.00  0.00     0.041 A 
ATOM     67  F   UNL A   1      41.149  21.866  28.710  1.00  0.00    -0.206 F 
ATOM     68  C   UNL A   1      43.076  20.520  26.006  1.00  0.00     0.022 A 
BRANCH  65  69
ATOM     69  S   UNL A   1      45.070  21.372  24.330  1.00  0.00     0.124 S 
ATOM     70  O   UNL A   1      44.979  22.615  23.564  1.00  0.00    -0.237 OA
ATOM     71  O   UNL A   1      46.304  21.207  25.093  1.00  0.00    -0.237 OA
ATOM     72  O   UNL A   1      44.595  20.184  23.628  1.00  0.00    -0.744 OA
ENDBRANCH  65  69
ENDBRANCH  48  62
BRANCH  49  73
ATOM     73  C   UNL A   1      41.242  31.671  31.502  1.00  0.00     0.023 A 
ATOM     74  C   UNL A   1      40.402  30.916  32.341  1.00  0.00     0.031 A 
ATOM     75  C   UNL A   1      40.680  32.789  30.841  1.00  0.00     0.131 A 
ATOM     76  C   UNL A   1      39.024  31.201  32.382  1.00  0.00     0.055 A 
ATOM     77  C   UNL A   1      39.303  33.030  30.844  1.00  0.00     0.041 A 
ATOM     78  F   UNL A   1      41.444  33.560  30.049  1.00  0.00    -0.206 F 
ATOM     79  C   UNL A   1      38.463  32.207  31.586  1.00  0.00     0.022 A 
BRANCH  76  80
ATOM     80  S   UNL A   1      37.913  30.171  33.386  1.00  0.00     0.124 S 
ATOM     81  O   UNL A   1      38.179  30.691  34.724  1.00  0.00    -0.237 OA
ATOM     82  O   UNL A   1      36.592  30.482  32.847  1.00  0.00    -0.237 OA
ATOM     83  O   UNL A   1      38.386  28.819  33.117  1.00  0.00    -0.744 OA
ENDBRANCH  76  80
ENDBRANCH  49  73
BRANCH  61  84
ATOM     84  C   UNL A   1      45.479  25.923  32.599  1.00  0.00     0.023 A 
ATOM     85  C   UNL A   1      44.676  25.083  33.404  1.00  0.00     0.031 A 
ATOM     86  C   UNL A   1      46.862  25.714  32.674  1.00  0.00     0.131 A 
ATOM     87  C   UNL A   1      45.234  24.143  34.270  1.00  0.00     0.055 A 
ATOM     88  C   UNL A   1      47.428  24.809  33.580  1.00  0.00     0.041 A 
ATOM     89  F   UNL A   1      47.707  26.336  31.835  1.00  0.00    -0.206 F 
ATOM     90  C   UNL A   1      46.613  24.022  34.389  1.00  0.00     0.022 A 
BRANCH  87  91
ATOM     91  S   UNL A   1      44.173  22.997  35.192  1.00  0.00     0.124 S 
ATOM     92  O   UNL A   1      44.266  21.786  34.379  1.00  0.00    -0.237 OA
ATOM     93  O   UNL A   1      44.852  22.937  36.484  1.00  0.00    -0.237 OA
ATOM     94  O   UNL A   1      42.871  23.650  35.195  1.00  0.00    -0.744 OA
ENDBRANCH  87  91
ENDBRANCH  61  84
ENDBRANCH  35  36
ENDBRANCH  27  30
ENDBRANCH  25  26
ENDBRANCH   1  25
TORSDOF 16
ENDMDL
