MODEL 1
REMARK VINA RESULT:     -10.8      0.000      0.000
REMARK SMILES [NH3+]CCOCC(=O)N[C@H](C(=O)NCCCNC(=O)c1ccc(-c2c3nc(c(-c4cc(S(=O)(=O)[O-])ccc4F)c4ccc([nH]4)c(-c4cc(S(=O)(=O)[O-])ccc4F)c4nc(c(-c5cc(S(=O)(=O)[O-])ccc5F)c5ccc2[nH]5)C=C4)C=C3)cc1)C1CCCCC1
REMARK SMILES IDX 10 1 11 2 12 3 9 5 8 6 6 7 7 8 5 10 4 11 3 12 2 13 1 14
REMARK SMILES IDX 82 18 83 19 87 20 84 21 86 22 85 23 13 24 14 25 15 26 16 27
REMARK SMILES IDX 17 28 18 30 19 31 20 32 81 33 21 34 80 35 22 36 23 37 24 38
REMARK SMILES IDX 74 39 25 40 79 41 73 42 75 43 26 44 78 45 72 46 71 47 27 49
REMARK SMILES IDX 59 50 39 51 58 52 40 53 43 54 57 55 76 56 41 57 42 58 56 60
REMARK SMILES IDX 77 61 44 62 28 63 29 64 37 65 30 66 36 67 38 68 35 69 31 70
REMARK SMILES IDX 32 71 33 72 34 73 60 74 61 75 69 76 62 77 68 78 70 79 67 80
REMARK SMILES IDX 63 81 64 82 65 83 66 84 45 85 46 86 54 87 47 88 53 89 55 90
REMARK SMILES IDX 52 91 48 92 49 93 50 94 51 95
REMARK H PARENT 12 4 8 9 1 15 1 16 1 17 16 29 75 48 43 59
REMARK Flexibility Score: inf
ROOT
ATOM      1  C   UNL A   1      33.532  26.275  22.908  1.00  0.00     0.242 C 
ATOM      2  O   UNL A   1      33.713  26.314  21.692  1.00  0.00    -0.273 OA
ATOM      3  N   UNL A   1      33.235  27.454  23.539  1.00  0.00    -0.354 N 
ATOM      4  H   UNL A   1      33.112  28.224  22.940  1.00  0.00     0.163 HD
ENDROOT
BRANCH   1   5
ATOM      5  C   UNL A   1      33.565  24.968  23.731  1.00  0.00     0.174 C 
BRANCH   5   6
ATOM      6  N   UNL A   1      32.688  23.992  23.045  1.00  0.00    -0.342 N 
ATOM      7  C   UNL A   1      31.989  22.909  23.478  1.00  0.00     0.246 C 
ATOM      8  O   UNL A   1      31.489  22.175  22.619  1.00  0.00    -0.272 OA
ATOM      9  H   UNL A   1      32.591  24.162  22.081  1.00  0.00     0.164 HD
BRANCH   7  10
ATOM     10  C   UNL A   1      31.764  22.604  24.966  1.00  0.00     0.260 C 
BRANCH  10  11
ATOM     11  O   UNL A   1      31.703  21.266  25.411  1.00  0.00    -0.366 OA
BRANCH  11  12
ATOM     12  C   UNL A   1      32.966  20.619  25.571  1.00  0.00     0.222 C 
BRANCH  12  13
ATOM     13  C   UNL A   1      32.913  19.108  25.295  1.00  0.00     0.287 C 
BRANCH  13  14
ATOM     14  N   UNL A   1      32.901  18.261  26.489  1.00  0.00    -0.356 N 
ATOM     15  H   UNL A   1      33.603  17.526  26.392  1.00  0.00     0.344 HD
ATOM     16  H   UNL A   1      31.979  17.837  26.595  1.00  0.00     0.344 HD
ATOM     17  H   UNL A   1      33.112  18.826  27.311  1.00  0.00     0.344 HD
ENDBRANCH  13  14
ENDBRANCH  12  13
ENDBRANCH  11  12
ENDBRANCH  10  11
ENDBRANCH   7  10
ENDBRANCH   5   6
BRANCH   5  18
ATOM     18  C   UNL A   1      34.967  24.429  24.078  1.00  0.00     0.021 C 
ATOM     19  C   UNL A   1      35.171  24.098  25.567  1.00  0.00     0.006 C 
ATOM     20  C   UNL A   1      35.277  23.166  23.247  1.00  0.00     0.006 C 
ATOM     21  C   UNL A   1      36.620  23.665  25.808  1.00  0.00     0.000 C 
ATOM     22  C   UNL A   1      36.706  22.686  23.474  1.00  0.00     0.000 C 
ATOM     23  C   UNL A   1      37.004  22.461  24.952  1.00  0.00     0.000 C 
ENDBRANCH   5  18
ENDBRANCH   1   5
BRANCH   3  24
ATOM     24  C   UNL A   1      33.076  27.746  24.953  1.00  0.00     0.117 C 
BRANCH  24  25
ATOM     25  C   UNL A   1      33.008  29.245  25.226  1.00  0.00     0.042 C 
BRANCH  25  26
ATOM     26  C   UNL A   1      32.848  29.608  26.702  1.00  0.00     0.118 C 
BRANCH  26  27
ATOM     27  N   UNL A   1      32.930  31.041  26.944  1.00  0.00    -0.352 N 
ATOM     28  C   UNL A   1      33.877  31.778  27.617  1.00  0.00     0.251 C 
ATOM     29  H   UNL A   1      32.189  31.567  26.566  1.00  0.00     0.163 HD
ATOM     30  O   UNL A   1      33.654  32.958  27.857  1.00  0.00    -0.269 OA
BRANCH  28  31
ATOM     31  C   UNL A   1      35.136  31.147  28.072  1.00  0.00     0.039 A 
ATOM     32  C   UNL A   1      36.320  31.888  28.014  1.00  0.00     0.014 A 
ATOM     33  C   UNL A   1      35.159  29.834  28.548  1.00  0.00     0.014 A 
ATOM     34  C   UNL A   1      37.506  31.343  28.512  1.00  0.00     0.010 A 
ATOM     35  C   UNL A   1      36.322  29.321  29.116  1.00  0.00     0.010 A 
ATOM     36  C   UNL A   1      37.507  30.075  29.114  1.00  0.00    -0.014 A 
BRANCH  36  37
ATOM     37  C   UNL A   1      38.724  29.536  29.777  1.00  0.00     0.031 A 
ATOM     38  C   UNL A   1      39.162  30.060  31.116  1.00  0.00     0.074 A 
ATOM     39  C   UNL A   1      39.477  28.623  29.133  1.00  0.00     0.049 A 
ATOM     40  N   UNL A   1      40.227  29.759  31.815  1.00  0.00    -0.248 NA
ATOM     41  C   UNL A   1      38.301  31.076  31.735  1.00  0.00     0.031 C 
ATOM     42  C   UNL A   1      39.175  28.058  27.816  1.00  0.00     0.029 A 
ATOM     43  N   UNL A   1      40.649  28.008  29.495  1.00  0.00    -0.354 N 
ATOM     44  C   UNL A   1      40.171  30.557  32.953  1.00  0.00     0.074 A 
ATOM     45  C   UNL A   1      39.003  31.401  32.808  1.00  0.00     0.031 C 
ATOM     46  C   UNL A   1      40.115  27.154  27.500  1.00  0.00     0.029 A 
ATOM     47  C   UNL A   1      41.116  27.114  28.560  1.00  0.00     0.049 A 
ATOM     48  H   UNL A   1      41.113  28.191  30.344  1.00  0.00     0.167 HD
ATOM     49  C   UNL A   1      41.003  30.567  34.027  1.00  0.00     0.034 A 
ATOM     50  C   UNL A   1      42.230  26.355  28.550  1.00  0.00     0.034 A 
ATOM     51  C   UNL A   1      42.168  29.724  34.146  1.00  0.00     0.049 A 
ATOM     52  C   UNL A   1      43.179  26.435  29.717  1.00  0.00     0.074 A 
ATOM     53  C   UNL A   1      43.047  29.609  35.211  1.00  0.00     0.029 A 
ATOM     54  N   UNL A   1      42.636  28.864  33.158  1.00  0.00    -0.354 N 
ATOM     55  N   UNL A   1      43.083  27.151  30.813  1.00  0.00    -0.248 NA
ATOM     56  C   UNL A   1      44.384  25.601  29.643  1.00  0.00     0.031 C 
ATOM     57  C   UNL A   1      44.089  28.756  34.832  1.00  0.00     0.029 A 
ATOM     58  C   UNL A   1      43.817  28.260  33.567  1.00  0.00     0.049 A 
ATOM     59  H   UNL A   1      42.194  28.708  32.291  1.00  0.00     0.167 HD
ATOM     60  C   UNL A   1      44.205  26.832  31.573  1.00  0.00     0.074 A 
ATOM     61  C   UNL A   1      44.953  25.849  30.814  1.00  0.00     0.031 C 
ATOM     62  C   UNL A   1      44.574  27.302  32.793  1.00  0.00     0.034 A 
BRANCH  49  63
ATOM     63  C   UNL A   1      40.691  31.556  35.130  1.00  0.00     0.023 A 
ATOM     64  C   UNL A   1      39.688  31.306  36.084  1.00  0.00     0.031 A 
ATOM     65  C   UNL A   1      41.357  32.792  35.193  1.00  0.00     0.131 A 
ATOM     66  C   UNL A   1      39.303  32.314  36.979  1.00  0.00     0.055 A 
ATOM     67  C   UNL A   1      41.041  33.754  36.156  1.00  0.00     0.041 A 
ATOM     68  F   UNL A   1      42.313  33.102  34.301  1.00  0.00    -0.206 F 
ATOM     69  C   UNL A   1      39.990  33.528  37.041  1.00  0.00     0.022 A 
BRANCH  66  70
ATOM     70  S   UNL A   1      37.762  32.095  37.912  1.00  0.00     0.124 S 
ATOM     71  O   UNL A   1      38.202  32.379  39.277  1.00  0.00    -0.237 OA
ATOM     72  O   UNL A   1      36.883  33.085  37.305  1.00  0.00    -0.237 OA
ATOM     73  O   UNL A   1      37.405  30.701  37.661  1.00  0.00    -0.744 OA
ENDBRANCH  66  70
ENDBRANCH  49  63
BRANCH  50  74
ATOM     74  C   UNL A   1      42.506  25.451  27.398  1.00  0.00     0.023 A 
ATOM     75  C   UNL A   1      42.046  24.126  27.401  1.00  0.00     0.031 A 
ATOM     76  C   UNL A   1      43.239  25.894  26.283  1.00  0.00     0.131 A 
ATOM     77  C   UNL A   1      42.347  23.279  26.324  1.00  0.00     0.055 A 
ATOM     78  C   UNL A   1      43.493  25.062  25.191  1.00  0.00     0.041 A 
ATOM     79  F   UNL A   1      43.699  27.155  26.228  1.00  0.00    -0.206 F 
ATOM     80  C   UNL A   1      43.053  23.742  25.211  1.00  0.00     0.022 A 
BRANCH  77  81
ATOM     81  S   UNL A   1      41.848  21.537  26.423  1.00  0.00     0.124 S 
ATOM     82  O   UNL A   1      40.417  21.624  26.150  1.00  0.00    -0.237 OA
ATOM     83  O   UNL A   1      42.665  20.928  25.379  1.00  0.00    -0.237 OA
ATOM     84  O   UNL A   1      42.202  21.160  27.789  1.00  0.00    -0.744 OA
ENDBRANCH  77  81
ENDBRANCH  50  74
BRANCH  62  85
ATOM     85  C   UNL A   1      45.838  26.732  33.394  1.00  0.00     0.023 A 
ATOM     86  C   UNL A   1      45.823  25.573  34.192  1.00  0.00     0.031 A 
ATOM     87  C   UNL A   1      47.076  27.362  33.172  1.00  0.00     0.131 A 
ATOM     88  C   UNL A   1      47.011  25.114  34.783  1.00  0.00     0.055 A 
ATOM     89  C   UNL A   1      48.264  26.862  33.707  1.00  0.00     0.041 A 
ATOM     90  F   UNL A   1      47.152  28.476  32.426  1.00  0.00    -0.206 F 
ATOM     91  C   UNL A   1      48.235  25.739  34.527  1.00  0.00     0.022 A 
BRANCH  88  92
ATOM     92  S   UNL A   1      46.923  23.745  35.969  1.00  0.00     0.124 S 
ATOM     93  O   UNL A   1      48.332  23.406  36.144  1.00  0.00    -0.237 OA
ATOM     94  O   UNL A   1      46.269  24.365  37.116  1.00  0.00    -0.237 OA
ATOM     95  O   UNL A   1      46.125  22.738  35.271  1.00  0.00    -0.744 OA
ENDBRANCH  88  92
ENDBRANCH  62  85
ENDBRANCH  36  37
ENDBRANCH  28  31
ENDBRANCH  26  27
ENDBRANCH  25  26
ENDBRANCH  24  25
ENDBRANCH   3  24
TORSDOF 20
ENDMDL
MODEL 2
REMARK VINA RESULT:     -10.6      1.841      2.178
REMARK SMILES [NH3+]CCOCC(=O)N[C@H](C(=O)NCCCNC(=O)c1ccc(-c2c3nc(c(-c4cc(S(=O)(=O)[O-])ccc4F)c4ccc([nH]4)c(-c4cc(S(=O)(=O)[O-])ccc4F)c4nc(c(-c5cc(S(=O)(=O)[O-])ccc5F)c5ccc2[nH]5)C=C4)C=C3)cc1)C1CCCCC1
REMARK SMILES IDX 10 1 11 2 12 3 9 5 8 6 6 7 7 8 5 10 4 11 3 12 2 13 1 14
REMARK SMILES IDX 82 18 83 19 87 20 84 21 86 22 85 23 13 24 14 25 15 26 16 27
REMARK SMILES IDX 17 28 18 30 19 31 20 32 81 33 21 34 80 35 22 36 23 37 24 38
REMARK SMILES IDX 74 39 25 40 79 41 73 42 75 43 26 44 78 45 72 46 71 47 27 49
REMARK SMILES IDX 59 50 39 51 58 52 40 53 43 54 57 55 76 56 41 57 42 58 56 60
REMARK SMILES IDX 77 61 44 62 28 63 29 64 37 65 30 66 36 67 38 68 35 69 31 70
REMARK SMILES IDX 32 71 33 72 34 73 60 74 61 75 69 76 62 77 68 78 70 79 67 80
REMARK SMILES IDX 63 81 64 82 65 83 66 84 45 85 46 86 54 87 47 88 53 89 55 90
REMARK SMILES IDX 52 91 48 92 49 93 50 94 51 95
REMARK H PARENT 12 4 8 9 1 15 1 16 1 17 16 29 75 48 43 59
REMARK Flexibility Score: inf
ROOT
ATOM      1  C   UNL A   1      33.144  25.812  22.188  1.00  0.00     0.242 C 
ATOM      2  O   UNL A   1      33.271  25.668  20.973  1.00  0.00    -0.273 OA
ATOM      3  N   UNL A   1      32.818  27.062  22.643  1.00  0.00    -0.354 N 
ATOM      4  H   UNL A   1      32.631  27.723  21.939  1.00  0.00     0.163 HD
ENDROOT
BRANCH   1   5
ATOM      5  C   UNL A   1      33.278  24.653  23.201  1.00  0.00     0.174 C 
BRANCH   5   6
ATOM      6  N   UNL A   1      32.629  23.466  22.600  1.00  0.00    -0.342 N 
ATOM      7  C   UNL A   1      31.845  22.480  23.111  1.00  0.00     0.246 C 
ATOM      8  O   UNL A   1      31.606  21.510  22.384  1.00  0.00    -0.272 OA
ATOM      9  H   UNL A   1      32.800  23.371  21.635  1.00  0.00     0.164 HD
BRANCH   7  10
ATOM     10  C   UNL A   1      31.222  22.554  24.512  1.00  0.00     0.260 C 
BRANCH  10  11
ATOM     11  O   UNL A   1      31.856  21.919  25.601  1.00  0.00    -0.366 OA
BRANCH  11  12
ATOM     12  C   UNL A   1      32.530  20.700  25.288  1.00  0.00     0.222 C 
BRANCH  12  13
ATOM     13  C   UNL A   1      33.990  20.673  25.767  1.00  0.00     0.287 C 
BRANCH  13  14
ATOM     14  N   UNL A   1      34.903  19.894  24.928  1.00  0.00    -0.356 N 
ATOM     15  H   UNL A   1      34.707  18.899  25.044  1.00  0.00     0.344 HD
ATOM     16  H   UNL A   1      35.866  20.085  25.207  1.00  0.00     0.344 HD
ATOM     17  H   UNL A   1      34.774  20.154  23.951  1.00  0.00     0.344 HD
ENDBRANCH  13  14
ENDBRANCH  12  13
ENDBRANCH  11  12
ENDBRANCH  10  11
ENDBRANCH   7  10
ENDBRANCH   5   6
BRANCH   5  18
ATOM     18  C   UNL A   1      34.698  24.397  23.743  1.00  0.00     0.021 C 
ATOM     19  C   UNL A   1      34.783  24.285  25.276  1.00  0.00     0.006 C 
ATOM     20  C   UNL A   1      35.285  23.111  23.123  1.00  0.00     0.006 C 
ATOM     21  C   UNL A   1      36.246  24.127  25.703  1.00  0.00     0.000 C 
ATOM     22  C   UNL A   1      36.736  22.901  23.542  1.00  0.00     0.000 C 
ATOM     23  C   UNL A   1      36.899  22.907  25.058  1.00  0.00     0.000 C 
ENDBRANCH   5  18
ENDBRANCH   1   5
BRANCH   3  24
ATOM     24  C   UNL A   1      32.706  27.566  24.002  1.00  0.00     0.117 C 
BRANCH  24  25
ATOM     25  C   UNL A   1      34.029  28.120  24.520  1.00  0.00     0.042 C 
BRANCH  25  26
ATOM     26  C   UNL A   1      34.062  28.361  26.028  1.00  0.00     0.118 C 
BRANCH  26  27
ATOM     27  N   UNL A   1      33.722  29.730  26.391  1.00  0.00    -0.352 N 
ATOM     28  C   UNL A   1      34.312  30.586  27.291  1.00  0.00     0.251 C 
ATOM     29  H   UNL A   1      32.944  30.101  25.915  1.00  0.00     0.163 HD
ATOM     30  O   UNL A   1      33.748  31.637  27.572  1.00  0.00    -0.269 OA
BRANCH  28  31
ATOM     31  C   UNL A   1      35.594  30.230  27.937  1.00  0.00     0.039 A 
ATOM     32  C   UNL A   1      35.574  29.713  29.236  1.00  0.00     0.014 A 
ATOM     33  C   UNL A   1      36.813  30.407  27.277  1.00  0.00     0.014 A 
ATOM     34  C   UNL A   1      36.764  29.295  29.836  1.00  0.00     0.010 A 
ATOM     35  C   UNL A   1      37.987  29.918  27.844  1.00  0.00     0.010 A 
ATOM     36  C   UNL A   1      37.974  29.347  29.126  1.00  0.00    -0.014 A 
BRANCH  36  37
ATOM     37  C   UNL A   1      39.225  28.776  29.692  1.00  0.00     0.031 A 
ATOM     38  C   UNL A   1      39.855  29.376  30.917  1.00  0.00     0.074 A 
ATOM     39  C   UNL A   1      39.835  27.758  29.053  1.00  0.00     0.049 A 
ATOM     40  N   UNL A   1      40.975  29.057  31.515  1.00  0.00    -0.248 NA
ATOM     41  C   UNL A   1      39.142  30.502  31.534  1.00  0.00     0.031 C 
ATOM     42  C   UNL A   1      39.340  27.109  27.837  1.00  0.00     0.029 A 
ATOM     43  N   UNL A   1      41.000  27.090  29.333  1.00  0.00    -0.354 N 
ATOM     44  C   UNL A   1      41.109  29.950  32.573  1.00  0.00     0.074 A 
ATOM     45  C   UNL A   1      39.988  30.864  32.485  1.00  0.00     0.031 C 
ATOM     46  C   UNL A   1      40.174  26.114  27.501  1.00  0.00     0.029 A 
ATOM     47  C   UNL A   1      41.292  26.089  28.438  1.00  0.00     0.049 A 
ATOM     48  H   UNL A   1      41.574  27.309  30.103  1.00  0.00     0.167 HD
ATOM     49  C   UNL A   1      42.063  29.989  33.539  1.00  0.00     0.034 A 
ATOM     50  C   UNL A   1      42.345  25.250  28.370  1.00  0.00     0.034 A 
ATOM     51  C   UNL A   1      43.178  29.074  33.600  1.00  0.00     0.049 A 
ATOM     52  C   UNL A   1      43.432  25.356  29.408  1.00  0.00     0.074 A 
ATOM     53  C   UNL A   1      44.169  28.984  34.563  1.00  0.00     0.029 A 
ATOM     54  N   UNL A   1      43.467  28.101  32.648  1.00  0.00    -0.354 N 
ATOM     55  N   UNL A   1      43.516  26.168  30.437  1.00  0.00    -0.248 NA
ATOM     56  C   UNL A   1      44.563  24.432  29.274  1.00  0.00     0.031 C 
ATOM     57  C   UNL A   1      45.101  28.027  34.148  1.00  0.00     0.029 A 
ATOM     58  C   UNL A   1      44.647  27.447  32.974  1.00  0.00     0.049 A 
ATOM     59  H   UNL A   1      42.914  27.906  31.857  1.00  0.00     0.167 HD
ATOM     60  C   UNL A   1      44.698  25.831  31.090  1.00  0.00     0.074 A 
ATOM     61  C   UNL A   1      45.285  24.735  30.343  1.00  0.00     0.031 C 
ATOM     62  C   UNL A   1      45.242  26.373  32.210  1.00  0.00     0.034 A 
BRANCH  49  63
ATOM     63  C   UNL A   1      41.951  31.088  34.573  1.00  0.00     0.023 A 
ATOM     64  C   UNL A   1      40.928  31.092  35.538  1.00  0.00     0.031 A 
ATOM     65  C   UNL A   1      42.838  32.179  34.559  1.00  0.00     0.131 A 
ATOM     66  C   UNL A   1      40.746  32.210  36.364  1.00  0.00     0.055 A 
ATOM     67  C   UNL A   1      42.714  33.243  35.455  1.00  0.00     0.041 A 
ATOM     68  F   UNL A   1      43.826  32.246  33.652  1.00  0.00    -0.206 F 
ATOM     69  C   UNL A   1      41.648  33.275  36.349  1.00  0.00     0.022 A 
BRANCH  66  70
ATOM     70  S   UNL A   1      39.199  32.344  37.304  1.00  0.00     0.124 S 
ATOM     71  O   UNL A   1      38.542  31.081  36.970  1.00  0.00    -0.237 OA
ATOM     72  O   UNL A   1      39.674  32.474  38.675  1.00  0.00    -0.237 OA
ATOM     73  O   UNL A   1      38.560  33.533  36.746  1.00  0.00    -0.744 OA
ENDBRANCH  66  70
ENDBRANCH  49  63
BRANCH  50  74
ATOM     74  C   UNL A   1      42.422  24.234  27.283  1.00  0.00     0.023 A 
ATOM     75  C   UNL A   1      41.649  23.064  27.341  1.00  0.00     0.031 A 
ATOM     76  C   UNL A   1      43.271  24.412  26.177  1.00  0.00     0.131 A 
ATOM     77  C   UNL A   1      41.761  22.102  26.326  1.00  0.00     0.055 A 
ATOM     78  C   UNL A   1      43.342  23.475  25.144  1.00  0.00     0.041 A 
ATOM     79  F   UNL A   1      44.028  25.516  26.071  1.00  0.00    -0.206 F 
ATOM     80  C   UNL A   1      42.590  22.307  25.219  1.00  0.00     0.022 A 
BRANCH  77  81
ATOM     81  S   UNL A   1      40.847  20.545  26.499  1.00  0.00     0.124 S 
ATOM     82  O   UNL A   1      40.904  20.328  27.941  1.00  0.00    -0.237 OA
ATOM     83  O   UNL A   1      39.540  20.898  25.954  1.00  0.00    -0.237 OA
ATOM     84  O   UNL A   1      41.622  19.604  25.695  1.00  0.00    -0.744 OA
ENDBRANCH  77  81
ENDBRANCH  50  74
BRANCH  62  85
ATOM     85  C   UNL A   1      46.530  25.763  32.713  1.00  0.00     0.023 A 
ATOM     86  C   UNL A   1      47.777  26.096  32.154  1.00  0.00     0.031 A 
ATOM     87  C   UNL A   1      46.508  24.827  33.762  1.00  0.00     0.131 A 
ATOM     88  C   UNL A   1      48.942  25.458  32.610  1.00  0.00     0.055 A 
ATOM     89  C   UNL A   1      47.677  24.246  34.257  1.00  0.00     0.041 A 
ATOM     90  F   UNL A   1      45.346  24.463  34.330  1.00  0.00    -0.206 F 
ATOM     91  C   UNL A   1      48.902  24.552  33.672  1.00  0.00     0.022 A 
BRANCH  88  92
ATOM     92  S   UNL A   1      50.500  25.757  31.731  1.00  0.00     0.124 S 
ATOM     93  O   UNL A   1      51.193  24.484  31.903  1.00  0.00    -0.237 OA
ATOM     94  O   UNL A   1      50.045  26.058  30.379  1.00  0.00    -0.237 OA
ATOM     95  O   UNL A   1      51.089  26.885  32.451  1.00  0.00    -0.744 OA
ENDBRANCH  88  92
ENDBRANCH  62  85
ENDBRANCH  36  37
ENDBRANCH  28  31
ENDBRANCH  26  27
ENDBRANCH  25  26
ENDBRANCH  24  25
ENDBRANCH   3  24
TORSDOF 20
ENDMDL
MODEL 3
REMARK VINA RESULT:     -10.6      1.756      8.033
REMARK SMILES [NH3+]CCOCC(=O)N[C@H](C(=O)NCCCNC(=O)c1ccc(-c2c3nc(c(-c4cc(S(=O)(=O)[O-])ccc4F)c4ccc([nH]4)c(-c4cc(S(=O)(=O)[O-])ccc4F)c4nc(c(-c5cc(S(=O)(=O)[O-])ccc5F)c5ccc2[nH]5)C=C4)C=C3)cc1)C1CCCCC1
REMARK SMILES IDX 10 1 11 2 12 3 9 5 8 6 6 7 7 8 5 10 4 11 3 12 2 13 1 14
REMARK SMILES IDX 82 18 83 19 87 20 84 21 86 22 85 23 13 24 14 25 15 26 16 27
REMARK SMILES IDX 17 28 18 30 19 31 20 32 81 33 21 34 80 35 22 36 23 37 24 38
REMARK SMILES IDX 74 39 25 40 79 41 73 42 75 43 26 44 78 45 72 46 71 47 27 49
REMARK SMILES IDX 59 50 39 51 58 52 40 53 43 54 57 55 76 56 41 57 42 58 56 60
REMARK SMILES IDX 77 61 44 62 28 63 29 64 37 65 30 66 36 67 38 68 35 69 31 70
REMARK SMILES IDX 32 71 33 72 34 73 60 74 61 75 69 76 62 77 68 78 70 79 67 80
REMARK SMILES IDX 63 81 64 82 65 83 66 84 45 85 46 86 54 87 47 88 53 89 55 90
REMARK SMILES IDX 52 91 48 92 49 93 50 94 51 95
REMARK H PARENT 12 4 8 9 1 15 1 16 1 17 16 29 75 48 43 59
REMARK Flexibility Score: inf
ROOT
ATOM      1  C   UNL A   1      33.622  26.740  23.741  1.00  0.00     0.242 C 
ATOM      2  O   UNL A   1      33.959  26.452  22.594  1.00  0.00    -0.273 OA
ATOM      3  N   UNL A   1      33.753  28.048  24.126  1.00  0.00    -0.354 N 
ATOM      4  H   UNL A   1      34.032  28.664  23.411  1.00  0.00     0.163 HD
ENDROOT
BRANCH   1   5
ATOM      5  C   UNL A   1      33.013  25.722  24.731  1.00  0.00     0.174 C 
BRANCH   5   6
ATOM      6  N   UNL A   1      31.923  25.015  24.021  1.00  0.00    -0.342 N 
ATOM      7  C   UNL A   1      30.624  25.330  23.770  1.00  0.00     0.246 C 
ATOM      8  O   UNL A   1      29.904  24.439  23.305  1.00  0.00    -0.272 OA
ATOM      9  H   UNL A   1      32.193  24.141  23.657  1.00  0.00     0.164 HD
BRANCH   7  10
ATOM     10  C   UNL A   1      30.050  26.736  23.993  1.00  0.00     0.260 C 
BRANCH  10  11
ATOM     11  O   UNL A   1      28.973  27.192  23.203  1.00  0.00    -0.366 OA
BRANCH  11  12
ATOM     12  C   UNL A   1      29.024  28.573  22.843  1.00  0.00     0.222 C 
BRANCH  12  13
ATOM     13  C   UNL A   1      30.456  29.114  22.710  1.00  0.00     0.287 C 
BRANCH  13  14
ATOM     14  N   UNL A   1      30.655  30.078  21.626  1.00  0.00    -0.356 N 
ATOM     15  H   UNL A   1      31.605  30.448  21.670  1.00  0.00     0.344 HD
ATOM     16  H   UNL A   1      29.988  30.844  21.725  1.00  0.00     0.344 HD
ATOM     17  H   UNL A   1      30.512  29.617  20.728  1.00  0.00     0.344 HD
ENDBRANCH  13  14
ENDBRANCH  12  13
ENDBRANCH  11  12
ENDBRANCH  10  11
ENDBRANCH   7  10
ENDBRANCH   5   6
BRANCH   5  18
ATOM     18  C   UNL A   1      34.019  24.793  25.440  1.00  0.00     0.021 C 
ATOM     19  C   UNL A   1      33.371  23.690  26.296  1.00  0.00     0.006 C 
ATOM     20  C   UNL A   1      34.955  24.129  24.409  1.00  0.00     0.006 C 
ATOM     21  C   UNL A   1      34.459  22.894  27.024  1.00  0.00     0.000 C 
ATOM     22  C   UNL A   1      36.042  23.305  25.091  1.00  0.00     0.000 C 
ATOM     23  C   UNL A   1      35.459  22.275  26.051  1.00  0.00     0.000 C 
ENDBRANCH   5  18
ENDBRANCH   1   5
BRANCH   3  24
ATOM     24  C   UNL A   1      33.545  28.669  25.423  1.00  0.00     0.117 C 
BRANCH  24  25
ATOM     25  C   UNL A   1      32.656  29.906  25.332  1.00  0.00     0.042 C 
BRANCH  25  26
ATOM     26  C   UNL A   1      32.090  30.372  26.672  1.00  0.00     0.118 C 
BRANCH  26  27
ATOM     27  N   UNL A   1      32.107  31.821  26.821  1.00  0.00    -0.352 N 
ATOM     28  C   UNL A   1      33.002  32.639  27.470  1.00  0.00     0.251 C 
ATOM     29  H   UNL A   1      31.358  32.289  26.387  1.00  0.00     0.163 HD
ATOM     30  O   UNL A   1      32.724  33.822  27.625  1.00  0.00    -0.269 OA
BRANCH  28  31
ATOM     31  C   UNL A   1      34.270  32.093  28.003  1.00  0.00     0.039 A 
ATOM     32  C   UNL A   1      35.369  32.947  28.133  1.00  0.00     0.014 A 
ATOM     33  C   UNL A   1      34.385  30.749  28.368  1.00  0.00     0.014 A 
ATOM     34  C   UNL A   1      36.551  32.475  28.708  1.00  0.00     0.010 A 
ATOM     35  C   UNL A   1      35.535  30.301  29.013  1.00  0.00     0.010 A 
ATOM     36  C   UNL A   1      36.627  31.162  29.199  1.00  0.00    -0.014 A 
BRANCH  36  37
ATOM     37  C   UNL A   1      37.824  30.684  29.941  1.00  0.00     0.031 A 
ATOM     38  C   UNL A   1      38.775  29.705  29.312  1.00  0.00     0.074 A 
ATOM     39  C   UNL A   1      38.013  31.080  31.215  1.00  0.00     0.049 A 
ATOM     40  N   UNL A   1      39.832  29.128  29.826  1.00  0.00    -0.248 NA
ATOM     41  C   UNL A   1      38.480  29.302  27.931  1.00  0.00     0.031 C 
ATOM     42  C   UNL A   1      37.144  32.003  31.949  1.00  0.00     0.029 A 
ATOM     43  N   UNL A   1      38.992  30.758  32.121  1.00  0.00    -0.354 N 
ATOM     44  C   UNL A   1      40.323  28.284  28.835  1.00  0.00     0.074 A 
ATOM     45  C   UNL A   1      39.403  28.377  27.720  1.00  0.00     0.031 C 
ATOM     46  C   UNL A   1      37.651  32.202  33.175  1.00  0.00     0.029 A 
ATOM     47  C   UNL A   1      38.845  31.379  33.338  1.00  0.00     0.049 A 
ATOM     48  H   UNL A   1      39.730  30.139  31.918  1.00  0.00     0.167 HD
ATOM     49  C   UNL A   1      41.447  27.523  28.847  1.00  0.00     0.034 A 
ATOM     50  C   UNL A   1      39.581  31.291  34.465  1.00  0.00     0.034 A 
ATOM     51  C   UNL A   1      42.345  27.436  29.974  1.00  0.00     0.049 A 
ATOM     52  C   UNL A   1      40.783  30.384  34.483  1.00  0.00     0.074 A 
ATOM     53  C   UNL A   1      43.540  26.744  30.075  1.00  0.00     0.029 A 
ATOM     54  N   UNL A   1      42.138  28.044  31.208  1.00  0.00    -0.354 N 
ATOM     55  N   UNL A   1      41.268  29.635  33.519  1.00  0.00    -0.248 NA
ATOM     56  C   UNL A   1      41.534  30.312  35.741  1.00  0.00     0.031 C 
ATOM     57  C   UNL A   1      44.005  26.857  31.390  1.00  0.00     0.029 A 
ATOM     58  C   UNL A   1      43.154  27.698  32.089  1.00  0.00     0.049 A 
ATOM     59  H   UNL A   1      41.380  28.634  31.426  1.00  0.00     0.167 HD
ATOM     60  C   UNL A   1      42.402  29.025  34.048  1.00  0.00     0.074 A 
ATOM     61  C   UNL A   1      42.531  29.503  35.412  1.00  0.00     0.031 C 
ATOM     62  C   UNL A   1      43.261  28.156  33.457  1.00  0.00     0.034 A 
BRANCH  49  63
ATOM     63  C   UNL A   1      41.731  26.695  27.612  1.00  0.00     0.023 A 
ATOM     64  C   UNL A   1      41.335  25.349  27.518  1.00  0.00     0.031 A 
ATOM     65  C   UNL A   1      42.462  27.236  26.539  1.00  0.00     0.131 A 
ATOM     66  C   UNL A   1      41.769  24.562  26.441  1.00  0.00     0.055 A 
ATOM     67  C   UNL A   1      42.802  26.474  25.418  1.00  0.00     0.041 A 
ATOM     68  F   UNL A   1      42.887  28.510  26.572  1.00  0.00    -0.206 F 
ATOM     69  C   UNL A   1      42.476  25.122  25.376  1.00  0.00     0.022 A 
BRANCH  66  70
ATOM     70  S   UNL A   1      41.575  22.762  26.557  1.00  0.00     0.124 S 
ATOM     71  O   UNL A   1      40.121  22.620  26.537  1.00  0.00    -0.237 OA
ATOM     72  O   UNL A   1      42.279  22.292  25.371  1.00  0.00    -0.237 OA
ATOM     73  O   UNL A   1      42.206  22.431  27.833  1.00  0.00    -0.744 OA
ENDBRANCH  66  70
ENDBRANCH  49  63
BRANCH  50  74
ATOM     74  C   UNL A   1      39.203  32.086  35.667  1.00  0.00     0.023 A 
ATOM     75  C   UNL A   1      38.441  31.511  36.695  1.00  0.00     0.031 A 
ATOM     76  C   UNL A   1      39.589  33.431  35.803  1.00  0.00     0.131 A 
ATOM     77  C   UNL A   1      38.064  32.285  37.803  1.00  0.00     0.055 A 
ATOM     78  C   UNL A   1      39.254  34.183  36.931  1.00  0.00     0.041 A 
ATOM     79  F   UNL A   1      40.323  34.028  34.850  1.00  0.00    -0.206 F 
ATOM     80  C   UNL A   1      38.479  33.613  37.936  1.00  0.00     0.022 A 
BRANCH  77  81
ATOM     81  S   UNL A   1      36.971  31.547  39.047  1.00  0.00     0.124 S 
ATOM     82  O   UNL A   1      36.775  30.204  38.509  1.00  0.00    -0.237 OA
ATOM     83  O   UNL A   1      37.780  31.643  40.258  1.00  0.00    -0.237 OA
ATOM     84  O   UNL A   1      35.792  32.409  39.019  1.00  0.00    -0.744 OA
ENDBRANCH  77  81
ENDBRANCH  50  74
BRANCH  62  85
ATOM     85  C   UNL A   1      44.440  27.688  34.279  1.00  0.00     0.023 A 
ATOM     86  C   UNL A   1      44.387  26.515  35.054  1.00  0.00     0.031 A 
ATOM     87  C   UNL A   1      45.634  28.433  34.294  1.00  0.00     0.131 A 
ATOM     88  C   UNL A   1      45.483  26.152  35.852  1.00  0.00     0.055 A 
ATOM     89  C   UNL A   1      46.744  28.030  35.036  1.00  0.00     0.041 A 
ATOM     90  F   UNL A   1      45.742  29.566  33.581  1.00  0.00    -0.206 F 
ATOM     91  C   UNL A   1      46.669  26.890  35.831  1.00  0.00     0.022 A 
BRANCH  88  92
ATOM     92  S   UNL A   1      45.306  24.754  36.992  1.00  0.00     0.124 S 
ATOM     93  O   UNL A   1      43.897  24.840  37.361  1.00  0.00    -0.237 OA
ATOM     94  O   UNL A   1      45.679  23.618  36.156  1.00  0.00    -0.237 OA
ATOM     95  O   UNL A   1      46.247  25.066  38.067  1.00  0.00    -0.744 OA
ENDBRANCH  88  92
ENDBRANCH  62  85
ENDBRANCH  36  37
ENDBRANCH  28  31
ENDBRANCH  26  27
ENDBRANCH  25  26
ENDBRANCH  24  25
ENDBRANCH   3  24
TORSDOF 20
ENDMDL
