MODEL 1
REMARK VINA RESULT:     -12.2      0.000      0.000
REMARK SMILES Cc1ccc(C(=O)[C@@H](C)[C@H](C)C(=O)NCCCNC(=O)c2ccc(-c3c4nc(c(-c5cc(S(=O)(=O)[O-])ccc5F)c5ccc([nH]5)c(-c5cc(S(=O)(=O)[O-])ccc5F)c5nc(c(-c6cc(S(=O)(=O)[O-])ccc6F)c6ccc3[nH]6)C=C5)C=C4)cc2)cc1
REMARK SMILES IDX 16 1 15 2 14 3 12 4 13 5 10 7 11 8 8 9 9 10 6 11 7 12 5 13
REMARK SMILES IDX 1 14 2 15 3 16 85 17 4 18 84 19 17 20 18 21 19 22 20 24
REMARK SMILES IDX 21 25 22 26 83 27 23 28 82 29 24 30 25 31 26 32 76 33 27 34
REMARK SMILES IDX 81 35 75 36 77 37 28 38 80 39 74 40 73 41 29 43 61 44 41 45
REMARK SMILES IDX 60 46 42 47 45 48 59 49 78 50 43 51 44 52 58 54 79 55 46 56
REMARK SMILES IDX 30 57 31 58 39 59 32 60 38 61 40 62 37 63 33 64 34 65 35 66
REMARK SMILES IDX 36 67 62 68 63 69 71 70 64 71 70 72 72 73 69 74 65 75 66 76
REMARK SMILES IDX 67 77 68 78 47 79 48 80 56 81 49 82 55 83 57 84 54 85 50 86
REMARK SMILES IDX 51 87 52 88 53 89
REMARK H PARENT 14 6 18 23 77 42 45 53
REMARK Flexibility Score: inf
ROOT
ATOM      1  C   UNL A   1      33.298  31.786  27.474  1.00  0.00     0.042 C 
ENDROOT
BRANCH   1   2
ATOM      2  C   UNL A   1      32.320  30.958  26.662  1.00  0.00     0.117 C 
BRANCH   2   3
ATOM      3  N   UNL A   1      31.846  29.780  27.377  1.00  0.00    -0.356 N 
ATOM      4  C   UNL A   1      31.868  28.438  27.222  1.00  0.00     0.223 C 
ATOM      5  O   UNL A   1      31.435  27.792  28.189  1.00  0.00    -0.275 OA
ATOM      6  H   UNL A   1      31.379  30.032  28.206  1.00  0.00     0.163 HD
BRANCH   4   7
ATOM      7  C   UNL A   1      32.293  27.657  25.971  1.00  0.00     0.086 C 
ATOM      8  C   UNL A   1      33.806  27.441  25.941  1.00  0.00     0.019 C 
BRANCH   7   9
ATOM      9  C   UNL A   1      31.353  26.562  25.387  1.00  0.00     0.070 C 
ATOM     10  C   UNL A   1      31.728  25.096  25.577  1.00  0.00     0.017 C 
BRANCH   9  11
ATOM     11  C   UNL A   1      30.712  26.813  24.002  1.00  0.00     0.166 C 
ATOM     12  O   UNL A   1      30.836  25.967  23.111  1.00  0.00    -0.294 OA
BRANCH  11  13
ATOM     13  C   UNL A   1      29.933  28.049  23.674  1.00  0.00     0.018 A 
ATOM     14  C   UNL A   1      27.587  31.619  22.962  1.00  0.00     0.044 C 
ATOM     15  C   UNL A   1      28.371  30.366  23.217  1.00  0.00    -0.051 A 
ATOM     16  C   UNL A   1      27.845  29.098  22.969  1.00  0.00     0.004 A 
ATOM     17  C   UNL A   1      29.674  30.458  23.691  1.00  0.00     0.004 A 
ATOM     18  C   UNL A   1      28.614  27.948  23.212  1.00  0.00     0.012 A 
ATOM     19  C   UNL A   1      30.455  29.317  23.872  1.00  0.00     0.012 A 
ENDBRANCH  11  13
ENDBRANCH   9  11
ENDBRANCH   7   9
ENDBRANCH   4   7
ENDBRANCH   2   3
ENDBRANCH   1   2
BRANCH   1  20
ATOM     20  C   UNL A   1      34.592  31.046  27.810  1.00  0.00     0.118 C 
BRANCH  20  21
ATOM     21  N   UNL A   1      35.683  31.849  28.371  1.00  0.00    -0.352 N 
ATOM     22  C   UNL A   1      36.920  31.404  28.837  1.00  0.00     0.251 C 
ATOM     23  H   UNL A   1      35.523  32.819  28.425  1.00  0.00     0.163 HD
ATOM     24  O   UNL A   1      37.732  32.148  29.357  1.00  0.00    -0.269 OA
BRANCH  22  25
ATOM     25  C   UNL A   1      37.237  29.977  28.620  1.00  0.00     0.039 A 
ATOM     26  C   UNL A   1      37.252  29.166  29.759  1.00  0.00     0.014 A 
ATOM     27  C   UNL A   1      37.966  29.654  27.482  1.00  0.00     0.014 A 
ATOM     28  C   UNL A   1      38.240  28.193  29.870  1.00  0.00     0.010 A 
ATOM     29  C   UNL A   1      39.010  28.761  27.642  1.00  0.00     0.010 A 
ATOM     30  C   UNL A   1      39.211  28.102  28.872  1.00  0.00    -0.014 A 
BRANCH  30  31
ATOM     31  C   UNL A   1      40.573  27.604  29.117  1.00  0.00     0.031 A 
ATOM     32  C   UNL A   1      40.960  26.216  28.749  1.00  0.00     0.074 A 
ATOM     33  C   UNL A   1      41.554  28.458  29.506  1.00  0.00     0.049 A 
ATOM     34  N   UNL A   1      42.122  25.705  28.976  1.00  0.00    -0.248 NA
ATOM     35  C   UNL A   1      40.034  25.252  28.160  1.00  0.00     0.031 C 
ATOM     36  C   UNL A   1      42.996  28.282  29.335  1.00  0.00     0.029 A 
ATOM     37  N   UNL A   1      41.450  29.541  30.385  1.00  0.00    -0.354 N 
ATOM     38  C   UNL A   1      42.199  24.493  28.338  1.00  0.00     0.074 A 
ATOM     39  C   UNL A   1      40.846  24.215  27.932  1.00  0.00     0.031 C 
ATOM     40  C   UNL A   1      43.643  29.010  30.254  1.00  0.00     0.029 A 
ATOM     41  C   UNL A   1      42.647  29.576  31.138  1.00  0.00     0.049 A 
ATOM     42  H   UNL A   1      40.688  30.159  30.466  1.00  0.00     0.167 HD
ATOM     43  C   UNL A   1      43.426  23.928  28.159  1.00  0.00     0.034 A 
ATOM     44  C   UNL A   1      42.647  29.473  32.497  1.00  0.00     0.034 A 
ATOM     45  C   UNL A   1      44.426  24.534  29.046  1.00  0.00     0.049 A 
ATOM     46  C   UNL A   1      43.417  28.287  33.050  1.00  0.00     0.074 A 
ATOM     47  C   UNL A   1      45.541  25.342  28.907  1.00  0.00     0.029 A 
ATOM     48  N   UNL A   1      44.201  24.443  30.408  1.00  0.00    -0.354 N 
ATOM     49  N   UNL A   1      44.085  27.433  32.325  1.00  0.00    -0.248 NA
ATOM     50  C   UNL A   1      43.396  27.914  34.466  1.00  0.00     0.031 C 
ATOM     51  C   UNL A   1      45.959  25.749  30.215  1.00  0.00     0.029 A 
ATOM     52  C   UNL A   1      45.113  25.166  31.142  1.00  0.00     0.049 A 
ATOM     53  H   UNL A   1      43.468  23.920  30.808  1.00  0.00     0.167 HD
ATOM     54  C   UNL A   1      44.434  26.358  33.106  1.00  0.00     0.074 A 
ATOM     55  C   UNL A   1      44.018  26.723  34.447  1.00  0.00     0.031 C 
ATOM     56  C   UNL A   1      44.953  25.206  32.588  1.00  0.00     0.034 A 
BRANCH  43  57
ATOM     57  C   UNL A   1      43.786  22.878  27.125  1.00  0.00     0.023 A 
ATOM     58  C   UNL A   1      43.013  21.696  27.074  1.00  0.00     0.031 A 
ATOM     59  C   UNL A   1      44.898  22.894  26.256  1.00  0.00     0.131 A 
ATOM     60  C   UNL A   1      43.359  20.618  26.238  1.00  0.00     0.055 A 
ATOM     61  C   UNL A   1      45.218  21.838  25.391  1.00  0.00     0.041 A 
ATOM     62  F   UNL A   1      45.770  23.902  26.209  1.00  0.00    -0.206 F 
ATOM     63  C   UNL A   1      44.455  20.686  25.385  1.00  0.00     0.022 A 
BRANCH  60  64
ATOM     64  S   UNL A   1      42.398  19.083  26.330  1.00  0.00     0.124 S 
ATOM     65  O   UNL A   1      42.441  18.781  27.757  1.00  0.00    -0.237 OA
ATOM     66  O   UNL A   1      41.107  19.496  25.791  1.00  0.00    -0.237 OA
ATOM     67  O   UNL A   1      43.155  18.160  25.484  1.00  0.00    -0.744 OA
ENDBRANCH  60  64
ENDBRANCH  43  57
BRANCH  44  68
ATOM     68  C   UNL A   1      41.435  30.076  33.113  1.00  0.00     0.023 A 
ATOM     69  C   UNL A   1      41.407  31.481  33.230  1.00  0.00     0.031 A 
ATOM     70  C   UNL A   1      40.221  29.380  33.182  1.00  0.00     0.131 A 
ATOM     71  C   UNL A   1      40.180  32.156  33.259  1.00  0.00     0.055 A 
ATOM     72  C   UNL A   1      39.001  30.058  33.275  1.00  0.00     0.041 A 
ATOM     73  F   UNL A   1      40.186  28.048  33.027  1.00  0.00    -0.206 F 
ATOM     74  C   UNL A   1      38.975  31.453  33.273  1.00  0.00     0.022 A 
BRANCH  71  75
ATOM     75  S   UNL A   1      40.185  33.955  32.996  1.00  0.00     0.124 S 
ATOM     76  O   UNL A   1      39.574  34.443  34.227  1.00  0.00    -0.237 OA
ATOM     77  O   UNL A   1      41.608  34.242  32.827  1.00  0.00    -0.237 OA
ATOM     78  O   UNL A   1      39.386  34.119  31.784  1.00  0.00    -0.744 OA
ENDBRANCH  71  75
ENDBRANCH  44  68
BRANCH  56  79
ATOM     79  C   UNL A   1      45.265  23.989  33.426  1.00  0.00     0.023 A 
ATOM     80  C   UNL A   1      46.552  23.742  33.932  1.00  0.00     0.031 A 
ATOM     81  C   UNL A   1      44.290  22.997  33.687  1.00  0.00     0.131 A 
ATOM     82  C   UNL A   1      46.814  22.584  34.688  1.00  0.00     0.055 A 
ATOM     83  C   UNL A   1      44.576  21.809  34.362  1.00  0.00     0.041 A 
ATOM     84  F   UNL A   1      43.004  23.166  33.345  1.00  0.00    -0.206 F 
ATOM     85  C   UNL A   1      45.845  21.597  34.874  1.00  0.00     0.022 A 
BRANCH  82  86
ATOM     86  S   UNL A   1      48.428  22.412  35.495  1.00  0.00     0.124 S 
ATOM     87  O   UNL A   1      48.803  23.797  35.761  1.00  0.00    -0.237 OA
ATOM     88  O   UNL A   1      48.086  21.610  36.668  1.00  0.00    -0.237 OA
ATOM     89  O   UNL A   1      49.244  21.727  34.496  1.00  0.00    -0.744 OA
ENDBRANCH  82  86
ENDBRANCH  56  79
ENDBRANCH  30  31
ENDBRANCH  22  25
ENDBRANCH  20  21
ENDBRANCH   1  20
TORSDOF 16
ENDMDL
MODEL 2
REMARK VINA RESULT:     -12.0      1.118      2.746
REMARK SMILES Cc1ccc(C(=O)[C@@H](C)[C@H](C)C(=O)NCCCNC(=O)c2ccc(-c3c4nc(c(-c5cc(S(=O)(=O)[O-])ccc5F)c5ccc([nH]5)c(-c5cc(S(=O)(=O)[O-])ccc5F)c5nc(c(-c6cc(S(=O)(=O)[O-])ccc6F)c6ccc3[nH]6)C=C5)C=C4)cc2)cc1
REMARK SMILES IDX 16 1 15 2 14 3 12 4 13 5 10 7 11 8 8 9 9 10 6 11 7 12 5 13
REMARK SMILES IDX 1 14 2 15 3 16 85 17 4 18 84 19 17 20 18 21 19 22 20 24
REMARK SMILES IDX 21 25 22 26 83 27 23 28 82 29 24 30 25 31 26 32 76 33 27 34
REMARK SMILES IDX 81 35 75 36 77 37 28 38 80 39 74 40 73 41 29 43 61 44 41 45
REMARK SMILES IDX 60 46 42 47 45 48 59 49 78 50 43 51 44 52 58 54 79 55 46 56
REMARK SMILES IDX 30 57 31 58 39 59 32 60 38 61 40 62 37 63 33 64 34 65 35 66
REMARK SMILES IDX 36 67 62 68 63 69 71 70 64 71 70 72 72 73 69 74 65 75 66 76
REMARK SMILES IDX 67 77 68 78 47 79 48 80 56 81 49 82 55 83 57 84 54 85 50 86
REMARK SMILES IDX 51 87 52 88 53 89
REMARK H PARENT 14 6 18 23 77 42 45 53
REMARK Flexibility Score: inf
ROOT
ATOM      1  C   UNL A   1      33.891  30.849  28.010  1.00  0.00     0.042 C 
ENDROOT
BRANCH   1   2
ATOM      2  C   UNL A   1      34.066  29.405  27.577  1.00  0.00     0.117 C 
BRANCH   2   3
ATOM      3  N   UNL A   1      32.821  28.648  27.614  1.00  0.00    -0.356 N 
ATOM      4  C   UNL A   1      32.002  28.025  26.739  1.00  0.00     0.223 C 
ATOM      5  O   UNL A   1      31.084  27.371  27.257  1.00  0.00    -0.275 OA
ATOM      6  H   UNL A   1      32.483  28.567  28.534  1.00  0.00     0.163 HD
BRANCH   4   7
ATOM      7  C   UNL A   1      32.047  28.107  25.207  1.00  0.00     0.086 C 
ATOM      8  C   UNL A   1      31.189  29.261  24.688  1.00  0.00     0.019 C 
BRANCH   7   9
ATOM      9  C   UNL A   1      33.354  27.726  24.451  1.00  0.00     0.070 C 
ATOM     10  C   UNL A   1      33.966  28.739  23.489  1.00  0.00     0.017 C 
BRANCH   9  11
ATOM     11  C   UNL A   1      33.497  26.279  23.926  1.00  0.00     0.166 C 
ATOM     12  O   UNL A   1      33.517  26.072  22.707  1.00  0.00    -0.294 OA
BRANCH  11  13
ATOM     13  C   UNL A   1      33.618  25.089  24.827  1.00  0.00     0.018 A 
ATOM     14  C   UNL A   1      33.996  21.811  27.631  1.00  0.00     0.044 C 
ATOM     15  C   UNL A   1      33.896  22.958  26.670  1.00  0.00    -0.051 A 
ATOM     16  C   UNL A   1      35.016  23.494  26.035  1.00  0.00     0.004 A 
ATOM     17  C   UNL A   1      32.649  23.496  26.374  1.00  0.00     0.004 A 
ATOM     18  C   UNL A   1      34.881  24.563  25.134  1.00  0.00     0.012 A 
ATOM     19  C   UNL A   1      32.512  24.516  25.433  1.00  0.00     0.012 A 
ENDBRANCH  11  13
ENDBRANCH   9  11
ENDBRANCH   7   9
ENDBRANCH   4   7
ENDBRANCH   2   3
ENDBRANCH   1   2
BRANCH   1  20
ATOM     20  C   UNL A   1      35.077  31.743  27.651  1.00  0.00     0.118 C 
BRANCH  20  21
ATOM     21  N   UNL A   1      35.881  32.248  28.767  1.00  0.00    -0.352 N 
ATOM     22  C   UNL A   1      36.831  31.555  29.518  1.00  0.00     0.251 C 
ATOM     23  H   UNL A   1      35.734  33.189  29.017  1.00  0.00     0.163 HD
ATOM     24  O   UNL A   1      37.394  32.047  30.479  1.00  0.00    -0.269 OA
BRANCH  22  25
ATOM     25  C   UNL A   1      37.177  30.193  29.058  1.00  0.00     0.039 A 
ATOM     26  C   UNL A   1      37.152  29.187  30.030  1.00  0.00     0.014 A 
ATOM     27  C   UNL A   1      37.960  30.088  27.915  1.00  0.00     0.014 A 
ATOM     28  C   UNL A   1      38.147  28.215  30.006  1.00  0.00     0.010 A 
ATOM     29  C   UNL A   1      39.007  29.186  27.957  1.00  0.00     0.010 A 
ATOM     30  C   UNL A   1      39.162  28.314  29.054  1.00  0.00    -0.014 A 
BRANCH  30  31
ATOM     31  C   UNL A   1      40.519  27.786  29.266  1.00  0.00     0.031 A 
ATOM     32  C   UNL A   1      40.875  26.400  28.861  1.00  0.00     0.074 A 
ATOM     33  C   UNL A   1      41.521  28.613  29.658  1.00  0.00     0.049 A 
ATOM     34  N   UNL A   1      42.031  25.864  29.059  1.00  0.00    -0.248 NA
ATOM     35  C   UNL A   1      39.923  25.467  28.265  1.00  0.00     0.031 C 
ATOM     36  C   UNL A   1      42.957  28.416  29.461  1.00  0.00     0.029 A 
ATOM     37  N   UNL A   1      41.450  29.678  30.563  1.00  0.00    -0.354 N 
ATOM     38  C   UNL A   1      42.076  24.665  28.393  1.00  0.00     0.074 A 
ATOM     39  C   UNL A   1      40.712  24.421  28.002  1.00  0.00     0.031 C 
ATOM     40  C   UNL A   1      43.631  29.111  30.386  1.00  0.00     0.029 A 
ATOM     41  C   UNL A   1      42.659  29.675  31.297  1.00  0.00     0.049 A 
ATOM     42  H   UNL A   1      40.701  30.308  30.669  1.00  0.00     0.167 HD
ATOM     43  C   UNL A   1      43.289  24.083  28.182  1.00  0.00     0.034 A 
ATOM     44  C   UNL A   1      42.679  29.541  32.653  1.00  0.00     0.034 A 
ATOM     45  C   UNL A   1      44.313  24.651  29.066  1.00  0.00     0.049 A 
ATOM     46  C   UNL A   1      43.435  28.330  33.167  1.00  0.00     0.074 A 
ATOM     47  C   UNL A   1      45.441  25.442  28.927  1.00  0.00     0.029 A 
ATOM     48  N   UNL A   1      44.108  24.533  30.429  1.00  0.00    -0.354 N 
ATOM     49  N   UNL A   1      44.076  27.480  32.414  1.00  0.00    -0.248 NA
ATOM     50  C   UNL A   1      43.429  27.925  34.575  1.00  0.00     0.031 C 
ATOM     51  C   UNL A   1      45.886  25.811  30.237  1.00  0.00     0.029 A 
ATOM     52  C   UNL A   1      45.045  25.222  31.164  1.00  0.00     0.049 A 
ATOM     53  H   UNL A   1      43.372  24.014  30.828  1.00  0.00     0.167 HD
ATOM     54  C   UNL A   1      44.418  26.382  33.164  1.00  0.00     0.074 A 
ATOM     55  C   UNL A   1      44.030  26.724  34.520  1.00  0.00     0.031 C 
ATOM     56  C   UNL A   1      44.907  25.233  32.613  1.00  0.00     0.034 A 
BRANCH  43  57
ATOM     57  C   UNL A   1      43.614  23.050  27.119  1.00  0.00     0.023 A 
ATOM     58  C   UNL A   1      42.862  21.853  27.097  1.00  0.00     0.031 A 
ATOM     59  C   UNL A   1      44.678  23.096  26.192  1.00  0.00     0.131 A 
ATOM     60  C   UNL A   1      43.184  20.790  26.231  1.00  0.00     0.055 A 
ATOM     61  C   UNL A   1      44.971  22.055  25.300  1.00  0.00     0.041 A 
ATOM     62  F   UNL A   1      45.526  24.122  26.109  1.00  0.00    -0.206 F 
ATOM     63  C   UNL A   1      44.231  20.888  25.323  1.00  0.00     0.022 A 
BRANCH  60  64
ATOM     64  S   UNL A   1      42.260  19.236  26.358  1.00  0.00     0.124 S 
ATOM     65  O   UNL A   1      40.938  19.626  25.877  1.00  0.00    -0.237 OA
ATOM     66  O   UNL A   1      43.030  18.348  25.493  1.00  0.00    -0.237 OA
ATOM     67  O   UNL A   1      42.326  18.919  27.784  1.00  0.00    -0.744 OA
ENDBRANCH  60  64
ENDBRANCH  43  57
BRANCH  44  68
ATOM     68  C   UNL A   1      41.487  30.152  33.302  1.00  0.00     0.023 A 
ATOM     69  C   UNL A   1      41.489  31.554  33.455  1.00  0.00     0.031 A 
ATOM     70  C   UNL A   1      40.261  29.478  33.370  1.00  0.00     0.131 A 
ATOM     71  C   UNL A   1      40.277  32.252  33.520  1.00  0.00     0.055 A 
ATOM     72  C   UNL A   1      39.056  30.178  33.498  1.00  0.00     0.041 A 
ATOM     73  F   UNL A   1      40.197  28.152  33.182  1.00  0.00    -0.206 F 
ATOM     74  C   UNL A   1      39.058  31.572  33.532  1.00  0.00     0.022 A 
BRANCH  71  75
ATOM     75  S   UNL A   1      40.314  34.056  33.303  1.00  0.00     0.124 S 
ATOM     76  O   UNL A   1      38.949  34.338  32.874  1.00  0.00    -0.237 OA
ATOM     77  O   UNL A   1      40.678  34.524  34.639  1.00  0.00    -0.237 OA
ATOM     78  O   UNL A   1      41.349  34.251  32.291  1.00  0.00    -0.744 OA
ENDBRANCH  71  75
ENDBRANCH  44  68
BRANCH  56  79
ATOM     79  C   UNL A   1      45.210  23.992  33.419  1.00  0.00     0.023 A 
ATOM     80  C   UNL A   1      46.469  23.769  34.000  1.00  0.00     0.031 A 
ATOM     81  C   UNL A   1      44.260  22.955  33.571  1.00  0.00     0.131 A 
ATOM     82  C   UNL A   1      46.725  22.588  34.723  1.00  0.00     0.055 A 
ATOM     83  C   UNL A   1      44.546  21.749  34.213  1.00  0.00     0.041 A 
ATOM     84  F   UNL A   1      42.994  23.092  33.149  1.00  0.00    -0.206 F 
ATOM     85  C   UNL A   1      45.786  21.561  34.802  1.00  0.00     0.022 A 
BRANCH  82  86
ATOM     86  S   UNL A   1      48.288  22.440  35.630  1.00  0.00     0.124 S 
ATOM     87  O   UNL A   1      47.867  21.857  36.901  1.00  0.00    -0.237 OA
ATOM     88  O   UNL A   1      49.055  21.560  34.751  1.00  0.00    -0.237 OA
ATOM     89  O   UNL A   1      48.777  23.815  35.707  1.00  0.00    -0.744 OA
ENDBRANCH  82  86
ENDBRANCH  56  79
ENDBRANCH  30  31
ENDBRANCH  22  25
ENDBRANCH  20  21
ENDBRANCH   1  20
TORSDOF 16
ENDMDL
MODEL 3
REMARK VINA RESULT:     -11.9      3.965      6.187
REMARK SMILES Cc1ccc(C(=O)[C@@H](C)[C@H](C)C(=O)NCCCNC(=O)c2ccc(-c3c4nc(c(-c5cc(S(=O)(=O)[O-])ccc5F)c5ccc([nH]5)c(-c5cc(S(=O)(=O)[O-])ccc5F)c5nc(c(-c6cc(S(=O)(=O)[O-])ccc6F)c6ccc3[nH]6)C=C5)C=C4)cc2)cc1
REMARK SMILES IDX 16 1 15 2 14 3 12 4 13 5 10 7 11 8 8 9 9 10 6 11 7 12 5 13
REMARK SMILES IDX 1 14 2 15 3 16 85 17 4 18 84 19 17 20 18 21 19 22 20 24
REMARK SMILES IDX 21 25 22 26 83 27 23 28 82 29 24 30 25 31 26 32 76 33 27 34
REMARK SMILES IDX 81 35 75 36 77 37 28 38 80 39 74 40 73 41 29 43 61 44 41 45
REMARK SMILES IDX 60 46 42 47 45 48 59 49 78 50 43 51 44 52 58 54 79 55 46 56
REMARK SMILES IDX 30 57 31 58 39 59 32 60 38 61 40 62 37 63 33 64 34 65 35 66
REMARK SMILES IDX 36 67 62 68 63 69 71 70 64 71 70 72 72 73 69 74 65 75 66 76
REMARK SMILES IDX 67 77 68 78 47 79 48 80 56 81 49 82 55 83 57 84 54 85 50 86
REMARK SMILES IDX 51 87 52 88 53 89
REMARK H PARENT 14 6 18 23 77 42 45 53
REMARK Flexibility Score: inf
ROOT
ATOM      1  C   UNL A   1      35.361  33.564  29.560  1.00  0.00     0.042 C 
ENDROOT
BRANCH   1   2
ATOM      2  C   UNL A   1      34.312  33.607  30.656  1.00  0.00     0.117 C 
BRANCH   2   3
ATOM      3  N   UNL A   1      34.341  34.848  31.420  1.00  0.00    -0.356 N 
ATOM      4  C   UNL A   1      35.000  35.354  32.485  1.00  0.00     0.223 C 
ATOM      5  O   UNL A   1      34.785  36.555  32.711  1.00  0.00    -0.275 OA
ATOM      6  H   UNL A   1      33.701  35.502  31.057  1.00  0.00     0.163 HD
BRANCH   4   7
ATOM      7  C   UNL A   1      35.906  34.592  33.461  1.00  0.00     0.086 C 
ATOM      8  C   UNL A   1      35.180  34.295  34.774  1.00  0.00     0.019 C 
BRANCH   7   9
ATOM      9  C   UNL A   1      36.945  33.570  32.915  1.00  0.00     0.070 C 
ATOM     10  C   UNL A   1      36.688  32.081  33.122  1.00  0.00     0.017 C 
BRANCH   9  11
ATOM     11  C   UNL A   1      38.447  33.915  33.046  1.00  0.00     0.166 C 
ATOM     12  O   UNL A   1      38.950  34.024  34.170  1.00  0.00    -0.294 OA
BRANCH  11  13
ATOM     13  C   UNL A   1      39.344  34.127  31.866  1.00  0.00     0.018 A 
ATOM     14  C   UNL A   1      41.967  34.982  28.528  1.00  0.00     0.044 C 
ATOM     15  C   UNL A   1      41.038  34.711  29.674  1.00  0.00    -0.051 A 
ATOM     16  C   UNL A   1      39.657  34.890  29.569  1.00  0.00     0.004 A 
ATOM     17  C   UNL A   1      41.552  34.240  30.876  1.00  0.00     0.004 A 
ATOM     18  C   UNL A   1      38.819  34.617  30.662  1.00  0.00     0.012 A 
ATOM     19  C   UNL A   1      40.710  33.912  31.938  1.00  0.00     0.012 A 
ENDBRANCH  11  13
ENDBRANCH   9  11
ENDBRANCH   7   9
ENDBRANCH   4   7
ENDBRANCH   2   3
ENDBRANCH   1   2
BRANCH   1  20
ATOM     20  C   UNL A   1      35.421  32.227  28.823  1.00  0.00     0.118 C 
BRANCH  20  21
ATOM     21  N   UNL A   1      35.410  31.018  29.653  1.00  0.00    -0.352 N 
ATOM     22  C   UNL A   1      36.468  30.143  29.901  1.00  0.00     0.251 C 
ATOM     23  H   UNL A   1      34.554  30.798  30.086  1.00  0.00     0.163 HD
ATOM     24  O   UNL A   1      36.335  29.120  30.548  1.00  0.00    -0.269 OA
BRANCH  22  25
ATOM     25  C   UNL A   1      37.795  30.543  29.387  1.00  0.00     0.039 A 
ATOM     26  C   UNL A   1      38.207  29.934  28.197  1.00  0.00     0.014 A 
ATOM     27  C   UNL A   1      38.708  31.044  30.307  1.00  0.00     0.014 A 
ATOM     28  C   UNL A   1      39.538  29.551  28.072  1.00  0.00     0.010 A 
ATOM     29  C   UNL A   1      40.004  30.566  30.224  1.00  0.00     0.010 A 
ATOM     30  C   UNL A   1      40.396  29.733  29.157  1.00  0.00    -0.014 A 
BRANCH  30  31
ATOM     31  C   UNL A   1      41.570  28.882  29.407  1.00  0.00     0.031 A 
ATOM     32  C   UNL A   1      41.536  27.424  29.121  1.00  0.00     0.074 A 
ATOM     33  C   UNL A   1      42.767  29.443  29.720  1.00  0.00     0.049 A 
ATOM     34  N   UNL A   1      42.514  26.617  29.358  1.00  0.00    -0.248 NA
ATOM     35  C   UNL A   1      40.354  26.731  28.613  1.00  0.00     0.031 C 
ATOM     36  C   UNL A   1      44.093  28.855  29.533  1.00  0.00     0.029 A 
ATOM     37  N   UNL A   1      43.005  30.558  30.531  1.00  0.00    -0.354 N 
ATOM     38  C   UNL A   1      42.222  25.399  28.798  1.00  0.00     0.074 A 
ATOM     39  C   UNL A   1      40.831  25.495  28.436  1.00  0.00     0.031 C 
ATOM     40  C   UNL A   1      44.952  29.420  30.391  1.00  0.00     0.029 A 
ATOM     41  C   UNL A   1      44.190  30.294  31.255  1.00  0.00     0.049 A 
ATOM     42  H   UNL A   1      42.452  31.371  30.586  1.00  0.00     0.167 HD
ATOM     43  C   UNL A   1      43.232  24.500  28.631  1.00  0.00     0.034 A 
ATOM     44  C   UNL A   1      44.212  30.271  32.618  1.00  0.00     0.034 A 
ATOM     45  C   UNL A   1      44.394  24.846  29.457  1.00  0.00     0.049 A 
ATOM     46  C   UNL A   1      44.636  28.949  33.231  1.00  0.00     0.074 A 
ATOM     47  C   UNL A   1      45.686  25.295  29.244  1.00  0.00     0.029 A 
ATOM     48  N   UNL A   1      44.203  24.899  30.826  1.00  0.00    -0.354 N 
ATOM     49  N   UNL A   1      45.008  27.900  32.550  1.00  0.00    -0.248 NA
ATOM     50  C   UNL A   1      44.563  28.676  34.668  1.00  0.00     0.031 C 
ATOM     51  C   UNL A   1      46.250  25.638  30.515  1.00  0.00     0.029 A 
ATOM     52  C   UNL A   1      45.309  25.372  31.494  1.00  0.00     0.049 A 
ATOM     53  H   UNL A   1      43.368  24.629  31.273  1.00  0.00     0.167 HD
ATOM     54  C   UNL A   1      45.068  26.817  33.391  1.00  0.00     0.074 A 
ATOM     55  C   UNL A   1      44.822  27.359  34.713  1.00  0.00     0.031 C 
ATOM     56  C   UNL A   1      45.220  25.537  32.938  1.00  0.00     0.034 A 
BRANCH  43  57
ATOM     57  C   UNL A   1      43.242  23.335  27.660  1.00  0.00     0.023 A 
ATOM     58  C   UNL A   1      44.199  23.339  26.620  1.00  0.00     0.031 A 
ATOM     59  C   UNL A   1      42.315  22.271  27.605  1.00  0.00     0.131 A 
ATOM     60  C   UNL A   1      44.192  22.366  25.601  1.00  0.00     0.055 A 
ATOM     61  C   UNL A   1      42.335  21.279  26.615  1.00  0.00     0.041 A 
ATOM     62  F   UNL A   1      41.309  22.139  28.471  1.00  0.00    -0.206 F 
ATOM     63  C   UNL A   1      43.269  21.327  25.598  1.00  0.00     0.022 A 
BRANCH  60  64
ATOM     64  S   UNL A   1      45.364  22.518  24.226  1.00  0.00     0.124 S 
ATOM     65  O   UNL A   1      45.725  23.930  24.286  1.00  0.00    -0.237 OA
ATOM     66  O   UNL A   1      46.403  21.565  24.602  1.00  0.00    -0.237 OA
ATOM     67  O   UNL A   1      44.568  22.136  23.060  1.00  0.00    -0.744 OA
ENDBRANCH  60  64
ENDBRANCH  43  57
BRANCH  44  68
ATOM     68  C   UNL A   1      43.243  31.228  33.218  1.00  0.00     0.023 A 
ATOM     69  C   UNL A   1      42.020  30.698  33.677  1.00  0.00     0.031 A 
ATOM     70  C   UNL A   1      43.649  32.479  33.701  1.00  0.00     0.131 A 
ATOM     71  C   UNL A   1      41.318  31.345  34.702  1.00  0.00     0.055 A 
ATOM     72  C   UNL A   1      42.910  33.150  34.681  1.00  0.00     0.041 A 
ATOM     73  F   UNL A   1      44.826  33.005  33.335  1.00  0.00    -0.206 F 
ATOM     74  C   UNL A   1      41.762  32.565  35.215  1.00  0.00     0.022 A 
BRANCH  71  75
ATOM     75  S   UNL A   1      39.987  30.433  35.539  1.00  0.00     0.124 S 
ATOM     76  O   UNL A   1      40.728  29.389  36.237  1.00  0.00    -0.237 OA
ATOM     77  O   UNL A   1      39.382  31.464  36.379  1.00  0.00    -0.237 OA
ATOM     78  O   UNL A   1      39.145  29.981  34.434  1.00  0.00    -0.744 OA
ENDBRANCH  71  75
ENDBRANCH  44  68
BRANCH  56  79
ATOM     79  C   UNL A   1      45.207  24.331  33.846  1.00  0.00     0.023 A 
ATOM     80  C   UNL A   1      46.361  23.568  34.090  1.00  0.00     0.031 A 
ATOM     81  C   UNL A   1      44.012  23.865  34.444  1.00  0.00     0.131 A 
ATOM     82  C   UNL A   1      46.307  22.434  34.922  1.00  0.00     0.055 A 
ATOM     83  C   UNL A   1      43.946  22.690  35.196  1.00  0.00     0.041 A 
ATOM     84  F   UNL A   1      42.868  24.561  34.368  1.00  0.00    -0.206 F 
ATOM     85  C   UNL A   1      45.101  21.968  35.446  1.00  0.00     0.022 A 
BRANCH  82  86
ATOM     86  S   UNL A   1      47.855  21.607  35.376  1.00  0.00     0.124 S 
ATOM     87  O   UNL A   1      48.013  20.615  34.317  1.00  0.00    -0.237 OA
ATOM     88  O   UNL A   1      48.801  22.721  35.349  1.00  0.00    -0.237 OA
ATOM     89  O   UNL A   1      47.581  21.062  36.704  1.00  0.00    -0.744 OA
ENDBRANCH  82  86
ENDBRANCH  56  79
ENDBRANCH  30  31
ENDBRANCH  22  25
ENDBRANCH  20  21
ENDBRANCH   1  20
TORSDOF 16
ENDMDL
