MODEL 1
REMARK VINA RESULT:     -13.5      0.000      0.000
REMARK SMILES COc1cccc([C@@H]2CC(c3cccc(C)c3)=NN2C(=O)CCC(=O)NCCCNC(=O)c2ccc(-c3c4nc(c(-c5cc(S(=O)(=O)[O-])ccc5F)c5ccc([nH]5)c(-c5cc(S(=O)(=O)[O-])ccc5F)c5nc(c(-c6cc(S(=O)(=O)[O-])ccc6F)c6ccc3[nH]6)C=C5)C=C4)cc2)c1
REMARK SMILES IDX 27 1 26 2 24 3 25 4 23 6 22 7 20 8 21 9 19 10 8 11 9 12
REMARK SMILES IDX 10 13 18 14 7 15 3 16 4 17 96 18 5 19 6 20 2 21 1 22 11 23
REMARK SMILES IDX 12 24 17 25 13 26 15 27 14 28 16 29 28 30 29 31 30 32 31 33
REMARK SMILES IDX 32 35 33 36 34 37 95 38 35 39 94 40 36 41 37 42 38 43 88 44
REMARK SMILES IDX 39 45 93 46 87 47 89 48 40 49 92 50 86 51 85 52 41 54 73 55
REMARK SMILES IDX 53 56 72 57 54 58 57 59 71 60 90 61 55 62 56 63 70 65 91 66
REMARK SMILES IDX 58 67 42 68 43 69 51 70 44 71 50 72 52 73 49 74 45 75 46 76
REMARK SMILES IDX 47 77 48 78 74 79 75 80 83 81 76 82 82 83 84 84 81 85 77 86
REMARK SMILES IDX 78 87 79 88 80 89 59 90 60 91 68 92 61 93 67 94 69 95 66 96
REMARK SMILES IDX 62 97 63 98 64 99 65 100
REMARK H PARENT 26 5 30 34 89 53 57 64
REMARK Flexibility Score: inf
ROOT
ATOM      1  C   UNL A   1      33.486  33.118  27.914  1.00  0.00     0.117 C 
ENDROOT
BRANCH   1   2
ATOM      2  N   UNL A   1      33.907  31.723  27.983  1.00  0.00    -0.356 N 
ATOM      3  C   UNL A   1      33.510  30.625  27.269  1.00  0.00     0.220 C 
ATOM      4  O   UNL A   1      34.222  29.615  27.276  1.00  0.00    -0.275 OA
ATOM      5  H   UNL A   1      34.596  31.540  28.660  1.00  0.00     0.163 HD
BRANCH   3   6
ATOM      6  C   UNL A   1      32.161  30.579  26.582  1.00  0.00     0.110 C 
BRANCH   6   7
ATOM      7  C   UNL A   1      32.137  29.698  25.332  1.00  0.00     0.112 C 
BRANCH   7   8
ATOM      8  C   UNL A   1      31.753  28.265  25.608  1.00  0.00     0.243 C 
ATOM      9  O   UNL A   1      31.178  28.001  26.668  1.00  0.00    -0.273 OA
BRANCH   8  10
ATOM     10  N   UNL A   1      32.155  27.312  24.686  1.00  0.00    -0.225 N 
ATOM     11  C   UNL A   1      31.850  27.220  23.263  1.00  0.00     0.147 C 
ATOM     12  C   UNL A   1      32.447  25.888  22.793  1.00  0.00     0.091 C 
ATOM     13  C   UNL A   1      32.976  25.431  24.100  1.00  0.00     0.071 C 
ATOM     14  N   UNL A   1      32.747  26.194  25.117  1.00  0.00    -0.174 NA
BRANCH  11  15
ATOM     15  C   UNL A   1      30.353  27.330  23.148  1.00  0.00    -0.019 A 
ATOM     16  C   UNL A   1      28.530  28.864  22.741  1.00  0.00     0.119 A 
ATOM     17  C   UNL A   1      27.656  27.984  23.380  1.00  0.00     0.046 A 
ATOM     18  C   UNL A   1      29.872  28.530  22.640  1.00  0.00     0.052 A 
ATOM     19  C   UNL A   1      28.120  26.762  23.879  1.00  0.00     0.004 A 
ATOM     20  C   UNL A   1      29.465  26.426  23.752  1.00  0.00     0.006 A 
BRANCH  16  21
ATOM     21  O   UNL A   1      28.027  30.053  22.285  1.00  0.00    -0.497 OA
ATOM     22  C   UNL A   1      29.008  31.085  22.154  1.00  0.00     0.278 C 
ENDBRANCH  16  21
ENDBRANCH  11  15
BRANCH  13  23
ATOM     23  C   UNL A   1      33.493  24.106  24.367  1.00  0.00    -0.002 A 
ATOM     24  C   UNL A   1      35.155  24.106  23.845  1.00  0.00     0.010 A 
ATOM     25  C   UNL A   1      32.629  22.678  24.976  1.00  0.00     0.013 A 
ATOM     26  C   UNL A   1      36.038  22.594  23.896  1.00  0.00     0.001 A 
ATOM     27  C   UNL A   1      33.409  21.076  25.116  1.00  0.00    -0.050 A 
ATOM     28  C   UNL A   1      35.156  20.936  24.629  1.00  0.00     0.003 A 
ATOM     29  C   UNL A   1      32.531  19.862  25.249  1.00  0.00     0.044 C 
ENDBRANCH  13  23
ENDBRANCH   8  10
ENDBRANCH   7   8
ENDBRANCH   6   7
ENDBRANCH   3   6
ENDBRANCH   1   2
BRANCH   1  30
ATOM     30  C   UNL A   1      34.378  34.283  28.398  1.00  0.00     0.042 C 
BRANCH  30  31
ATOM     31  C   UNL A   1      35.248  34.227  29.660  1.00  0.00     0.118 C 
BRANCH  31  32
ATOM     32  N   UNL A   1      34.598  33.751  30.857  1.00  0.00    -0.352 N 
ATOM     33  C   UNL A   1      34.909  32.702  31.693  1.00  0.00     0.251 C 
ATOM     34  H   UNL A   1      33.799  34.262  31.120  1.00  0.00     0.163 HD
ATOM     35  O   UNL A   1      34.028  32.378  32.493  1.00  0.00    -0.269 OA
BRANCH  33  36
ATOM     36  C   UNL A   1      36.233  31.870  31.544  1.00  0.00     0.039 A 
ATOM     37  C   UNL A   1      36.207  31.386  29.801  1.00  0.00     0.014 A 
ATOM     38  C   UNL A   1      37.686  31.051  32.694  1.00  0.00     0.014 A 
ATOM     39  C   UNL A   1      37.465  30.304  29.194  1.00  0.00     0.010 A 
ATOM     40  C   UNL A   1      38.919  30.002  31.923  1.00  0.00     0.010 A 
ATOM     41  C   UNL A   1      38.812  29.695  30.181  1.00  0.00    -0.014 A 
BRANCH  41  42
ATOM     42  C   UNL A   1      40.137  29.379  29.479  1.00  0.00     0.031 A 
ATOM     43  C   UNL A   1      40.294  28.013  28.860  1.00  0.00     0.074 A 
ATOM     44  C   UNL A   1      41.240  30.183  29.548  1.00  0.00     0.049 A 
ATOM     45  N   UNL A   1      41.357  27.447  28.344  1.00  0.00    -0.248 NA
ATOM     46  C   UNL A   1      39.116  27.133  28.899  1.00  0.00     0.031 C 
ATOM     47  C   UNL A   1      41.359  31.471  30.246  1.00  0.00     0.029 A 
ATOM     48  N   UNL A   1      42.515  30.031  29.017  1.00  0.00    -0.354 N 
ATOM     49  C   UNL A   1      40.957  26.158  28.015  1.00  0.00     0.074 A 
ATOM     50  C   UNL A   1      39.642  25.966  28.576  1.00  0.00     0.031 C 
ATOM     51  C   UNL A   1      42.575  32.006  30.046  1.00  0.00     0.029 A 
ATOM     52  C   UNL A   1      43.368  31.107  29.226  1.00  0.00     0.049 A 
ATOM     53  H   UNL A   1      42.793  29.221  28.530  1.00  0.00     0.167 HD
ATOM     54  C   UNL A   1      41.564  25.250  27.216  1.00  0.00     0.034 A 
ATOM     55  C   UNL A   1      44.629  31.364  28.799  1.00  0.00     0.034 A 
ATOM     56  C   UNL A   1      42.851  25.456  26.617  1.00  0.00     0.049 A 
ATOM     57  C   UNL A   1      45.316  30.320  27.945  1.00  0.00     0.074 A 
ATOM     58  C   UNL A   1      43.538  24.628  25.750  1.00  0.00     0.029 A 
ATOM     59  N   UNL A   1      43.647  26.572  26.828  1.00  0.00    -0.354 N 
ATOM     60  N   UNL A   1      44.861  29.153  27.548  1.00  0.00    -0.248 NA
ATOM     61  C   UNL A   1      46.674  30.625  27.471  1.00  0.00     0.031 C 
ATOM     62  C   UNL A   1      44.787  25.201  25.507  1.00  0.00     0.029 A 
ATOM     63  C   UNL A   1      44.835  26.436  26.133  1.00  0.00     0.049 A 
ATOM     64  H   UNL A   1      43.403  27.345  27.387  1.00  0.00     0.167 HD
ATOM     65  C   UNL A   1      45.859  28.613  26.738  1.00  0.00     0.074 A 
ATOM     66  C   UNL A   1      46.930  29.585  26.693  1.00  0.00     0.031 C 
ATOM     67  C   UNL A   1      45.886  27.422  26.089  1.00  0.00     0.034 A 
BRANCH  54  68
ATOM     68  C   UNL A   1      40.803  23.981  26.928  1.00  0.00     0.023 A 
ATOM     69  C   UNL A   1      41.416  22.720  27.059  1.00  0.00     0.031 A 
ATOM     70  C   UNL A   1      39.483  24.026  26.453  1.00  0.00     0.131 A 
ATOM     71  C   UNL A   1      40.756  21.571  26.610  1.00  0.00     0.055 A 
ATOM     72  C   UNL A   1      38.790  22.862  26.113  1.00  0.00     0.041 A 
ATOM     73  F   UNL A   1      38.856  25.199  26.281  1.00  0.00    -0.206 F 
ATOM     74  C   UNL A   1      39.433  21.628  26.170  1.00  0.00     0.022 A 
BRANCH  71  75
ATOM     75  S   UNL A   1      41.718  20.045  26.420  1.00  0.00     0.124 S 
ATOM     76  O   UNL A   1      42.834  20.503  25.592  1.00  0.00    -0.237 OA
ATOM     77  O   UNL A   1      42.047  19.700  27.798  1.00  0.00    -0.237 OA
ATOM     78  O   UNL A   1      40.789  19.137  25.752  1.00  0.00    -0.744 OA
ENDBRANCH  71  75
ENDBRANCH  54  68
BRANCH  55  79
ATOM     79  C   UNL A   1      45.355  32.648  29.125  1.00  0.00     0.023 A 
ATOM     80  C   UNL A   1      46.095  32.795  30.319  1.00  0.00     0.031 A 
ATOM     81  C   UNL A   1      45.226  33.791  28.314  1.00  0.00     0.131 A 
ATOM     82  C   UNL A   1      46.602  34.054  30.699  1.00  0.00     0.055 A 
ATOM     83  C   UNL A   1      45.798  35.023  28.659  1.00  0.00     0.041 A 
ATOM     84  F   UNL A   1      44.522  33.736  27.173  1.00  0.00    -0.206 F 
ATOM     85  C   UNL A   1      46.475  35.165  29.865  1.00  0.00     0.022 A 
BRANCH  82  86
ATOM     86  S   UNL A   1      47.293  34.263  32.370  1.00  0.00     0.124 S 
ATOM     87  O   UNL A   1      46.508  35.384  32.874  1.00  0.00    -0.237 OA
ATOM     88  O   UNL A   1      47.025  32.965  32.977  1.00  0.00    -0.237 OA
ATOM     89  O   UNL A   1      48.704  34.553  32.122  1.00  0.00    -0.744 OA
ENDBRANCH  82  86
ENDBRANCH  55  79
BRANCH  67  90
ATOM     90  C   UNL A   1      47.075  27.130  25.213  1.00  0.00     0.023 A 
ATOM     91  C   UNL A   1      47.202  27.670  23.925  1.00  0.00     0.031 A 
ATOM     92  C   UNL A   1      48.116  26.313  25.696  1.00  0.00     0.131 A 
ATOM     93  C   UNL A   1      48.313  27.337  23.138  1.00  0.00     0.055 A 
ATOM     94  C   UNL A   1      49.260  26.061  24.943  1.00  0.00     0.041 A 
ATOM     95  F   UNL A   1      48.043  25.763  26.919  1.00  0.00    -0.206 F 
ATOM     96  C   UNL A   1      49.357  26.561  23.649  1.00  0.00     0.022 A 
BRANCH  93  97
ATOM     97  S   UNL A   1      48.313  27.826  21.393  1.00  0.00     0.124 S 
ATOM     98  O   UNL A   1      48.595  26.559  20.726  1.00  0.00    -0.237 OA
ATOM     99  O   UNL A   1      46.964  28.353  21.215  1.00  0.00    -0.237 OA
ATOM    100  O   UNL A   1      49.382  28.819  21.318  1.00  0.00    -0.744 OA
ENDBRANCH  93  97
ENDBRANCH  67  90
ENDBRANCH  41  42
ENDBRANCH  33  36
ENDBRANCH  31  32
ENDBRANCH  30  31
ENDBRANCH   1  30
TORSDOF 19
ENDMDL
MODEL 2
REMARK VINA RESULT:     -13.4      3.244      9.977
REMARK SMILES COc1cccc([C@@H]2CC(c3cccc(C)c3)=NN2C(=O)CCC(=O)NCCCNC(=O)c2ccc(-c3c4nc(c(-c5cc(S(=O)(=O)[O-])ccc5F)c5ccc([nH]5)c(-c5cc(S(=O)(=O)[O-])ccc5F)c5nc(c(-c6cc(S(=O)(=O)[O-])ccc6F)c6ccc3[nH]6)C=C5)C=C4)cc2)c1
REMARK SMILES IDX 27 1 26 2 24 3 25 4 23 6 22 7 20 8 21 9 19 10 8 11 9 12
REMARK SMILES IDX 10 13 18 14 7 15 3 16 4 17 96 18 5 19 6 20 2 21 1 22 11 23
REMARK SMILES IDX 12 24 17 25 13 26 15 27 14 28 16 29 28 30 29 31 30 32 31 33
REMARK SMILES IDX 32 35 33 36 34 37 95 38 35 39 94 40 36 41 37 42 38 43 88 44
REMARK SMILES IDX 39 45 93 46 87 47 89 48 40 49 92 50 86 51 85 52 41 54 73 55
REMARK SMILES IDX 53 56 72 57 54 58 57 59 71 60 90 61 55 62 56 63 70 65 91 66
REMARK SMILES IDX 58 67 42 68 43 69 51 70 44 71 50 72 52 73 49 74 45 75 46 76
REMARK SMILES IDX 47 77 48 78 74 79 75 80 83 81 76 82 82 83 84 84 81 85 77 86
REMARK SMILES IDX 78 87 79 88 80 89 59 90 60 91 68 92 61 93 67 94 69 95 66 96
REMARK SMILES IDX 62 97 63 98 64 99 65 100
REMARK H PARENT 26 5 30 34 89 53 57 64
REMARK Flexibility Score: inf
ROOT
ATOM      1  C   UNL A   1      38.957  20.830  25.675  1.00  0.00     0.117 C 
ENDROOT
BRANCH   1   2
ATOM      2  N   UNL A   1      39.009  22.256  25.978  1.00  0.00    -0.356 N 
ATOM      3  C   UNL A   1      38.044  23.225  25.927  1.00  0.00     0.220 C 
ATOM      4  O   UNL A   1      38.230  24.290  26.527  1.00  0.00    -0.275 OA
ATOM      5  H   UNL A   1      39.892  22.578  26.270  1.00  0.00     0.163 HD
BRANCH   3   6
ATOM      6  C   UNL A   1      36.820  23.070  25.048  1.00  0.00     0.110 C 
BRANCH   6   7
ATOM      7  C   UNL A   1      35.698  24.056  25.378  1.00  0.00     0.112 C 
BRANCH   7   8
ATOM      8  C   UNL A   1      34.643  23.488  26.296  1.00  0.00     0.243 C 
ATOM      9  O   UNL A   1      34.882  22.434  26.890  1.00  0.00    -0.273 OA
BRANCH   8  10
ATOM     10  N   UNL A   1      33.424  24.146  26.344  1.00  0.00    -0.225 N 
ATOM     11  C   UNL A   1      32.077  23.590  26.384  1.00  0.00     0.147 C 
ATOM     12  C   UNL A   1      31.127  24.790  26.287  1.00  0.00     0.091 C 
ATOM     13  C   UNL A   1      32.153  25.852  26.169  1.00  0.00     0.071 C 
ATOM     14  N   UNL A   1      33.386  25.466  26.140  1.00  0.00    -0.174 NA
BRANCH  11  15
ATOM     15  C   UNL A   1      31.995  22.609  25.245  1.00  0.00    -0.019 A 
ATOM     16  C   UNL A   1      32.176  20.271  24.660  1.00  0.00     0.119 A 
ATOM     17  C   UNL A   1      32.425  20.629  23.335  1.00  0.00     0.046 A 
ATOM     18  C   UNL A   1      31.973  21.267  25.603  1.00  0.00     0.052 A 
ATOM     19  C   UNL A   1      32.431  21.976  22.953  1.00  0.00     0.004 A 
ATOM     20  C   UNL A   1      32.202  22.967  23.904  1.00  0.00     0.006 A 
BRANCH  16  21
ATOM     21  O   UNL A   1      32.198  18.941  24.982  1.00  0.00    -0.497 OA
ATOM     22  C   UNL A   1      32.527  18.084  23.885  1.00  0.00     0.278 C 
ENDBRANCH  16  21
ENDBRANCH  11  15
BRANCH  13  23
ATOM     23  C   UNL A   1      31.882  27.233  25.834  1.00  0.00    -0.002 A 
ATOM     24  C   UNL A   1      32.482  28.193  27.159  1.00  0.00     0.010 A 
ATOM     25  C   UNL A   1      30.997  27.885  24.438  1.00  0.00     0.013 A 
ATOM     26  C   UNL A   1      32.176  29.918  27.135  1.00  0.00     0.001 A 
ATOM     27  C   UNL A   1      30.640  29.627  24.261  1.00  0.00    -0.050 A 
ATOM     28  C   UNL A   1      31.233  30.753  25.561  1.00  0.00     0.003 A 
ATOM     29  C   UNL A   1      29.568  30.043  23.290  1.00  0.00     0.044 C 
ENDBRANCH  13  23
ENDBRANCH   8  10
ENDBRANCH   7   8
ENDBRANCH   6   7
ENDBRANCH   3   6
ENDBRANCH   1   2
BRANCH   1  30
ATOM     30  C   UNL A   1      40.058  19.842  26.122  1.00  0.00     0.042 C 
BRANCH  30  31
ATOM     31  C   UNL A   1      41.111  20.162  27.190  1.00  0.00     0.118 C 
BRANCH  31  32
ATOM     32  N   UNL A   1      42.481  20.203  26.737  1.00  0.00    -0.352 N 
ATOM     33  C   UNL A   1      43.260  21.261  26.326  1.00  0.00     0.251 C 
ATOM     34  H   UNL A   1      42.933  19.329  26.718  1.00  0.00     0.163 HD
ATOM     35  O   UNL A   1      44.310  20.960  25.754  1.00  0.00    -0.269 OA
BRANCH  33  36
ATOM     36  C   UNL A   1      42.784  22.753  26.441  1.00  0.00     0.039 A 
ATOM     37  C   UNL A   1      42.917  23.080  28.216  1.00  0.00     0.014 A 
ATOM     38  C   UNL A   1      41.905  24.190  25.317  1.00  0.00     0.014 A 
ATOM     39  C   UNL A   1      42.351  24.629  28.847  1.00  0.00     0.010 A 
ATOM     40  C   UNL A   1      41.420  25.731  26.095  1.00  0.00     0.010 A 
ATOM     41  C   UNL A   1      41.702  25.937  27.832  1.00  0.00    -0.014 A 
BRANCH  41  42
ATOM     42  C   UNL A   1      41.888  27.381  28.309  1.00  0.00     0.031 A 
ATOM     43  C   UNL A   1      43.295  27.916  28.397  1.00  0.00     0.074 A 
ATOM     44  C   UNL A   1      40.879  28.140  28.834  1.00  0.00     0.049 A 
ATOM     45  N   UNL A   1      43.731  29.040  28.908  1.00  0.00    -0.248 NA
ATOM     46  C   UNL A   1      44.367  27.029  27.920  1.00  0.00     0.031 C 
ATOM     47  C   UNL A   1      39.472  27.752  29.004  1.00  0.00     0.029 A 
ATOM     48  N   UNL A   1      40.881  29.431  29.348  1.00  0.00    -0.354 N 
ATOM     49  C   UNL A   1      45.115  28.972  28.810  1.00  0.00     0.074 A 
ATOM     50  C   UNL A   1      45.443  27.629  28.395  1.00  0.00     0.031 C 
ATOM     51  C   UNL A   1      38.757  28.775  29.500  1.00  0.00     0.029 A 
ATOM     52  C   UNL A   1      39.633  29.912  29.724  1.00  0.00     0.049 A 
ATOM     53  H   UNL A   1      41.704  29.964  29.439  1.00  0.00     0.167 HD
ATOM     54  C   UNL A   1      46.033  29.957  28.929  1.00  0.00     0.034 A 
ATOM     55  C   UNL A   1      39.224  31.123  30.176  1.00  0.00     0.034 A 
ATOM     56  C   UNL A   1      45.706  31.305  29.294  1.00  0.00     0.049 A 
ATOM     57  C   UNL A   1      40.268  32.205  30.351  1.00  0.00     0.074 A 
ATOM     58  C   UNL A   1      46.547  32.397  29.395  1.00  0.00     0.029 A 
ATOM     59  N   UNL A   1      44.432  31.744  29.623  1.00  0.00    -0.354 N 
ATOM     60  N   UNL A   1      41.562  32.143  30.133  1.00  0.00    -0.248 NA
ATOM     61  C   UNL A   1      39.804  33.520  30.819  1.00  0.00     0.031 C 
ATOM     62  C   UNL A   1      45.798  33.474  29.871  1.00  0.00     0.029 A 
ATOM     63  C   UNL A   1      44.472  33.084  29.961  1.00  0.00     0.049 A 
ATOM     64  H   UNL A   1      43.621  31.186  29.615  1.00  0.00     0.167 HD
ATOM     65  C   UNL A   1      42.052  33.422  30.389  1.00  0.00     0.074 A 
ATOM     66  C   UNL A   1      40.916  34.236  30.764  1.00  0.00     0.031 C 
ATOM     67  C   UNL A   1      43.326  33.883  30.319  1.00  0.00     0.034 A 
BRANCH  54  68
ATOM     68  C   UNL A   1      47.464  29.597  28.617  1.00  0.00     0.023 A 
ATOM     69  C   UNL A   1      47.859  29.264  27.307  1.00  0.00     0.031 A 
ATOM     70  C   UNL A   1      48.424  29.516  29.636  1.00  0.00     0.131 A 
ATOM     71  C   UNL A   1      49.141  28.754  27.072  1.00  0.00     0.055 A 
ATOM     72  C   UNL A   1      49.735  29.113  29.373  1.00  0.00     0.041 A 
ATOM     73  F   UNL A   1      48.099  29.795  30.908  1.00  0.00    -0.206 F 
ATOM     74  C   UNL A   1      50.094  28.709  28.090  1.00  0.00     0.022 A 
BRANCH  71  75
ATOM     75  S   UNL A   1      49.473  27.965  25.472  1.00  0.00     0.124 S 
ATOM     76  O   UNL A   1      50.681  28.669  25.043  1.00  0.00    -0.237 OA
ATOM     77  O   UNL A   1      49.647  26.564  25.837  1.00  0.00    -0.237 OA
ATOM     78  O   UNL A   1      48.276  28.264  24.690  1.00  0.00    -0.744 OA
ENDBRANCH  71  75
ENDBRANCH  54  68
BRANCH  55  79
ATOM     79  C   UNL A   1      37.779  31.433  30.487  1.00  0.00     0.023 A 
ATOM     80  C   UNL A   1      36.927  32.019  29.524  1.00  0.00     0.031 A 
ATOM     81  C   UNL A   1      37.253  31.265  31.781  1.00  0.00     0.131 A 
ATOM     82  C   UNL A   1      35.644  32.478  29.887  1.00  0.00     0.055 A 
ATOM     83  C   UNL A   1      35.949  31.655  32.117  1.00  0.00     0.041 A 
ATOM     84  F   UNL A   1      38.008  30.735  32.756  1.00  0.00    -0.206 F 
ATOM     85  C   UNL A   1      35.143  32.281  31.173  1.00  0.00     0.022 A 
BRANCH  82  86
ATOM     86  S   UNL A   1      34.695  33.481  28.700  1.00  0.00     0.124 S 
ATOM     87  O   UNL A   1      33.444  33.684  29.422  1.00  0.00    -0.237 OA
ATOM     88  O   UNL A   1      35.545  34.655  28.543  1.00  0.00    -0.237 OA
ATOM     89  O   UNL A   1      34.602  32.620  27.523  1.00  0.00    -0.744 OA
ENDBRANCH  82  86
ENDBRANCH  55  79
BRANCH  67  90
ATOM     90  C   UNL A   1      43.555  35.348  30.580  1.00  0.00     0.023 A 
ATOM     91  C   UNL A   1      43.779  35.847  31.872  1.00  0.00     0.031 A 
ATOM     92  C   UNL A   1      43.576  36.256  29.505  1.00  0.00     0.131 A 
ATOM     93  C   UNL A   1      43.952  37.224  32.065  1.00  0.00     0.055 A 
ATOM     94  C   UNL A   1      43.839  37.611  29.693  1.00  0.00     0.041 A 
ATOM     95  F   UNL A   1      43.360  35.834  28.248  1.00  0.00    -0.206 F 
ATOM     96  C   UNL A   1      44.014  38.105  30.982  1.00  0.00     0.022 A 
BRANCH  93  97
ATOM     97  S   UNL A   1      43.966  37.864  33.760  1.00  0.00     0.124 S 
ATOM     98  O   UNL A   1      42.882  38.842  33.720  1.00  0.00    -0.237 OA
ATOM     99  O   UNL A   1      43.713  36.664  34.550  1.00  0.00    -0.237 OA
ATOM    100  O   UNL A   1      45.306  38.428  33.900  1.00  0.00    -0.744 OA
ENDBRANCH  93  97
ENDBRANCH  67  90
ENDBRANCH  41  42
ENDBRANCH  33  36
ENDBRANCH  31  32
ENDBRANCH  30  31
ENDBRANCH   1  30
TORSDOF 19
ENDMDL
MODEL 3
REMARK VINA RESULT:     -13.3      4.344      8.331
REMARK SMILES COc1cccc([C@@H]2CC(c3cccc(C)c3)=NN2C(=O)CCC(=O)NCCCNC(=O)c2ccc(-c3c4nc(c(-c5cc(S(=O)(=O)[O-])ccc5F)c5ccc([nH]5)c(-c5cc(S(=O)(=O)[O-])ccc5F)c5nc(c(-c6cc(S(=O)(=O)[O-])ccc6F)c6ccc3[nH]6)C=C5)C=C4)cc2)c1
REMARK SMILES IDX 27 1 26 2 24 3 25 4 23 6 22 7 20 8 21 9 19 10 8 11 9 12
REMARK SMILES IDX 10 13 18 14 7 15 3 16 4 17 96 18 5 19 6 20 2 21 1 22 11 23
REMARK SMILES IDX 12 24 17 25 13 26 15 27 14 28 16 29 28 30 29 31 30 32 31 33
REMARK SMILES IDX 32 35 33 36 34 37 95 38 35 39 94 40 36 41 37 42 38 43 88 44
REMARK SMILES IDX 39 45 93 46 87 47 89 48 40 49 92 50 86 51 85 52 41 54 73 55
REMARK SMILES IDX 53 56 72 57 54 58 57 59 71 60 90 61 55 62 56 63 70 65 91 66
REMARK SMILES IDX 58 67 42 68 43 69 51 70 44 71 50 72 52 73 49 74 45 75 46 76
REMARK SMILES IDX 47 77 48 78 74 79 75 80 83 81 76 82 82 83 84 84 81 85 77 86
REMARK SMILES IDX 78 87 79 88 80 89 59 90 60 91 68 92 61 93 67 94 69 95 66 96
REMARK SMILES IDX 62 97 63 98 64 99 65 100
REMARK H PARENT 26 5 30 34 89 53 57 64
REMARK Flexibility Score: inf
ROOT
ATOM      1  C   UNL A   1      33.491  32.220  27.760  1.00  0.00     0.117 C 
ENDROOT
BRANCH   1   2
ATOM      2  N   UNL A   1      34.775  31.528  27.781  1.00  0.00    -0.356 N 
ATOM      3  C   UNL A   1      35.100  30.221  27.538  1.00  0.00     0.220 C 
ATOM      4  O   UNL A   1      36.278  29.929  27.303  1.00  0.00    -0.275 OA
ATOM      5  H   UNL A   1      35.541  32.101  28.010  1.00  0.00     0.163 HD
BRANCH   3   6
ATOM      6  C   UNL A   1      34.073  29.116  27.679  1.00  0.00     0.110 C 
BRANCH   6   7
ATOM      7  C   UNL A   1      33.185  28.941  26.447  1.00  0.00     0.112 C 
BRANCH   7   8
ATOM      8  C   UNL A   1      32.596  27.558  26.315  1.00  0.00     0.243 C 
ATOM      9  O   UNL A   1      31.740  27.200  27.130  1.00  0.00    -0.273 OA
BRANCH   8  10
ATOM     10  N   UNL A   1      33.123  26.735  25.333  1.00  0.00    -0.225 N 
ATOM     11  C   UNL A   1      33.008  26.840  23.883  1.00  0.00     0.147 C 
ATOM     12  C   UNL A   1      33.673  25.578  23.319  1.00  0.00     0.091 C 
ATOM     13  C   UNL A   1      34.028  24.943  24.610  1.00  0.00     0.071 C 
ATOM     14  N   UNL A   1      33.662  25.564  25.682  1.00  0.00    -0.174 NA
BRANCH  11  15
ATOM     15  C   UNL A   1      31.539  26.980  23.588  1.00  0.00    -0.019 A 
ATOM     16  C   UNL A   1      29.747  28.575  23.290  1.00  0.00     0.119 A 
ATOM     17  C   UNL A   1      28.818  27.575  23.584  1.00  0.00     0.046 A 
ATOM     18  C   UNL A   1      31.098  28.267  23.305  1.00  0.00     0.052 A 
ATOM     19  C   UNL A   1      29.243  26.269  23.851  1.00  0.00     0.004 A 
ATOM     20  C   UNL A   1      30.602  25.966  23.840  1.00  0.00     0.006 A 
BRANCH  16  21
ATOM     21  O   UNL A   1      29.278  29.838  23.051  1.00  0.00    -0.497 OA
ATOM     22  C   UNL A   1      28.761  30.025  21.731  1.00  0.00     0.278 C 
ENDBRANCH  16  21
ENDBRANCH  11  15
BRANCH  13  23
ATOM     23  C   UNL A   1      34.516  23.589  24.761  1.00  0.00    -0.002 A 
ATOM     24  C   UNL A   1      36.256  23.679  24.714  1.00  0.00     0.010 A 
ATOM     25  C   UNL A   1      33.588  22.077  24.843  1.00  0.00     0.013 A 
ATOM     26  C   UNL A   1      37.162  22.179  24.724  1.00  0.00     0.001 A 
ATOM     27  C   UNL A   1      34.375  20.473  24.893  1.00  0.00    -0.050 A 
ATOM     28  C   UNL A   1      36.194  20.417  24.878  1.00  0.00     0.003 A 
ATOM     29  C   UNL A   1      33.550  19.260  24.562  1.00  0.00     0.044 C 
ENDBRANCH  13  23
ENDBRANCH   8  10
ENDBRANCH   7   8
ENDBRANCH   6   7
ENDBRANCH   3   6
ENDBRANCH   1   2
BRANCH   1  30
ATOM     30  C   UNL A   1      33.359  33.740  28.000  1.00  0.00     0.042 C 
BRANCH  30  31
ATOM     31  C   UNL A   1      34.539  34.657  28.349  1.00  0.00     0.118 C 
BRANCH  31  32
ATOM     32  N   UNL A   1      34.567  35.165  29.699  1.00  0.00    -0.352 N 
ATOM     33  C   UNL A   1      35.049  34.605  30.861  1.00  0.00     0.251 C 
ATOM     34  H   UNL A   1      34.177  36.062  29.808  1.00  0.00     0.163 HD
ATOM     35  O   UNL A   1      34.706  35.164  31.905  1.00  0.00    -0.269 OA
BRANCH  33  36
ATOM     36  C   UNL A   1      35.856  33.257  30.875  1.00  0.00     0.039 A 
ATOM     37  C   UNL A   1      37.447  33.738  30.159  1.00  0.00     0.014 A 
ATOM     38  C   UNL A   1      35.564  31.279  31.195  1.00  0.00     0.014 A 
ATOM     39  C   UNL A   1      38.659  32.491  29.851  1.00  0.00     0.010 A 
ATOM     40  C   UNL A   1      36.908  30.136  30.872  1.00  0.00     0.010 A 
ATOM     41  C   UNL A   1      38.443  30.773  30.258  1.00  0.00    -0.014 A 
BRANCH  41  42
ATOM     42  C   UNL A   1      39.689  29.949  30.598  1.00  0.00     0.031 A 
ATOM     43  C   UNL A   1      40.509  30.376  31.789  1.00  0.00     0.074 A 
ATOM     44  C   UNL A   1      40.198  28.978  29.782  1.00  0.00     0.049 A 
ATOM     45  N   UNL A   1      41.678  29.946  32.195  1.00  0.00    -0.248 NA
ATOM     46  C   UNL A   1      39.982  31.496  32.584  1.00  0.00     0.031 C 
ATOM     47  C   UNL A   1      39.657  28.526  28.493  1.00  0.00     0.029 A 
ATOM     48  N   UNL A   1      41.326  28.177  29.912  1.00  0.00    -0.354 N 
ATOM     49  C   UNL A   1      42.005  30.753  33.278  1.00  0.00     0.074 A 
ATOM     50  C   UNL A   1      41.028  31.813  33.325  1.00  0.00     0.031 C 
ATOM     51  C   UNL A   1      40.390  27.513  28.002  1.00  0.00     0.029 A 
ATOM     52  C   UNL A   1      41.489  27.229  28.908  1.00  0.00     0.049 A 
ATOM     53  H   UNL A   1      41.962  28.273  30.658  1.00  0.00     0.167 HD
ATOM     54  C   UNL A   1      42.952  30.572  34.227  1.00  0.00     0.034 A 
ATOM     55  C   UNL A   1      42.394  26.234  28.736  1.00  0.00     0.034 A 
ATOM     56  C   UNL A   1      43.895  29.492  34.209  1.00  0.00     0.049 A 
ATOM     57  C   UNL A   1      43.477  26.071  29.780  1.00  0.00     0.074 A 
ATOM     58  C   UNL A   1      44.863  29.181  35.145  1.00  0.00     0.029 A 
ATOM     59  N   UNL A   1      43.989  28.545  33.200  1.00  0.00    -0.354 N 
ATOM     60  N   UNL A   1      43.689  26.782  30.865  1.00  0.00    -0.248 NA
ATOM     61  C   UNL A   1      44.436  24.972  29.590  1.00  0.00     0.031 C 
ATOM     62  C   UNL A   1      45.602  28.102  34.658  1.00  0.00     0.029 A 
ATOM     63  C   UNL A   1      45.024  27.671  33.474  1.00  0.00     0.049 A 
ATOM     64  H   UNL A   1      43.405  28.502  32.408  1.00  0.00     0.167 HD
ATOM     65  C   UNL A   1      44.771  26.182  31.506  1.00  0.00     0.074 A 
ATOM     66  C   UNL A   1      45.158  25.046  30.697  1.00  0.00     0.031 C 
ATOM     67  C   UNL A   1      45.386  26.536  32.662  1.00  0.00     0.034 A 
BRANCH  54  68
ATOM     68  C   UNL A   1      42.964  31.554  35.371  1.00  0.00     0.023 A 
ATOM     69  C   UNL A   1      41.919  31.585  36.313  1.00  0.00     0.031 A 
ATOM     70  C   UNL A   1      43.985  32.510  35.487  1.00  0.00     0.131 A 
ATOM     71  C   UNL A   1      41.855  32.619  37.254  1.00  0.00     0.055 A 
ATOM     72  C   UNL A   1      43.972  33.471  36.500  1.00  0.00     0.041 A 
ATOM     73  F   UNL A   1      44.993  32.547  34.603  1.00  0.00    -0.206 F 
ATOM     74  C   UNL A   1      42.893  33.544  37.377  1.00  0.00     0.022 A 
BRANCH  71  75
ATOM     75  S   UNL A   1      40.306  32.856  38.169  1.00  0.00     0.124 S 
ATOM     76  O   UNL A   1      40.095  34.295  38.021  1.00  0.00    -0.237 OA
ATOM     77  O   UNL A   1      39.374  31.997  37.447  1.00  0.00    -0.237 OA
ATOM     78  O   UNL A   1      40.640  32.418  39.522  1.00  0.00    -0.744 OA
ENDBRANCH  71  75
ENDBRANCH  54  68
BRANCH  55  79
ATOM     79  C   UNL A   1      42.346  25.282  27.565  1.00  0.00     0.023 A 
ATOM     80  C   UNL A   1      41.678  24.039  27.651  1.00  0.00     0.031 A 
ATOM     81  C   UNL A   1      43.065  25.535  26.382  1.00  0.00     0.131 A 
ATOM     82  C   UNL A   1      41.806  23.084  26.623  1.00  0.00     0.055 A 
ATOM     83  C   UNL A   1      43.126  24.610  25.330  1.00  0.00     0.041 A 
ATOM     84  F   UNL A   1      43.742  26.684  26.233  1.00  0.00    -0.206 F 
ATOM     85  C   UNL A   1      42.509  23.370  25.453  1.00  0.00     0.022 A 
BRANCH  82  86
ATOM     86  S   UNL A   1      41.175  21.398  26.898  1.00  0.00     0.124 S 
ATOM     87  O   UNL A   1      42.329  20.588  26.527  1.00  0.00    -0.237 OA
ATOM     88  O   UNL A   1      40.837  21.425  28.316  1.00  0.00    -0.237 OA
ATOM     89  O   UNL A   1      40.033  21.309  25.989  1.00  0.00    -0.744 OA
ENDBRANCH  82  86
ENDBRANCH  55  79
BRANCH  67  90
ATOM     90  C   UNL A   1      46.495  25.650  33.164  1.00  0.00     0.023 A 
ATOM     91  C   UNL A   1      47.839  25.879  32.831  1.00  0.00     0.031 A 
ATOM     92  C   UNL A   1      46.197  24.569  34.015  1.00  0.00     0.131 A 
ATOM     93  C   UNL A   1      48.829  25.003  33.296  1.00  0.00     0.055 A 
ATOM     94  C   UNL A   1      47.196  23.756  34.547  1.00  0.00     0.041 A 
ATOM     95  F   UNL A   1      44.927  24.299  34.359  1.00  0.00    -0.206 F 
ATOM     96  C   UNL A   1      48.521  23.962  34.176  1.00  0.00     0.022 A 
BRANCH  93  97
ATOM     97  S   UNL A   1      50.507  25.165  32.631  1.00  0.00     0.124 S 
ATOM     98  O   UNL A   1      51.324  24.828  33.794  1.00  0.00    -0.237 OA
ATOM     99  O   UNL A   1      50.510  24.189  31.547  1.00  0.00    -0.237 OA
ATOM    100  O   UNL A   1      50.573  26.562  32.210  1.00  0.00    -0.744 OA
ENDBRANCH  93  97
ENDBRANCH  67  90
ENDBRANCH  41  42
ENDBRANCH  33  36
ENDBRANCH  31  32
ENDBRANCH  30  31
ENDBRANCH   1  30
TORSDOF 19
ENDMDL
