MODEL 1
REMARK VINA RESULT:     -11.7      0.000      0.000
REMARK SMILES O=C(NCCCNC(=O)c1ccc(-c2c3nc(c(-c4cc(S(=O)(=O)[O-])ccc4F)c4ccc([nH]4)c(-c4cc(S(=O)(=O)[O-])ccc4F)c4nc(c(-c5cc(S(=O)(=O)[O-])ccc5F)c5ccc2[nH]5)C=C4)C=C3)cc1)C1=C(C(=O)NCCC2=CCCCC2)CCCC1
REMARK SMILES IDX 4 1 3 2 1 3 2 4 73 6 74 7 89 8 86 9 88 10 87 11 75 12 76 13
REMARK SMILES IDX 77 14 78 16 79 17 80 18 81 19 85 20 82 21 84 22 83 23 5 24
REMARK SMILES IDX 6 25 7 26 8 27 9 29 10 30 11 31 72 32 12 33 71 34 13 35
REMARK SMILES IDX 14 36 15 37 65 38 16 39 70 40 64 41 66 42 17 43 69 44 63 45
REMARK SMILES IDX 62 46 18 48 50 49 30 50 49 51 31 52 34 53 48 54 67 55 32 56
REMARK SMILES IDX 33 57 47 59 68 60 35 61 19 62 20 63 28 64 21 65 27 66 29 67
REMARK SMILES IDX 26 68 22 69 23 70 24 71 25 72 51 73 52 74 60 75 53 76 59 77
REMARK SMILES IDX 61 78 58 79 54 80 55 81 56 82 57 83 36 84 37 85 45 86 38 87
REMARK SMILES IDX 44 88 46 89 43 90 39 91 40 92 41 93 42 94
REMARK H PARENT 3 5 77 15 7 28 66 47 34 58
REMARK Flexibility Score: inf
ROOT
ATOM      1  C   UNL A   1      31.293  30.038  25.209  1.00  0.00     0.118 C 
ENDROOT
BRANCH   1   2
ATOM      2  N   UNL A   1      32.628  29.671  24.766  1.00  0.00    -0.352 N 
ATOM      3  O   UNL A   1      34.297  28.367  24.044  1.00  0.00    -0.270 OA
ATOM      4  C   UNL A   1      33.144  28.452  24.463  1.00  0.00     0.247 C 
ATOM      5  H   UNL A   1      33.257  30.422  24.672  1.00  0.00     0.163 HD
BRANCH   4   6
ATOM      6  C   UNL A   1      32.348  27.225  24.709  1.00  0.00     0.026 C 
ATOM      7  C   UNL A   1      31.436  26.687  23.870  1.00  0.00     0.026 C 
ATOM      8  C   UNL A   1      32.693  26.620  26.054  1.00  0.00     0.042 C 
ATOM      9  C   UNL A   1      30.479  25.618  24.379  1.00  0.00     0.042 C 
ATOM     10  C   UNL A   1      31.954  25.323  26.368  1.00  0.00     0.005 C 
ATOM     11  C   UNL A   1      30.514  25.423  25.897  1.00  0.00     0.005 C 
BRANCH   7  12
ATOM     12  C   UNL A   1      31.115  27.109  22.464  1.00  0.00     0.247 C 
ATOM     13  O   UNL A   1      30.130  27.824  22.263  1.00  0.00    -0.270 OA
ATOM     14  N   UNL A   1      31.809  26.682  21.378  1.00  0.00    -0.352 N 
ATOM     15  H   UNL A   1      31.400  26.930  20.517  1.00  0.00     0.163 HD
BRANCH  14  16
ATOM     16  C   UNL A   1      33.046  25.930  21.252  1.00  0.00     0.120 C 
BRANCH  16  17
ATOM     17  C   UNL A   1      32.870  24.411  21.319  1.00  0.00     0.052 C 
BRANCH  17  18
ATOM     18  C   UNL A   1      33.296  23.768  22.625  1.00  0.00    -0.072 C 
ATOM     19  C   UNL A   1      34.291  24.267  23.384  1.00  0.00    -0.028 C 
ATOM     20  C   UNL A   1      32.493  22.570  23.073  1.00  0.00     0.031 C 
ATOM     21  C   UNL A   1      34.722  23.679  24.701  1.00  0.00     0.027 C 
ATOM     22  C   UNL A   1      32.645  22.263  24.565  1.00  0.00     0.005 C 
ATOM     23  C   UNL A   1      34.107  22.310  24.990  1.00  0.00     0.004 C 
ENDBRANCH  17  18
ENDBRANCH  16  17
ENDBRANCH  14  16
ENDBRANCH   7  12
ENDBRANCH   4   6
ENDBRANCH   1   2
BRANCH   1  24
ATOM     24  C   UNL A   1      31.308  31.068  26.323  1.00  0.00     0.042 C 
BRANCH  24  25
ATOM     25  C   UNL A   1      32.707  31.440  26.799  1.00  0.00     0.118 C 
BRANCH  25  26
ATOM     26  N   UNL A   1      32.837  32.822  27.240  1.00  0.00    -0.352 N 
ATOM     27  C   UNL A   1      33.865  33.413  27.947  1.00  0.00     0.251 C 
ATOM     28  H   UNL A   1      32.089  33.415  27.000  1.00  0.00     0.163 HD
ATOM     29  O   UNL A   1      33.773  34.574  28.314  1.00  0.00    -0.269 OA
BRANCH  27  30
ATOM     30  C   UNL A   1      35.056  32.604  28.299  1.00  0.00     0.039 A 
ATOM     31  C   UNL A   1      36.321  33.184  28.199  1.00  0.00     0.014 A 
ATOM     32  C   UNL A   1      34.915  31.309  28.805  1.00  0.00     0.014 A 
ATOM     33  C   UNL A   1      37.433  32.503  28.701  1.00  0.00     0.010 A 
ATOM     34  C   UNL A   1      36.005  30.680  29.397  1.00  0.00     0.010 A 
ATOM     35  C   UNL A   1      37.277  31.271  29.359  1.00  0.00    -0.014 A 
BRANCH  35  36
ATOM     36  C   UNL A   1      38.428  30.595  30.022  1.00  0.00     0.031 A 
ATOM     37  C   UNL A   1      38.808  30.960  31.433  1.00  0.00     0.074 A 
ATOM     38  C   UNL A   1      39.172  29.707  29.331  1.00  0.00     0.049 A 
ATOM     39  N   UNL A   1      39.812  30.532  32.156  1.00  0.00    -0.248 NA
ATOM     40  C   UNL A   1      37.972  31.965  32.106  1.00  0.00     0.031 C 
ATOM     41  C   UNL A   1      38.952  29.321  27.934  1.00  0.00     0.029 A 
ATOM     42  N   UNL A   1      40.272  28.972  29.702  1.00  0.00    -0.354 N 
ATOM     43  C   UNL A   1      39.740  31.232  33.357  1.00  0.00     0.074 A 
ATOM     44  C   UNL A   1      38.634  32.157  33.237  1.00  0.00     0.031 C 
ATOM     45  C   UNL A   1      39.861  28.398  27.580  1.00  0.00     0.029 A 
ATOM     46  C   UNL A   1      40.759  28.155  28.705  1.00  0.00     0.049 A 
ATOM     47  H   UNL A   1      40.674  29.023  30.600  1.00  0.00     0.167 HD
ATOM     48  C   UNL A   1      40.506  31.097  34.468  1.00  0.00     0.034 A 
ATOM     49  C   UNL A   1      41.812  27.313  28.694  1.00  0.00     0.034 A 
ATOM     50  C   UNL A   1      41.585  30.146  34.586  1.00  0.00     0.049 A 
ATOM     51  C   UNL A   1      42.636  27.165  29.948  1.00  0.00     0.074 A 
ATOM     52  C   UNL A   1      42.372  29.871  35.690  1.00  0.00     0.029 A 
ATOM     53  N   UNL A   1      42.031  29.318  33.564  1.00  0.00    -0.354 N 
ATOM     54  N   UNL A   1      42.506  27.783  31.100  1.00  0.00    -0.248 NA
ATOM     55  C   UNL A   1      43.738  26.196  29.906  1.00  0.00     0.031 C 
ATOM     56  C   UNL A   1      43.333  28.924  35.320  1.00  0.00     0.029 A 
ATOM     57  C   UNL A   1      43.101  28.553  34.004  1.00  0.00     0.049 A 
ATOM     58  H   UNL A   1      41.645  29.280  32.660  1.00  0.00     0.167 HD
ATOM     59  C   UNL A   1      43.495  27.255  31.926  1.00  0.00     0.074 A 
ATOM     60  C   UNL A   1      44.195  26.254  31.148  1.00  0.00     0.031 C 
ATOM     61  C   UNL A   1      43.797  27.568  33.212  1.00  0.00     0.034 A 
BRANCH  48  62
ATOM     62  C   UNL A   1      40.209  32.007  35.636  1.00  0.00     0.023 A 
ATOM     63  C   UNL A   1      39.136  31.763  36.510  1.00  0.00     0.031 A 
ATOM     64  C   UNL A   1      40.999  33.147  35.868  1.00  0.00     0.131 A 
ATOM     65  C   UNL A   1      38.837  32.681  37.527  1.00  0.00     0.055 A 
ATOM     66  C   UNL A   1      40.746  34.014  36.932  1.00  0.00     0.041 A 
ATOM     67  F   UNL A   1      42.026  33.445  35.055  1.00  0.00    -0.206 F 
ATOM     68  C   UNL A   1      39.650  33.792  37.761  1.00  0.00     0.022 A 
BRANCH  65  69
ATOM     69  S   UNL A   1      37.292  32.474  38.455  1.00  0.00     0.124 S 
ATOM     70  O   UNL A   1      36.335  33.161  37.590  1.00  0.00    -0.237 OA
ATOM     71  O   UNL A   1      37.160  31.024  38.530  1.00  0.00    -0.237 OA
ATOM     72  O   UNL A   1      37.563  33.144  39.726  1.00  0.00    -0.744 OA
ENDBRANCH  65  69
ENDBRANCH  48  62
BRANCH  49  73
ATOM     73  C   UNL A   1      42.157  26.543  27.463  1.00  0.00     0.023 A 
ATOM     74  C   UNL A   1      41.850  25.178  27.352  1.00  0.00     0.031 A 
ATOM     75  C   UNL A   1      42.851  27.150  26.401  1.00  0.00     0.131 A 
ATOM     76  C   UNL A   1      42.281  24.450  26.231  1.00  0.00     0.055 A 
ATOM     77  C   UNL A   1      43.229  26.436  25.263  1.00  0.00     0.041 A 
ATOM     78  F   UNL A   1      43.165  28.454  26.451  1.00  0.00    -0.206 F 
ATOM     79  C   UNL A   1      42.958  25.073  25.179  1.00  0.00     0.022 A 
BRANCH  76  80
ATOM     80  S   UNL A   1      42.027  22.655  26.209  1.00  0.00     0.124 S 
ATOM     81  O   UNL A   1      42.640  22.283  24.939  1.00  0.00    -0.237 OA
ATOM     82  O   UNL A   1      42.738  22.235  27.412  1.00  0.00    -0.237 OA
ATOM     83  O   UNL A   1      40.574  22.516  26.267  1.00  0.00    -0.744 OA
ENDBRANCH  76  80
ENDBRANCH  49  73
BRANCH  61  84
ATOM     84  C   UNL A   1      44.910  26.783  33.862  1.00  0.00     0.023 A 
ATOM     85  C   UNL A   1      44.660  25.595  34.571  1.00  0.00     0.031 A 
ATOM     86  C   UNL A   1      46.237  27.241  33.785  1.00  0.00     0.131 A 
ATOM     87  C   UNL A   1      45.712  24.940  35.229  1.00  0.00     0.055 A 
ATOM     88  C   UNL A   1      47.289  26.550  34.387  1.00  0.00     0.041 A 
ATOM     89  F   UNL A   1      46.533  28.370  33.120  1.00  0.00    -0.206 F 
ATOM     90  C   UNL A   1      47.027  25.401  35.127  1.00  0.00     0.022 A 
BRANCH  87  91
ATOM     91  S   UNL A   1      45.323  23.529  36.300  1.00  0.00     0.124 S 
ATOM     92  O   UNL A   1      44.336  22.808  35.506  1.00  0.00    -0.237 OA
ATOM     93  O   UNL A   1      46.623  22.881  36.446  1.00  0.00    -0.237 OA
ATOM     94  O   UNL A   1      44.805  24.154  37.516  1.00  0.00    -0.744 OA
ENDBRANCH  87  91
ENDBRANCH  61  84
ENDBRANCH  35  36
ENDBRANCH  27  30
ENDBRANCH  25  26
ENDBRANCH  24  25
ENDBRANCH   1  24
TORSDOF 17
ENDMDL
MODEL 2
REMARK VINA RESULT:     -11.7      2.239      7.987
REMARK SMILES O=C(NCCCNC(=O)c1ccc(-c2c3nc(c(-c4cc(S(=O)(=O)[O-])ccc4F)c4ccc([nH]4)c(-c4cc(S(=O)(=O)[O-])ccc4F)c4nc(c(-c5cc(S(=O)(=O)[O-])ccc5F)c5ccc2[nH]5)C=C4)C=C3)cc1)C1=C(C(=O)NCCC2=CCCCC2)CCCC1
REMARK SMILES IDX 4 1 3 2 1 3 2 4 73 6 74 7 89 8 86 9 88 10 87 11 75 12 76 13
REMARK SMILES IDX 77 14 78 16 79 17 80 18 81 19 85 20 82 21 84 22 83 23 5 24
REMARK SMILES IDX 6 25 7 26 8 27 9 29 10 30 11 31 72 32 12 33 71 34 13 35
REMARK SMILES IDX 14 36 15 37 65 38 16 39 70 40 64 41 66 42 17 43 69 44 63 45
REMARK SMILES IDX 62 46 18 48 50 49 30 50 49 51 31 52 34 53 48 54 67 55 32 56
REMARK SMILES IDX 33 57 47 59 68 60 35 61 19 62 20 63 28 64 21 65 27 66 29 67
REMARK SMILES IDX 26 68 22 69 23 70 24 71 25 72 51 73 52 74 60 75 53 76 59 77
REMARK SMILES IDX 61 78 58 79 54 80 55 81 56 82 57 83 36 84 37 85 45 86 38 87
REMARK SMILES IDX 44 88 46 89 43 90 39 91 40 92 41 93 42 94
REMARK H PARENT 3 5 77 15 7 28 66 47 34 58
REMARK Flexibility Score: inf
ROOT
ATOM      1  C   UNL A   1      31.817  30.305  25.542  1.00  0.00     0.118 C 
ENDROOT
BRANCH   1   2
ATOM      2  N   UNL A   1      32.970  29.788  24.822  1.00  0.00    -0.352 N 
ATOM      3  O   UNL A   1      34.243  28.325  23.707  1.00  0.00    -0.270 OA
ATOM      4  C   UNL A   1      33.217  28.540  24.349  1.00  0.00     0.247 C 
ATOM      5  H   UNL A   1      33.682  30.445  24.652  1.00  0.00     0.163 HD
BRANCH   4   6
ATOM      6  C   UNL A   1      32.294  27.425  24.673  1.00  0.00     0.026 C 
ATOM      7  C   UNL A   1      31.345  26.915  23.856  1.00  0.00     0.026 C 
ATOM      8  C   UNL A   1      32.550  26.901  26.070  1.00  0.00     0.042 C 
ATOM      9  C   UNL A   1      30.274  25.995  24.424  1.00  0.00     0.042 C 
ATOM     10  C   UNL A   1      31.675  25.716  26.469  1.00  0.00     0.005 C 
ATOM     11  C   UNL A   1      30.262  25.924  25.954  1.00  0.00     0.005 C 
BRANCH   7  12
ATOM     12  C   UNL A   1      31.094  27.251  22.413  1.00  0.00     0.247 C 
ATOM     13  O   UNL A   1      30.145  27.983  22.125  1.00  0.00    -0.270 OA
ATOM     14  N   UNL A   1      31.813  26.727  21.388  1.00  0.00    -0.352 N 
ATOM     15  H   UNL A   1      31.447  26.929  20.496  1.00  0.00     0.163 HD
BRANCH  14  16
ATOM     16  C   UNL A   1      33.025  25.926  21.363  1.00  0.00     0.120 C 
BRANCH  16  17
ATOM     17  C   UNL A   1      32.803  24.437  21.643  1.00  0.00     0.052 C 
BRANCH  17  18
ATOM     18  C   UNL A   1      33.286  23.955  22.998  1.00  0.00    -0.072 C 
ATOM     19  C   UNL A   1      34.291  24.557  23.662  1.00  0.00    -0.028 C 
ATOM     20  C   UNL A   1      32.527  22.798  23.604  1.00  0.00     0.031 C 
ATOM     21  C   UNL A   1      34.777  24.132  25.021  1.00  0.00     0.027 C 
ATOM     22  C   UNL A   1      32.733  22.665  25.115  1.00  0.00     0.005 C 
ATOM     23  C   UNL A   1      34.206  22.791  25.482  1.00  0.00     0.004 C 
ENDBRANCH  17  18
ENDBRANCH  16  17
ENDBRANCH  14  16
ENDBRANCH   7  12
ENDBRANCH   4   6
ENDBRANCH   1   2
BRANCH   1  24
ATOM     24  C   UNL A   1      32.118  30.590  27.002  1.00  0.00     0.042 C 
BRANCH  24  25
ATOM     25  C   UNL A   1      33.250  31.588  27.214  1.00  0.00     0.118 C 
BRANCH  25  26
ATOM     26  N   UNL A   1      32.807  32.967  27.361  1.00  0.00    -0.352 N 
ATOM     27  C   UNL A   1      33.257  33.933  28.239  1.00  0.00     0.251 C 
ATOM     28  H   UNL A   1      32.086  33.248  26.752  1.00  0.00     0.163 HD
ATOM     29  O   UNL A   1      32.711  35.024  28.289  1.00  0.00    -0.269 OA
BRANCH  27  30
ATOM     30  C   UNL A   1      34.379  33.610  29.153  1.00  0.00     0.039 A 
ATOM     31  C   UNL A   1      34.132  32.812  30.271  1.00  0.00     0.014 A 
ATOM     32  C   UNL A   1      35.680  34.024  28.859  1.00  0.00     0.014 A 
ATOM     33  C   UNL A   1      35.205  32.346  31.035  1.00  0.00     0.010 A 
ATOM     34  C   UNL A   1      36.751  33.475  29.557  1.00  0.00     0.010 A 
ATOM     35  C   UNL A   1      36.528  32.624  30.650  1.00  0.00    -0.014 A 
BRANCH  35  36
ATOM     36  C   UNL A   1      37.687  32.023  31.370  1.00  0.00     0.031 A 
ATOM     37  C   UNL A   1      38.498  30.933  30.720  1.00  0.00     0.074 A 
ATOM     38  C   UNL A   1      37.964  32.410  32.633  1.00  0.00     0.049 A 
ATOM     39  N   UNL A   1      39.498  30.244  31.207  1.00  0.00    -0.248 NA
ATOM     40  C   UNL A   1      38.109  30.540  29.357  1.00  0.00     0.031 C 
ATOM     41  C   UNL A   1      37.210  33.405  33.400  1.00  0.00     0.029 A 
ATOM     42  N   UNL A   1      38.950  32.007  33.501  1.00  0.00    -0.354 N 
ATOM     43  C   UNL A   1      39.841  29.324  30.222  1.00  0.00     0.074 A 
ATOM     44  C   UNL A   1      38.900  29.501  29.138  1.00  0.00     0.031 C 
ATOM     45  C   UNL A   1      37.779  33.559  34.606  1.00  0.00     0.029 A 
ATOM     46  C   UNL A   1      38.912  32.646  34.721  1.00  0.00     0.049 A 
ATOM     47  H   UNL A   1      39.622  31.325  33.272  1.00  0.00     0.167 HD
ATOM     48  C   UNL A   1      40.864  28.434  30.207  1.00  0.00     0.034 A 
ATOM     49  C   UNL A   1      39.695  32.508  35.810  1.00  0.00     0.034 A 
ATOM     50  C   UNL A   1      41.816  28.291  31.281  1.00  0.00     0.049 A 
ATOM     51  C   UNL A   1      40.838  31.526  35.763  1.00  0.00     0.074 A 
ATOM     52  C   UNL A   1      42.935  27.478  31.338  1.00  0.00     0.029 A 
ATOM     53  N   UNL A   1      41.761  28.974  32.490  1.00  0.00    -0.354 N 
ATOM     54  N   UNL A   1      41.191  30.715  34.792  1.00  0.00    -0.248 NA
ATOM     55  C   UNL A   1      41.696  31.450  36.952  1.00  0.00     0.031 C 
ATOM     56  C   UNL A   1      43.520  27.622  32.601  1.00  0.00     0.029 A 
ATOM     57  C   UNL A   1      42.810  28.579  33.308  1.00  0.00     0.049 A 
ATOM     58  H   UNL A   1      41.079  29.640  32.730  1.00  0.00     0.167 HD
ATOM     59  C   UNL A   1      42.330  30.054  35.245  1.00  0.00     0.074 A 
ATOM     60  C   UNL A   1      42.615  30.577  36.565  1.00  0.00     0.031 C 
ATOM     61  C   UNL A   1      43.074  29.102  34.627  1.00  0.00     0.034 A 
BRANCH  48  62
ATOM     62  C   UNL A   1      40.994  27.539  28.998  1.00  0.00     0.023 A 
ATOM     63  C   UNL A   1      41.999  27.736  28.036  1.00  0.00     0.031 A 
ATOM     64  C   UNL A   1      40.088  26.483  28.794  1.00  0.00     0.131 A 
ATOM     65  C   UNL A   1      42.030  26.942  26.880  1.00  0.00     0.055 A 
ATOM     66  C   UNL A   1      40.174  25.642  27.682  1.00  0.00     0.041 A 
ATOM     67  F   UNL A   1      39.093  26.256  29.668  1.00  0.00    -0.206 F 
ATOM     68  C   UNL A   1      41.141  25.879  26.709  1.00  0.00     0.022 A 
BRANCH  65  69
ATOM     69  S   UNL A   1      43.165  27.403  25.542  1.00  0.00     0.124 S 
ATOM     70  O   UNL A   1      44.182  28.160  26.267  1.00  0.00    -0.237 OA
ATOM     71  O   UNL A   1      43.583  26.105  25.022  1.00  0.00    -0.237 OA
ATOM     72  O   UNL A   1      42.331  28.197  24.642  1.00  0.00    -0.744 OA
ENDBRANCH  65  69
ENDBRANCH  48  62
BRANCH  49  73
ATOM     73  C   UNL A   1      39.434  33.310  37.041  1.00  0.00     0.023 A 
ATOM     74  C   UNL A   1      40.084  34.536  37.259  1.00  0.00     0.031 A 
ATOM     75  C   UNL A   1      38.572  32.836  38.045  1.00  0.00     0.131 A 
ATOM     76  C   UNL A   1      39.904  35.219  38.473  1.00  0.00     0.055 A 
ATOM     77  C   UNL A   1      38.353  33.546  39.227  1.00  0.00     0.041 A 
ATOM     78  F   UNL A   1      37.920  31.673  37.887  1.00  0.00    -0.206 F 
ATOM     79  C   UNL A   1      39.033  34.739  39.453  1.00  0.00     0.022 A 
BRANCH  76  80
ATOM     80  S   UNL A   1      40.901  36.700  38.792  1.00  0.00     0.124 S 
ATOM     81  O   UNL A   1      41.686  36.800  37.567  1.00  0.00    -0.237 OA
ATOM     82  O   UNL A   1      39.874  37.720  38.982  1.00  0.00    -0.237 OA
ATOM     83  O   UNL A   1      41.657  36.350  39.992  1.00  0.00    -0.744 OA
ENDBRANCH  76  80
ENDBRANCH  49  73
BRANCH  61  84
ATOM     84  C   UNL A   1      44.291  28.600  35.366  1.00  0.00     0.023 A 
ATOM     85  C   UNL A   1      44.230  27.481  36.215  1.00  0.00     0.031 A 
ATOM     86  C   UNL A   1      45.523  29.263  35.231  1.00  0.00     0.131 A 
ATOM     87  C   UNL A   1      45.363  27.097  36.945  1.00  0.00     0.055 A 
ATOM     88  C   UNL A   1      46.664  28.837  35.912  1.00  0.00     0.041 A 
ATOM     89  F   UNL A   1      45.638  30.338  34.434  1.00  0.00    -0.206 F 
ATOM     90  C   UNL A   1      46.585  27.757  36.786  1.00  0.00     0.022 A 
BRANCH  87  91
ATOM     91  S   UNL A   1      45.197  25.780  38.181  1.00  0.00     0.124 S 
ATOM     92  O   UNL A   1      46.532  25.191  38.179  1.00  0.00    -0.237 OA
ATOM     93  O   UNL A   1      44.829  26.523  39.381  1.00  0.00    -0.237 OA
ATOM     94  O   UNL A   1      44.143  24.927  37.634  1.00  0.00    -0.744 OA
ENDBRANCH  87  91
ENDBRANCH  61  84
ENDBRANCH  35  36
ENDBRANCH  27  30
ENDBRANCH  25  26
ENDBRANCH  24  25
ENDBRANCH   1  24
TORSDOF 17
ENDMDL
MODEL 3
REMARK VINA RESULT:     -11.5      1.178      7.590
REMARK SMILES O=C(NCCCNC(=O)c1ccc(-c2c3nc(c(-c4cc(S(=O)(=O)[O-])ccc4F)c4ccc([nH]4)c(-c4cc(S(=O)(=O)[O-])ccc4F)c4nc(c(-c5cc(S(=O)(=O)[O-])ccc5F)c5ccc2[nH]5)C=C4)C=C3)cc1)C1=C(C(=O)NCCC2=CCCCC2)CCCC1
REMARK SMILES IDX 4 1 3 2 1 3 2 4 73 6 74 7 89 8 86 9 88 10 87 11 75 12 76 13
REMARK SMILES IDX 77 14 78 16 79 17 80 18 81 19 85 20 82 21 84 22 83 23 5 24
REMARK SMILES IDX 6 25 7 26 8 27 9 29 10 30 11 31 72 32 12 33 71 34 13 35
REMARK SMILES IDX 14 36 15 37 65 38 16 39 70 40 64 41 66 42 17 43 69 44 63 45
REMARK SMILES IDX 62 46 18 48 50 49 30 50 49 51 31 52 34 53 48 54 67 55 32 56
REMARK SMILES IDX 33 57 47 59 68 60 35 61 19 62 20 63 28 64 21 65 27 66 29 67
REMARK SMILES IDX 26 68 22 69 23 70 24 71 25 72 51 73 52 74 60 75 53 76 59 77
REMARK SMILES IDX 61 78 58 79 54 80 55 81 56 82 57 83 36 84 37 85 45 86 38 87
REMARK SMILES IDX 44 88 46 89 43 90 39 91 40 92 41 93 42 94
REMARK H PARENT 3 5 77 15 7 28 66 47 34 58
REMARK Flexibility Score: inf
ROOT
ATOM      1  C   UNL A   1      31.023  30.475  25.311  1.00  0.00     0.118 C 
ENDROOT
BRANCH   1   2
ATOM      2  N   UNL A   1      32.393  30.056  25.061  1.00  0.00    -0.352 N 
ATOM      3  O   UNL A   1      34.095  28.691  24.565  1.00  0.00    -0.270 OA
ATOM      4  C   UNL A   1      32.897  28.821  24.811  1.00  0.00     0.247 C 
ATOM      5  H   UNL A   1      33.059  30.781  25.077  1.00  0.00     0.163 HD
BRANCH   4   6
ATOM      6  C   UNL A   1      32.024  27.626  24.911  1.00  0.00     0.026 C 
ATOM      7  C   UNL A   1      31.239  27.129  23.929  1.00  0.00     0.026 C 
ATOM      8  C   UNL A   1      32.121  27.001  26.288  1.00  0.00     0.042 C 
ATOM      9  C   UNL A   1      30.171  26.098  24.264  1.00  0.00     0.042 C 
ATOM     10  C   UNL A   1      31.290  25.734  26.463  1.00  0.00     0.005 C 
ATOM     11  C   UNL A   1      29.951  25.895  25.766  1.00  0.00     0.005 C 
BRANCH   7  12
ATOM     12  C   UNL A   1      31.168  27.571  22.495  1.00  0.00     0.247 C 
ATOM     13  O   UNL A   1      30.565  28.611  22.218  1.00  0.00    -0.270 OA
ATOM     14  N   UNL A   1      31.669  26.845  21.463  1.00  0.00    -0.352 N 
ATOM     15  H   UNL A   1      31.426  27.191  20.573  1.00  0.00     0.163 HD
BRANCH  14  16
ATOM     16  C   UNL A   1      32.498  25.652  21.429  1.00  0.00     0.120 C 
BRANCH  16  17
ATOM     17  C   UNL A   1      33.730  25.715  22.335  1.00  0.00     0.052 C 
BRANCH  17  18
ATOM     18  C   UNL A   1      33.750  24.708  23.470  1.00  0.00    -0.072 C 
ATOM     19  C   UNL A   1      34.507  24.876  24.571  1.00  0.00    -0.028 C 
ATOM     20  C   UNL A   1      32.813  23.531  23.335  1.00  0.00     0.031 C 
ATOM     21  C   UNL A   1      34.530  23.920  25.732  1.00  0.00     0.027 C 
ATOM     22  C   UNL A   1      32.529  22.827  24.664  1.00  0.00     0.005 C 
ATOM     23  C   UNL A   1      33.814  22.600  25.451  1.00  0.00     0.004 C 
ENDBRANCH  17  18
ENDBRANCH  16  17
ENDBRANCH  14  16
ENDBRANCH   7  12
ENDBRANCH   4   6
ENDBRANCH   1   2
BRANCH   1  24
ATOM     24  C   UNL A   1      30.939  31.707  26.192  1.00  0.00     0.042 C 
BRANCH  24  25
ATOM     25  C   UNL A   1      32.284  32.161  26.747  1.00  0.00     0.118 C 
BRANCH  25  26
ATOM     26  N   UNL A   1      32.282  33.519  27.272  1.00  0.00    -0.352 N 
ATOM     27  C   UNL A   1      33.192  34.123  28.116  1.00  0.00     0.251 C 
ATOM     28  H   UNL A   1      31.527  34.084  26.987  1.00  0.00     0.163 HD
ATOM     29  O   UNL A   1      32.992  35.254  28.532  1.00  0.00    -0.269 OA
BRANCH  27  30
ATOM     30  C   UNL A   1      34.389  33.363  28.549  1.00  0.00     0.039 A 
ATOM     31  C   UNL A   1      35.645  33.962  28.446  1.00  0.00     0.014 A 
ATOM     32  C   UNL A   1      34.259  32.098  29.129  1.00  0.00     0.014 A 
ATOM     33  C   UNL A   1      36.755  33.336  29.020  1.00  0.00     0.010 A 
ATOM     34  C   UNL A   1      35.344  31.529  29.788  1.00  0.00     0.010 A 
ATOM     35  C   UNL A   1      36.605  32.143  29.748  1.00  0.00    -0.014 A 
BRANCH  35  36
ATOM     36  C   UNL A   1      37.750  31.534  30.482  1.00  0.00     0.031 A 
ATOM     37  C   UNL A   1      38.618  30.504  29.808  1.00  0.00     0.074 A 
ATOM     38  C   UNL A   1      37.964  31.855  31.775  1.00  0.00     0.049 A 
ATOM     39  N   UNL A   1      39.617  29.815  30.299  1.00  0.00    -0.248 NA
ATOM     40  C   UNL A   1      38.297  30.179  28.410  1.00  0.00     0.031 C 
ATOM     41  C   UNL A   1      37.150  32.785  32.563  1.00  0.00     0.029 A 
ATOM     42  N   UNL A   1      38.924  31.430  32.661  1.00  0.00    -0.354 N 
ATOM     43  C   UNL A   1      40.027  28.962  29.279  1.00  0.00     0.074 A 
ATOM     44  C   UNL A   1      39.126  29.175  28.167  1.00  0.00     0.031 C 
ATOM     45  C   UNL A   1      37.665  32.886  33.799  1.00  0.00     0.029 A 
ATOM     46  C   UNL A   1      38.818  31.998  33.911  1.00  0.00     0.049 A 
ATOM     47  H   UNL A   1      39.624  30.780  32.423  1.00  0.00     0.167 HD
ATOM     48  C   UNL A   1      41.074  28.101  29.259  1.00  0.00     0.034 A 
ATOM     49  C   UNL A   1      39.558  31.819  35.024  1.00  0.00     0.034 A 
ATOM     50  C   UNL A   1      41.985  27.922  30.363  1.00  0.00     0.049 A 
ATOM     51  C   UNL A   1      40.730  30.872  34.972  1.00  0.00     0.074 A 
ATOM     52  C   UNL A   1      43.123  27.137  30.423  1.00  0.00     0.029 A 
ATOM     53  N   UNL A   1      41.861  28.534  31.604  1.00  0.00    -0.354 N 
ATOM     54  N   UNL A   1      41.146  30.127  33.973  1.00  0.00    -0.248 NA
ATOM     55  C   UNL A   1      41.540  30.751  36.190  1.00  0.00     0.031 C 
ATOM     56  C   UNL A   1      43.651  27.225  31.715  1.00  0.00     0.029 A 
ATOM     57  C   UNL A   1      42.885  28.122  32.443  1.00  0.00     0.049 A 
ATOM     58  H   UNL A   1      41.150  29.168  31.852  1.00  0.00     0.167 HD
ATOM     59  C   UNL A   1      42.284  29.472  34.437  1.00  0.00     0.074 A 
ATOM     60  C   UNL A   1      42.499  29.927  35.795  1.00  0.00     0.031 C 
ATOM     61  C   UNL A   1      43.079  28.576  33.799  1.00  0.00     0.034 A 
BRANCH  48  62
ATOM     62  C   UNL A   1      41.279  27.280  28.008  1.00  0.00     0.023 A 
ATOM     63  C   UNL A   1      40.932  25.919  27.952  1.00  0.00     0.031 A 
ATOM     64  C   UNL A   1      41.848  27.860  26.861  1.00  0.00     0.131 A 
ATOM     65  C   UNL A   1      41.222  25.168  26.803  1.00  0.00     0.055 A 
ATOM     66  C   UNL A   1      42.059  27.127  25.691  1.00  0.00     0.041 A 
ATOM     67  F   UNL A   1      42.219  29.151  26.860  1.00  0.00    -0.206 F 
ATOM     68  C   UNL A   1      41.760  25.768  25.663  1.00  0.00     0.022 A 
BRANCH  65  69
ATOM     69  S   UNL A   1      41.011  23.367  26.869  1.00  0.00     0.124 S 
ATOM     70  O   UNL A   1      41.486  23.064  28.217  1.00  0.00    -0.237 OA
ATOM     71  O   UNL A   1      39.578  23.209  26.645  1.00  0.00    -0.237 OA
ATOM     72  O   UNL A   1      41.869  22.881  25.790  1.00  0.00    -0.744 OA
ENDBRANCH  65  69
ENDBRANCH  48  62
BRANCH  49  73
ATOM     73  C   UNL A   1      39.224  32.543  36.285  1.00  0.00     0.023 A 
ATOM     74  C   UNL A   1      38.504  31.915  37.314  1.00  0.00     0.031 A 
ATOM     75  C   UNL A   1      39.574  33.894  36.459  1.00  0.00     0.131 A 
ATOM     76  C   UNL A   1      38.108  32.648  38.444  1.00  0.00     0.055 A 
ATOM     77  C   UNL A   1      39.227  34.605  37.609  1.00  0.00     0.041 A 
ATOM     78  F   UNL A   1      40.268  34.544  35.510  1.00  0.00    -0.206 F 
ATOM     79  C   UNL A   1      38.476  33.986  38.604  1.00  0.00     0.022 A 
BRANCH  76  80
ATOM     80  S   UNL A   1      37.024  31.853  39.660  1.00  0.00     0.124 S 
ATOM     81  O   UNL A   1      37.990  31.254  40.574  1.00  0.00    -0.237 OA
ATOM     82  O   UNL A   1      36.268  32.988  40.179  1.00  0.00    -0.237 OA
ATOM     83  O   UNL A   1      36.250  30.907  38.860  1.00  0.00    -0.744 OA
ENDBRANCH  76  80
ENDBRANCH  49  73
BRANCH  61  84
ATOM     84  C   UNL A   1      44.279  28.065  34.561  1.00  0.00     0.023 A 
ATOM     85  C   UNL A   1      44.229  26.874  35.304  1.00  0.00     0.031 A 
ATOM     86  C   UNL A   1      45.482  28.792  34.555  1.00  0.00     0.131 A 
ATOM     87  C   UNL A   1      45.339  26.477  36.063  1.00  0.00     0.055 A 
ATOM     88  C   UNL A   1      46.605  28.359  35.260  1.00  0.00     0.041 A 
ATOM     89  F   UNL A   1      45.586  29.938  33.861  1.00  0.00    -0.206 F 
ATOM     90  C   UNL A   1      46.533  27.203  36.032  1.00  0.00     0.022 A 
BRANCH  87  91
ATOM     91  S   UNL A   1      45.173  25.048  37.168  1.00  0.00     0.124 S 
ATOM     92  O   UNL A   1      44.581  24.049  36.286  1.00  0.00    -0.237 OA
ATOM     93  O   UNL A   1      46.554  24.805  37.573  1.00  0.00    -0.237 OA
ATOM     94  O   UNL A   1      44.295  25.537  38.230  1.00  0.00    -0.744 OA
ENDBRANCH  87  91
ENDBRANCH  61  84
ENDBRANCH  35  36
ENDBRANCH  27  30
ENDBRANCH  25  26
ENDBRANCH  24  25
ENDBRANCH   1  24
TORSDOF 17
ENDMDL
