MODEL 1
REMARK VINA RESULT:     -11.2      0.000      0.000
REMARK SMILES C[C@@H]1CCC[C@](C#N)([C@H](O)C(=O)NCCCNC(=O)c2ccc(-c3c4nc(c(-c5cc(S(=O)(=O)[O-])ccc5F)c5ccc([nH]5)c(-c5cc(S(=O)(=O)[O-])ccc5F)c5nc(c(-c6cc(S(=O)(=O)[O-])ccc6F)c6ccc3[nH]6)C=C5)C=C4)cc2)C1
REMARK SMILES IDX 15 1 14 2 13 3 11 4 12 5 9 7 6 8 1 9 2 10 3 11 83 12 4 13
REMARK SMILES IDX 5 14 7 15 8 16 10 17 16 19 17 20 18 21 19 23 20 24 21 25
REMARK SMILES IDX 82 26 22 27 81 28 23 29 24 30 25 31 75 32 26 33 80 34 74 35
REMARK SMILES IDX 76 36 27 37 79 38 73 39 72 40 28 42 60 43 40 44 59 45 41 46
REMARK SMILES IDX 44 47 58 48 77 49 42 50 43 51 57 53 78 54 45 55 29 56 30 57
REMARK SMILES IDX 38 58 31 59 37 60 39 61 36 62 32 63 33 64 34 65 35 66 61 67
REMARK SMILES IDX 62 68 70 69 63 70 69 71 71 72 68 73 64 74 65 75 66 76 67 77
REMARK SMILES IDX 46 78 47 79 55 80 48 81 54 82 56 83 53 84 49 85 50 86 51 87
REMARK SMILES IDX 52 88
REMARK H PARENT 13 6 10 18 17 22 76 41 44 52
REMARK Flexibility Score: inf
ROOT
ATOM      1  C   UNL A   1      31.389  29.493  25.529  1.00  0.00     0.042 C 
ENDROOT
BRANCH   1   2
ATOM      2  C   UNL A   1      31.301  29.209  24.050  1.00  0.00     0.117 C 
BRANCH   2   3
ATOM      3  N   UNL A   1      32.532  28.989  23.354  1.00  0.00    -0.354 N 
ATOM      4  C   UNL A   1      32.870  27.952  22.539  1.00  0.00     0.250 C 
ATOM      5  O   UNL A   1      33.945  28.059  21.934  1.00  0.00    -0.272 OA
ATOM      6  H   UNL A   1      33.225  29.677  23.482  1.00  0.00     0.163 HD
BRANCH   4   7
ATOM      7  C   UNL A   1      32.038  26.634  22.412  1.00  0.00     0.223 C 
BRANCH   7   8
ATOM      8  C   UNL A   1      32.462  25.314  23.172  1.00  0.00     0.092 C 
ATOM      9  C   UNL A   1      29.761  26.092  25.170  1.00  0.00     0.008 C 
ATOM     10  C   UNL A   1      30.857  25.022  25.280  1.00  0.00    -0.013 C 
ATOM     11  C   UNL A   1      32.000  25.433  26.213  1.00  0.00     0.003 C 
ATOM     12  C   UNL A   1      31.456  24.439  23.986  1.00  0.00     0.029 C 
ATOM     13  C   UNL A   1      33.123  26.224  25.544  1.00  0.00     0.002 C 
ATOM     14  C   UNL A   1      33.594  25.644  24.203  1.00  0.00     0.025 C 
BRANCH   8  15
ATOM     15  C   UNL A   1      33.055  24.431  22.127  1.00  0.00     0.072 C 
ATOM     16  N   UNL A   1      33.513  23.750  21.304  1.00  0.00    -0.198 NA
ENDBRANCH   8  15
ENDBRANCH   7   8
BRANCH   7  17
ATOM     17  O   UNL A   1      31.628  26.507  21.054  1.00  0.00    -0.382 OA
ATOM     18  H   UNL A   1      31.621  25.570  20.805  1.00  0.00     0.211 HD
ENDBRANCH   7  17
ENDBRANCH   4   7
ENDBRANCH   2   3
ENDBRANCH   1   2
BRANCH   1  19
ATOM     19  C   UNL A   1      32.678  30.155  25.949  1.00  0.00     0.118 C 
BRANCH  19  20
ATOM     20  N   UNL A   1      32.494  31.539  26.364  1.00  0.00    -0.352 N 
ATOM     21  C   UNL A   1      33.216  32.299  27.253  1.00  0.00     0.251 C 
ATOM     22  H   UNL A   1      31.733  32.001  25.944  1.00  0.00     0.163 HD
ATOM     23  O   UNL A   1      32.773  33.389  27.605  1.00  0.00    -0.269 OA
BRANCH  21  24
ATOM     24  C   UNL A   1      34.492  31.792  27.806  1.00  0.00     0.039 A 
ATOM     25  C   UNL A   1      35.547  32.684  27.997  1.00  0.00     0.014 A 
ATOM     26  C   UNL A   1      34.650  30.446  28.146  1.00  0.00     0.014 A 
ATOM     27  C   UNL A   1      36.726  32.238  28.595  1.00  0.00     0.010 A 
ATOM     28  C   UNL A   1      35.767  30.038  28.865  1.00  0.00     0.010 A 
ATOM     29  C   UNL A   1      36.828  30.922  29.080  1.00  0.00    -0.014 A 
BRANCH  29  30
ATOM     30  C   UNL A   1      38.044  30.466  29.800  1.00  0.00     0.031 A 
ATOM     31  C   UNL A   1      38.298  30.901  31.218  1.00  0.00     0.074 A 
ATOM     32  C   UNL A   1      38.931  29.675  29.161  1.00  0.00     0.049 A 
ATOM     33  N   UNL A   1      39.292  30.591  32.010  1.00  0.00    -0.248 NA
ATOM     34  C   UNL A   1      37.325  31.828  31.818  1.00  0.00     0.031 C 
ATOM     35  C   UNL A   1      38.818  29.236  27.767  1.00  0.00     0.029 A 
ATOM     36  N   UNL A   1      40.091  29.088  29.597  1.00  0.00    -0.354 N 
ATOM     37  C   UNL A   1      39.064  31.283  33.195  1.00  0.00     0.074 A 
ATOM     38  C   UNL A   1      37.884  32.093  32.988  1.00  0.00     0.031 C 
ATOM     39  C   UNL A   1      39.830  28.403  27.484  1.00  0.00     0.029 A 
ATOM     40  C   UNL A   1      40.698  28.295  28.650  1.00  0.00     0.049 A 
ATOM     41  H   UNL A   1      40.455  29.222  30.502  1.00  0.00     0.167 HD
ATOM     42  C   UNL A   1      39.757  31.225  34.359  1.00  0.00     0.034 A 
ATOM     43  C   UNL A   1      41.830  27.565  28.713  1.00  0.00     0.034 A 
ATOM     44  C   UNL A   1      40.932  30.411  34.544  1.00  0.00     0.049 A 
ATOM     45  C   UNL A   1      42.604  27.548  30.006  1.00  0.00     0.074 A 
ATOM     46  C   UNL A   1      41.687  30.238  35.692  1.00  0.00     0.029 A 
ATOM     47  N   UNL A   1      41.536  29.643  33.555  1.00  0.00    -0.354 N 
ATOM     48  N   UNL A   1      42.340  28.161  31.137  1.00  0.00    -0.248 NA
ATOM     49  C   UNL A   1      43.822  26.728  30.034  1.00  0.00     0.031 C 
ATOM     50  C   UNL A   1      42.794  29.447  35.373  1.00  0.00     0.029 A 
ATOM     51  C   UNL A   1      42.676  29.032  34.056  1.00  0.00     0.049 A 
ATOM     52  H   UNL A   1      41.203  29.548  32.634  1.00  0.00     0.167 HD
ATOM     53  C   UNL A   1      43.342  27.771  32.022  1.00  0.00     0.074 A 
ATOM     54  C   UNL A   1      44.199  26.855  31.297  1.00  0.00     0.031 C 
ATOM     55  C   UNL A   1      43.532  28.132  33.318  1.00  0.00     0.034 A 
BRANCH  42  56
ATOM     56  C   UNL A   1      39.274  32.085  35.504  1.00  0.00     0.023 A 
ATOM     57  C   UNL A   1      39.664  33.430  35.636  1.00  0.00     0.031 A 
ATOM     58  C   UNL A   1      38.427  31.550  36.489  1.00  0.00     0.131 A 
ATOM     59  C   UNL A   1      39.271  34.168  36.763  1.00  0.00     0.055 A 
ATOM     60  C   UNL A   1      37.963  32.317  37.559  1.00  0.00     0.041 A 
ATOM     61  F   UNL A   1      38.041  30.265  36.435  1.00  0.00    -0.206 F 
ATOM     62  C   UNL A   1      38.397  33.630  37.711  1.00  0.00     0.022 A 
BRANCH  59  63
ATOM     63  S   UNL A   1      40.047  35.781  37.056  1.00  0.00     0.124 S 
ATOM     64  O   UNL A   1      39.679  36.509  35.844  1.00  0.00    -0.237 OA
ATOM     65  O   UNL A   1      39.400  36.223  38.286  1.00  0.00    -0.237 OA
ATOM     66  O   UNL A   1      41.468  35.463  37.175  1.00  0.00    -0.744 OA
ENDBRANCH  59  63
ENDBRANCH  42  56
BRANCH  43  67
ATOM     67  C   UNL A   1      42.306  26.802  27.522  1.00  0.00     0.023 A 
ATOM     68  C   UNL A   1      42.040  25.430  27.382  1.00  0.00     0.031 A 
ATOM     69  C   UNL A   1      43.078  27.426  26.525  1.00  0.00     0.131 A 
ATOM     70  C   UNL A   1      42.587  24.718  26.304  1.00  0.00     0.055 A 
ATOM     71  C   UNL A   1      43.561  26.727  25.418  1.00  0.00     0.041 A 
ATOM     72  F   UNL A   1      43.364  28.736  26.607  1.00  0.00    -0.206 F 
ATOM     73  C   UNL A   1      43.330  25.360  25.311  1.00  0.00     0.022 A 
BRANCH  70  74
ATOM     74  S   UNL A   1      42.408  22.912  26.276  1.00  0.00     0.124 S 
ATOM     75  O   UNL A   1      43.381  22.504  27.282  1.00  0.00    -0.237 OA
ATOM     76  O   UNL A   1      41.005  22.741  26.632  1.00  0.00    -0.237 OA
ATOM     77  O   UNL A   1      42.748  22.560  24.899  1.00  0.00    -0.744 OA
ENDBRANCH  70  74
ENDBRANCH  43  67
BRANCH  55  78
ATOM     78  C   UNL A   1      44.689  27.489  34.048  1.00  0.00     0.023 A 
ATOM     79  C   UNL A   1      44.557  26.260  34.717  1.00  0.00     0.031 A 
ATOM     80  C   UNL A   1      45.939  28.134  34.094  1.00  0.00     0.131 A 
ATOM     81  C   UNL A   1      45.629  25.754  35.467  1.00  0.00     0.055 A 
ATOM     82  C   UNL A   1      47.027  27.583  34.773  1.00  0.00     0.041 A 
ATOM     83  F   UNL A   1      46.125  29.314  33.480  1.00  0.00    -0.206 F 
ATOM     84  C   UNL A   1      46.870  26.396  35.480  1.00  0.00     0.022 A 
BRANCH  81  85
ATOM     85  S   UNL A   1      45.337  24.322  36.540  1.00  0.00     0.124 S 
ATOM     86  O   UNL A   1      45.130  24.955  37.838  1.00  0.00    -0.237 OA
ATOM     87  O   UNL A   1      44.157  23.713  35.933  1.00  0.00    -0.237 OA
ATOM     88  O   UNL A   1      46.568  23.544  36.416  1.00  0.00    -0.744 OA
ENDBRANCH  81  85
ENDBRANCH  55  78
ENDBRANCH  29  30
ENDBRANCH  21  24
ENDBRANCH  19  20
ENDBRANCH   1  19
TORSDOF 16
ENDMDL
MODEL 2
REMARK VINA RESULT:     -11.2      1.540      1.879
REMARK SMILES C[C@@H]1CCC[C@](C#N)([C@H](O)C(=O)NCCCNC(=O)c2ccc(-c3c4nc(c(-c5cc(S(=O)(=O)[O-])ccc5F)c5ccc([nH]5)c(-c5cc(S(=O)(=O)[O-])ccc5F)c5nc(c(-c6cc(S(=O)(=O)[O-])ccc6F)c6ccc3[nH]6)C=C5)C=C4)cc2)C1
REMARK SMILES IDX 15 1 14 2 13 3 11 4 12 5 9 7 6 8 1 9 2 10 3 11 83 12 4 13
REMARK SMILES IDX 5 14 7 15 8 16 10 17 16 19 17 20 18 21 19 23 20 24 21 25
REMARK SMILES IDX 82 26 22 27 81 28 23 29 24 30 25 31 75 32 26 33 80 34 74 35
REMARK SMILES IDX 76 36 27 37 79 38 73 39 72 40 28 42 60 43 40 44 59 45 41 46
REMARK SMILES IDX 44 47 58 48 77 49 42 50 43 51 57 53 78 54 45 55 29 56 30 57
REMARK SMILES IDX 38 58 31 59 37 60 39 61 36 62 32 63 33 64 34 65 35 66 61 67
REMARK SMILES IDX 62 68 70 69 63 70 69 71 71 72 68 73 64 74 65 75 66 76 67 77
REMARK SMILES IDX 46 78 47 79 55 80 48 81 54 82 56 83 53 84 49 85 50 86 51 87
REMARK SMILES IDX 52 88
REMARK H PARENT 13 6 10 18 17 22 76 41 44 52
REMARK Flexibility Score: inf
ROOT
ATOM      1  C   UNL A   1      31.752  29.720  26.487  1.00  0.00     0.042 C 
ENDROOT
BRANCH   1   2
ATOM      2  C   UNL A   1      31.378  29.552  25.036  1.00  0.00     0.117 C 
BRANCH   2   3
ATOM      3  N   UNL A   1      32.449  29.511  24.087  1.00  0.00    -0.354 N 
ATOM      4  C   UNL A   1      32.621  28.656  23.041  1.00  0.00     0.250 C 
ATOM      5  O   UNL A   1      33.556  28.913  22.272  1.00  0.00    -0.272 OA
ATOM      6  H   UNL A   1      33.153  30.188  24.207  1.00  0.00     0.163 HD
BRANCH   4   7
ATOM      7  C   UNL A   1      31.779  27.354  22.829  1.00  0.00     0.223 C 
BRANCH   7   8
ATOM      8  C   UNL A   1      32.384  25.924  23.126  1.00  0.00     0.092 C 
ATOM      9  C   UNL A   1      29.986  25.880  25.604  1.00  0.00     0.008 C 
ATOM     10  C   UNL A   1      31.141  24.927  25.262  1.00  0.00    -0.013 C 
ATOM     11  C   UNL A   1      32.391  25.176  26.112  1.00  0.00     0.003 C 
ATOM     12  C   UNL A   1      31.564  24.772  23.789  1.00  0.00     0.029 C 
ATOM     13  C   UNL A   1      33.354  26.220  25.548  1.00  0.00     0.002 C 
ATOM     14  C   UNL A   1      33.642  26.068  24.048  1.00  0.00     0.025 C 
BRANCH   8  15
ATOM     15  C   UNL A   1      32.856  25.415  21.806  1.00  0.00     0.072 C 
ATOM     16  N   UNL A   1      33.212  25.018  20.774  1.00  0.00    -0.198 NA
ENDBRANCH   8  15
ENDBRANCH   7   8
BRANCH   7  17
ATOM     17  O   UNL A   1      31.026  27.514  21.632  1.00  0.00    -0.382 OA
ATOM     18  H   UNL A   1      31.613  27.801  20.916  1.00  0.00     0.211 HD
ENDBRANCH   7  17
ENDBRANCH   4   7
ENDBRANCH   2   3
ENDBRANCH   1   2
BRANCH   1  19
ATOM     19  C   UNL A   1      33.158  30.224  26.703  1.00  0.00     0.118 C 
BRANCH  19  20
ATOM     20  N   UNL A   1      33.206  31.643  27.027  1.00  0.00    -0.352 N 
ATOM     21  C   UNL A   1      34.110  32.346  27.786  1.00  0.00     0.251 C 
ATOM     22  H   UNL A   1      32.477  32.182  26.644  1.00  0.00     0.163 HD
ATOM     23  O   UNL A   1      33.857  33.508  28.093  1.00  0.00    -0.269 OA
BRANCH  21  24
ATOM     24  C   UNL A   1      35.355  31.698  28.258  1.00  0.00     0.039 A 
ATOM     25  C   UNL A   1      36.546  32.425  28.236  1.00  0.00     0.014 A 
ATOM     26  C   UNL A   1      35.353  30.384  28.731  1.00  0.00     0.014 A 
ATOM     27  C   UNL A   1      37.709  31.856  28.754  1.00  0.00     0.010 A 
ATOM     28  C   UNL A   1      36.475  29.874  29.372  1.00  0.00     0.010 A 
ATOM     29  C   UNL A   1      37.673  30.594  29.373  1.00  0.00    -0.014 A 
BRANCH  29  30
ATOM     30  C   UNL A   1      38.887  30.022  30.009  1.00  0.00     0.031 A 
ATOM     31  C   UNL A   1      39.296  30.453  31.392  1.00  0.00     0.074 A 
ATOM     32  C   UNL A   1      39.630  29.127  29.326  1.00  0.00     0.049 A 
ATOM     33  N   UNL A   1      40.311  30.051  32.113  1.00  0.00    -0.248 NA
ATOM     34  C   UNL A   1      38.480  31.492  32.040  1.00  0.00     0.031 C 
ATOM     35  C   UNL A   1      39.361  28.678  27.957  1.00  0.00     0.029 A 
ATOM     36  N   UNL A   1      40.751  28.425  29.688  1.00  0.00    -0.354 N 
ATOM     37  C   UNL A   1      40.253  30.786  33.293  1.00  0.00     0.074 A 
ATOM     38  C   UNL A   1      39.155  31.715  33.155  1.00  0.00     0.031 C 
ATOM     39  C   UNL A   1      40.252  27.734  27.620  1.00  0.00     0.029 A 
ATOM     40  C   UNL A   1      41.194  27.553  28.719  1.00  0.00     0.049 A 
ATOM     41  H   UNL A   1      41.198  28.536  30.558  1.00  0.00     0.167 HD
ATOM     42  C   UNL A   1      41.026  30.674  34.402  1.00  0.00     0.034 A 
ATOM     43  C   UNL A   1      42.242  26.706  28.715  1.00  0.00     0.034 A 
ATOM     44  C   UNL A   1      42.118  29.740  34.519  1.00  0.00     0.049 A 
ATOM     45  C   UNL A   1      43.110  26.628  29.945  1.00  0.00     0.074 A 
ATOM     46  C   UNL A   1      42.938  29.508  35.610  1.00  0.00     0.029 A 
ATOM     47  N   UNL A   1      42.556  28.894  33.507  1.00  0.00    -0.354 N 
ATOM     48  N   UNL A   1      43.003  27.287  31.076  1.00  0.00    -0.248 NA
ATOM     49  C   UNL A   1      44.230  25.681  29.902  1.00  0.00     0.031 C 
ATOM     50  C   UNL A   1      43.925  28.595  35.228  1.00  0.00     0.029 A 
ATOM     51  C   UNL A   1      43.659  28.171  33.936  1.00  0.00     0.049 A 
ATOM     52  H   UNL A   1      42.143  28.818  32.617  1.00  0.00     0.167 HD
ATOM     53  C   UNL A   1      44.023  26.807  31.892  1.00  0.00     0.074 A 
ATOM     54  C   UNL A   1      44.717  25.790  31.129  1.00  0.00     0.031 C 
ATOM     55  C   UNL A   1      44.353  27.169  33.159  1.00  0.00     0.034 A 
BRANCH  42  56
ATOM     56  C   UNL A   1      40.730  31.603  35.557  1.00  0.00     0.023 A 
ATOM     57  C   UNL A   1      39.566  31.468  36.337  1.00  0.00     0.031 A 
ATOM     58  C   UNL A   1      41.612  32.650  35.873  1.00  0.00     0.131 A 
ATOM     59  C   UNL A   1      39.282  32.408  37.339  1.00  0.00     0.055 A 
ATOM     60  C   UNL A   1      41.369  33.525  36.933  1.00  0.00     0.041 A 
ATOM     61  F   UNL A   1      42.725  32.848  35.150  1.00  0.00    -0.206 F 
ATOM     62  C   UNL A   1      40.190  33.418  37.664  1.00  0.00     0.022 A 
BRANCH  59  63
ATOM     63  S   UNL A   1      37.636  32.389  38.102  1.00  0.00     0.124 S 
ATOM     64  O   UNL A   1      36.856  33.162  37.138  1.00  0.00    -0.237 OA
ATOM     65  O   UNL A   1      37.336  30.963  38.169  1.00  0.00    -0.237 OA
ATOM     66  O   UNL A   1      37.846  33.045  39.391  1.00  0.00    -0.744 OA
ENDBRANCH  59  63
ENDBRANCH  42  56
BRANCH  43  67
ATOM     67  C   UNL A   1      42.538  25.873  27.512  1.00  0.00     0.023 A 
ATOM     68  C   UNL A   1      42.072  24.553  27.409  1.00  0.00     0.031 A 
ATOM     69  C   UNL A   1      43.333  26.373  26.465  1.00  0.00     0.131 A 
ATOM     70  C   UNL A   1      42.452  23.761  26.314  1.00  0.00     0.055 A 
ATOM     71  C   UNL A   1      43.650  25.604  25.345  1.00  0.00     0.041 A 
ATOM     72  F   UNL A   1      43.806  27.629  26.510  1.00  0.00    -0.206 F 
ATOM     73  C   UNL A   1      43.222  24.283  25.272  1.00  0.00     0.022 A 
BRANCH  70  74
ATOM     74  S   UNL A   1      42.018  21.999  26.324  1.00  0.00     0.124 S 
ATOM     75  O   UNL A   1      40.587  22.046  26.049  1.00  0.00    -0.237 OA
ATOM     76  O   UNL A   1      42.861  21.473  25.258  1.00  0.00    -0.237 OA
ATOM     77  O   UNL A   1      42.381  21.569  27.673  1.00  0.00    -0.744 OA
ENDBRANCH  70  74
ENDBRANCH  43  67
BRANCH  55  78
ATOM     78  C   UNL A   1      45.489  26.418  33.815  1.00  0.00     0.023 A 
ATOM     79  C   UNL A   1      45.300  25.163  34.421  1.00  0.00     0.031 A 
ATOM     80  C   UNL A   1      46.777  26.982  33.856  1.00  0.00     0.131 A 
ATOM     81  C   UNL A   1      46.359  24.553  35.108  1.00  0.00     0.055 A 
ATOM     82  C   UNL A   1      47.848  26.329  34.468  1.00  0.00     0.041 A 
ATOM     83  F   UNL A   1      47.018  28.181  33.301  1.00  0.00    -0.206 F 
ATOM     84  C   UNL A   1      47.638  25.116  35.116  1.00  0.00     0.022 A 
BRANCH  81  85
ATOM     85  S   UNL A   1      46.010  23.083  36.111  1.00  0.00     0.124 S 
ATOM     86  O   UNL A   1      44.766  22.603  35.519  1.00  0.00    -0.237 OA
ATOM     87  O   UNL A   1      47.190  22.257  35.875  1.00  0.00    -0.237 OA
ATOM     88  O   UNL A   1      45.888  23.615  37.467  1.00  0.00    -0.744 OA
ENDBRANCH  81  85
ENDBRANCH  55  78
ENDBRANCH  29  30
ENDBRANCH  21  24
ENDBRANCH  19  20
ENDBRANCH   1  19
TORSDOF 16
ENDMDL
MODEL 3
REMARK VINA RESULT:     -11.2      2.113      2.405
REMARK SMILES C[C@@H]1CCC[C@](C#N)([C@H](O)C(=O)NCCCNC(=O)c2ccc(-c3c4nc(c(-c5cc(S(=O)(=O)[O-])ccc5F)c5ccc([nH]5)c(-c5cc(S(=O)(=O)[O-])ccc5F)c5nc(c(-c6cc(S(=O)(=O)[O-])ccc6F)c6ccc3[nH]6)C=C5)C=C4)cc2)C1
REMARK SMILES IDX 15 1 14 2 13 3 11 4 12 5 9 7 6 8 1 9 2 10 3 11 83 12 4 13
REMARK SMILES IDX 5 14 7 15 8 16 10 17 16 19 17 20 18 21 19 23 20 24 21 25
REMARK SMILES IDX 82 26 22 27 81 28 23 29 24 30 25 31 75 32 26 33 80 34 74 35
REMARK SMILES IDX 76 36 27 37 79 38 73 39 72 40 28 42 60 43 40 44 59 45 41 46
REMARK SMILES IDX 44 47 58 48 77 49 42 50 43 51 57 53 78 54 45 55 29 56 30 57
REMARK SMILES IDX 38 58 31 59 37 60 39 61 36 62 32 63 33 64 34 65 35 66 61 67
REMARK SMILES IDX 62 68 70 69 63 70 69 71 71 72 68 73 64 74 65 75 66 76 67 77
REMARK SMILES IDX 46 78 47 79 55 80 48 81 54 82 56 83 53 84 49 85 50 86 51 87
REMARK SMILES IDX 52 88
REMARK H PARENT 13 6 10 18 17 22 76 41 44 52
REMARK Flexibility Score: inf
ROOT
ATOM      1  C   UNL A   1      31.866  28.956  26.125  1.00  0.00     0.042 C 
ENDROOT
BRANCH   1   2
ATOM      2  C   UNL A   1      31.889  29.742  24.838  1.00  0.00     0.117 C 
BRANCH   2   3
ATOM      3  N   UNL A   1      32.962  29.474  23.929  1.00  0.00    -0.354 N 
ATOM      4  C   UNL A   1      33.006  28.566  22.916  1.00  0.00     0.250 C 
ATOM      5  O   UNL A   1      33.995  28.621  22.173  1.00  0.00    -0.272 OA
ATOM      6  H   UNL A   1      33.774  30.016  24.054  1.00  0.00     0.163 HD
BRANCH   4   7
ATOM      7  C   UNL A   1      31.948  27.431  22.713  1.00  0.00     0.223 C 
BRANCH   7   8
ATOM      8  C   UNL A   1      32.352  25.904  22.785  1.00  0.00     0.092 C 
ATOM      9  C   UNL A   1      29.985  25.822  25.291  1.00  0.00     0.008 C 
ATOM     10  C   UNL A   1      30.996  24.782  24.786  1.00  0.00    -0.013 C 
ATOM     11  C   UNL A   1      32.272  24.733  25.631  1.00  0.00     0.003 C 
ATOM     12  C   UNL A   1      31.385  24.789  23.295  1.00  0.00     0.029 C 
ATOM     13  C   UNL A   1      33.367  25.708  25.198  1.00  0.00     0.002 C 
ATOM     14  C   UNL A   1      33.623  25.741  23.685  1.00  0.00     0.025 C 
BRANCH   8  15
ATOM     15  C   UNL A   1      32.742  25.534  21.394  1.00  0.00     0.072 C 
ATOM     16  N   UNL A   1      33.034  25.247  20.306  1.00  0.00    -0.198 NA
ENDBRANCH   8  15
ENDBRANCH   7   8
BRANCH   7  17
ATOM     17  O   UNL A   1      31.077  27.831  21.661  1.00  0.00    -0.382 OA
ATOM     18  H   UNL A   1      31.220  27.262  20.889  1.00  0.00     0.211 HD
ENDBRANCH   7  17
ENDBRANCH   4   7
ENDBRANCH   2   3
ENDBRANCH   1   2
BRANCH   1  19
ATOM     19  C   UNL A   1      32.764  29.517  27.201  1.00  0.00     0.118 C 
BRANCH  19  20
ATOM     20  N   UNL A   1      32.834  30.971  27.177  1.00  0.00    -0.352 N 
ATOM     21  C   UNL A   1      33.814  31.816  27.640  1.00  0.00     0.251 C 
ATOM     22  H   UNL A   1      32.060  31.419  26.766  1.00  0.00     0.163 HD
ATOM     23  O   UNL A   1      33.587  33.022  27.695  1.00  0.00    -0.269 OA
BRANCH  21  24
ATOM     24  C   UNL A   1      35.112  31.275  28.102  1.00  0.00     0.039 A 
ATOM     25  C   UNL A   1      36.220  32.122  28.149  1.00  0.00     0.014 A 
ATOM     26  C   UNL A   1      35.242  29.941  28.497  1.00  0.00     0.014 A 
ATOM     27  C   UNL A   1      37.428  31.648  28.659  1.00  0.00     0.010 A 
ATOM     28  C   UNL A   1      36.401  29.513  29.132  1.00  0.00     0.010 A 
ATOM     29  C   UNL A   1      37.516  30.354  29.203  1.00  0.00    -0.014 A 
BRANCH  29  30
ATOM     30  C   UNL A   1      38.772  29.874  29.832  1.00  0.00     0.031 A 
ATOM     31  C   UNL A   1      39.183  30.374  31.191  1.00  0.00     0.074 A 
ATOM     32  C   UNL A   1      39.553  29.000  29.163  1.00  0.00     0.049 A 
ATOM     33  N   UNL A   1      40.233  30.056  31.903  1.00  0.00    -0.248 NA
ATOM     34  C   UNL A   1      38.320  31.386  31.821  1.00  0.00     0.031 C 
ATOM     35  C   UNL A   1      39.285  28.489  27.816  1.00  0.00     0.029 A 
ATOM     36  N   UNL A   1      40.720  28.376  29.524  1.00  0.00    -0.354 N 
ATOM     37  C   UNL A   1      40.155  30.826  33.059  1.00  0.00     0.074 A 
ATOM     38  C   UNL A   1      39.002  31.686  32.914  1.00  0.00     0.031 C 
ATOM     39  C   UNL A   1      40.222  27.587  27.491  1.00  0.00     0.029 A 
ATOM     40  C   UNL A   1      41.194  27.499  28.576  1.00  0.00     0.049 A 
ATOM     41  H   UNL A   1      41.176  28.542  30.381  1.00  0.00     0.167 HD
ATOM     42  C   UNL A   1      40.953  30.797  34.155  1.00  0.00     0.034 A 
ATOM     43  C   UNL A   1      42.289  26.713  28.577  1.00  0.00     0.034 A 
ATOM     44  C   UNL A   1      42.100  29.932  34.280  1.00  0.00     0.049 A 
ATOM     45  C   UNL A   1      43.183  26.727  29.791  1.00  0.00     0.074 A 
ATOM     46  C   UNL A   1      42.952  29.784  35.360  1.00  0.00     0.029 A 
ATOM     47  N   UNL A   1      42.567  29.077  33.287  1.00  0.00    -0.354 N 
ATOM     48  N   UNL A   1      43.059  27.417  30.902  1.00  0.00    -0.248 NA
ATOM     49  C   UNL A   1      44.356  25.845  29.756  1.00  0.00     0.031 C 
ATOM     50  C   UNL A   1      43.983  28.916  34.988  1.00  0.00     0.029 A 
ATOM     51  C   UNL A   1      43.718  28.434  33.717  1.00  0.00     0.049 A 
ATOM     52  H   UNL A   1      42.142  28.948  32.409  1.00  0.00     0.167 HD
ATOM     53  C   UNL A   1      44.122  27.025  31.712  1.00  0.00     0.074 A 
ATOM     54  C   UNL A   1      44.859  26.024  30.967  1.00  0.00     0.031 C 
ATOM     55  C   UNL A   1      44.454  27.448  32.959  1.00  0.00     0.034 A 
BRANCH  42  56
ATOM     56  C   UNL A   1      40.626  31.746  35.284  1.00  0.00     0.023 A 
ATOM     57  C   UNL A   1      39.564  31.501  36.174  1.00  0.00     0.031 A 
ATOM     58  C   UNL A   1      41.373  32.922  35.465  1.00  0.00     0.131 A 
ATOM     59  C   UNL A   1      39.233  32.453  37.150  1.00  0.00     0.055 A 
ATOM     60  C   UNL A   1      41.098  33.820  36.498  1.00  0.00     0.041 A 
ATOM     61  F   UNL A   1      42.382  33.227  34.633  1.00  0.00    -0.206 F 
ATOM     62  C   UNL A   1      40.012  33.597  37.339  1.00  0.00     0.022 A 
BRANCH  59  63
ATOM     63  S   UNL A   1      37.677  32.254  38.062  1.00  0.00     0.124 S 
ATOM     64  O   UNL A   1      36.802  33.187  37.356  1.00  0.00    -0.237 OA
ATOM     65  O   UNL A   1      37.383  30.838  37.878  1.00  0.00    -0.237 OA
ATOM     66  O   UNL A   1      38.025  32.649  39.425  1.00  0.00    -0.744 OA
ENDBRANCH  59  63
ENDBRANCH  42  56
BRANCH  43  67
ATOM     67  C   UNL A   1      42.609  25.858  27.396  1.00  0.00     0.023 A 
ATOM     68  C   UNL A   1      42.153  24.533  27.312  1.00  0.00     0.031 A 
ATOM     69  C   UNL A   1      43.420  26.341  26.353  1.00  0.00     0.131 A 
ATOM     70  C   UNL A   1      42.555  23.721  26.240  1.00  0.00     0.055 A 
ATOM     71  C   UNL A   1      43.759  25.552  25.254  1.00  0.00     0.041 A 
ATOM     72  F   UNL A   1      43.885  27.601  26.381  1.00  0.00    -0.206 F 
ATOM     73  C   UNL A   1      43.340  24.227  25.201  1.00  0.00     0.022 A 
BRANCH  70  74
ATOM     74  S   UNL A   1      42.131  21.958  26.279  1.00  0.00     0.124 S 
ATOM     75  O   UNL A   1      43.024  21.417  25.259  1.00  0.00    -0.237 OA
ATOM     76  O   UNL A   1      42.440  21.602  27.658  1.00  0.00    -0.237 OA
ATOM     77  O   UNL A   1      40.711  21.944  25.936  1.00  0.00    -0.744 OA
ENDBRANCH  70  74
ENDBRANCH  43  67
BRANCH  55  78
ATOM     78  C   UNL A   1      45.644  26.786  33.615  1.00  0.00     0.023 A 
ATOM     79  C   UNL A   1      46.945  27.305  33.493  1.00  0.00     0.031 A 
ATOM     80  C   UNL A   1      45.474  25.601  34.354  1.00  0.00     0.131 A 
ATOM     81  C   UNL A   1      48.031  26.599  34.031  1.00  0.00     0.055 A 
ATOM     82  C   UNL A   1      46.549  24.949  34.959  1.00  0.00     0.041 A 
ATOM     83  F   UNL A   1      44.256  25.054  34.500  1.00  0.00    -0.206 F 
ATOM     84  C   UNL A   1      47.840  25.438  34.783  1.00  0.00     0.022 A 
BRANCH  81  85
ATOM     85  S   UNL A   1      49.711  27.143  33.614  1.00  0.00     0.124 S 
ATOM     86  O   UNL A   1      50.322  25.904  33.147  1.00  0.00    -0.237 OA
ATOM     87  O   UNL A   1      49.465  28.158  32.593  1.00  0.00    -0.237 OA
ATOM     88  O   UNL A   1      50.230  27.654  34.882  1.00  0.00    -0.744 OA
ENDBRANCH  81  85
ENDBRANCH  55  78
ENDBRANCH  29  30
ENDBRANCH  21  24
ENDBRANCH  19  20
ENDBRANCH   1  19
TORSDOF 16
ENDMDL
