MODEL 1
REMARK VINA RESULT:     -12.2      0.000      0.000
REMARK SMILES Cc1cc(F)cc(N[C@@](C)(C(=O)NCCCNC(=O)c2ccc(-c3c4nc(c(-c5cc(S(=O)(=O)[O-])ccc5F)c5ccc([nH]5)c(-c5cc(S(=O)(=O)[O-])ccc5F)c5nc(c(-c6cc(S(=O)(=O)[O-])ccc6F)c6ccc3[nH]6)C=C5)C=C4)cc2)c2ccc(O)cc2)c1
REMARK SMILES IDX 15 1 14 2 13 3 11 4 12 5 9 7 10 8 8 9 7 11 1 12 2 13 3 14
REMARK SMILES IDX 90 15 4 16 5 17 6 18 83 19 84 20 89 21 85 22 88 23 86 24
REMARK SMILES IDX 87 25 16 27 17 28 18 29 19 31 20 32 21 33 82 34 22 35 81 36
REMARK SMILES IDX 23 37 24 38 25 39 75 40 26 41 80 42 74 43 76 44 27 45 79 46
REMARK SMILES IDX 73 47 72 48 28 50 60 51 40 52 59 53 41 54 44 55 58 56 77 57
REMARK SMILES IDX 42 58 43 59 57 61 78 62 45 63 29 64 30 65 38 66 31 67 37 68
REMARK SMILES IDX 39 69 36 70 32 71 33 72 34 73 35 74 61 75 62 76 70 77 63 78
REMARK SMILES IDX 69 79 71 80 68 81 64 82 65 83 66 84 67 85 46 86 47 87 55 88
REMARK SMILES IDX 48 89 54 90 56 91 53 92 49 93 50 94 51 95 52 96
REMARK H PARENT 13 6 8 10 87 26 17 30 76 49 44 60
REMARK Flexibility Score: inf
ROOT
ATOM      1  C   UNL A   1      33.275  27.928  26.880  1.00  0.00     0.042 C 
ENDROOT
BRANCH   1   2
ATOM      2  C   UNL A   1      31.764  28.078  26.808  1.00  0.00     0.117 C 
BRANCH   2   3
ATOM      3  N   UNL A   1      31.077  26.804  26.917  1.00  0.00    -0.354 N 
ATOM      4  C   UNL A   1      30.763  25.827  26.011  1.00  0.00     0.250 C 
ATOM      5  O   UNL A   1      29.990  24.968  26.456  1.00  0.00    -0.272 OA
ATOM      6  H   UNL A   1      30.775  26.600  27.831  1.00  0.00     0.163 HD
BRANCH   4   7
ATOM      7  C   UNL A   1      31.320  25.819  24.522  1.00  0.00     0.139 C 
ATOM      8  C   UNL A   1      30.692  24.661  23.706  1.00  0.00     0.051 C 
BRANCH   7   9
ATOM      9  N   UNL A   1      32.793  25.590  24.614  1.00  0.00    -0.368 N 
ATOM     10  H   UNL A   1      33.338  26.383  24.400  1.00  0.00     0.161 HD
BRANCH   9  11
ATOM     11  C   UNL A   1      33.534  24.467  24.943  1.00  0.00     0.038 A 
ATOM     12  C   UNL A   1      36.619  22.722  23.463  1.00  0.00     0.044 C 
ATOM     13  C   UNL A   1      35.538  23.123  24.421  1.00  0.00    -0.046 A 
ATOM     14  C   UNL A   1      35.519  22.594  25.709  1.00  0.00     0.042 A 
ATOM     15  C   UNL A   1      34.567  24.078  24.066  1.00  0.00     0.029 A 
ATOM     16  C   UNL A   1      34.466  22.909  26.552  1.00  0.00     0.125 A 
ATOM     17  F   UNL A   1      34.444  22.396  27.791  1.00  0.00    -0.207 F 
ATOM     18  C   UNL A   1      33.452  23.779  26.154  1.00  0.00     0.065 A 
ENDBRANCH   9  11
ENDBRANCH   7   9
BRANCH   7  19
ATOM     19  C   UNL A   1      30.914  27.065  23.681  1.00  0.00    -0.013 A 
ATOM     20  C   UNL A   1      31.888  27.850  23.026  1.00  0.00     0.010 A 
ATOM     21  C   UNL A   1      29.568  27.431  23.486  1.00  0.00     0.010 A 
ATOM     22  C   UNL A   1      31.548  29.049  22.394  1.00  0.00     0.046 A 
ATOM     23  C   UNL A   1      29.221  28.618  22.835  1.00  0.00     0.046 A 
ATOM     24  C   UNL A   1      30.220  29.439  22.335  1.00  0.00     0.115 A 
BRANCH  24  25
ATOM     25  O   UNL A   1      29.925  30.648  21.778  1.00  0.00    -0.508 OA
ATOM     26  H   UNL A   1      29.298  30.703  21.084  1.00  0.00     0.293 HD
ENDBRANCH  24  25
ENDBRANCH   7  19
ENDBRANCH   4   7
ENDBRANCH   2   3
ENDBRANCH   1   2
BRANCH   1  27
ATOM     27  C   UNL A   1      34.050  28.982  26.101  1.00  0.00     0.118 C 
BRANCH  27  28
ATOM     28  N   UNL A   1      33.788  30.336  26.572  1.00  0.00    -0.352 N 
ATOM     29  C   UNL A   1      34.415  31.078  27.546  1.00  0.00     0.251 C 
ATOM     30  H   UNL A   1      33.042  30.793  26.120  1.00  0.00     0.163 HD
ATOM     31  O   UNL A   1      33.902  32.126  27.918  1.00  0.00    -0.269 OA
BRANCH  29  32
ATOM     32  C   UNL A   1      35.677  30.602  28.159  1.00  0.00     0.039 A 
ATOM     33  C   UNL A   1      35.614  29.804  29.305  1.00  0.00     0.014 A 
ATOM     34  C   UNL A   1      36.919  30.947  27.623  1.00  0.00     0.014 A 
ATOM     35  C   UNL A   1      36.790  29.297  29.864  1.00  0.00     0.010 A 
ATOM     36  C   UNL A   1      38.078  30.356  28.116  1.00  0.00     0.010 A 
ATOM     37  C   UNL A   1      38.031  29.534  29.250  1.00  0.00    -0.014 A 
BRANCH  37  38
ATOM     38  C   UNL A   1      39.287  28.949  29.789  1.00  0.00     0.031 A 
ATOM     39  C   UNL A   1      39.966  29.581  30.975  1.00  0.00     0.074 A 
ATOM     40  C   UNL A   1      39.854  27.894  29.172  1.00  0.00     0.049 A 
ATOM     41  N   UNL A   1      41.102  29.270  31.545  1.00  0.00    -0.248 NA
ATOM     42  C   UNL A   1      39.295  30.745  31.571  1.00  0.00     0.031 C 
ATOM     43  C   UNL A   1      39.323  27.228  27.981  1.00  0.00     0.029 A 
ATOM     44  N   UNL A   1      41.007  27.205  29.450  1.00  0.00    -0.354 N 
ATOM     45  C   UNL A   1      41.290  30.208  32.554  1.00  0.00     0.074 A 
ATOM     46  C   UNL A   1      40.191  31.145  32.459  1.00  0.00     0.031 C 
ATOM     47  C   UNL A   1      40.133  26.212  27.648  1.00  0.00     0.029 A 
ATOM     48  C   UNL A   1      41.267  26.184  28.566  1.00  0.00     0.049 A 
ATOM     49  H   UNL A   1      41.593  27.420  30.212  1.00  0.00     0.167 HD
ATOM     50  C   UNL A   1      42.269  30.267  33.493  1.00  0.00     0.034 A 
ATOM     51  C   UNL A   1      42.308  25.331  28.490  1.00  0.00     0.034 A 
ATOM     52  C   UNL A   1      43.357  29.321  33.568  1.00  0.00     0.049 A 
ATOM     53  C   UNL A   1      43.400  25.421  29.523  1.00  0.00     0.074 A 
ATOM     54  C   UNL A   1      44.372  29.245  34.506  1.00  0.00     0.029 A 
ATOM     55  N   UNL A   1      43.585  28.294  32.658  1.00  0.00    -0.354 N 
ATOM     56  N   UNL A   1      43.531  26.273  30.514  1.00  0.00    -0.248 NA
ATOM     57  C   UNL A   1      44.475  24.426  29.436  1.00  0.00     0.031 C 
ATOM     58  C   UNL A   1      45.254  28.231  34.118  1.00  0.00     0.029 A 
ATOM     59  C   UNL A   1      44.743  27.607  32.990  1.00  0.00     0.049 A 
ATOM     60  H   UNL A   1      43.007  28.084  31.889  1.00  0.00     0.167 HD
ATOM     61  C   UNL A   1      44.692  25.899  31.186  1.00  0.00     0.074 A 
ATOM     62  C   UNL A   1      45.212  24.737  30.492  1.00  0.00     0.031 C 
ATOM     63  C   UNL A   1      45.269  26.461  32.280  1.00  0.00     0.034 A 
BRANCH  50  64
ATOM     64  C   UNL A   1      42.214  31.416  34.476  1.00  0.00     0.023 A 
ATOM     65  C   UNL A   1      41.312  31.421  35.557  1.00  0.00     0.031 A 
ATOM     66  C   UNL A   1      43.018  32.555  34.295  1.00  0.00     0.131 A 
ATOM     67  C   UNL A   1      41.153  32.576  36.336  1.00  0.00     0.055 A 
ATOM     68  C   UNL A   1      42.931  33.663  35.141  1.00  0.00     0.041 A 
ATOM     69  F   UNL A   1      43.886  32.625  33.273  1.00  0.00    -0.206 F 
ATOM     70  C   UNL A   1      41.976  33.688  36.154  1.00  0.00     0.022 A 
BRANCH  67  71
ATOM     71  S   UNL A   1      39.718  32.678  37.443  1.00  0.00     0.124 S 
ATOM     72  O   UNL A   1      40.356  32.638  38.757  1.00  0.00    -0.237 OA
ATOM     73  O   UNL A   1      39.117  33.951  37.063  1.00  0.00    -0.237 OA
ATOM     74  O   UNL A   1      38.937  31.491  37.103  1.00  0.00    -0.744 OA
ENDBRANCH  67  71
ENDBRANCH  50  64
BRANCH  51  75
ATOM     75  C   UNL A   1      42.367  24.330  27.387  1.00  0.00     0.023 A 
ATOM     76  C   UNL A   1      41.579  23.168  27.411  1.00  0.00     0.031 A 
ATOM     77  C   UNL A   1      43.213  24.531  26.281  1.00  0.00     0.131 A 
ATOM     78  C   UNL A   1      41.673  22.239  26.363  1.00  0.00     0.055 A 
ATOM     79  C   UNL A   1      43.266  23.628  25.219  1.00  0.00     0.041 A 
ATOM     80  F   UNL A   1      43.980  25.630  26.206  1.00  0.00    -0.206 F 
ATOM     81  C   UNL A   1      42.499  22.470  25.260  1.00  0.00     0.022 A 
BRANCH  78  82
ATOM     82  S   UNL A   1      40.733  20.692  26.481  1.00  0.00     0.124 S 
ATOM     83  O   UNL A   1      40.789  20.420  27.913  1.00  0.00    -0.237 OA
ATOM     84  O   UNL A   1      39.431  21.086  25.952  1.00  0.00    -0.237 OA
ATOM     85  O   UNL A   1      41.491  19.768  25.639  1.00  0.00    -0.744 OA
ENDBRANCH  78  82
ENDBRANCH  51  75
BRANCH  63  86
ATOM     86  C   UNL A   1      46.513  25.795  32.821  1.00  0.00     0.023 A 
ATOM     87  C   UNL A   1      46.450  24.744  33.753  1.00  0.00     0.031 A 
ATOM     88  C   UNL A   1      47.784  26.227  32.402  1.00  0.00     0.131 A 
ATOM     89  C   UNL A   1      47.634  24.203  34.280  1.00  0.00     0.055 A 
ATOM     90  C   UNL A   1      48.958  25.638  32.875  1.00  0.00     0.041 A 
ATOM     91  F   UNL A   1      47.908  27.231  31.519  1.00  0.00    -0.206 F 
ATOM     92  C   UNL A   1      48.886  24.629  33.830  1.00  0.00     0.022 A 
BRANCH  89  93
ATOM     93  S   UNL A   1      47.518  23.010  35.641  1.00  0.00     0.124 S 
ATOM     94  O   UNL A   1      47.765  21.745  34.957  1.00  0.00    -0.237 OA
ATOM     95  O   UNL A   1      48.570  23.464  36.544  1.00  0.00    -0.237 OA
ATOM     96  O   UNL A   1      46.155  23.189  36.139  1.00  0.00    -0.744 OA
ENDBRANCH  89  93
ENDBRANCH  63  86
ENDBRANCH  37  38
ENDBRANCH  29  32
ENDBRANCH  27  28
ENDBRANCH   1  27
TORSDOF 17
ENDMDL
MODEL 2
REMARK VINA RESULT:     -12.2      1.308      1.558
REMARK SMILES Cc1cc(F)cc(N[C@@](C)(C(=O)NCCCNC(=O)c2ccc(-c3c4nc(c(-c5cc(S(=O)(=O)[O-])ccc5F)c5ccc([nH]5)c(-c5cc(S(=O)(=O)[O-])ccc5F)c5nc(c(-c6cc(S(=O)(=O)[O-])ccc6F)c6ccc3[nH]6)C=C5)C=C4)cc2)c2ccc(O)cc2)c1
REMARK SMILES IDX 15 1 14 2 13 3 11 4 12 5 9 7 10 8 8 9 7 11 1 12 2 13 3 14
REMARK SMILES IDX 90 15 4 16 5 17 6 18 83 19 84 20 89 21 85 22 88 23 86 24
REMARK SMILES IDX 87 25 16 27 17 28 18 29 19 31 20 32 21 33 82 34 22 35 81 36
REMARK SMILES IDX 23 37 24 38 25 39 75 40 26 41 80 42 74 43 76 44 27 45 79 46
REMARK SMILES IDX 73 47 72 48 28 50 60 51 40 52 59 53 41 54 44 55 58 56 77 57
REMARK SMILES IDX 42 58 43 59 57 61 78 62 45 63 29 64 30 65 38 66 31 67 37 68
REMARK SMILES IDX 39 69 36 70 32 71 33 72 34 73 35 74 61 75 62 76 70 77 63 78
REMARK SMILES IDX 69 79 71 80 68 81 64 82 65 83 66 84 67 85 46 86 47 87 55 88
REMARK SMILES IDX 48 89 54 90 56 91 53 92 49 93 50 94 51 95 52 96
REMARK H PARENT 13 6 8 10 87 26 17 30 76 49 44 60
REMARK Flexibility Score: inf
ROOT
ATOM      1  C   UNL A   1      33.263  28.034  26.940  1.00  0.00     0.042 C 
ENDROOT
BRANCH   1   2
ATOM      2  C   UNL A   1      31.754  28.195  26.838  1.00  0.00     0.117 C 
BRANCH   2   3
ATOM      3  N   UNL A   1      31.056  26.927  26.945  1.00  0.00    -0.354 N 
ATOM      4  C   UNL A   1      30.759  25.941  26.043  1.00  0.00     0.250 C 
ATOM      5  O   UNL A   1      29.968  25.093  26.478  1.00  0.00    -0.272 OA
ATOM      6  H   UNL A   1      30.728  26.737  27.853  1.00  0.00     0.163 HD
BRANCH   4   7
ATOM      7  C   UNL A   1      31.354  25.911  24.570  1.00  0.00     0.139 C 
ATOM      8  C   UNL A   1      30.769  24.723  23.764  1.00  0.00     0.051 C 
BRANCH   7   9
ATOM      9  N   UNL A   1      32.829  25.712  24.704  1.00  0.00    -0.368 N 
ATOM     10  H   UNL A   1      33.363  26.518  24.518  1.00  0.00     0.161 HD
BRANCH   9  11
ATOM     11  C   UNL A   1      33.583  24.600  25.043  1.00  0.00     0.038 A 
ATOM     12  C   UNL A   1      36.704  22.894  23.593  1.00  0.00     0.044 C 
ATOM     13  C   UNL A   1      35.610  23.283  24.541  1.00  0.00    -0.046 A 
ATOM     14  C   UNL A   1      35.587  22.757  25.830  1.00  0.00     0.042 A 
ATOM     15  C   UNL A   1      34.628  24.223  24.176  1.00  0.00     0.029 A 
ATOM     16  C   UNL A   1      34.522  23.058  26.664  1.00  0.00     0.125 A 
ATOM     17  F   UNL A   1      34.498  22.549  27.904  1.00  0.00    -0.207 F 
ATOM     18  C   UNL A   1      33.500  23.914  26.255  1.00  0.00     0.065 A 
ENDBRANCH   9  11
ENDBRANCH   7   9
BRANCH   7  19
ATOM     19  C   UNL A   1      30.948  27.130  23.690  1.00  0.00    -0.013 A 
ATOM     20  C   UNL A   1      31.925  27.925  23.053  1.00  0.00     0.010 A 
ATOM     21  C   UNL A   1      29.602  27.460  23.443  1.00  0.00     0.010 A 
ATOM     22  C   UNL A   1      31.579  29.104  22.386  1.00  0.00     0.046 A 
ATOM     23  C   UNL A   1      29.250  28.626  22.757  1.00  0.00     0.046 A 
ATOM     24  C   UNL A   1      30.246  29.461  22.274  1.00  0.00     0.115 A 
BRANCH  24  25
ATOM     25  O   UNL A   1      29.942  30.651  21.684  1.00  0.00    -0.508 OA
ATOM     26  H   UNL A   1      30.144  30.790  20.779  1.00  0.00     0.293 HD
ENDBRANCH  24  25
ENDBRANCH   7  19
ENDBRANCH   4   7
ENDBRANCH   2   3
ENDBRANCH   1   2
BRANCH   1  27
ATOM     27  C   UNL A   1      34.060  29.089  26.185  1.00  0.00     0.118 C 
BRANCH  27  28
ATOM     28  N   UNL A   1      33.803  30.440  26.666  1.00  0.00    -0.352 N 
ATOM     29  C   UNL A   1      34.433  31.174  27.644  1.00  0.00     0.251 C 
ATOM     30  H   UNL A   1      33.058  30.902  26.217  1.00  0.00     0.163 HD
ATOM     31  O   UNL A   1      33.923  32.222  28.024  1.00  0.00    -0.269 OA
BRANCH  29  32
ATOM     32  C   UNL A   1      35.694  30.691  28.253  1.00  0.00     0.039 A 
ATOM     33  C   UNL A   1      35.629  29.807  29.334  1.00  0.00     0.014 A 
ATOM     34  C   UNL A   1      36.937  31.111  27.776  1.00  0.00     0.014 A 
ATOM     35  C   UNL A   1      36.807  29.294  29.884  1.00  0.00     0.010 A 
ATOM     36  C   UNL A   1      38.102  30.519  28.254  1.00  0.00     0.010 A 
ATOM     37  C   UNL A   1      38.053  29.613  29.322  1.00  0.00    -0.014 A 
BRANCH  37  38
ATOM     38  C   UNL A   1      39.314  29.027  29.848  1.00  0.00     0.031 A 
ATOM     39  C   UNL A   1      40.004  29.654  31.030  1.00  0.00     0.074 A 
ATOM     40  C   UNL A   1      39.876  27.974  29.223  1.00  0.00     0.049 A 
ATOM     41  N   UNL A   1      41.144  29.342  31.589  1.00  0.00    -0.248 NA
ATOM     42  C   UNL A   1      39.338  30.817  31.636  1.00  0.00     0.031 C 
ATOM     43  C   UNL A   1      39.334  27.311  28.034  1.00  0.00     0.029 A 
ATOM     44  N   UNL A   1      41.031  27.283  29.489  1.00  0.00    -0.354 N 
ATOM     45  C   UNL A   1      41.341  30.277  32.600  1.00  0.00     0.074 A 
ATOM     46  C   UNL A   1      40.241  31.214  32.517  1.00  0.00     0.031 C 
ATOM     47  C   UNL A   1      40.141  26.296  27.692  1.00  0.00     0.029 A 
ATOM     48  C   UNL A   1      41.283  26.265  28.599  1.00  0.00     0.049 A 
ATOM     49  H   UNL A   1      41.624  27.496  30.246  1.00  0.00     0.167 HD
ATOM     50  C   UNL A   1      42.328  30.333  33.530  1.00  0.00     0.034 A 
ATOM     51  C   UNL A   1      42.323  25.412  28.512  1.00  0.00     0.034 A 
ATOM     52  C   UNL A   1      43.417  29.387  33.594  1.00  0.00     0.049 A 
ATOM     53  C   UNL A   1      43.425  25.499  29.536  1.00  0.00     0.074 A 
ATOM     54  C   UNL A   1      44.439  29.308  34.523  1.00  0.00     0.029 A 
ATOM     55  N   UNL A   1      43.636  28.362  32.679  1.00  0.00    -0.354 N 
ATOM     56  N   UNL A   1      43.564  26.348  30.529  1.00  0.00    -0.248 NA
ATOM     57  C   UNL A   1      44.499  24.505  29.436  1.00  0.00     0.031 C 
ATOM     58  C   UNL A   1      45.318  28.295  34.124  1.00  0.00     0.029 A 
ATOM     59  C   UNL A   1      44.798  27.674  32.999  1.00  0.00     0.049 A 
ATOM     60  H   UNL A   1      43.052  28.155  31.914  1.00  0.00     0.167 HD
ATOM     61  C   UNL A   1      44.731  25.972  31.189  1.00  0.00     0.074 A 
ATOM     62  C   UNL A   1      45.245  24.812  30.488  1.00  0.00     0.031 C 
ATOM     63  C   UNL A   1      45.317  26.531  32.281  1.00  0.00     0.034 A 
BRANCH  50  64
ATOM     64  C   UNL A   1      42.281  31.479  34.518  1.00  0.00     0.023 A 
ATOM     65  C   UNL A   1      41.410  31.466  35.624  1.00  0.00     0.031 A 
ATOM     66  C   UNL A   1      43.061  32.632  34.317  1.00  0.00     0.131 A 
ATOM     67  C   UNL A   1      41.254  32.617  36.410  1.00  0.00     0.055 A 
ATOM     68  C   UNL A   1      42.979  33.736  35.168  1.00  0.00     0.041 A 
ATOM     69  F   UNL A   1      43.898  32.719  33.271  1.00  0.00    -0.206 F 
ATOM     70  C   UNL A   1      42.052  33.743  36.208  1.00  0.00     0.022 A 
BRANCH  67  71
ATOM     71  S   UNL A   1      39.850  32.693  37.557  1.00  0.00     0.124 S 
ATOM     72  O   UNL A   1      40.508  32.483  38.844  1.00  0.00    -0.237 OA
ATOM     73  O   UNL A   1      39.321  34.031  37.320  1.00  0.00    -0.237 OA
ATOM     74  O   UNL A   1      38.991  31.594  37.120  1.00  0.00    -0.744 OA
ENDBRANCH  67  71
ENDBRANCH  50  64
BRANCH  51  75
ATOM     75  C   UNL A   1      42.373  24.415  27.405  1.00  0.00     0.023 A 
ATOM     76  C   UNL A   1      41.618  23.232  27.453  1.00  0.00     0.031 A 
ATOM     77  C   UNL A   1      43.177  24.640  26.273  1.00  0.00     0.131 A 
ATOM     78  C   UNL A   1      41.702  22.307  26.400  1.00  0.00     0.055 A 
ATOM     79  C   UNL A   1      43.219  23.740  25.208  1.00  0.00     0.041 A 
ATOM     80  F   UNL A   1      43.911  25.759  26.175  1.00  0.00    -0.206 F 
ATOM     81  C   UNL A   1      42.485  22.562  25.271  1.00  0.00     0.022 A 
BRANCH  78  82
ATOM     82  S   UNL A   1      40.808  20.736  26.545  1.00  0.00     0.124 S 
ATOM     83  O   UNL A   1      41.630  19.850  25.728  1.00  0.00    -0.237 OA
ATOM     84  O   UNL A   1      40.842  20.498  27.985  1.00  0.00    -0.237 OA
ATOM     85  O   UNL A   1      39.488  21.044  25.998  1.00  0.00    -0.744 OA
ENDBRANCH  78  82
ENDBRANCH  51  75
BRANCH  63  86
ATOM     86  C   UNL A   1      46.565  25.863  32.808  1.00  0.00     0.023 A 
ATOM     87  C   UNL A   1      47.840  26.142  32.284  1.00  0.00     0.031 A 
ATOM     88  C   UNL A   1      46.475  24.922  33.850  1.00  0.00     0.131 A 
ATOM     89  C   UNL A   1      48.962  25.445  32.759  1.00  0.00     0.055 A 
ATOM     90  C   UNL A   1      47.603  24.283  34.369  1.00  0.00     0.041 A 
ATOM     91  F   UNL A   1      45.285  24.608  34.388  1.00  0.00    -0.206 F 
ATOM     92  C   UNL A   1      48.853  24.533  33.812  1.00  0.00     0.022 A 
BRANCH  89  93
ATOM     93  S   UNL A   1      50.549  25.663  31.910  1.00  0.00     0.124 S 
ATOM     94  O   UNL A   1      51.480  25.033  32.841  1.00  0.00    -0.237 OA
ATOM     95  O   UNL A   1      50.330  24.957  30.652  1.00  0.00    -0.237 OA
ATOM     96  O   UNL A   1      50.678  27.114  31.791  1.00  0.00    -0.744 OA
ENDBRANCH  89  93
ENDBRANCH  63  86
ENDBRANCH  37  38
ENDBRANCH  29  32
ENDBRANCH  27  28
ENDBRANCH   1  27
TORSDOF 17
ENDMDL
MODEL 3
REMARK VINA RESULT:     -12.0      1.782      3.018
REMARK SMILES Cc1cc(F)cc(N[C@@](C)(C(=O)NCCCNC(=O)c2ccc(-c3c4nc(c(-c5cc(S(=O)(=O)[O-])ccc5F)c5ccc([nH]5)c(-c5cc(S(=O)(=O)[O-])ccc5F)c5nc(c(-c6cc(S(=O)(=O)[O-])ccc6F)c6ccc3[nH]6)C=C5)C=C4)cc2)c2ccc(O)cc2)c1
REMARK SMILES IDX 15 1 14 2 13 3 11 4 12 5 9 7 10 8 8 9 7 11 1 12 2 13 3 14
REMARK SMILES IDX 90 15 4 16 5 17 6 18 83 19 84 20 89 21 85 22 88 23 86 24
REMARK SMILES IDX 87 25 16 27 17 28 18 29 19 31 20 32 21 33 82 34 22 35 81 36
REMARK SMILES IDX 23 37 24 38 25 39 75 40 26 41 80 42 74 43 76 44 27 45 79 46
REMARK SMILES IDX 73 47 72 48 28 50 60 51 40 52 59 53 41 54 44 55 58 56 77 57
REMARK SMILES IDX 42 58 43 59 57 61 78 62 45 63 29 64 30 65 38 66 31 67 37 68
REMARK SMILES IDX 39 69 36 70 32 71 33 72 34 73 35 74 61 75 62 76 70 77 63 78
REMARK SMILES IDX 69 79 71 80 68 81 64 82 65 83 66 84 67 85 46 86 47 87 55 88
REMARK SMILES IDX 48 89 54 90 56 91 53 92 49 93 50 94 51 95 52 96
REMARK H PARENT 13 6 8 10 87 26 17 30 76 49 44 60
REMARK Flexibility Score: inf
ROOT
ATOM      1  C   UNL A   1      32.711  27.629  26.741  1.00  0.00     0.042 C 
ENDROOT
BRANCH   1   2
ATOM      2  C   UNL A   1      32.483  26.382  25.901  1.00  0.00     0.117 C 
BRANCH   2   3
ATOM      3  N   UNL A   1      31.880  25.305  26.664  1.00  0.00    -0.354 N 
ATOM      4  C   UNL A   1      31.688  23.972  26.415  1.00  0.00     0.250 C 
ATOM      5  O   UNL A   1      30.952  23.415  27.239  1.00  0.00    -0.272 OA
ATOM      6  H   UNL A   1      31.539  25.591  27.542  1.00  0.00     0.163 HD
BRANCH   4   7
ATOM      7  C   UNL A   1      32.331  23.226  25.168  1.00  0.00     0.139 C 
ATOM      8  C   UNL A   1      31.925  23.918  23.843  1.00  0.00     0.051 C 
BRANCH   7   9
ATOM      9  N   UNL A   1      31.781  21.837  25.166  1.00  0.00    -0.368 N 
ATOM     10  H   UNL A   1      30.953  21.731  25.687  1.00  0.00     0.161 HD
BRANCH   9  11
ATOM     11  C   UNL A   1      32.223  20.670  24.564  1.00  0.00     0.038 A 
ATOM     12  C   UNL A   1      32.959  17.101  25.781  1.00  0.00     0.044 C 
ATOM     13  C   UNL A   1      32.679  18.263  24.876  1.00  0.00    -0.046 A 
ATOM     14  C   UNL A   1      32.552  18.062  23.504  1.00  0.00     0.042 A 
ATOM     15  C   UNL A   1      32.479  19.558  25.392  1.00  0.00     0.029 A 
ATOM     16  C   UNL A   1      32.379  19.157  22.674  1.00  0.00     0.125 A 
ATOM     17  F   UNL A   1      32.262  18.964  21.352  1.00  0.00    -0.207 F 
ATOM     18  C   UNL A   1      32.283  20.450  23.188  1.00  0.00     0.065 A 
ENDBRANCH   9  11
ENDBRANCH   7   9
BRANCH   7  19
ATOM     19  C   UNL A   1      33.886  23.301  25.109  1.00  0.00    -0.013 A 
ATOM     20  C   UNL A   1      34.563  23.402  23.874  1.00  0.00     0.010 A 
ATOM     21  C   UNL A   1      34.679  23.332  26.272  1.00  0.00     0.010 A 
ATOM     22  C   UNL A   1      35.957  23.321  23.802  1.00  0.00     0.046 A 
ATOM     23  C   UNL A   1      36.074  23.274  26.206  1.00  0.00     0.046 A 
ATOM     24  C   UNL A   1      36.697  23.223  24.968  1.00  0.00     0.115 A 
BRANCH  24  25
ATOM     25  O   UNL A   1      38.048  23.072  24.866  1.00  0.00    -0.508 OA
ATOM     26  H   UNL A   1      38.501  23.400  24.114  1.00  0.00     0.293 HD
ENDBRANCH  24  25
ENDBRANCH   7  19
ENDBRANCH   4   7
ENDBRANCH   2   3
ENDBRANCH   1   2
BRANCH   1  27
ATOM     27  C   UNL A   1      33.868  28.500  26.273  1.00  0.00     0.118 C 
BRANCH  27  28
ATOM     28  N   UNL A   1      33.668  29.911  26.575  1.00  0.00    -0.352 N 
ATOM     29  C   UNL A   1      34.374  30.755  27.402  1.00  0.00     0.251 C 
ATOM     30  H   UNL A   1      32.906  30.328  26.112  1.00  0.00     0.163 HD
ATOM     31  O   UNL A   1      33.910  31.859  27.662  1.00  0.00    -0.269 OA
BRANCH  29  32
ATOM     32  C   UNL A   1      35.661  30.324  27.995  1.00  0.00     0.039 A 
ATOM     33  C   UNL A   1      35.663  29.768  29.278  1.00  0.00     0.014 A 
ATOM     34  C   UNL A   1      36.865  30.477  27.305  1.00  0.00     0.014 A 
ATOM     35  C   UNL A   1      36.858  29.302  29.831  1.00  0.00     0.010 A 
ATOM     36  C   UNL A   1      38.033  29.917  27.812  1.00  0.00     0.010 A 
ATOM     37  C   UNL A   1      38.048  29.334  29.086  1.00  0.00    -0.014 A 
BRANCH  37  38
ATOM     38  C   UNL A   1      39.318  28.782  29.629  1.00  0.00     0.031 A 
ATOM     39  C   UNL A   1      39.997  29.455  30.792  1.00  0.00     0.074 A 
ATOM     40  C   UNL A   1      39.897  27.721  29.035  1.00  0.00     0.049 A 
ATOM     41  N   UNL A   1      41.143  29.176  31.360  1.00  0.00    -0.248 NA
ATOM     42  C   UNL A   1      39.313  30.624  31.364  1.00  0.00     0.031 C 
ATOM     43  C   UNL A   1      39.366  27.016  27.865  1.00  0.00     0.029 A 
ATOM     44  N   UNL A   1      41.062  27.057  29.320  1.00  0.00    -0.354 N 
ATOM     45  C   UNL A   1      41.324  30.142  32.344  1.00  0.00     0.074 A 
ATOM     46  C   UNL A   1      40.210  31.059  32.234  1.00  0.00     0.031 C 
ATOM     47  C   UNL A   1      40.189  26.004  27.552  1.00  0.00     0.029 A 
ATOM     48  C   UNL A   1      41.331  26.017  28.460  1.00  0.00     0.049 A 
ATOM     49  H   UNL A   1      41.651  27.300  30.071  1.00  0.00     0.167 HD
ATOM     50  C   UNL A   1      42.310  30.241  33.272  1.00  0.00     0.034 A 
ATOM     51  C   UNL A   1      42.384  25.179  28.397  1.00  0.00     0.034 A 
ATOM     52  C   UNL A   1      43.413  29.314  33.362  1.00  0.00     0.049 A 
ATOM     53  C   UNL A   1      43.483  25.312  29.418  1.00  0.00     0.074 A 
ATOM     54  C   UNL A   1      44.436  29.278  34.293  1.00  0.00     0.029 A 
ATOM     55  N   UNL A   1      43.649  28.267  32.477  1.00  0.00    -0.354 N 
ATOM     56  N   UNL A   1      43.609  26.191  30.386  1.00  0.00    -0.248 NA
ATOM     57  C   UNL A   1      44.573  24.332  29.347  1.00  0.00     0.031 C 
ATOM     58  C   UNL A   1      45.331  28.268  33.924  1.00  0.00     0.029 A 
ATOM     59  C   UNL A   1      44.821  27.607  32.817  1.00  0.00     0.049 A 
ATOM     60  H   UNL A   1      43.068  28.029  31.718  1.00  0.00     0.167 HD
ATOM     61  C   UNL A   1      44.782  25.853  31.057  1.00  0.00     0.074 A 
ATOM     62  C   UNL A   1      45.314  24.681  30.389  1.00  0.00     0.031 C 
ATOM     63  C   UNL A   1      45.359  26.452  32.131  1.00  0.00     0.034 A 
BRANCH  50  64
ATOM     64  C   UNL A   1      42.245  31.414  34.226  1.00  0.00     0.023 A 
ATOM     65  C   UNL A   1      41.440  31.383  35.381  1.00  0.00     0.031 A 
ATOM     66  C   UNL A   1      42.936  32.606  33.946  1.00  0.00     0.131 A 
ATOM     67  C   UNL A   1      41.254  32.548  36.140  1.00  0.00     0.055 A 
ATOM     68  C   UNL A   1      42.830  33.731  34.767  1.00  0.00     0.041 A 
ATOM     69  F   UNL A   1      43.705  32.711  32.851  1.00  0.00    -0.206 F 
ATOM     70  C   UNL A   1      41.966  33.715  35.858  1.00  0.00     0.022 A 
BRANCH  67  71
ATOM     71  S   UNL A   1      39.915  32.573  37.365  1.00  0.00     0.124 S 
ATOM     72  O   UNL A   1      39.378  33.920  37.187  1.00  0.00    -0.237 OA
ATOM     73  O   UNL A   1      39.060  31.479  36.919  1.00  0.00    -0.237 OA
ATOM     74  O   UNL A   1      40.606  32.350  38.633  1.00  0.00    -0.744 OA
ENDBRANCH  67  71
ENDBRANCH  50  64
BRANCH  51  75
ATOM     75  C   UNL A   1      42.449  24.150  27.319  1.00  0.00     0.023 A 
ATOM     76  C   UNL A   1      41.676  22.981  27.378  1.00  0.00     0.031 A 
ATOM     77  C   UNL A   1      43.288  24.333  26.204  1.00  0.00     0.131 A 
ATOM     78  C   UNL A   1      41.776  22.026  26.352  1.00  0.00     0.055 A 
ATOM     79  C   UNL A   1      43.346  23.404  25.165  1.00  0.00     0.041 A 
ATOM     80  F   UNL A   1      44.041  25.439  26.097  1.00  0.00    -0.206 F 
ATOM     81  C   UNL A   1      42.593  22.239  25.240  1.00  0.00     0.022 A 
BRANCH  78  82
ATOM     82  S   UNL A   1      40.855  20.472  26.515  1.00  0.00     0.124 S 
ATOM     83  O   UNL A   1      40.969  20.207  27.945  1.00  0.00    -0.237 OA
ATOM     84  O   UNL A   1      39.530  20.852  26.035  1.00  0.00    -0.237 OA
ATOM     85  O   UNL A   1      41.587  19.550  25.649  1.00  0.00    -0.744 OA
ENDBRANCH  78  82
ENDBRANCH  51  75
BRANCH  63  86
ATOM     86  C   UNL A   1      46.617  25.819  32.678  1.00  0.00     0.023 A 
ATOM     87  C   UNL A   1      46.578  24.797  33.644  1.00  0.00     0.031 A 
ATOM     88  C   UNL A   1      47.878  26.253  32.230  1.00  0.00     0.131 A 
ATOM     89  C   UNL A   1      47.775  24.288  34.174  1.00  0.00     0.055 A 
ATOM     90  C   UNL A   1      49.064  25.694  32.708  1.00  0.00     0.041 A 
ATOM     91  F   UNL A   1      47.979  27.229  31.314  1.00  0.00    -0.206 F 
ATOM     92  C   UNL A   1      49.017  24.716  33.696  1.00  0.00     0.022 A 
BRANCH  89  93
ATOM     93  S   UNL A   1      47.690  23.139  35.574  1.00  0.00     0.124 S 
ATOM     94  O   UNL A   1      48.631  23.738  36.515  1.00  0.00    -0.237 OA
ATOM     95  O   UNL A   1      46.282  23.207  35.949  1.00  0.00    -0.237 OA
ATOM     96  O   UNL A   1      48.117  21.865  34.999  1.00  0.00    -0.744 OA
ENDBRANCH  89  93
ENDBRANCH  63  86
ENDBRANCH  37  38
ENDBRANCH  29  32
ENDBRANCH  27  28
ENDBRANCH   1  27
TORSDOF 17
ENDMDL
