MODEL 1
REMARK VINA RESULT:     -13.5      0.000      0.000
REMARK SMILES Nn1c(S[C@@H](C(=O)NCCCNC(=O)c2ccc(-c3c4nc(c(-c5cc(S(=O)(=O)[O-])ccc5F)c5ccc([nH]5)c(-c5cc(S(=O)(=O)[O-])ccc5F)c5nc(c(-c6cc(S(=O)(=O)[O-])ccc6F)c6ccc3[nH]6)C=C5)C=C4)cc2)c2ccccc2)nc2ccc(Br)cc2c1=O
REMARK SMILES IDX 10 1 9 2 8 3 6 4 7 5 5 7 4 8 3 9 2 10 92 11 84 12 91 13
REMARK SMILES IDX 93 14 85 15 90 16 86 17 88 18 87 19 89 20 1 21 78 24 79 25
REMARK SMILES IDX 83 26 80 27 82 28 81 29 11 30 12 31 13 32 14 34 15 35 16 36
REMARK SMILES IDX 77 37 17 38 76 39 18 40 19 41 20 42 70 43 21 44 75 45 69 46
REMARK SMILES IDX 71 47 22 48 74 49 68 50 67 51 23 53 55 54 35 55 54 56 36 57
REMARK SMILES IDX 39 58 53 59 72 60 37 61 38 62 52 64 73 65 40 66 24 67 25 68
REMARK SMILES IDX 33 69 26 70 32 71 34 72 31 73 27 74 28 75 29 76 30 77 56 78
REMARK SMILES IDX 57 79 65 80 58 81 64 82 66 83 63 84 59 85 60 86 61 87 62 88
REMARK SMILES IDX 41 89 42 90 50 91 43 92 49 93 51 94 48 95 44 96 45 97 46 98
REMARK SMILES IDX 47 99
REMARK H PARENT 8 6 1 22 1 23 12 33 71 52 39 63
REMARK Flexibility Score: inf
ROOT
ATOM      1  C   UNL A   1      31.690  30.116  26.953  1.00  0.00     0.042 C 
ENDROOT
BRANCH   1   2
ATOM      2  C   UNL A   1      31.901  28.721  26.361  1.00  0.00     0.117 C 
BRANCH   2   3
ATOM      3  N   UNL A   1      32.276  28.719  24.953  1.00  0.00    -0.355 N 
ATOM      4  C   UNL A   1      31.520  28.768  23.812  1.00  0.00     0.238 C 
ATOM      5  O   UNL A   1      32.154  28.914  22.761  1.00  0.00    -0.273 OA
ATOM      6  H   UNL A   1      33.246  28.673  24.793  1.00  0.00     0.163 HD
BRANCH   4   7
ATOM      7  C   UNL A   1      29.982  28.637  23.824  1.00  0.00     0.174 C 
BRANCH   7   8
ATOM      8  S   UNL A   1      29.440  26.952  23.554  1.00  0.00    -0.068 SA
BRANCH   8   9
ATOM      9  C   UNL A   1      30.455  25.723  24.250  1.00  0.00     0.191 A 
ATOM     10  N   UNL A   1      30.314  25.154  25.515  1.00  0.00    -0.202 N 
ATOM     11  C   UNL A   1      31.336  24.362  26.062  1.00  0.00     0.280 A 
ATOM     12  N   UNL A   1      31.392  25.365  23.430  1.00  0.00    -0.222 NA
ATOM     13  C   UNL A   1      32.357  23.891  25.114  1.00  0.00     0.069 A 
ATOM     14  O   UNL A   1      31.442  24.062  27.251  1.00  0.00    -0.267 OA
ATOM     15  C   UNL A   1      32.293  24.373  23.810  1.00  0.00     0.079 A 
ATOM     16  C   UNL A   1      33.323  22.954  25.495  1.00  0.00     0.031 A 
ATOM     17  C   UNL A   1      33.176  23.862  22.857  1.00  0.00     0.030 A 
ATOM     18  C   UNL A   1      34.212  22.473  24.537  1.00  0.00     0.018 A 
ATOM     19  C   UNL A   1      34.132  22.909  23.216  1.00  0.00     0.018 A 
ATOM     20  Br  UNL A   1      35.532  21.215  25.034  1.00  0.00    -0.051 Br
BRANCH  10  21
ATOM     21  N   UNL A   1      29.182  25.297  26.332  1.00  0.00    -0.334 N 
ATOM     22  H   UNL A   1      28.699  24.500  26.647  1.00  0.00     0.178 HD
ATOM     23  H   UNL A   1      28.871  26.195  26.590  1.00  0.00     0.178 HD
ENDBRANCH  10  21
ENDBRANCH   8   9
ENDBRANCH   7   8
BRANCH   7  24
ATOM     24  C   UNL A   1      29.253  29.782  23.108  1.00  0.00    -0.025 A 
ATOM     25  C   UNL A   1      28.669  29.694  21.837  1.00  0.00     0.005 A 
ATOM     26  C   UNL A   1      29.217  31.042  23.740  1.00  0.00     0.005 A 
ATOM     27  C   UNL A   1      28.131  30.816  21.197  1.00  0.00     0.000 A 
ATOM     28  C   UNL A   1      28.659  32.162  23.112  1.00  0.00     0.000 A 
ATOM     29  C   UNL A   1      28.130  32.050  21.832  1.00  0.00     0.000 A 
ENDBRANCH   7  24
ENDBRANCH   4   7
ENDBRANCH   2   3
ENDBRANCH   1   2
BRANCH   1  30
ATOM     30  C   UNL A   1      32.318  31.267  26.175  1.00  0.00     0.118 C 
BRANCH  30  31
ATOM     31  N   UNL A   1      32.236  32.548  26.859  1.00  0.00    -0.352 N 
ATOM     32  C   UNL A   1      33.092  33.144  27.763  1.00  0.00     0.251 C 
ATOM     33  H   UNL A   1      31.435  33.079  26.641  1.00  0.00     0.163 HD
ATOM     34  O   UNL A   1      32.746  34.182  28.311  1.00  0.00    -0.269 OA
BRANCH  32  35
ATOM     35  C   UNL A   1      34.391  32.515  28.109  1.00  0.00     0.039 A 
ATOM     36  C   UNL A   1      34.486  31.162  28.429  1.00  0.00     0.014 A 
ATOM     37  C   UNL A   1      35.544  33.308  28.122  1.00  0.00     0.014 A 
ATOM     38  C   UNL A   1      35.665  30.660  28.975  1.00  0.00     0.010 A 
ATOM     39  C   UNL A   1      36.757  32.773  28.573  1.00  0.00     0.010 A 
ATOM     40  C   UNL A   1      36.811  31.466  29.078  1.00  0.00    -0.014 A 
BRANCH  40  41
ATOM     41  C   UNL A   1      38.030  30.934  29.751  1.00  0.00     0.031 A 
ATOM     42  C   UNL A   1      38.345  31.305  31.179  1.00  0.00     0.074 A 
ATOM     43  C   UNL A   1      38.823  30.056  29.104  1.00  0.00     0.049 A 
ATOM     44  N   UNL A   1      39.325  30.893  31.943  1.00  0.00    -0.248 NA
ATOM     45  C   UNL A   1      37.447  32.270  31.835  1.00  0.00     0.031 C 
ATOM     46  C   UNL A   1      38.625  29.619  27.724  1.00  0.00     0.029 A 
ATOM     47  N   UNL A   1      39.933  29.361  29.520  1.00  0.00    -0.354 N 
ATOM     48  C   UNL A   1      39.167  31.549  33.160  1.00  0.00     0.074 A 
ATOM     49  C   UNL A   1      38.031  32.431  33.013  1.00  0.00     0.031 C 
ATOM     50  C   UNL A   1      39.545  28.692  27.422  1.00  0.00     0.029 A 
ATOM     51  C   UNL A   1      40.444  28.517  28.562  1.00  0.00     0.049 A 
ATOM     52  H   UNL A   1      40.325  29.459  30.418  1.00  0.00     0.167 HD
ATOM     53  C   UNL A   1      39.884  31.410  34.302  1.00  0.00     0.034 A 
ATOM     54  C   UNL A   1      41.517  27.698  28.584  1.00  0.00     0.034 A 
ATOM     55  C   UNL A   1      41.012  30.522  34.437  1.00  0.00     0.049 A 
ATOM     56  C   UNL A   1      42.322  27.579  29.852  1.00  0.00     0.074 A 
ATOM     57  C   UNL A   1      41.798  30.306  35.555  1.00  0.00     0.029 A 
ATOM     58  N   UNL A   1      41.512  29.702  33.435  1.00  0.00    -0.354 N 
ATOM     59  N   UNL A   1      42.133  28.177  31.005  1.00  0.00    -0.248 NA
ATOM     60  C   UNL A   1      43.475  26.669  29.834  1.00  0.00     0.031 C 
ATOM     61  C   UNL A   1      42.812  29.411  35.211  1.00  0.00     0.029 A 
ATOM     62  C   UNL A   1      42.608  28.995  33.905  1.00  0.00     0.049 A 
ATOM     63  H   UNL A   1      41.142  29.633  32.525  1.00  0.00     0.167 HD
ATOM     64  C   UNL A   1      43.126  27.698  31.855  1.00  0.00     0.074 A 
ATOM     65  C   UNL A   1      43.901  26.744  31.090  1.00  0.00     0.031 C 
ATOM     66  C   UNL A   1      43.369  28.025  33.150  1.00  0.00     0.034 A 
BRANCH  53  67
ATOM     67  C   UNL A   1      39.475  32.219  35.513  1.00  0.00     0.023 A 
ATOM     68  C   UNL A   1      38.714  31.627  36.539  1.00  0.00     0.031 A 
ATOM     69  C   UNL A   1      39.741  33.598  35.600  1.00  0.00     0.131 A 
ATOM     70  C   UNL A   1      38.222  32.414  37.588  1.00  0.00     0.055 A 
ATOM     71  C   UNL A   1      39.291  34.369  36.673  1.00  0.00     0.041 A 
ATOM     72  F   UNL A   1      40.459  34.216  34.646  1.00  0.00    -0.206 F 
ATOM     73  C   UNL A   1      38.517  33.779  37.667  1.00  0.00     0.022 A 
BRANCH  70  74
ATOM     74  S   UNL A   1      37.122  31.718  38.852  1.00  0.00     0.124 S 
ATOM     75  O   UNL A   1      36.923  30.358  38.356  1.00  0.00    -0.237 OA
ATOM     76  O   UNL A   1      37.936  31.829  40.059  1.00  0.00    -0.237 OA
ATOM     77  O   UNL A   1      35.944  32.577  38.803  1.00  0.00    -0.744 OA
ENDBRANCH  70  74
ENDBRANCH  53  67
BRANCH  54  78
ATOM     78  C   UNL A   1      41.828  26.897  27.364  1.00  0.00     0.023 A 
ATOM     79  C   UNL A   1      41.530  25.521  27.316  1.00  0.00     0.031 A 
ATOM     80  C   UNL A   1      42.555  27.452  26.297  1.00  0.00     0.131 A 
ATOM     81  C   UNL A   1      42.041  24.733  26.276  1.00  0.00     0.055 A 
ATOM     82  C   UNL A   1      42.991  26.676  25.221  1.00  0.00     0.041 A 
ATOM     83  F   UNL A   1      42.873  28.756  26.303  1.00  0.00    -0.206 F 
ATOM     84  C   UNL A   1      42.753  25.305  25.220  1.00  0.00     0.022 A 
BRANCH  81  85
ATOM     85  S   UNL A   1      41.935  22.923  26.351  1.00  0.00     0.124 S 
ATOM     86  O   UNL A   1      42.708  22.621  27.551  1.00  0.00    -0.237 OA
ATOM     87  O   UNL A   1      40.492  22.717  26.460  1.00  0.00    -0.237 OA
ATOM     88  O   UNL A   1      42.530  22.490  25.093  1.00  0.00    -0.744 OA
ENDBRANCH  81  85
ENDBRANCH  54  78
BRANCH  66  89
ATOM     89  C   UNL A   1      44.509  27.346  33.875  1.00  0.00     0.023 A 
ATOM     90  C   UNL A   1      44.266  26.164  34.603  1.00  0.00     0.031 A 
ATOM     91  C   UNL A   1      45.773  27.947  33.991  1.00  0.00     0.131 A 
ATOM     92  C   UNL A   1      45.253  25.652  35.455  1.00  0.00     0.055 A 
ATOM     93  C   UNL A   1      46.773  27.402  34.800  1.00  0.00     0.041 A 
ATOM     94  F   UNL A   1      46.053  29.083  33.331  1.00  0.00    -0.206 F 
ATOM     95  C   UNL A   1      46.509  26.259  35.550  1.00  0.00     0.022 A 
BRANCH  92  96
ATOM     96  S   UNL A   1      44.907  24.247  36.550  1.00  0.00     0.124 S 
ATOM     97  O   UNL A   1      46.252  23.789  36.889  1.00  0.00    -0.237 OA
ATOM     98  O   UNL A   1      44.172  24.882  37.641  1.00  0.00    -0.237 OA
ATOM     99  O   UNL A   1      44.131  23.333  35.718  1.00  0.00    -0.744 OA
ENDBRANCH  92  96
ENDBRANCH  66  89
ENDBRANCH  40  41
ENDBRANCH  32  35
ENDBRANCH  30  31
ENDBRANCH   1  30
TORSDOF 17
ENDMDL
MODEL 2
REMARK VINA RESULT:     -13.3      2.176      3.074
REMARK SMILES Nn1c(S[C@@H](C(=O)NCCCNC(=O)c2ccc(-c3c4nc(c(-c5cc(S(=O)(=O)[O-])ccc5F)c5ccc([nH]5)c(-c5cc(S(=O)(=O)[O-])ccc5F)c5nc(c(-c6cc(S(=O)(=O)[O-])ccc6F)c6ccc3[nH]6)C=C5)C=C4)cc2)c2ccccc2)nc2ccc(Br)cc2c1=O
REMARK SMILES IDX 10 1 9 2 8 3 6 4 7 5 5 7 4 8 3 9 2 10 92 11 84 12 91 13
REMARK SMILES IDX 93 14 85 15 90 16 86 17 88 18 87 19 89 20 1 21 78 24 79 25
REMARK SMILES IDX 83 26 80 27 82 28 81 29 11 30 12 31 13 32 14 34 15 35 16 36
REMARK SMILES IDX 77 37 17 38 76 39 18 40 19 41 20 42 70 43 21 44 75 45 69 46
REMARK SMILES IDX 71 47 22 48 74 49 68 50 67 51 23 53 55 54 35 55 54 56 36 57
REMARK SMILES IDX 39 58 53 59 72 60 37 61 38 62 52 64 73 65 40 66 24 67 25 68
REMARK SMILES IDX 33 69 26 70 32 71 34 72 31 73 27 74 28 75 29 76 30 77 56 78
REMARK SMILES IDX 57 79 65 80 58 81 64 82 66 83 63 84 59 85 60 86 61 87 62 88
REMARK SMILES IDX 41 89 42 90 50 91 43 92 49 93 51 94 48 95 44 96 45 97 46 98
REMARK SMILES IDX 47 99
REMARK H PARENT 8 6 1 22 1 23 12 33 71 52 39 63
REMARK Flexibility Score: inf
ROOT
ATOM      1  C   UNL A   1      31.653  29.181  26.868  1.00  0.00     0.042 C 
ENDROOT
BRANCH   1   2
ATOM      2  C   UNL A   1      32.385  27.888  27.232  1.00  0.00     0.117 C 
BRANCH   2   3
ATOM      3  N   UNL A   1      31.564  26.688  27.132  1.00  0.00    -0.355 N 
ATOM      4  C   UNL A   1      31.680  25.572  26.347  1.00  0.00     0.238 C 
ATOM      5  O   UNL A   1      30.903  24.649  26.619  1.00  0.00    -0.273 OA
ATOM      6  H   UNL A   1      30.787  26.678  27.737  1.00  0.00     0.163 HD
BRANCH   4   7
ATOM      7  C   UNL A   1      32.697  25.467  25.191  1.00  0.00     0.174 C 
BRANCH   7   8
ATOM      8  S   UNL A   1      34.301  24.898  25.745  1.00  0.00    -0.068 SA
BRANCH   8   9
ATOM      9  C   UNL A   1      34.609  23.202  25.516  1.00  0.00     0.191 A 
ATOM     10  N   UNL A   1      35.811  22.540  25.763  1.00  0.00    -0.202 N 
ATOM     11  C   UNL A   1      36.015  21.228  25.303  1.00  0.00     0.280 A 
ATOM     12  N   UNL A   1      33.555  22.585  25.083  1.00  0.00    -0.222 NA
ATOM     13  C   UNL A   1      34.806  20.503  24.886  1.00  0.00     0.069 A 
ATOM     14  O   UNL A   1      37.107  20.671  25.209  1.00  0.00    -0.267 OA
ATOM     15  C   UNL A   1      33.609  21.211  24.859  1.00  0.00     0.079 A 
ATOM     16  C   UNL A   1      34.850  19.139  24.578  1.00  0.00     0.031 A 
ATOM     17  C   UNL A   1      32.425  20.527  24.576  1.00  0.00     0.030 A 
ATOM     18  C   UNL A   1      33.662  18.477  24.274  1.00  0.00     0.018 A 
ATOM     19  C   UNL A   1      32.448  19.160  24.289  1.00  0.00     0.018 A 
ATOM     20  Br  UNL A   1      33.701  16.637  23.844  1.00  0.00    -0.051 Br
BRANCH  10  21
ATOM     21  N   UNL A   1      36.889  23.085  26.476  1.00  0.00    -0.334 N 
ATOM     22  H   UNL A   1      37.536  23.671  26.021  1.00  0.00     0.178 HD
ATOM     23  H   UNL A   1      37.000  22.880  27.433  1.00  0.00     0.178 HD
ENDBRANCH  10  21
ENDBRANCH   8   9
ENDBRANCH   7   8
BRANCH   7  24
ATOM     24  C   UNL A   1      32.619  26.623  24.186  1.00  0.00    -0.025 A 
ATOM     25  C   UNL A   1      33.694  27.445  23.818  1.00  0.00     0.005 A 
ATOM     26  C   UNL A   1      31.361  26.934  23.629  1.00  0.00     0.005 A 
ATOM     27  C   UNL A   1      33.517  28.558  22.989  1.00  0.00     0.000 A 
ATOM     28  C   UNL A   1      31.185  28.034  22.781  1.00  0.00     0.000 A 
ATOM     29  C   UNL A   1      32.263  28.855  22.474  1.00  0.00     0.000 A 
ENDBRANCH   7  24
ENDBRANCH   4   7
ENDBRANCH   2   3
ENDBRANCH   1   2
BRANCH   1  30
ATOM     30  C   UNL A   1      32.473  30.212  26.099  1.00  0.00     0.118 C 
BRANCH  30  31
ATOM     31  N   UNL A   1      32.329  31.569  26.605  1.00  0.00    -0.352 N 
ATOM     32  C   UNL A   1      33.156  32.322  27.414  1.00  0.00     0.251 C 
ATOM     33  H   UNL A   1      31.503  32.026  26.324  1.00  0.00     0.163 HD
ATOM     34  O   UNL A   1      32.760  33.406  27.819  1.00  0.00    -0.269 OA
BRANCH  32  35
ATOM     35  C   UNL A   1      34.485  31.808  27.832  1.00  0.00     0.039 A 
ATOM     36  C   UNL A   1      34.690  30.460  28.119  1.00  0.00     0.014 A 
ATOM     37  C   UNL A   1      35.551  32.707  27.946  1.00  0.00     0.014 A 
ATOM     38  C   UNL A   1      35.874  30.055  28.731  1.00  0.00     0.010 A 
ATOM     39  C   UNL A   1      36.778  32.276  28.465  1.00  0.00     0.010 A 
ATOM     40  C   UNL A   1      36.927  30.963  28.935  1.00  0.00    -0.014 A 
BRANCH  40  41
ATOM     41  C   UNL A   1      38.144  30.527  29.677  1.00  0.00     0.031 A 
ATOM     42  C   UNL A   1      38.390  30.988  31.092  1.00  0.00     0.074 A 
ATOM     43  C   UNL A   1      39.000  29.656  29.105  1.00  0.00     0.049 A 
ATOM     44  N   UNL A   1      39.362  30.665  31.909  1.00  0.00    -0.248 NA
ATOM     45  C   UNL A   1      37.426  31.941  31.664  1.00  0.00     0.031 C 
ATOM     46  C   UNL A   1      38.872  29.137  27.744  1.00  0.00     0.029 A 
ATOM     47  N   UNL A   1      40.126  29.039  29.594  1.00  0.00    -0.354 N 
ATOM     48  C   UNL A   1      39.129  31.376  33.082  1.00  0.00     0.074 A 
ATOM     49  C   UNL A   1      37.960  32.192  32.851  1.00  0.00     0.031 C 
ATOM     50  C   UNL A   1      39.844  28.242  27.524  1.00  0.00     0.029 A 
ATOM     51  C   UNL A   1      40.710  28.171  28.701  1.00  0.00     0.049 A 
ATOM     52  H   UNL A   1      40.480  29.203  30.497  1.00  0.00     0.167 HD
ATOM     53  C   UNL A   1      39.811  31.332  34.253  1.00  0.00     0.034 A 
ATOM     54  C   UNL A   1      41.818  27.408  28.803  1.00  0.00     0.034 A 
ATOM     55  C   UNL A   1      40.974  30.509  34.474  1.00  0.00     0.049 A 
ATOM     56  C   UNL A   1      42.582  27.395  30.100  1.00  0.00     0.074 A 
ATOM     57  C   UNL A   1      41.729  30.391  35.627  1.00  0.00     0.029 A 
ATOM     58  N   UNL A   1      41.547  29.662  33.534  1.00  0.00    -0.354 N 
ATOM     59  N   UNL A   1      42.325  28.044  31.212  1.00  0.00    -0.248 NA
ATOM     60  C   UNL A   1      43.777  26.543  30.170  1.00  0.00     0.031 C 
ATOM     61  C   UNL A   1      42.795  29.529  35.365  1.00  0.00     0.029 A 
ATOM     62  C   UNL A   1      42.658  29.035  34.078  1.00  0.00     0.049 A 
ATOM     63  H   UNL A   1      41.214  29.527  32.618  1.00  0.00     0.167 HD
ATOM     64  C   UNL A   1      43.308  27.659  32.120  1.00  0.00     0.074 A 
ATOM     65  C   UNL A   1      44.154  26.704  31.433  1.00  0.00     0.031 C 
ATOM     66  C   UNL A   1      43.489  28.065  33.402  1.00  0.00     0.034 A 
BRANCH  53  67
ATOM     67  C   UNL A   1      39.322  32.183  35.404  1.00  0.00     0.023 A 
ATOM     68  C   UNL A   1      39.795  33.501  35.563  1.00  0.00     0.031 A 
ATOM     69  C   UNL A   1      38.480  31.659  36.401  1.00  0.00     0.131 A 
ATOM     70  C   UNL A   1      39.446  34.235  36.704  1.00  0.00     0.055 A 
ATOM     71  C   UNL A   1      38.095  32.411  37.512  1.00  0.00     0.041 A 
ATOM     72  F   UNL A   1      38.004  30.406  36.303  1.00  0.00    -0.206 F 
ATOM     73  C   UNL A   1      38.589  33.702  37.673  1.00  0.00     0.022 A 
BRANCH  70  74
ATOM     74  S   UNL A   1      40.145  35.880  37.015  1.00  0.00     0.124 S 
ATOM     75  O   UNL A   1      39.689  36.623  35.843  1.00  0.00    -0.237 OA
ATOM     76  O   UNL A   1      39.506  36.250  38.275  1.00  0.00    -0.237 OA
ATOM     77  O   UNL A   1      41.582  35.644  37.082  1.00  0.00    -0.744 OA
ENDBRANCH  70  74
ENDBRANCH  53  67
BRANCH  54  78
ATOM     78  C   UNL A   1      42.210  26.559  27.638  1.00  0.00     0.023 A 
ATOM     79  C   UNL A   1      41.642  25.283  27.461  1.00  0.00     0.031 A 
ATOM     80  C   UNL A   1      43.253  26.944  26.779  1.00  0.00     0.131 A 
ATOM     81  C   UNL A   1      42.187  24.403  26.516  1.00  0.00     0.055 A 
ATOM     82  C   UNL A   1      43.737  26.093  25.783  1.00  0.00     0.041 A 
ATOM     83  F   UNL A   1      43.834  28.146  26.916  1.00  0.00    -0.206 F 
ATOM     84  C   UNL A   1      43.218  24.806  25.664  1.00  0.00     0.022 A 
BRANCH  81  85
ATOM     85  S   UNL A   1      41.683  22.660  26.478  1.00  0.00     0.124 S 
ATOM     86  O   UNL A   1      42.344  22.177  25.270  1.00  0.00    -0.237 OA
ATOM     87  O   UNL A   1      42.233  22.167  27.739  1.00  0.00    -0.237 OA
ATOM     88  O   UNL A   1      40.228  22.723  26.418  1.00  0.00    -0.744 OA
ENDBRANCH  81  85
ENDBRANCH  54  78
BRANCH  66  89
ATOM     89  C   UNL A   1      44.634  27.482  34.200  1.00  0.00     0.023 A 
ATOM     90  C   UNL A   1      44.430  26.311  34.958  1.00  0.00     0.031 A 
ATOM     91  C   UNL A   1      45.853  28.163  34.351  1.00  0.00     0.131 A 
ATOM     92  C   UNL A   1      45.405  25.889  35.870  1.00  0.00     0.055 A 
ATOM     93  C   UNL A   1      46.846  27.707  35.222  1.00  0.00     0.041 A 
ATOM     94  F   UNL A   1      46.094  29.291  33.664  1.00  0.00    -0.206 F 
ATOM     95  C   UNL A   1      46.616  26.574  35.999  1.00  0.00     0.022 A 
BRANCH  92  96
ATOM     96  S   UNL A   1      45.094  24.501  36.998  1.00  0.00     0.124 S 
ATOM     97  O   UNL A   1      44.318  23.595  36.155  1.00  0.00    -0.237 OA
ATOM     98  O   UNL A   1      46.448  24.054  37.314  1.00  0.00    -0.237 OA
ATOM     99  O   UNL A   1      44.357  25.104  38.104  1.00  0.00    -0.744 OA
ENDBRANCH  92  96
ENDBRANCH  66  89
ENDBRANCH  40  41
ENDBRANCH  32  35
ENDBRANCH  30  31
ENDBRANCH   1  30
TORSDOF 17
ENDMDL
MODEL 3
REMARK VINA RESULT:     -13.1      6.049      9.639
REMARK SMILES Nn1c(S[C@@H](C(=O)NCCCNC(=O)c2ccc(-c3c4nc(c(-c5cc(S(=O)(=O)[O-])ccc5F)c5ccc([nH]5)c(-c5cc(S(=O)(=O)[O-])ccc5F)c5nc(c(-c6cc(S(=O)(=O)[O-])ccc6F)c6ccc3[nH]6)C=C5)C=C4)cc2)c2ccccc2)nc2ccc(Br)cc2c1=O
REMARK SMILES IDX 10 1 9 2 8 3 6 4 7 5 5 7 4 8 3 9 2 10 92 11 84 12 91 13
REMARK SMILES IDX 93 14 85 15 90 16 86 17 88 18 87 19 89 20 1 21 78 24 79 25
REMARK SMILES IDX 83 26 80 27 82 28 81 29 11 30 12 31 13 32 14 34 15 35 16 36
REMARK SMILES IDX 77 37 17 38 76 39 18 40 19 41 20 42 70 43 21 44 75 45 69 46
REMARK SMILES IDX 71 47 22 48 74 49 68 50 67 51 23 53 55 54 35 55 54 56 36 57
REMARK SMILES IDX 39 58 53 59 72 60 37 61 38 62 52 64 73 65 40 66 24 67 25 68
REMARK SMILES IDX 33 69 26 70 32 71 34 72 31 73 27 74 28 75 29 76 30 77 56 78
REMARK SMILES IDX 57 79 65 80 58 81 64 82 66 83 63 84 59 85 60 86 61 87 62 88
REMARK SMILES IDX 41 89 42 90 50 91 43 92 49 93 51 94 48 95 44 96 45 97 46 98
REMARK SMILES IDX 47 99
REMARK H PARENT 8 6 1 22 1 23 12 33 71 52 39 63
REMARK Flexibility Score: inf
ROOT
ATOM      1  C   UNL A   1      38.040  20.421  25.210  1.00  0.00     0.042 C 
ENDROOT
BRANCH   1   2
ATOM      2  C   UNL A   1      37.113  21.625  25.034  1.00  0.00     0.117 C 
BRANCH   2   3
ATOM      3  N   UNL A   1      36.006  21.670  25.980  1.00  0.00    -0.355 N 
ATOM      4  C   UNL A   1      34.741  21.150  25.922  1.00  0.00     0.238 C 
ATOM      5  O   UNL A   1      34.086  21.227  26.969  1.00  0.00    -0.273 OA
ATOM      6  H   UNL A   1      36.201  22.165  26.809  1.00  0.00     0.163 HD
BRANCH   4   7
ATOM      7  C   UNL A   1      34.156  20.519  24.640  1.00  0.00     0.174 C 
BRANCH   7   8
ATOM      8  S   UNL A   1      32.911  21.556  23.878  1.00  0.00    -0.068 SA
BRANCH   8   9
ATOM      9  C   UNL A   1      32.451  22.962  24.794  1.00  0.00     0.191 A 
ATOM     10  N   UNL A   1      31.445  23.027  25.757  1.00  0.00    -0.202 N 
ATOM     11  C   UNL A   1      30.998  24.267  26.242  1.00  0.00     0.280 A 
ATOM     12  N   UNL A   1      33.182  23.986  24.485  1.00  0.00    -0.222 NA
ATOM     13  C   UNL A   1      31.869  25.417  25.958  1.00  0.00     0.069 A 
ATOM     14  O   UNL A   1      29.946  24.452  26.854  1.00  0.00    -0.267 OA
ATOM     15  C   UNL A   1      32.969  25.200  25.134  1.00  0.00     0.079 A 
ATOM     16  C   UNL A   1      31.629  26.668  26.535  1.00  0.00     0.031 A 
ATOM     17  C   UNL A   1      33.878  26.240  24.934  1.00  0.00     0.030 A 
ATOM     18  C   UNL A   1      32.534  27.702  26.305  1.00  0.00     0.018 A 
ATOM     19  C   UNL A   1      33.667  27.489  25.522  1.00  0.00     0.018 A 
ATOM     20  Br  UNL A   1      32.222  29.403  27.067  1.00  0.00    -0.051 Br
BRANCH  10  21
ATOM     21  N   UNL A   1      30.810  21.912  26.324  1.00  0.00    -0.334 N 
ATOM     22  H   UNL A   1      30.803  21.793  27.301  1.00  0.00     0.178 HD
ATOM     23  H   UNL A   1      30.370  21.248  25.745  1.00  0.00     0.178 HD
ENDBRANCH  10  21
ENDBRANCH   8   9
ENDBRANCH   7   8
BRANCH   7  24
ATOM     24  C   UNL A   1      33.910  19.009  24.745  1.00  0.00    -0.025 A 
ATOM     25  C   UNL A   1      34.792  18.016  24.296  1.00  0.00     0.005 A 
ATOM     26  C   UNL A   1      32.677  18.573  25.274  1.00  0.00     0.005 A 
ATOM     27  C   UNL A   1      34.444  16.661  24.312  1.00  0.00     0.000 A 
ATOM     28  C   UNL A   1      32.334  17.216  25.312  1.00  0.00     0.000 A 
ATOM     29  C   UNL A   1      33.213  16.261  24.816  1.00  0.00     0.000 A 
ENDBRANCH   7  24
ENDBRANCH   4   7
ENDBRANCH   2   3
ENDBRANCH   1   2
BRANCH   1  30
ATOM     30  C   UNL A   1      39.251  20.643  26.109  1.00  0.00     0.118 C 
BRANCH  30  31
ATOM     31  N   UNL A   1      40.214  19.553  26.073  1.00  0.00    -0.352 N 
ATOM     32  C   UNL A   1      41.594  19.567  26.120  1.00  0.00     0.251 C 
ATOM     33  H   UNL A   1      39.815  18.656  26.003  1.00  0.00     0.163 HD
ATOM     34  O   UNL A   1      42.203  18.521  25.941  1.00  0.00    -0.269 OA
BRANCH  32  35
ATOM     35  C   UNL A   1      42.335  20.836  26.332  1.00  0.00     0.039 A 
ATOM     36  C   UNL A   1      42.598  21.324  27.611  1.00  0.00     0.014 A 
ATOM     37  C   UNL A   1      42.770  21.559  25.216  1.00  0.00     0.014 A 
ATOM     38  C   UNL A   1      43.079  22.621  27.771  1.00  0.00     0.010 A 
ATOM     39  C   UNL A   1      43.352  22.822  25.383  1.00  0.00     0.010 A 
ATOM     40  C   UNL A   1      43.441  23.398  26.659  1.00  0.00    -0.014 A 
BRANCH  40  41
ATOM     41  C   UNL A   1      43.864  24.814  26.853  1.00  0.00     0.031 A 
ATOM     42  C   UNL A   1      42.899  25.839  27.393  1.00  0.00     0.074 A 
ATOM     43  C   UNL A   1      45.142  25.171  26.610  1.00  0.00     0.049 A 
ATOM     44  N   UNL A   1      43.107  27.099  27.681  1.00  0.00    -0.248 NA
ATOM     45  C   UNL A   1      41.516  25.396  27.636  1.00  0.00     0.031 C 
ATOM     46  C   UNL A   1      46.170  24.273  26.087  1.00  0.00     0.029 A 
ATOM     47  N   UNL A   1      45.799  26.363  26.790  1.00  0.00    -0.354 N 
ATOM     48  C   UNL A   1      41.888  27.598  28.131  1.00  0.00     0.074 A 
ATOM     49  C   UNL A   1      40.931  26.521  28.021  1.00  0.00     0.031 C 
ATOM     50  C   UNL A   1      47.338  24.926  26.037  1.00  0.00     0.029 A 
ATOM     51  C   UNL A   1      47.133  26.312  26.459  1.00  0.00     0.049 A 
ATOM     52  H   UNL A   1      45.357  27.177  27.124  1.00  0.00     0.167 HD
ATOM     53  C   UNL A   1      41.598  28.830  28.616  1.00  0.00     0.034 A 
ATOM     54  C   UNL A   1      48.089  27.265  26.480  1.00  0.00     0.034 A 
ATOM     55  C   UNL A   1      42.564  29.896  28.726  1.00  0.00     0.049 A 
ATOM     56  C   UNL A   1      47.743  28.638  26.992  1.00  0.00     0.074 A 
ATOM     57  C   UNL A   1      42.369  31.177  29.211  1.00  0.00     0.029 A 
ATOM     58  N   UNL A   1      43.899  29.809  28.357  1.00  0.00    -0.354 N 
ATOM     59  N   UNL A   1      46.594  29.080  27.450  1.00  0.00    -0.248 NA
ATOM     60  C   UNL A   1      48.815  29.642  27.006  1.00  0.00     0.031 C 
ATOM     61  C   UNL A   1      43.564  31.884  29.071  1.00  0.00     0.029 A 
ATOM     62  C   UNL A   1      44.533  31.021  28.585  1.00  0.00     0.049 A 
ATOM     63  H   UNL A   1      44.332  29.006  27.988  1.00  0.00     0.167 HD
ATOM     64  C   UNL A   1      46.812  30.401  27.829  1.00  0.00     0.074 A 
ATOM     65  C   UNL A   1      48.209  30.681  27.567  1.00  0.00     0.031 C 
ATOM     66  C   UNL A   1      45.931  31.296  28.345  1.00  0.00     0.034 A 
BRANCH  53  67
ATOM     67  C   UNL A   1      40.187  29.108  29.084  1.00  0.00     0.023 A 
ATOM     68  C   UNL A   1      39.856  28.997  30.448  1.00  0.00     0.031 A 
ATOM     69  C   UNL A   1      39.149  29.372  28.172  1.00  0.00     0.131 A 
ATOM     70  C   UNL A   1      38.521  29.119  30.855  1.00  0.00     0.055 A 
ATOM     71  C   UNL A   1      37.828  29.544  28.588  1.00  0.00     0.041 A 
ATOM     72  F   UNL A   1      39.407  29.485  26.858  1.00  0.00    -0.206 F 
ATOM     73  C   UNL A   1      37.508  29.404  29.935  1.00  0.00     0.022 A 
BRANCH  70  74
ATOM     74  S   UNL A   1      38.035  28.844  32.581  1.00  0.00     0.124 S 
ATOM     75  O   UNL A   1      39.002  29.671  33.299  1.00  0.00    -0.237 OA
ATOM     76  O   UNL A   1      36.661  29.338  32.594  1.00  0.00    -0.237 OA
ATOM     77  O   UNL A   1      38.189  27.405  32.764  1.00  0.00    -0.744 OA
ENDBRANCH  70  74
ENDBRANCH  53  67
BRANCH  54  78
ATOM     78  C   UNL A   1      49.470  26.900  26.046  1.00  0.00     0.023 A 
ATOM     79  C   UNL A   1      50.476  26.651  26.999  1.00  0.00     0.031 A 
ATOM     80  C   UNL A   1      49.839  26.941  24.691  1.00  0.00     0.131 A 
ATOM     81  C   UNL A   1      51.813  26.550  26.592  1.00  0.00     0.055 A 
ATOM     82  C   UNL A   1      51.163  26.758  24.283  1.00  0.00     0.041 A 
ATOM     83  F   UNL A   1      48.919  27.187  23.746  1.00  0.00    -0.206 F 
ATOM     84  C   UNL A   1      52.160  26.584  25.239  1.00  0.00     0.022 A 
BRANCH  81  85
ATOM     85  S   UNL A   1      53.153  26.538  27.815  1.00  0.00     0.124 S 
ATOM     86  O   UNL A   1      53.704  27.882  27.679  1.00  0.00    -0.237 OA
ATOM     87  O   UNL A   1      52.420  26.278  29.052  1.00  0.00    -0.237 OA
ATOM     88  O   UNL A   1      54.019  25.453  27.367  1.00  0.00    -0.744 OA
ENDBRANCH  81  85
ENDBRANCH  54  78
BRANCH  66  89
ATOM     89  C   UNL A   1      46.419  32.683  28.699  1.00  0.00     0.023 A 
ATOM     90  C   UNL A   1      46.517  33.665  27.692  1.00  0.00     0.031 A 
ATOM     91  C   UNL A   1      46.945  32.981  29.966  1.00  0.00     0.131 A 
ATOM     92  C   UNL A   1      47.172  34.875  27.955  1.00  0.00     0.055 A 
ATOM     93  C   UNL A   1      47.549  34.210  30.240  1.00  0.00     0.041 A 
ATOM     94  F   UNL A   1      46.892  32.076  30.957  1.00  0.00    -0.206 F 
ATOM     95  C   UNL A   1      47.680  35.157  29.227  1.00  0.00     0.022 A 
BRANCH  92  96
ATOM     96  S   UNL A   1      47.484  36.077  26.632  1.00  0.00     0.124 S 
ATOM     97  O   UNL A   1      47.669  35.209  25.472  1.00  0.00    -0.237 OA
ATOM     98  O   UNL A   1      46.252  36.861  26.634  1.00  0.00    -0.237 OA
ATOM     99  O   UNL A   1      48.681  36.786  27.075  1.00  0.00    -0.744 OA
ENDBRANCH  92  96
ENDBRANCH  66  89
ENDBRANCH  40  41
ENDBRANCH  32  35
ENDBRANCH  30  31
ENDBRANCH   1  30
TORSDOF 17
ENDMDL
