MODEL 1
REMARK VINA RESULT:     -12.6      0.000      0.000
REMARK SMILES O=C(Cc1ccc(NC(=O)c2ccc(N3C(=O)c4ccccc4C3=O)cc2)cc1)NCCCNC(=O)c1ccc(-c2c3nc(c(-c4cc(S(=O)(=O)[O-])ccc4F)c4ccc([nH]4)c(-c4cc(S(=O)(=O)[O-])ccc4F)c4nc(c(-c5cc(S(=O)(=O)[O-])ccc5F)c5ccc2[nH]5)C=C4)C=C3)cc1
REMARK SMILES IDX 31 1 30 2 1 3 2 4 3 6 4 7 5 8 29 9 6 10 28 11 7 12 8 13 9 14
REMARK SMILES IDX 10 16 11 17 12 18 27 19 13 20 26 21 14 22 15 23 16 24 24 25
REMARK SMILES IDX 17 26 18 27 23 28 25 29 19 30 22 31 20 32 21 33 32 34 33 35
REMARK SMILES IDX 34 36 35 37 36 39 37 40 38 41 99 42 39 43 98 44 40 45 41 46
REMARK SMILES IDX 42 47 92 48 43 49 97 50 91 51 93 52 44 53 96 54 90 55 89 56
REMARK SMILES IDX 45 58 77 59 57 60 76 61 58 62 61 63 75 64 94 65 59 66 60 67
REMARK SMILES IDX 74 69 95 70 62 71 46 72 47 73 55 74 48 75 54 76 56 77 53 78
REMARK SMILES IDX 49 79 50 80 51 81 52 82 78 83 79 84 87 85 80 86 86 87 88 88
REMARK SMILES IDX 85 89 81 90 82 91 83 92 84 93 63 94 64 95 72 96 65 97 71 98
REMARK SMILES IDX 73 99 70 100 66 101 67 102 68 103 69 104
REMARK H PARENT 30 5 8 15 34 38 93 57 61 68
REMARK Flexibility Score: inf
ROOT
ATOM      1  C   UNL A   1      38.505  22.233  26.105  1.00  0.00     0.117 C 
ENDROOT
BRANCH   1   2
ATOM      2  N   UNL A   1      37.209  21.755  25.675  1.00  0.00    -0.356 N 
ATOM      3  O   UNL A   1      36.556  23.686  24.612  1.00  0.00    -0.275 OA
ATOM      4  C   UNL A   1      36.350  22.513  24.907  1.00  0.00     0.224 C 
ATOM      5  H   UNL A   1      36.928  20.850  25.942  1.00  0.00     0.163 HD
BRANCH   4   6
ATOM      6  C   UNL A   1      35.085  21.791  24.484  1.00  0.00     0.135 C 
BRANCH   6   7
ATOM      7  C   UNL A   1      33.851  22.665  24.383  1.00  0.00    -0.039 A 
ATOM      8  C   UNL A   1      33.566  23.314  23.179  1.00  0.00     0.006 A 
ATOM      9  C   UNL A   1      32.951  22.807  25.448  1.00  0.00     0.006 A 
ATOM     10  C   UNL A   1      32.401  24.072  23.040  1.00  0.00     0.026 A 
ATOM     11  C   UNL A   1      31.785  23.567  25.302  1.00  0.00     0.026 A 
ATOM     12  C   UNL A   1      31.470  24.159  24.077  1.00  0.00     0.041 A 
BRANCH  12  13
ATOM     13  N   UNL A   1      30.220  24.805  23.969  1.00  0.00    -0.322 N 
ATOM     14  C   UNL A   1      29.776  26.012  24.471  1.00  0.00     0.255 C 
ATOM     15  H   UNL A   1      29.549  24.309  23.445  1.00  0.00     0.170 HD
ATOM     16  O   UNL A   1      28.588  26.323  24.413  1.00  0.00    -0.269 OA
BRANCH  14  17
ATOM     17  C   UNL A   1      30.741  26.989  25.011  1.00  0.00     0.040 A 
ATOM     18  C   UNL A   1      31.280  27.959  24.171  1.00  0.00     0.016 A 
ATOM     19  C   UNL A   1      31.042  27.002  26.371  1.00  0.00     0.016 A 
ATOM     20  C   UNL A   1      32.009  29.023  24.722  1.00  0.00     0.028 A 
ATOM     21  C   UNL A   1      31.765  28.070  26.911  1.00  0.00     0.028 A 
ATOM     22  C   UNL A   1      32.220  29.133  26.110  1.00  0.00     0.052 A 
BRANCH  22  23
ATOM     23  N   UNL A   1      32.818  30.295  26.693  1.00  0.00    -0.242 N 
ATOM     24  C   UNL A   1      34.084  30.338  27.248  1.00  0.00     0.266 C 
ATOM     25  C   UNL A   1      32.198  31.522  26.840  1.00  0.00     0.266 C 
ATOM     26  O   UNL A   1      34.966  29.505  27.348  1.00  0.00    -0.268 OA
ATOM     27  C   UNL A   1      34.278  31.680  27.782  1.00  0.00     0.053 A 
ATOM     28  C   UNL A   1      33.133  32.400  27.538  1.00  0.00     0.053 A 
ATOM     29  O   UNL A   1      31.094  31.924  26.514  1.00  0.00    -0.268 OA
ATOM     30  C   UNL A   1      35.368  32.227  28.434  1.00  0.00     0.015 A 
ATOM     31  C   UNL A   1      33.002  33.715  27.941  1.00  0.00     0.015 A 
ATOM     32  C   UNL A   1      35.264  33.558  28.845  1.00  0.00     0.001 A 
ATOM     33  C   UNL A   1      34.089  34.296  28.602  1.00  0.00     0.001 A 
ENDBRANCH  22  23
ENDBRANCH  14  17
ENDBRANCH  12  13
ENDBRANCH   6   7
ENDBRANCH   4   6
ENDBRANCH   1   2
BRANCH   1  34
ATOM     34  C   UNL A   1      39.638  21.304  25.690  1.00  0.00     0.042 C 
BRANCH  34  35
ATOM     35  C   UNL A   1      39.739  20.015  26.500  1.00  0.00     0.118 C 
BRANCH  35  36
ATOM     36  N   UNL A   1      40.856  19.171  26.104  1.00  0.00    -0.352 N 
ATOM     37  C   UNL A   1      42.179  19.482  25.902  1.00  0.00     0.251 C 
ATOM     38  H   UNL A   1      40.627  18.226  25.956  1.00  0.00     0.163 HD
ATOM     39  O   UNL A   1      42.920  18.626  25.424  1.00  0.00    -0.269 OA
BRANCH  37  40
ATOM     40  C   UNL A   1      42.711  20.829  26.221  1.00  0.00     0.039 A 
ATOM     41  C   UNL A   1      43.070  21.670  25.164  1.00  0.00     0.014 A 
ATOM     42  C   UNL A   1      42.890  21.261  27.538  1.00  0.00     0.014 A 
ATOM     43  C   UNL A   1      43.547  22.958  25.426  1.00  0.00     0.010 A 
ATOM     44  C   UNL A   1      43.289  22.574  27.796  1.00  0.00     0.010 A 
ATOM     45  C   UNL A   1      43.626  23.437  26.743  1.00  0.00    -0.014 A 
BRANCH  45  46
ATOM     46  C   UNL A   1      44.056  24.836  27.020  1.00  0.00     0.031 A 
ATOM     47  C   UNL A   1      43.086  25.839  27.587  1.00  0.00     0.074 A 
ATOM     48  C   UNL A   1      45.317  25.213  26.727  1.00  0.00     0.049 A 
ATOM     49  N   UNL A   1      43.277  27.100  27.883  1.00  0.00    -0.248 NA
ATOM     50  C   UNL A   1      41.714  25.370  27.827  1.00  0.00     0.031 C 
ATOM     51  C   UNL A   1      46.338  24.350  26.126  1.00  0.00     0.029 A 
ATOM     52  N   UNL A   1      45.960  26.414  26.895  1.00  0.00    -0.354 N 
ATOM     53  C   UNL A   1      42.051  27.577  28.335  1.00  0.00     0.074 A 
ATOM     54  C   UNL A   1      41.108  26.485  28.210  1.00  0.00     0.031 C 
ATOM     55  C   UNL A   1      47.484  25.038  26.011  1.00  0.00     0.029 A 
ATOM     56  C   UNL A   1      47.274  26.402  26.488  1.00  0.00     0.049 A 
ATOM     57  H   UNL A   1      45.521  27.211  27.271  1.00  0.00     0.167 HD
ATOM     58  C   UNL A   1      41.744  28.802  28.834  1.00  0.00     0.034 A 
ATOM     59  C   UNL A   1      48.206  27.376  26.495  1.00  0.00     0.034 A 
ATOM     60  C   UNL A   1      42.696  29.879  28.961  1.00  0.00     0.049 A 
ATOM     61  C   UNL A   1      47.839  28.730  27.046  1.00  0.00     0.074 A 
ATOM     62  C   UNL A   1      42.504  31.140  29.501  1.00  0.00     0.029 A 
ATOM     63  N   UNL A   1      44.020  29.830  28.540  1.00  0.00    -0.354 N 
ATOM     64  N   UNL A   1      46.690  29.145  27.526  1.00  0.00    -0.248 NA
ATOM     65  C   UNL A   1      48.904  29.742  27.072  1.00  0.00     0.031 C 
ATOM     66  C   UNL A   1      43.687  31.873  29.343  1.00  0.00     0.029 A 
ATOM     67  C   UNL A   1      44.644  31.046  28.779  1.00  0.00     0.049 A 
ATOM     68  H   UNL A   1      44.451  29.045  28.130  1.00  0.00     0.167 HD
ATOM     69  C   UNL A   1      46.905  30.457  27.940  1.00  0.00     0.074 A 
ATOM     70  C   UNL A   1      48.297  30.753  27.673  1.00  0.00     0.031 C 
ATOM     71  C   UNL A   1      46.030  31.337  28.494  1.00  0.00     0.034 A 
BRANCH  58  72
ATOM     72  C   UNL A   1      40.312  29.042  29.256  1.00  0.00     0.023 A 
ATOM     73  C   UNL A   1      39.917  28.975  30.604  1.00  0.00     0.031 A 
ATOM     74  C   UNL A   1      39.321  29.318  28.297  1.00  0.00     0.131 A 
ATOM     75  C   UNL A   1      38.563  29.102  30.947  1.00  0.00     0.055 A 
ATOM     76  C   UNL A   1      37.988  29.529  28.654  1.00  0.00     0.041 A 
ATOM     77  F   UNL A   1      39.629  29.375  26.991  1.00  0.00    -0.206 F 
ATOM     78  C   UNL A   1      37.598  29.406  29.984  1.00  0.00     0.022 A 
BRANCH  75  79
ATOM     79  S   UNL A   1      38.060  28.718  32.647  1.00  0.00     0.124 S 
ATOM     80  O   UNL A   1      36.696  29.243  32.676  1.00  0.00    -0.237 OA
ATOM     81  O   UNL A   1      38.188  27.267  32.695  1.00  0.00    -0.237 OA
ATOM     82  O   UNL A   1      39.021  29.457  33.463  1.00  0.00    -0.744 OA
ENDBRANCH  75  79
ENDBRANCH  58  72
BRANCH  59  83
ATOM     83  C   UNL A   1      49.578  27.115  25.969  1.00  0.00     0.023 A 
ATOM     84  C   UNL A   1      49.918  27.431  24.645  1.00  0.00     0.031 A 
ATOM     85  C   UNL A   1      50.556  26.502  26.773  1.00  0.00     0.131 A 
ATOM     86  C   UNL A   1      51.184  27.088  24.146  1.00  0.00     0.055 A 
ATOM     87  C   UNL A   1      51.833  26.213  26.288  1.00  0.00     0.041 A 
ATOM     88  F   UNL A   1      50.284  26.183  28.048  1.00  0.00    -0.206 F 
ATOM     89  C   UNL A   1      52.149  26.494  24.962  1.00  0.00     0.022 A 
BRANCH  86  90
ATOM     90  S   UNL A   1      51.523  27.350  22.383  1.00  0.00     0.124 S 
ATOM     91  O   UNL A   1      51.696  28.797  22.326  1.00  0.00    -0.237 OA
ATOM     92  O   UNL A   1      52.727  26.551  22.184  1.00  0.00    -0.237 OA
ATOM     93  O   UNL A   1      50.321  26.839  21.727  1.00  0.00    -0.744 OA
ENDBRANCH  86  90
ENDBRANCH  59  83
BRANCH  71  94
ATOM     94  C   UNL A   1      46.578  32.691  28.883  1.00  0.00     0.023 A 
ATOM     95  C   UNL A   1      46.553  33.783  27.998  1.00  0.00     0.031 A 
ATOM     96  C   UNL A   1      47.166  32.880  30.147  1.00  0.00     0.131 A 
ATOM     97  C   UNL A   1      47.168  34.991  28.359  1.00  0.00     0.055 A 
ATOM     98  C   UNL A   1      47.716  34.105  30.527  1.00  0.00     0.041 A 
ATOM     99  F   UNL A   1      47.221  31.872  31.033  1.00  0.00    -0.206 F 
ATOM    100  C   UNL A   1      47.735  35.164  29.624  1.00  0.00     0.022 A 
BRANCH  97 101
ATOM    101  S   UNL A   1      47.323  36.297  27.109  1.00  0.00     0.124 S 
ATOM    102  O   UNL A   1      46.987  37.493  27.874  1.00  0.00    -0.237 OA
ATOM    103  O   UNL A   1      48.719  36.173  26.700  1.00  0.00    -0.237 OA
ATOM    104  O   UNL A   1      46.344  35.916  26.093  1.00  0.00    -0.744 OA
ENDBRANCH  97 101
ENDBRANCH  71  94
ENDBRANCH  45  46
ENDBRANCH  37  40
ENDBRANCH  35  36
ENDBRANCH  34  35
ENDBRANCH   1  34
TORSDOF 17
ENDMDL
MODEL 2
REMARK VINA RESULT:     -12.6      5.164     10.370
REMARK SMILES O=C(Cc1ccc(NC(=O)c2ccc(N3C(=O)c4ccccc4C3=O)cc2)cc1)NCCCNC(=O)c1ccc(-c2c3nc(c(-c4cc(S(=O)(=O)[O-])ccc4F)c4ccc([nH]4)c(-c4cc(S(=O)(=O)[O-])ccc4F)c4nc(c(-c5cc(S(=O)(=O)[O-])ccc5F)c5ccc2[nH]5)C=C4)C=C3)cc1
REMARK SMILES IDX 31 1 30 2 1 3 2 4 3 6 4 7 5 8 29 9 6 10 28 11 7 12 8 13 9 14
REMARK SMILES IDX 10 16 11 17 12 18 27 19 13 20 26 21 14 22 15 23 16 24 24 25
REMARK SMILES IDX 17 26 18 27 23 28 25 29 19 30 22 31 20 32 21 33 32 34 33 35
REMARK SMILES IDX 34 36 35 37 36 39 37 40 38 41 99 42 39 43 98 44 40 45 41 46
REMARK SMILES IDX 42 47 92 48 43 49 97 50 91 51 93 52 44 53 96 54 90 55 89 56
REMARK SMILES IDX 45 58 77 59 57 60 76 61 58 62 61 63 75 64 94 65 59 66 60 67
REMARK SMILES IDX 74 69 95 70 62 71 46 72 47 73 55 74 48 75 54 76 56 77 53 78
REMARK SMILES IDX 49 79 50 80 51 81 52 82 78 83 79 84 87 85 80 86 86 87 88 88
REMARK SMILES IDX 85 89 81 90 82 91 83 92 84 93 63 94 64 95 72 96 65 97 71 98
REMARK SMILES IDX 73 99 70 100 66 101 67 102 68 103 69 104
REMARK H PARENT 30 5 8 15 34 38 93 57 61 68
REMARK Flexibility Score: inf
ROOT
ATOM      1  C   UNL A   1      33.583  30.580  27.144  1.00  0.00     0.117 C 
ENDROOT
BRANCH   1   2
ATOM      2  N   UNL A   1      32.492  29.632  27.136  1.00  0.00    -0.356 N 
ATOM      3  O   UNL A   1      33.736  27.802  26.514  1.00  0.00    -0.275 OA
ATOM      4  C   UNL A   1      32.668  28.291  26.870  1.00  0.00     0.224 C 
ATOM      5  H   UNL A   1      31.583  29.958  27.330  1.00  0.00     0.163 HD
BRANCH   4   6
ATOM      6  C   UNL A   1      31.410  27.453  27.008  1.00  0.00     0.135 C 
BRANCH   6   7
ATOM      7  C   UNL A   1      31.266  26.341  25.989  1.00  0.00    -0.039 A 
ATOM      8  C   UNL A   1      31.226  26.657  24.629  1.00  0.00     0.006 A 
ATOM      9  C   UNL A   1      31.222  24.991  26.362  1.00  0.00     0.006 A 
ATOM     10  C   UNL A   1      31.160  25.646  23.667  1.00  0.00     0.026 A 
ATOM     11  C   UNL A   1      31.157  23.983  25.394  1.00  0.00     0.026 A 
ATOM     12  C   UNL A   1      31.184  24.299  24.034  1.00  0.00     0.041 A 
BRANCH  12  13
ATOM     13  N   UNL A   1      31.242  23.228  23.118  1.00  0.00    -0.322 N 
ATOM     14  C   UNL A   1      32.291  22.416  22.737  1.00  0.00     0.255 C 
ATOM     15  H   UNL A   1      30.387  23.026  22.672  1.00  0.00     0.170 HD
ATOM     16  O   UNL A   1      32.181  21.643  21.787  1.00  0.00    -0.269 OA
BRANCH  14  17
ATOM     17  C   UNL A   1      33.540  22.401  23.524  1.00  0.00     0.040 A 
ATOM     18  C   UNL A   1      33.671  21.514  24.588  1.00  0.00     0.016 A 
ATOM     19  C   UNL A   1      34.616  23.203  23.149  1.00  0.00     0.016 A 
ATOM     20  C   UNL A   1      34.927  21.333  25.185  1.00  0.00     0.028 A 
ATOM     21  C   UNL A   1      35.864  23.011  23.748  1.00  0.00     0.028 A 
ATOM     22  C   UNL A   1      36.064  22.036  24.742  1.00  0.00     0.052 A 
BRANCH  22  23
ATOM     23  N   UNL A   1      37.375  21.739  25.234  1.00  0.00    -0.242 N 
ATOM     24  C   UNL A   1      37.990  20.504  25.149  1.00  0.00     0.266 C 
ATOM     25  C   UNL A   1      38.188  22.624  25.918  1.00  0.00     0.266 C 
ATOM     26  O   UNL A   1      37.649  19.448  24.647  1.00  0.00    -0.268 OA
ATOM     27  C   UNL A   1      39.278  20.613  25.822  1.00  0.00     0.053 A 
ATOM     28  C   UNL A   1      39.399  21.899  26.293  1.00  0.00     0.053 A 
ATOM     29  O   UNL A   1      38.044  23.794  26.228  1.00  0.00    -0.268 OA
ATOM     30  C   UNL A   1      40.264  19.663  26.014  1.00  0.00     0.015 A 
ATOM     31  C   UNL A   1      40.514  22.314  26.995  1.00  0.00     0.015 A 
ATOM     32  C   UNL A   1      41.406  20.059  26.713  1.00  0.00     0.001 A 
ATOM     33  C   UNL A   1      41.529  21.374  27.202  1.00  0.00     0.001 A 
ENDBRANCH  22  23
ENDBRANCH  14  17
ENDBRANCH  12  13
ENDBRANCH   6   7
ENDBRANCH   4   6
ENDBRANCH   1   2
BRANCH   1  34
ATOM     34  C   UNL A   1      33.270  31.829  27.958  1.00  0.00     0.042 C 
BRANCH  34  35
ATOM     35  C   UNL A   1      33.124  33.107  27.138  1.00  0.00     0.118 C 
BRANCH  35  36
ATOM     36  N   UNL A   1      32.694  34.252  27.928  1.00  0.00    -0.352 N 
ATOM     37  C   UNL A   1      33.183  34.751  29.111  1.00  0.00     0.251 C 
ATOM     38  H   UNL A   1      31.931  34.747  27.555  1.00  0.00     0.163 HD
ATOM     39  O   UNL A   1      32.562  35.650  29.673  1.00  0.00    -0.269 OA
BRANCH  37  40
ATOM     40  C   UNL A   1      34.417  34.206  29.726  1.00  0.00     0.039 A 
ATOM     41  C   UNL A   1      34.299  33.455  30.899  1.00  0.00     0.014 A 
ATOM     42  C   UNL A   1      35.683  34.448  29.186  1.00  0.00     0.014 A 
ATOM     43  C   UNL A   1      35.438  32.898  31.491  1.00  0.00     0.010 A 
ATOM     44  C   UNL A   1      36.808  33.826  29.732  1.00  0.00     0.010 A 
ATOM     45  C   UNL A   1      36.699  33.047  30.893  1.00  0.00    -0.014 A 
BRANCH  45  46
ATOM     46  C   UNL A   1      37.900  32.389  31.477  1.00  0.00     0.031 A 
ATOM     47  C   UNL A   1      38.499  32.888  32.766  1.00  0.00     0.074 A 
ATOM     48  C   UNL A   1      38.475  31.357  30.827  1.00  0.00     0.049 A 
ATOM     49  N   UNL A   1      39.547  32.450  33.418  1.00  0.00    -0.248 NA
ATOM     50  C   UNL A   1      37.852  34.052  33.388  1.00  0.00     0.031 C 
ATOM     51  C   UNL A   1      38.022  30.812  29.544  1.00  0.00     0.029 A 
ATOM     52  N   UNL A   1      39.559  30.580  31.149  1.00  0.00    -0.354 N 
ATOM     53  C   UNL A   1      39.689  33.286  34.520  1.00  0.00     0.074 A 
ATOM     54  C   UNL A   1      38.660  34.298  34.410  1.00  0.00     0.031 C 
ATOM     55  C   UNL A   1      38.798  29.770  29.210  1.00  0.00     0.029 A 
ATOM     56  C   UNL A   1      39.830  29.595  30.227  1.00  0.00     0.049 A 
ATOM     57  H   UNL A   1      40.095  30.716  31.964  1.00  0.00     0.167 HD
ATOM     58  C   UNL A   1      40.577  33.203  35.544  1.00  0.00     0.034 A 
ATOM     59  C   UNL A   1      40.798  28.657  30.201  1.00  0.00     0.034 A 
ATOM     60  C   UNL A   1      41.593  32.182  35.646  1.00  0.00     0.049 A 
ATOM     61  C   UNL A   1      41.778  28.590  31.345  1.00  0.00     0.074 A 
ATOM     62  C   UNL A   1      42.507  31.975  36.666  1.00  0.00     0.029 A 
ATOM     63  N   UNL A   1      41.836  31.199  34.695  1.00  0.00    -0.354 N 
ATOM     64  N   UNL A   1      41.860  29.352  32.411  1.00  0.00    -0.248 NA
ATOM     65  C   UNL A   1      42.785  27.522  31.289  1.00  0.00     0.031 C 
ATOM     66  C   UNL A   1      43.345  30.914  36.298  1.00  0.00     0.029 A 
ATOM     67  C   UNL A   1      42.904  30.405  35.088  1.00  0.00     0.049 A 
ATOM     68  H   UNL A   1      41.324  31.084  33.861  1.00  0.00     0.167 HD
ATOM     69  C   UNL A   1      42.908  28.834  33.167  1.00  0.00     0.074 A 
ATOM     70  C   UNL A   1      43.410  27.684  32.445  1.00  0.00     0.031 C 
ATOM     71  C   UNL A   1      43.409  29.269  34.353  1.00  0.00     0.034 A 
BRANCH  58  72
ATOM     72  C   UNL A   1      40.497  34.261  36.622  1.00  0.00     0.023 A 
ATOM     73  C   UNL A   1      39.973  33.981  37.896  1.00  0.00     0.031 A 
ATOM     74  C   UNL A   1      40.928  35.575  36.365  1.00  0.00     0.131 A 
ATOM     75  C   UNL A   1      39.821  35.012  38.835  1.00  0.00     0.055 A 
ATOM     76  C   UNL A   1      40.854  36.578  37.334  1.00  0.00     0.041 A 
ATOM     77  F   UNL A   1      41.419  35.912  35.161  1.00  0.00    -0.206 F 
ATOM     78  C   UNL A   1      40.282  36.304  38.573  1.00  0.00     0.022 A 
BRANCH  75  79
ATOM     79  S   UNL A   1      38.877  34.674  40.346  1.00  0.00     0.124 S 
ATOM     80  O   UNL A   1      37.792  33.839  39.834  1.00  0.00    -0.237 OA
ATOM     81  O   UNL A   1      39.858  34.003  41.189  1.00  0.00    -0.237 OA
ATOM     82  O   UNL A   1      38.468  36.002  40.799  1.00  0.00    -0.744 OA
ENDBRANCH  75  79
ENDBRANCH  58  72
BRANCH  59  83
ATOM     83  C   UNL A   1      40.895  27.701  29.060  1.00  0.00     0.023 A 
ATOM     84  C   UNL A   1      41.808  27.911  28.014  1.00  0.00     0.031 A 
ATOM     85  C   UNL A   1      40.042  26.586  28.977  1.00  0.00     0.131 A 
ATOM     86  C   UNL A   1      41.813  27.050  26.906  1.00  0.00     0.055 A 
ATOM     87  C   UNL A   1      40.090  25.700  27.898  1.00  0.00     0.041 A 
ATOM     88  F   UNL A   1      39.154  26.335  29.952  1.00  0.00    -0.206 F 
ATOM     89  C   UNL A   1      40.969  25.939  26.847  1.00  0.00     0.022 A 
BRANCH  86  90
ATOM     90  S   UNL A   1      42.879  27.457  25.496  1.00  0.00     0.124 S 
ATOM     91  O   UNL A   1      42.775  26.248  24.687  1.00  0.00    -0.237 OA
ATOM     92  O   UNL A   1      42.231  28.647  24.958  1.00  0.00    -0.237 OA
ATOM     93  O   UNL A   1      44.185  27.684  26.113  1.00  0.00    -0.744 OA
ENDBRANCH  86  90
ENDBRANCH  59  83
BRANCH  71  94
ATOM     94  C   UNL A   1      44.534  28.461  34.956  1.00  0.00     0.023 A 
ATOM     95  C   UNL A   1      44.311  27.539  35.994  1.00  0.00     0.031 A 
ATOM     96  C   UNL A   1      45.855  28.643  34.509  1.00  0.00     0.131 A 
ATOM     97  C   UNL A   1      45.398  26.888  36.598  1.00  0.00     0.055 A 
ATOM     98  C   UNL A   1      46.925  27.942  35.068  1.00  0.00     0.041 A 
ATOM     99  F   UNL A   1      46.129  29.512  33.523  1.00  0.00    -0.206 F 
ATOM    100  C   UNL A   1      46.701  27.072  36.131  1.00  0.00     0.022 A 
BRANCH  97 101
ATOM    101  S   UNL A   1      45.097  25.888  38.082  1.00  0.00     0.124 S 
ATOM    102  O   UNL A   1      45.060  24.536  37.536  1.00  0.00    -0.237 OA
ATOM    103  O   UNL A   1      46.254  26.208  38.912  1.00  0.00    -0.237 OA
ATOM    104  O   UNL A   1      43.818  26.391  38.580  1.00  0.00    -0.744 OA
ENDBRANCH  97 101
ENDBRANCH  71  94
ENDBRANCH  45  46
ENDBRANCH  37  40
ENDBRANCH  35  36
ENDBRANCH  34  35
ENDBRANCH   1  34
TORSDOF 17
ENDMDL
MODEL 3
REMARK VINA RESULT:     -12.3      5.319     10.350
REMARK SMILES O=C(Cc1ccc(NC(=O)c2ccc(N3C(=O)c4ccccc4C3=O)cc2)cc1)NCCCNC(=O)c1ccc(-c2c3nc(c(-c4cc(S(=O)(=O)[O-])ccc4F)c4ccc([nH]4)c(-c4cc(S(=O)(=O)[O-])ccc4F)c4nc(c(-c5cc(S(=O)(=O)[O-])ccc5F)c5ccc2[nH]5)C=C4)C=C3)cc1
REMARK SMILES IDX 31 1 30 2 1 3 2 4 3 6 4 7 5 8 29 9 6 10 28 11 7 12 8 13 9 14
REMARK SMILES IDX 10 16 11 17 12 18 27 19 13 20 26 21 14 22 15 23 16 24 24 25
REMARK SMILES IDX 17 26 18 27 23 28 25 29 19 30 22 31 20 32 21 33 32 34 33 35
REMARK SMILES IDX 34 36 35 37 36 39 37 40 38 41 99 42 39 43 98 44 40 45 41 46
REMARK SMILES IDX 42 47 92 48 43 49 97 50 91 51 93 52 44 53 96 54 90 55 89 56
REMARK SMILES IDX 45 58 77 59 57 60 76 61 58 62 61 63 75 64 94 65 59 66 60 67
REMARK SMILES IDX 74 69 95 70 62 71 46 72 47 73 55 74 48 75 54 76 56 77 53 78
REMARK SMILES IDX 49 79 50 80 51 81 52 82 78 83 79 84 87 85 80 86 86 87 88 88
REMARK SMILES IDX 85 89 81 90 82 91 83 92 84 93 63 94 64 95 72 96 65 97 71 98
REMARK SMILES IDX 73 99 70 100 66 101 67 102 68 103 69 104
REMARK H PARENT 30 5 8 15 34 38 93 57 61 68
REMARK Flexibility Score: inf
ROOT
ATOM      1  C   UNL A   1      35.386  32.814  27.999  1.00  0.00     0.117 C 
ENDROOT
BRANCH   1   2
ATOM      2  N   UNL A   1      35.384  31.530  27.333  1.00  0.00    -0.356 N 
ATOM      3  O   UNL A   1      35.318  30.245  29.238  1.00  0.00    -0.275 OA
ATOM      4  C   UNL A   1      35.295  30.335  28.014  1.00  0.00     0.224 C 
ATOM      5  H   UNL A   1      35.448  31.508  26.350  1.00  0.00     0.163 HD
BRANCH   4   6
ATOM      6  C   UNL A   1      35.211  29.110  27.123  1.00  0.00     0.135 C 
BRANCH   6   7
ATOM      7  C   UNL A   1      33.839  28.834  26.541  1.00  0.00    -0.039 A 
ATOM      8  C   UNL A   1      33.652  28.908  25.159  1.00  0.00     0.006 A 
ATOM      9  C   UNL A   1      32.754  28.454  27.343  1.00  0.00     0.006 A 
ATOM     10  C   UNL A   1      32.414  28.594  24.593  1.00  0.00     0.026 A 
ATOM     11  C   UNL A   1      31.517  28.139  26.770  1.00  0.00     0.026 A 
ATOM     12  C   UNL A   1      31.352  28.150  25.383  1.00  0.00     0.041 A 
BRANCH  12  13
ATOM     13  N   UNL A   1      30.116  27.702  24.871  1.00  0.00    -0.322 N 
ATOM     14  C   UNL A   1      29.754  26.500  24.296  1.00  0.00     0.255 C 
ATOM     15  H   UNL A   1      29.386  28.361  24.933  1.00  0.00     0.170 HD
ATOM     16  O   UNL A   1      28.661  26.362  23.750  1.00  0.00    -0.269 OA
BRANCH  14  17
ATOM     17  C   UNL A   1      30.646  25.328  24.407  1.00  0.00     0.040 A 
ATOM     18  C   UNL A   1      31.163  24.747  23.254  1.00  0.00     0.016 A 
ATOM     19  C   UNL A   1      31.042  24.864  25.660  1.00  0.00     0.016 A 
ATOM     20  C   UNL A   1      32.185  23.792  23.361  1.00  0.00     0.028 A 
ATOM     21  C   UNL A   1      32.065  23.915  25.754  1.00  0.00     0.028 A 
ATOM     22  C   UNL A   1      32.698  23.395  24.610  1.00  0.00     0.052 A 
BRANCH  22  23
ATOM     23  N   UNL A   1      33.846  22.548  24.721  1.00  0.00    -0.242 N 
ATOM     24  C   UNL A   1      35.156  22.989  24.727  1.00  0.00     0.266 C 
ATOM     25  C   UNL A   1      33.813  21.167  24.777  1.00  0.00     0.266 C 
ATOM     26  O   UNL A   1      35.649  24.102  24.689  1.00  0.00    -0.268 OA
ATOM     27  C   UNL A   1      36.010  21.810  24.791  1.00  0.00     0.053 A 
ATOM     28  C   UNL A   1      35.197  20.702  24.818  1.00  0.00     0.053 A 
ATOM     29  O   UNL A   1      32.891  20.370  24.783  1.00  0.00    -0.268 OA
ATOM     30  C   UNL A   1      37.389  21.712  24.817  1.00  0.00     0.015 A 
ATOM     31  C   UNL A   1      35.715  19.421  24.864  1.00  0.00     0.015 A 
ATOM     32  C   UNL A   1      37.938  20.430  24.873  1.00  0.00     0.001 A 
ATOM     33  C   UNL A   1      37.107  19.292  24.894  1.00  0.00     0.001 A 
ENDBRANCH  22  23
ENDBRANCH  14  17
ENDBRANCH  12  13
ENDBRANCH   6   7
ENDBRANCH   4   6
ENDBRANCH   1   2
BRANCH   1  34
ATOM     34  C   UNL A   1      33.985  33.389  28.168  1.00  0.00     0.042 C 
BRANCH  34  35
ATOM     35  C   UNL A   1      33.938  34.891  28.432  1.00  0.00     0.118 C 
BRANCH  35  36
ATOM     36  N   UNL A   1      33.280  35.235  29.684  1.00  0.00    -0.352 N 
ATOM     37  C   UNL A   1      33.557  34.843  30.972  1.00  0.00     0.251 C 
ATOM     38  H   UNL A   1      32.514  35.845  29.594  1.00  0.00     0.163 HD
ATOM     39  O   UNL A   1      32.767  35.149  31.863  1.00  0.00    -0.269 OA
BRANCH  37  40
ATOM     40  C   UNL A   1      34.762  34.042  31.292  1.00  0.00     0.039 A 
ATOM     41  C   UNL A   1      36.019  34.613  31.069  1.00  0.00     0.014 A 
ATOM     42  C   UNL A   1      34.674  32.733  31.774  1.00  0.00     0.014 A 
ATOM     43  C   UNL A   1      37.178  33.898  31.388  1.00  0.00     0.010 A 
ATOM     44  C   UNL A   1      35.828  32.052  32.166  1.00  0.00     0.010 A 
ATOM     45  C   UNL A   1      37.094  32.626  31.974  1.00  0.00    -0.014 A 
BRANCH  45  46
ATOM     46  C   UNL A   1      38.325  31.896  32.389  1.00  0.00     0.031 A 
ATOM     47  C   UNL A   1      38.992  32.202  33.704  1.00  0.00     0.074 A 
ATOM     48  C   UNL A   1      38.864  30.977  31.561  1.00  0.00     0.049 A 
ATOM     49  N   UNL A   1      40.073  31.679  34.226  1.00  0.00    -0.248 NA
ATOM     50  C   UNL A   1      38.381  33.255  34.527  1.00  0.00     0.031 C 
ATOM     51  C   UNL A   1      38.342  30.627  30.237  1.00  0.00     0.029 A 
ATOM     52  N   UNL A   1      39.963  30.169  31.706  1.00  0.00    -0.354 N 
ATOM     53  C   UNL A   1      40.274  32.342  35.433  1.00  0.00     0.074 A 
ATOM     54  C   UNL A   1      39.241  33.352  35.530  1.00  0.00     0.031 C 
ATOM     55  C   UNL A   1      39.099  29.652  29.711  1.00  0.00     0.029 A 
ATOM     56  C   UNL A   1      40.183  29.335  30.634  1.00  0.00     0.049 A 
ATOM     57  H   UNL A   1      40.542  30.186  32.503  1.00  0.00     0.167 HD
ATOM     58  C   UNL A   1      41.216  32.113  36.384  1.00  0.00     0.034 A 
ATOM     59  C   UNL A   1      41.148  28.419  30.417  1.00  0.00     0.034 A 
ATOM     60  C   UNL A   1      42.235  31.096  36.278  1.00  0.00     0.049 A 
ATOM     61  C   UNL A   1      42.187  28.188  31.485  1.00  0.00     0.074 A 
ATOM     62  C   UNL A   1      43.203  30.746  37.205  1.00  0.00     0.029 A 
ATOM     63  N   UNL A   1      42.426  30.268  35.179  1.00  0.00    -0.354 N 
ATOM     64  N   UNL A   1      42.327  28.783  32.646  1.00  0.00    -0.248 NA
ATOM     65  C   UNL A   1      43.189  27.148  31.216  1.00  0.00     0.031 C 
ATOM     66  C   UNL A   1      44.018  29.758  36.639  1.00  0.00     0.029 A 
ATOM     67  C   UNL A   1      43.513  29.432  35.392  1.00  0.00     0.049 A 
ATOM     68  H   UNL A   1      41.871  30.275  34.365  1.00  0.00     0.167 HD
ATOM     69  C   UNL A   1      43.413  28.166  33.260  1.00  0.00     0.074 A 
ATOM     70  C   UNL A   1      43.876  27.140  32.348  1.00  0.00     0.031 C 
ATOM     71  C   UNL A   1      43.977  28.422  34.469  1.00  0.00     0.034 A 
BRANCH  58  72
ATOM     72  C   UNL A   1      41.194  32.998  37.610  1.00  0.00     0.023 A 
ATOM     73  C   UNL A   1      40.434  32.669  38.747  1.00  0.00     0.031 A 
ATOM     74  C   UNL A   1      41.925  34.200  37.636  1.00  0.00     0.131 A 
ATOM     75  C   UNL A   1      40.358  33.564  39.824  1.00  0.00     0.055 A 
ATOM     76  C   UNL A   1      41.914  35.046  38.748  1.00  0.00     0.041 A 
ATOM     77  F   UNL A   1      42.654  34.581  36.575  1.00  0.00    -0.206 F 
ATOM     78  C   UNL A   1      41.114  34.739  39.845  1.00  0.00     0.022 A 
BRANCH  75  79
ATOM     79  S   UNL A   1      39.144  33.243  41.132  1.00  0.00     0.124 S 
ATOM     80  O   UNL A   1      38.123  34.247  40.838  1.00  0.00    -0.237 OA
ATOM     81  O   UNL A   1      38.768  31.857  40.882  1.00  0.00    -0.237 OA
ATOM     82  O   UNL A   1      39.897  33.474  42.363  1.00  0.00    -0.744 OA
ENDBRANCH  75  79
ENDBRANCH  58  72
BRANCH  59  83
ATOM     83  C   UNL A   1      41.183  27.645  29.142  1.00  0.00     0.023 A 
ATOM     84  C   UNL A   1      42.141  27.920  28.153  1.00  0.00     0.031 A 
ATOM     85  C   UNL A   1      40.228  26.647  28.875  1.00  0.00     0.131 A 
ATOM     86  C   UNL A   1      42.093  27.244  26.924  1.00  0.00     0.055 A 
ATOM     87  C   UNL A   1      40.219  25.938  27.673  1.00  0.00     0.041 A 
ATOM     88  F   UNL A   1      39.293  26.340  29.789  1.00  0.00    -0.206 F 
ATOM     89  C   UNL A   1      41.147  26.245  26.682  1.00  0.00     0.022 A 
BRANCH  86  90
ATOM     90  S   UNL A   1      43.233  27.753  25.608  1.00  0.00     0.124 S 
ATOM     91  O   UNL A   1      43.934  26.506  25.325  1.00  0.00    -0.237 OA
ATOM     92  O   UNL A   1      42.315  28.222  24.577  1.00  0.00    -0.237 OA
ATOM     93  O   UNL A   1      44.041  28.793  26.243  1.00  0.00    -0.744 OA
ENDBRANCH  86  90
ENDBRANCH  59  83
BRANCH  71  94
ATOM     94  C   UNL A   1      45.133  27.541  34.884  1.00  0.00     0.023 A 
ATOM     95  C   UNL A   1      44.930  26.306  35.524  1.00  0.00     0.031 A 
ATOM     96  C   UNL A   1      46.457  27.962  34.667  1.00  0.00     0.131 A 
ATOM     97  C   UNL A   1      46.031  25.569  35.988  1.00  0.00     0.055 A 
ATOM     98  C   UNL A   1      47.549  27.193  35.071  1.00  0.00     0.041 A 
ATOM     99  F   UNL A   1      46.711  29.134  34.063  1.00  0.00    -0.206 F 
ATOM    100  C   UNL A   1      47.339  25.997  35.751  1.00  0.00     0.022 A 
BRANCH  97 101
ATOM    101  S   UNL A   1      45.726  24.103  37.012  1.00  0.00     0.124 S 
ATOM    102  O   UNL A   1      47.082  23.648  37.304  1.00  0.00    -0.237 OA
ATOM    103  O   UNL A   1      44.984  24.658  38.139  1.00  0.00    -0.237 OA
ATOM    104  O   UNL A   1      44.955  23.225  36.133  1.00  0.00    -0.744 OA
ENDBRANCH  97 101
ENDBRANCH  71  94
ENDBRANCH  45  46
ENDBRANCH  37  40
ENDBRANCH  35  36
ENDBRANCH  34  35
ENDBRANCH   1  34
TORSDOF 17
ENDMDL
