MODEL 1
REMARK VINA RESULT:     -11.7      0.000      0.000
REMARK SMILES O=C(NCCCNC(=O)c1csc(C[NH2+][C@H]2CCSc3ccc(F)cc32)c1)c1ccc(-c2c3nc(c(-c4cc(S(=O)(=O)[O-])ccc4F)c4ccc([nH]4)c(-c4cc(S(=O)(=O)[O-])ccc4F)c4nc(c(-c5cc(S(=O)(=O)[O-])ccc5F)c5ccc2[nH]5)C=C4)C=C3)cc1
REMARK SMILES IDX 5 1 4 2 3 3 1 4 2 5 28 7 29 8 90 9 30 10 89 11 31 12 32 13
REMARK SMILES IDX 33 14 83 15 34 16 88 17 82 18 84 19 35 20 87 21 81 22 80 23
REMARK SMILES IDX 36 25 68 26 48 27 67 28 49 29 52 30 66 31 85 32 50 33 51 34
REMARK SMILES IDX 65 36 86 37 53 38 37 39 38 40 46 41 39 42 45 43 47 44 44 45
REMARK SMILES IDX 40 46 41 47 42 48 43 49 69 50 70 51 78 52 71 53 77 54 79 55
REMARK SMILES IDX 76 56 72 57 73 58 74 59 75 60 54 61 55 62 63 63 56 64 62 65
REMARK SMILES IDX 64 66 61 67 57 68 58 69 59 70 60 71 6 72 7 73 8 74 9 76
REMARK SMILES IDX 10 77 11 78 27 79 12 80 13 81 14 82 15 83 16 86 17 87 26 88
REMARK SMILES IDX 18 89 20 90 25 91 19 92 21 93 23 94 22 95 24 96
REMARK H PARENT 3 6 84 24 52 35 7 75 15 84 15 85
REMARK Flexibility Score: inf
ROOT
ATOM      1  C   UNL A   1      32.861  29.134  24.790  1.00  0.00     0.042 C 
ENDROOT
BRANCH   1   2
ATOM      2  C   UNL A   1      33.791  29.237  25.998  1.00  0.00     0.118 C 
BRANCH   2   3
ATOM      3  N   UNL A   1      33.631  30.476  26.739  1.00  0.00    -0.352 N 
ATOM      4  O   UNL A   1      33.968  32.039  28.298  1.00  0.00    -0.269 OA
ATOM      5  C   UNL A   1      34.388  31.027  27.741  1.00  0.00     0.251 C 
ATOM      6  H   UNL A   1      32.844  31.010  26.479  1.00  0.00     0.163 HD
BRANCH   5   7
ATOM      7  C   UNL A   1      35.679  30.435  28.172  1.00  0.00     0.039 A 
ATOM      8  C   UNL A   1      35.690  29.682  29.353  1.00  0.00     0.014 A 
ATOM      9  C   UNL A   1      36.880  30.681  27.498  1.00  0.00     0.014 A 
ATOM     10  C   UNL A   1      36.888  29.149  29.839  1.00  0.00     0.010 A 
ATOM     11  C   UNL A   1      38.073  30.119  27.965  1.00  0.00     0.010 A 
ATOM     12  C   UNL A   1      38.087  29.358  29.143  1.00  0.00    -0.014 A 
BRANCH  12  13
ATOM     13  C   UNL A   1      39.364  28.803  29.657  1.00  0.00     0.031 A 
ATOM     14  C   UNL A   1      40.020  29.406  30.866  1.00  0.00     0.074 A 
ATOM     15  C   UNL A   1      39.940  27.759  29.032  1.00  0.00     0.049 A 
ATOM     16  N   UNL A   1      41.152  29.082  31.437  1.00  0.00    -0.248 NA
ATOM     17  C   UNL A   1      39.316  30.522  31.515  1.00  0.00     0.031 C 
ATOM     18  C   UNL A   1      39.402  27.084  27.850  1.00  0.00     0.029 A 
ATOM     19  N   UNL A   1      41.104  27.085  29.303  1.00  0.00    -0.354 N 
ATOM     20  C   UNL A   1      41.303  29.959  32.503  1.00  0.00     0.074 A 
ATOM     21  C   UNL A   1      40.156  30.843  32.489  1.00  0.00     0.031 C 
ATOM     22  C   UNL A   1      40.225  26.078  27.511  1.00  0.00     0.029 A 
ATOM     23  C   UNL A   1      41.360  26.054  28.431  1.00  0.00     0.049 A 
ATOM     24  H   UNL A   1      41.701  27.318  30.051  1.00  0.00     0.167 HD
ATOM     25  C   UNL A   1      42.300  30.020  33.417  1.00  0.00     0.034 A 
ATOM     26  C   UNL A   1      42.389  25.185  28.379  1.00  0.00     0.034 A 
ATOM     27  C   UNL A   1      43.436  29.138  33.446  1.00  0.00     0.049 A 
ATOM     28  C   UNL A   1      43.484  25.271  29.408  1.00  0.00     0.074 A 
ATOM     29  C   UNL A   1      44.498  29.131  34.333  1.00  0.00     0.029 A 
ATOM     30  N   UNL A   1      43.649  28.095  32.558  1.00  0.00    -0.354 N 
ATOM     31  N   UNL A   1      43.597  26.094  30.423  1.00  0.00    -0.248 NA
ATOM     32  C   UNL A   1      44.591  24.313  29.284  1.00  0.00     0.031 C 
ATOM     33  C   UNL A   1      45.358  28.084  33.979  1.00  0.00     0.029 A 
ATOM     34  C   UNL A   1      44.825  27.436  32.876  1.00  0.00     0.049 A 
ATOM     35  H   UNL A   1      43.053  27.859  31.813  1.00  0.00     0.167 HD
ATOM     36  C   UNL A   1      44.780  25.743  31.066  1.00  0.00     0.074 A 
ATOM     37  C   UNL A   1      45.338  24.624  30.337  1.00  0.00     0.031 C 
ATOM     38  C   UNL A   1      45.357  26.308  32.156  1.00  0.00     0.034 A 
BRANCH  25  39
ATOM     39  C   UNL A   1      42.191  31.075  34.481  1.00  0.00     0.023 A 
ATOM     40  C   UNL A   1      42.706  32.362  34.266  1.00  0.00     0.031 A 
ATOM     41  C   UNL A   1      41.592  30.784  35.718  1.00  0.00     0.131 A 
ATOM     42  C   UNL A   1      42.602  33.322  35.281  1.00  0.00     0.055 A 
ATOM     43  C   UNL A   1      41.491  31.744  36.725  1.00  0.00     0.041 A 
ATOM     44  F   UNL A   1      41.072  29.570  35.951  1.00  0.00    -0.206 F 
ATOM     45  C   UNL A   1      42.000  33.019  36.508  1.00  0.00     0.022 A 
BRANCH  42  46
ATOM     46  S   UNL A   1      43.248  34.997  35.049  1.00  0.00     0.124 S 
ATOM     47  O   UNL A   1      44.649  34.732  34.739  1.00  0.00    -0.237 OA
ATOM     48  O   UNL A   1      42.447  35.490  33.934  1.00  0.00    -0.237 OA
ATOM     49  O   UNL A   1      43.005  35.645  36.333  1.00  0.00    -0.744 OA
ENDBRANCH  42  46
ENDBRANCH  25  39
BRANCH  26  50
ATOM     50  C   UNL A   1      42.390  24.120  27.340  1.00  0.00     0.023 A 
ATOM     51  C   UNL A   1      41.826  22.859  27.589  1.00  0.00     0.031 A 
ATOM     52  C   UNL A   1      43.028  24.338  26.108  1.00  0.00     0.131 A 
ATOM     53  C   UNL A   1      41.940  21.849  26.625  1.00  0.00     0.055 A 
ATOM     54  C   UNL A   1      43.107  23.341  25.136  1.00  0.00     0.041 A 
ATOM     55  F   UNL A   1      43.586  25.528  25.839  1.00  0.00    -0.206 F 
ATOM     56  C   UNL A   1      42.570  22.084  25.398  1.00  0.00     0.022 A 
BRANCH  53  57
ATOM     57  S   UNL A   1      41.359  20.166  26.968  1.00  0.00     0.124 S 
ATOM     58  O   UNL A   1      40.390  19.958  25.899  1.00  0.00    -0.237 OA
ATOM     59  O   UNL A   1      42.592  19.393  26.861  1.00  0.00    -0.237 OA
ATOM     60  O   UNL A   1      40.804  20.263  28.314  1.00  0.00    -0.744 OA
ENDBRANCH  53  57
ENDBRANCH  26  50
BRANCH  38  61
ATOM     61  C   UNL A   1      46.660  25.732  32.634  1.00  0.00     0.023 A 
ATOM     62  C   UNL A   1      46.683  24.769  33.655  1.00  0.00     0.031 A 
ATOM     63  C   UNL A   1      47.882  26.206  32.126  1.00  0.00     0.131 A 
ATOM     64  C   UNL A   1      47.913  24.309  34.144  1.00  0.00     0.055 A 
ATOM     65  C   UNL A   1      49.104  25.735  32.608  1.00  0.00     0.041 A 
ATOM     66  F   UNL A   1      47.901  27.127  31.152  1.00  0.00    -0.206 F 
ATOM     67  C   UNL A   1      49.123  24.786  33.625  1.00  0.00     0.022 A 
BRANCH  64  68
ATOM     68  S   UNL A   1      47.992  23.100  35.491  1.00  0.00     0.124 S 
ATOM     69  O   UNL A   1      46.674  23.243  36.101  1.00  0.00    -0.237 OA
ATOM     70  O   UNL A   1      48.212  21.850  34.770  1.00  0.00    -0.237 OA
ATOM     71  O   UNL A   1      49.111  23.557  36.308  1.00  0.00    -0.744 OA
ENDBRANCH  64  68
ENDBRANCH  38  61
ENDBRANCH  12  13
ENDBRANCH   5   7
ENDBRANCH   2   3
ENDBRANCH   1   2
BRANCH   1  72
ATOM     72  C   UNL A   1      31.432  29.634  25.007  1.00  0.00     0.118 C 
BRANCH  72  73
ATOM     73  N   UNL A   1      30.698  29.792  23.765  1.00  0.00    -0.352 N 
ATOM     74  C   UNL A   1      30.431  28.891  22.764  1.00  0.00     0.252 C 
ATOM     75  H   UNL A   1      30.331  30.693  23.615  1.00  0.00     0.163 HD
ATOM     76  O   UNL A   1      30.004  29.313  21.695  1.00  0.00    -0.269 OA
BRANCH  74  77
ATOM     77  C   UNL A   1      30.664  27.466  22.974  1.00  0.00     0.051 A 
ATOM     78  C   UNL A   1      29.818  26.609  23.650  1.00  0.00     0.079 A 
ATOM     79  C   UNL A   1      31.750  26.733  22.383  1.00  0.00     0.035 A 
ATOM     80  S   UNL A   1      30.361  24.987  23.637  1.00  0.00    -0.142 S 
ATOM     81  C   UNL A   1      31.715  25.382  22.667  1.00  0.00     0.059 A 
BRANCH  81  82
ATOM     82  C   UNL A   1      32.663  24.313  22.206  1.00  0.00     0.308 C 
BRANCH  82  83
ATOM     83  N   UNL A   1      33.783  24.194  23.133  1.00  0.00    -0.336 N 
ATOM     84  H   UNL A   1      33.860  25.064  23.658  1.00  0.00     0.347 HD
ATOM     85  H   UNL A   1      34.613  24.001  22.573  1.00  0.00     0.347 HD
BRANCH  83  86
ATOM     86  C   UNL A   1      33.644  23.084  24.091  1.00  0.00     0.215 C 
ATOM     87  C   UNL A   1      32.829  21.946  23.456  1.00  0.00     0.081 C 
ATOM     88  C   UNL A   1      35.012  22.643  24.599  1.00  0.00     0.026 A 
ATOM     89  C   UNL A   1      32.647  20.793  24.426  1.00  0.00     0.081 C 
ATOM     90  C   UNL A   1      35.330  21.304  24.897  1.00  0.00     0.017 A 
ATOM     91  C   UNL A   1      35.989  23.629  24.862  1.00  0.00     0.050 A 
ATOM     92  S   UNL A   1      34.210  19.928  24.696  1.00  0.00    -0.125 SA
ATOM     93  C   UNL A   1      36.610  20.978  25.384  1.00  0.00     0.018 A 
ATOM     94  C   UNL A   1      37.243  23.287  25.353  1.00  0.00     0.123 A 
ATOM     95  C   UNL A   1      37.566  21.966  25.610  1.00  0.00     0.040 A 
ATOM     96  F   UNL A   1      38.148  24.247  25.589  1.00  0.00    -0.207 F 
ENDBRANCH  83  86
ENDBRANCH  82  83
ENDBRANCH  81  82
ENDBRANCH  74  77
ENDBRANCH  72  73
ENDBRANCH   1  72
TORSDOF 16
ENDMDL
MODEL 2
REMARK VINA RESULT:     -11.6      3.505      4.648
REMARK SMILES O=C(NCCCNC(=O)c1csc(C[NH2+][C@H]2CCSc3ccc(F)cc32)c1)c1ccc(-c2c3nc(c(-c4cc(S(=O)(=O)[O-])ccc4F)c4ccc([nH]4)c(-c4cc(S(=O)(=O)[O-])ccc4F)c4nc(c(-c5cc(S(=O)(=O)[O-])ccc5F)c5ccc2[nH]5)C=C4)C=C3)cc1
REMARK SMILES IDX 5 1 4 2 3 3 1 4 2 5 28 7 29 8 90 9 30 10 89 11 31 12 32 13
REMARK SMILES IDX 33 14 83 15 34 16 88 17 82 18 84 19 35 20 87 21 81 22 80 23
REMARK SMILES IDX 36 25 68 26 48 27 67 28 49 29 52 30 66 31 85 32 50 33 51 34
REMARK SMILES IDX 65 36 86 37 53 38 37 39 38 40 46 41 39 42 45 43 47 44 44 45
REMARK SMILES IDX 40 46 41 47 42 48 43 49 69 50 70 51 78 52 71 53 77 54 79 55
REMARK SMILES IDX 76 56 72 57 73 58 74 59 75 60 54 61 55 62 63 63 56 64 62 65
REMARK SMILES IDX 64 66 61 67 57 68 58 69 59 70 60 71 6 72 7 73 8 74 9 76
REMARK SMILES IDX 10 77 11 78 27 79 12 80 13 81 14 82 15 83 16 86 17 87 26 88
REMARK SMILES IDX 18 89 20 90 25 91 19 92 21 93 23 94 22 95 24 96
REMARK H PARENT 3 6 84 24 52 35 7 75 15 84 15 85
REMARK Flexibility Score: inf
ROOT
ATOM      1  C   UNL A   1      31.507  32.013  26.570  1.00  0.00     0.042 C 
ENDROOT
BRANCH   1   2
ATOM      2  C   UNL A   1      32.800  32.716  26.986  1.00  0.00     0.118 C 
BRANCH   2   3
ATOM      3  N   UNL A   1      32.574  34.012  27.601  1.00  0.00    -0.352 N 
ATOM      4  O   UNL A   1      32.696  35.667  29.094  1.00  0.00    -0.269 OA
ATOM      5  C   UNL A   1      33.155  34.599  28.696  1.00  0.00     0.251 C 
ATOM      6  H   UNL A   1      31.885  34.560  27.158  1.00  0.00     0.163 HD
BRANCH   5   7
ATOM      7  C   UNL A   1      34.302  33.982  29.407  1.00  0.00     0.039 A 
ATOM      8  C   UNL A   1      35.593  34.301  28.965  1.00  0.00     0.014 A 
ATOM      9  C   UNL A   1      34.134  33.037  30.424  1.00  0.00     0.014 A 
ATOM     10  C   UNL A   1      36.709  33.704  29.559  1.00  0.00     0.010 A 
ATOM     11  C   UNL A   1      35.252  32.466  31.043  1.00  0.00     0.010 A 
ATOM     12  C   UNL A   1      36.546  32.788  30.608  1.00  0.00    -0.014 A 
BRANCH  12  13
ATOM     13  C   UNL A   1      37.727  32.145  31.237  1.00  0.00     0.031 A 
ATOM     14  C   UNL A   1      38.223  32.615  32.575  1.00  0.00     0.074 A 
ATOM     15  C   UNL A   1      38.359  31.141  30.602  1.00  0.00     0.049 A 
ATOM     16  N   UNL A   1      39.257  32.202  33.261  1.00  0.00    -0.248 NA
ATOM     17  C   UNL A   1      37.462  33.694  33.222  1.00  0.00     0.031 C 
ATOM     18  C   UNL A   1      37.974  30.593  29.301  1.00  0.00     0.029 A 
ATOM     19  N   UNL A   1      39.458  30.404  30.964  1.00  0.00    -0.354 N 
ATOM     20  C   UNL A   1      39.280  32.975  34.414  1.00  0.00     0.074 A 
ATOM     21  C   UNL A   1      38.166  33.897  34.327  1.00  0.00     0.031 C 
ATOM     22  C   UNL A   1      38.811  29.591  28.984  1.00  0.00     0.029 A 
ATOM     23  C   UNL A   1      39.808  29.445  30.044  1.00  0.00     0.049 A 
ATOM     24  H   UNL A   1      39.951  30.548  31.805  1.00  0.00     0.167 HD
ATOM     25  C   UNL A   1      40.142  32.919  35.456  1.00  0.00     0.034 A 
ATOM     26  C   UNL A   1      40.814  28.548  30.052  1.00  0.00     0.034 A 
ATOM     27  C   UNL A   1      41.242  31.998  35.558  1.00  0.00     0.049 A 
ATOM     28  C   UNL A   1      41.757  28.503  31.223  1.00  0.00     0.074 A 
ATOM     29  C   UNL A   1      42.171  31.874  36.576  1.00  0.00     0.029 A 
ATOM     30  N   UNL A   1      41.552  31.030  34.615  1.00  0.00    -0.354 N 
ATOM     31  N   UNL A   1      41.748  29.228  32.316  1.00  0.00    -0.248 NA
ATOM     32  C   UNL A   1      42.849  27.520  31.162  1.00  0.00     0.031 C 
ATOM     33  C   UNL A   1      43.046  30.831  36.247  1.00  0.00     0.029 A 
ATOM     34  C   UNL A   1      42.656  30.304  35.027  1.00  0.00     0.049 A 
ATOM     35  H   UNL A   1      41.059  30.882  33.776  1.00  0.00     0.167 HD
ATOM     36  C   UNL A   1      42.822  28.780  33.078  1.00  0.00     0.074 A 
ATOM     37  C   UNL A   1      43.449  27.711  32.331  1.00  0.00     0.031 C 
ATOM     38  C   UNL A   1      43.256  29.225  34.283  1.00  0.00     0.034 A 
BRANCH  25  39
ATOM     39  C   UNL A   1      39.912  33.879  36.589  1.00  0.00     0.023 A 
ATOM     40  C   UNL A   1      39.308  33.447  37.778  1.00  0.00     0.031 A 
ATOM     41  C   UNL A   1      40.274  35.230  36.466  1.00  0.00     0.131 A 
ATOM     42  C   UNL A   1      39.094  34.366  38.813  1.00  0.00     0.055 A 
ATOM     43  C   UNL A   1      40.058  36.142  37.500  1.00  0.00     0.041 A 
ATOM     44  F   UNL A   1      40.871  35.674  35.350  1.00  0.00    -0.206 F 
ATOM     45  C   UNL A   1      39.463  35.710  38.679  1.00  0.00     0.022 A 
BRANCH  42  46
ATOM     46  S   UNL A   1      38.322  33.855  40.370  1.00  0.00     0.124 S 
ATOM     47  O   UNL A   1      38.153  35.135  41.049  1.00  0.00    -0.237 OA
ATOM     48  O   UNL A   1      37.089  33.224  39.914  1.00  0.00    -0.237 OA
ATOM     49  O   UNL A   1      39.305  32.958  40.967  1.00  0.00    -0.744 OA
ENDBRANCH  42  46
ENDBRANCH  25  39
BRANCH  26  50
ATOM     50  C   UNL A   1      40.933  27.580  28.929  1.00  0.00     0.023 A 
ATOM     51  C   UNL A   1      41.881  27.760  27.908  1.00  0.00     0.031 A 
ATOM     52  C   UNL A   1      40.042  26.498  28.833  1.00  0.00     0.131 A 
ATOM     53  C   UNL A   1      41.892  26.886  26.813  1.00  0.00     0.055 A 
ATOM     54  C   UNL A   1      40.081  25.608  27.759  1.00  0.00     0.041 A 
ATOM     55  F   UNL A   1      39.118  26.299  29.785  1.00  0.00    -0.206 F 
ATOM     56  C   UNL A   1      41.004  25.807  26.737  1.00  0.00     0.022 A 
BRANCH  53  57
ATOM     57  S   UNL A   1      42.997  27.174  25.405  1.00  0.00     0.124 S 
ATOM     58  O   UNL A   1      44.238  27.554  26.069  1.00  0.00    -0.237 OA
ATOM     59  O   UNL A   1      43.004  25.867  24.755  1.00  0.00    -0.237 OA
ATOM     60  O   UNL A   1      42.330  28.234  24.656  1.00  0.00    -0.744 OA
ENDBRANCH  53  57
ENDBRANCH  26  50
BRANCH  38  61
ATOM     61  C   UNL A   1      44.467  28.563  34.879  1.00  0.00     0.023 A 
ATOM     62  C   UNL A   1      44.329  27.452  35.726  1.00  0.00     0.031 A 
ATOM     63  C   UNL A   1      45.751  29.092  34.665  1.00  0.00     0.131 A 
ATOM     64  C   UNL A   1      45.464  26.904  36.337  1.00  0.00     0.055 A 
ATOM     65  C   UNL A   1      46.880  28.534  35.266  1.00  0.00     0.041 A 
ATOM     66  F   UNL A   1      45.923  30.153  33.864  1.00  0.00    -0.206 F 
ATOM     67  C   UNL A   1      46.739  27.438  36.111  1.00  0.00     0.022 A 
BRANCH  64  68
ATOM     68  S   UNL A   1      45.330  25.498  37.472  1.00  0.00     0.124 S 
ATOM     69  O   UNL A   1      46.574  25.602  38.227  1.00  0.00    -0.237 OA
ATOM     70  O   UNL A   1      44.119  25.820  38.221  1.00  0.00    -0.237 OA
ATOM     71  O   UNL A   1      45.231  24.341  36.590  1.00  0.00    -0.744 OA
ENDBRANCH  64  68
ENDBRANCH  38  61
ENDBRANCH  12  13
ENDBRANCH   5   7
ENDBRANCH   2   3
ENDBRANCH   1   2
BRANCH   1  72
ATOM     72  C   UNL A   1      31.667  30.589  26.038  1.00  0.00     0.118 C 
BRANCH  72  73
ATOM     73  N   UNL A   1      31.730  29.598  27.096  1.00  0.00    -0.352 N 
ATOM     74  C   UNL A   1      31.621  28.231  27.048  1.00  0.00     0.252 C 
ATOM     75  H   UNL A   1      31.874  29.967  27.998  1.00  0.00     0.163 HD
ATOM     76  O   UNL A   1      31.459  27.619  28.098  1.00  0.00    -0.269 OA
BRANCH  74  77
ATOM     77  C   UNL A   1      31.687  27.531  25.770  1.00  0.00     0.051 A 
ATOM     78  C   UNL A   1      30.734  27.596  24.773  1.00  0.00     0.079 A 
ATOM     79  C   UNL A   1      32.828  26.780  25.321  1.00  0.00     0.035 A 
ATOM     80  S   UNL A   1      31.169  26.714  23.374  1.00  0.00    -0.142 S 
ATOM     81  C   UNL A   1      32.680  26.273  24.045  1.00  0.00     0.059 A 
BRANCH  81  82
ATOM     82  C   UNL A   1      33.665  25.467  23.249  1.00  0.00     0.308 C 
BRANCH  82  83
ATOM     83  N   UNL A   1      33.163  24.114  23.040  1.00  0.00    -0.336 N 
ATOM     84  H   UNL A   1      33.085  23.952  22.036  1.00  0.00     0.347 HD
ATOM     85  H   UNL A   1      32.263  24.053  23.516  1.00  0.00     0.347 HD
BRANCH  83  86
ATOM     86  C   UNL A   1      34.025  23.067  23.614  1.00  0.00     0.215 C 
ATOM     87  C   UNL A   1      35.499  23.390  23.328  1.00  0.00     0.081 C 
ATOM     88  C   UNL A   1      33.719  22.878  25.096  1.00  0.00     0.026 A 
ATOM     89  C   UNL A   1      36.415  22.317  23.888  1.00  0.00     0.081 C 
ATOM     90  C   UNL A   1      34.702  22.563  26.053  1.00  0.00     0.017 A 
ATOM     91  C   UNL A   1      32.374  22.941  25.525  1.00  0.00     0.050 A 
ATOM     92  S   UNL A   1      36.441  22.373  25.693  1.00  0.00    -0.125 SA
ATOM     93  C   UNL A   1      34.338  22.381  27.400  1.00  0.00     0.018 A 
ATOM     94  C   UNL A   1      32.035  22.749  26.859  1.00  0.00     0.123 A 
ATOM     95  C   UNL A   1      33.008  22.476  27.804  1.00  0.00     0.040 A 
ATOM     96  F   UNL A   1      30.750  22.819  27.234  1.00  0.00    -0.207 F 
ENDBRANCH  83  86
ENDBRANCH  82  83
ENDBRANCH  81  82
ENDBRANCH  74  77
ENDBRANCH  72  73
ENDBRANCH   1  72
TORSDOF 16
ENDMDL
MODEL 3
REMARK VINA RESULT:     -11.6      3.508      8.330
REMARK SMILES O=C(NCCCNC(=O)c1csc(C[NH2+][C@H]2CCSc3ccc(F)cc32)c1)c1ccc(-c2c3nc(c(-c4cc(S(=O)(=O)[O-])ccc4F)c4ccc([nH]4)c(-c4cc(S(=O)(=O)[O-])ccc4F)c4nc(c(-c5cc(S(=O)(=O)[O-])ccc5F)c5ccc2[nH]5)C=C4)C=C3)cc1
REMARK SMILES IDX 5 1 4 2 3 3 1 4 2 5 28 7 29 8 90 9 30 10 89 11 31 12 32 13
REMARK SMILES IDX 33 14 83 15 34 16 88 17 82 18 84 19 35 20 87 21 81 22 80 23
REMARK SMILES IDX 36 25 68 26 48 27 67 28 49 29 52 30 66 31 85 32 50 33 51 34
REMARK SMILES IDX 65 36 86 37 53 38 37 39 38 40 46 41 39 42 45 43 47 44 44 45
REMARK SMILES IDX 40 46 41 47 42 48 43 49 69 50 70 51 78 52 71 53 77 54 79 55
REMARK SMILES IDX 76 56 72 57 73 58 74 59 75 60 54 61 55 62 63 63 56 64 62 65
REMARK SMILES IDX 64 66 61 67 57 68 58 69 59 70 60 71 6 72 7 73 8 74 9 76
REMARK SMILES IDX 10 77 11 78 27 79 12 80 13 81 14 82 15 83 16 86 17 87 26 88
REMARK SMILES IDX 18 89 20 90 25 91 19 92 21 93 23 94 22 95 24 96
REMARK H PARENT 3 6 84 24 52 35 7 75 15 84 15 85
REMARK Flexibility Score: inf
ROOT
ATOM      1  C   UNL A   1      31.402  31.946  26.592  1.00  0.00     0.042 C 
ENDROOT
BRANCH   1   2
ATOM      2  C   UNL A   1      32.690  32.534  27.168  1.00  0.00     0.118 C 
BRANCH   2   3
ATOM      3  N   UNL A   1      32.545  33.911  27.604  1.00  0.00    -0.352 N 
ATOM      4  O   UNL A   1      32.780  35.744  28.859  1.00  0.00    -0.269 OA
ATOM      5  C   UNL A   1      33.173  34.607  28.605  1.00  0.00     0.251 C 
ATOM      6  H   UNL A   1      31.882  34.434  27.095  1.00  0.00     0.163 HD
BRANCH   5   7
ATOM      7  C   UNL A   1      34.294  34.027  29.387  1.00  0.00     0.039 A 
ATOM      8  C   UNL A   1      35.599  34.308  28.962  1.00  0.00     0.014 A 
ATOM      9  C   UNL A   1      34.089  33.149  30.455  1.00  0.00     0.014 A 
ATOM     10  C   UNL A   1      36.693  33.742  29.624  1.00  0.00     0.010 A 
ATOM     11  C   UNL A   1      35.184  32.610  31.140  1.00  0.00     0.010 A 
ATOM     12  C   UNL A   1      36.493  32.894  30.723  1.00  0.00    -0.014 A 
BRANCH  12  13
ATOM     13  C   UNL A   1      37.649  32.283  31.425  1.00  0.00     0.031 A 
ATOM     14  C   UNL A   1      38.427  31.172  30.778  1.00  0.00     0.074 A 
ATOM     15  C   UNL A   1      37.995  32.720  32.650  1.00  0.00     0.049 A 
ATOM     16  N   UNL A   1      39.439  30.492  31.251  1.00  0.00    -0.248 NA
ATOM     17  C   UNL A   1      38.009  30.771  29.426  1.00  0.00     0.031 C 
ATOM     18  C   UNL A   1      37.321  33.791  33.384  1.00  0.00     0.029 A 
ATOM     19  N   UNL A   1      39.000  32.317  33.493  1.00  0.00    -0.354 N 
ATOM     20  C   UNL A   1      39.774  29.575  30.264  1.00  0.00     0.074 A 
ATOM     21  C   UNL A   1      38.844  29.773  29.171  1.00  0.00     0.031 C 
ATOM     22  C   UNL A   1      37.945  33.975  34.559  1.00  0.00     0.029 A 
ATOM     23  C   UNL A   1      39.044  33.018  34.674  1.00  0.00     0.049 A 
ATOM     24  H   UNL A   1      39.631  31.594  33.273  1.00  0.00     0.167 HD
ATOM     25  C   UNL A   1      40.769  28.657  30.260  1.00  0.00     0.034 A 
ATOM     26  C   UNL A   1      39.874  32.906  35.730  1.00  0.00     0.034 A 
ATOM     27  C   UNL A   1      41.706  28.464  31.334  1.00  0.00     0.049 A 
ATOM     28  C   UNL A   1      40.975  31.881  35.700  1.00  0.00     0.074 A 
ATOM     29  C   UNL A   1      42.744  27.553  31.418  1.00  0.00     0.029 A 
ATOM     30  N   UNL A   1      41.729  29.206  32.505  1.00  0.00    -0.354 N 
ATOM     31  N   UNL A   1      41.290  31.037  34.746  1.00  0.00    -0.248 NA
ATOM     32  C   UNL A   1      41.832  31.789  36.891  1.00  0.00     0.031 C 
ATOM     33  C   UNL A   1      43.395  27.742  32.644  1.00  0.00     0.029 A 
ATOM     34  C   UNL A   1      42.764  28.775  33.318  1.00  0.00     0.049 A 
ATOM     35  H   UNL A   1      41.102  29.931  32.725  1.00  0.00     0.167 HD
ATOM     36  C   UNL A   1      42.389  30.325  35.216  1.00  0.00     0.074 A 
ATOM     37  C   UNL A   1      42.696  30.847  36.530  1.00  0.00     0.031 C 
ATOM     38  C   UNL A   1      43.073  29.320  34.615  1.00  0.00     0.034 A 
BRANCH  25  39
ATOM     39  C   UNL A   1      40.906  27.800  29.034  1.00  0.00     0.023 A 
ATOM     40  C   UNL A   1      41.839  28.124  28.038  1.00  0.00     0.031 A 
ATOM     41  C   UNL A   1      40.086  26.674  28.853  1.00  0.00     0.131 A 
ATOM     42  C   UNL A   1      41.936  27.314  26.899  1.00  0.00     0.055 A 
ATOM     43  C   UNL A   1      40.188  25.871  27.716  1.00  0.00     0.041 A 
ATOM     44  F   UNL A   1      39.197  26.324  29.793  1.00  0.00    -0.206 F 
ATOM     45  C   UNL A   1      41.115  26.193  26.732  1.00  0.00     0.022 A 
BRANCH  42  46
ATOM     46  S   UNL A   1      43.128  27.689  25.588  1.00  0.00     0.124 S 
ATOM     47  O   UNL A   1      42.272  28.308  24.581  1.00  0.00    -0.237 OA
ATOM     48  O   UNL A   1      44.055  28.594  26.258  1.00  0.00    -0.237 OA
ATOM     49  O   UNL A   1      43.671  26.385  25.227  1.00  0.00    -0.744 OA
ENDBRANCH  42  46
ENDBRANCH  25  39
BRANCH  26  50
ATOM     50  C   UNL A   1      39.723  33.841  36.877  1.00  0.00     0.023 A 
ATOM     51  C   UNL A   1      39.166  33.416  38.094  1.00  0.00     0.031 A 
ATOM     52  C   UNL A   1      40.070  35.194  36.734  1.00  0.00     0.131 A 
ATOM     53  C   UNL A   1      38.942  34.351  39.114  1.00  0.00     0.055 A 
ATOM     54  C   UNL A   1      39.880  36.113  37.766  1.00  0.00     0.041 A 
ATOM     55  F   UNL A   1      40.597  35.637  35.582  1.00  0.00    -0.206 F 
ATOM     56  C   UNL A   1      39.303  35.693  38.960  1.00  0.00     0.022 A 
BRANCH  53  57
ATOM     57  S   UNL A   1      38.089  33.873  40.641  1.00  0.00     0.124 S 
ATOM     58  O   UNL A   1      36.910  33.188  40.126  1.00  0.00    -0.237 OA
ATOM     59  O   UNL A   1      39.081  33.021  41.288  1.00  0.00    -0.237 OA
ATOM     60  O   UNL A   1      37.839  35.147  41.307  1.00  0.00    -0.744 OA
ENDBRANCH  53  57
ENDBRANCH  26  50
BRANCH  38  61
ATOM     61  C   UNL A   1      44.224  28.712  35.366  1.00  0.00     0.023 A 
ATOM     62  C   UNL A   1      44.006  27.679  36.292  1.00  0.00     0.031 A 
ATOM     63  C   UNL A   1      45.526  29.219  35.216  1.00  0.00     0.131 A 
ATOM     64  C   UNL A   1      45.081  27.185  37.042  1.00  0.00     0.055 A 
ATOM     65  C   UNL A   1      46.595  28.714  35.956  1.00  0.00     0.041 A 
ATOM     66  F   UNL A   1      45.773  30.206  34.342  1.00  0.00    -0.206 F 
ATOM     67  C   UNL A   1      46.375  27.697  36.879  1.00  0.00     0.022 A 
BRANCH  64  68
ATOM     68  S   UNL A   1      44.841  25.885  38.280  1.00  0.00     0.124 S 
ATOM     69  O   UNL A   1      46.214  25.591  38.677  1.00  0.00    -0.237 OA
ATOM     70  O   UNL A   1      44.032  26.563  39.288  1.00  0.00    -0.237 OA
ATOM     71  O   UNL A   1      44.163  24.822  37.546  1.00  0.00    -0.744 OA
ENDBRANCH  64  68
ENDBRANCH  38  61
ENDBRANCH  12  13
ENDBRANCH   5   7
ENDBRANCH   2   3
ENDBRANCH   1   2
BRANCH   1  72
ATOM     72  C   UNL A   1      31.569  30.688  25.739  1.00  0.00     0.118 C 
BRANCH  72  73
ATOM     73  N   UNL A   1      30.539  30.556  24.726  1.00  0.00    -0.352 N 
ATOM     74  C   UNL A   1      30.455  29.719  23.641  1.00  0.00     0.252 C 
ATOM     75  H   UNL A   1      29.773  31.164  24.835  1.00  0.00     0.163 HD
ATOM     76  O   UNL A   1      29.608  29.954  22.785  1.00  0.00    -0.269 OA
BRANCH  74  77
ATOM     77  C   UNL A   1      31.364  28.586  23.512  1.00  0.00     0.051 A 
ATOM     78  C   UNL A   1      32.648  28.645  23.006  1.00  0.00     0.079 A 
ATOM     79  C   UNL A   1      31.089  27.271  24.021  1.00  0.00     0.035 A 
ATOM     80  S   UNL A   1      33.462  27.142  23.074  1.00  0.00    -0.142 S 
ATOM     81  C   UNL A   1      32.134  26.386  23.844  1.00  0.00     0.059 A 
BRANCH  81  82
ATOM     82  C   UNL A   1      32.212  24.948  24.267  1.00  0.00     0.308 C 
BRANCH  82  83
ATOM     83  N   UNL A   1      33.482  24.683  24.933  1.00  0.00    -0.336 N 
ATOM     84  H   UNL A   1      33.594  25.356  25.691  1.00  0.00     0.347 HD
ATOM     85  H   UNL A   1      34.213  24.766  24.226  1.00  0.00     0.347 HD
BRANCH  83  86
ATOM     86  C   UNL A   1      33.583  23.327  25.498  1.00  0.00     0.215 C 
ATOM     87  C   UNL A   1      32.531  22.412  24.851  1.00  0.00     0.081 C 
ATOM     88  C   UNL A   1      35.008  22.800  25.369  1.00  0.00     0.026 A 
ATOM     89  C   UNL A   1      32.593  21.010  25.428  1.00  0.00     0.081 C 
ATOM     90  C   UNL A   1      35.313  21.447  25.124  1.00  0.00     0.017 A 
ATOM     91  C   UNL A   1      36.084  23.691  25.584  1.00  0.00     0.050 A 
ATOM     92  S   UNL A   1      34.095  20.161  24.894  1.00  0.00    -0.125 SA
ATOM     93  C   UNL A   1      36.655  21.033  25.041  1.00  0.00     0.018 A 
ATOM     94  C   UNL A   1      37.403  23.260  25.508  1.00  0.00     0.123 A 
ATOM     95  C   UNL A   1      37.699  21.937  25.230  1.00  0.00     0.040 A 
ATOM     96  F   UNL A   1      38.399  24.132  25.713  1.00  0.00    -0.207 F 
ENDBRANCH  83  86
ENDBRANCH  82  83
ENDBRANCH  81  82
ENDBRANCH  74  77
ENDBRANCH  72  73
ENDBRANCH   1  72
TORSDOF 16
ENDMDL
