MODEL 1
REMARK VINA RESULT:      -9.7      0.000      0.000
REMARK SMILES O=C(CCOc1cccc(/C=C2/SC(=S)N(c3ccc(Cl)c(Cl)c3)C2=O)c1)NCCCNC(=O)c1ccc(-c2c3nc(c(-c4cc(S(=O)(=O)[O-])ccc4F)c4ccc([nH]4)c(-c4cc(S(=O)(=O)[O-])ccc4F)c4nc(c(-c5cc(S(=O)(=O)[O-])ccc5F)c5ccc2[nH]5)C=C4)C=C3)cc1
REMARK SMILES IDX 29 1 28 2 1 3 2 4 3 6 4 7 5 8 6 9 7 10 27 11 8 12 10 13 9 14
REMARK SMILES IDX 11 15 12 16 13 17 25 18 14 19 16 20 26 21 15 22 17 23 18 24
REMARK SMILES IDX 24 25 19 26 22 27 20 28 23 29 21 30 30 31 31 32 32 33 33 34
REMARK SMILES IDX 34 36 35 37 36 38 97 39 37 40 96 41 38 42 39 43 40 44 90 45
REMARK SMILES IDX 41 46 95 47 89 48 91 49 42 50 94 51 88 52 87 53 43 55 75 56
REMARK SMILES IDX 55 57 74 58 56 59 59 60 73 61 92 62 57 63 58 64 72 66 93 67
REMARK SMILES IDX 60 68 44 69 45 70 53 71 46 72 52 73 54 74 51 75 47 76 48 77
REMARK SMILES IDX 49 78 50 79 76 80 77 81 85 82 78 83 84 84 86 85 83 86 79 87
REMARK SMILES IDX 80 88 81 89 82 90 61 91 62 92 70 93 63 94 69 95 71 96 68 97
REMARK SMILES IDX 64 98 65 99 66 100 67 101
REMARK H PARENT 28 5 32 35 91 54 59 65
REMARK Flexibility Score: inf
ROOT
ATOM      1  C   UNL A   1      33.189  35.934  30.135  1.00  0.00     0.117 C 
ENDROOT
BRANCH   1   2
ATOM      2  N   UNL A   1      34.113  35.357  31.084  1.00  0.00    -0.356 N 
ATOM      3  O   UNL A   1      33.475  36.556  32.948  1.00  0.00    -0.275 OA
ATOM      4  C   UNL A   1      33.966  35.554  32.439  1.00  0.00     0.223 C 
ATOM      5  H   UNL A   1      34.862  34.812  30.754  1.00  0.00     0.163 HD
BRANCH   4   6
ATOM      6  C   UNL A   1      34.351  34.347  33.251  1.00  0.00     0.141 C 
BRANCH   6   7
ATOM      7  C   UNL A   1      35.734  34.546  33.882  1.00  0.00     0.239 C 
BRANCH   7   8
ATOM      8  O   UNL A   1      36.742  33.655  33.396  1.00  0.00    -0.493 OA
BRANCH   8   9
ATOM      9  C   UNL A   1      37.745  34.094  32.567  1.00  0.00     0.119 A 
ATOM     10  C   UNL A   1      37.446  33.952  31.208  1.00  0.00     0.046 A 
ATOM     11  C   UNL A   1      39.046  34.475  32.932  1.00  0.00     0.054 A 
ATOM     12  C   UNL A   1      38.436  34.134  30.238  1.00  0.00     0.004 A 
ATOM     13  C   UNL A   1      40.083  34.568  31.967  1.00  0.00    -0.021 A 
ATOM     14  C   UNL A   1      39.753  34.419  30.616  1.00  0.00     0.008 A 
BRANCH  13  15
ATOM     15  C   UNL A   1      41.480  34.827  32.383  1.00  0.00     0.029 C 
ATOM     16  C   UNL A   1      42.678  34.483  31.859  1.00  0.00     0.081 C 
ATOM     17  S   UNL A   1      44.130  34.747  32.773  1.00  0.00    -0.054 SA
ATOM     18  C   UNL A   1      43.088  33.741  30.612  1.00  0.00     0.270 C 
ATOM     19  C   UNL A   1      45.034  33.511  31.889  1.00  0.00     0.152 C 
ATOM     20  N   UNL A   1      44.258  33.006  30.857  1.00  0.00    -0.261 N 
ATOM     21  O   UNL A   1      42.490  33.831  29.560  1.00  0.00    -0.268 OA
ATOM     22  S   UNL A   1      46.617  33.167  32.311  1.00  0.00    -0.051 S 
BRANCH  20  23
ATOM     23  C   UNL A   1      44.573  31.819  30.090  1.00  0.00     0.052 A 
ATOM     24  C   UNL A   1      44.433  30.525  30.610  1.00  0.00     0.028 A 
ATOM     25  C   UNL A   1      45.188  31.932  28.827  1.00  0.00     0.048 A 
ATOM     26  C   UNL A   1      44.912  29.395  29.920  1.00  0.00     0.024 A 
ATOM     27  C   UNL A   1      45.671  30.809  28.131  1.00  0.00     0.061 A 
ATOM     28  C   UNL A   1      45.548  29.537  28.687  1.00  0.00     0.059 A 
ATOM     29  Cl  UNL A   1      46.461  31.081  26.616  1.00  0.00    -0.083 Cl
ATOM     30  Cl  UNL A   1      46.199  28.125  27.934  1.00  0.00    -0.083 Cl
ENDBRANCH  20  23
ENDBRANCH  13  15
ENDBRANCH   8   9
ENDBRANCH   7   8
ENDBRANCH   6   7
ENDBRANCH   4   6
ENDBRANCH   1   2
BRANCH   1  31
ATOM     31  C   UNL A   1      33.463  35.338  28.757  1.00  0.00     0.042 C 
BRANCH  31  32
ATOM     32  C   UNL A   1      34.423  34.173  28.690  1.00  0.00     0.118 C 
BRANCH  32  33
ATOM     33  N   UNL A   1      33.706  33.019  28.147  1.00  0.00    -0.352 N 
ATOM     34  C   UNL A   1      34.109  31.803  27.647  1.00  0.00     0.251 C 
ATOM     35  H   UNL A   1      32.728  33.138  28.139  1.00  0.00     0.163 HD
ATOM     36  O   UNL A   1      33.340  31.254  26.852  1.00  0.00    -0.269 OA
BRANCH  34  37
ATOM     37  C   UNL A   1      35.361  31.095  28.041  1.00  0.00     0.039 A 
ATOM     38  C   UNL A   1      35.271  29.735  28.389  1.00  0.00     0.014 A 
ATOM     39  C   UNL A   1      36.589  31.730  28.213  1.00  0.00     0.014 A 
ATOM     40  C   UNL A   1      36.373  29.047  28.920  1.00  0.00     0.010 A 
ATOM     41  C   UNL A   1      37.715  31.019  28.630  1.00  0.00     0.010 A 
ATOM     42  C   UNL A   1      37.612  29.686  29.043  1.00  0.00    -0.014 A 
BRANCH  42  43
ATOM     43  C   UNL A   1      38.791  29.045  29.690  1.00  0.00     0.031 A 
ATOM     44  C   UNL A   1      39.251  29.536  31.044  1.00  0.00     0.074 A 
ATOM     45  C   UNL A   1      39.498  28.096  29.046  1.00  0.00     0.049 A 
ATOM     46  N   UNL A   1      40.351  29.269  31.701  1.00  0.00    -0.248 NA
ATOM     47  C   UNL A   1      38.368  30.496  31.727  1.00  0.00     0.031 C 
ATOM     48  C   UNL A   1      39.170  27.543  27.732  1.00  0.00     0.029 A 
ATOM     49  N   UNL A   1      40.652  27.445  29.403  1.00  0.00    -0.354 N 
ATOM     50  C   UNL A   1      40.310  30.055  32.851  1.00  0.00     0.074 A 
ATOM     51  C   UNL A   1      39.104  30.849  32.769  1.00  0.00     0.031 C 
ATOM     52  C   UNL A   1      40.095  26.628  27.398  1.00  0.00     0.029 A 
ATOM     53  C   UNL A   1      41.110  26.569  28.446  1.00  0.00     0.049 A 
ATOM     54  H   UNL A   1      41.110  27.591  30.263  1.00  0.00     0.167 HD
ATOM     55  C   UNL A   1      41.187  30.097  33.886  1.00  0.00     0.034 A 
ATOM     56  C   UNL A   1      42.231  25.821  28.406  1.00  0.00     0.034 A 
ATOM     57  C   UNL A   1      42.367  29.269  33.968  1.00  0.00     0.049 A 
ATOM     58  C   UNL A   1      43.195  25.885  29.565  1.00  0.00     0.074 A 
ATOM     59  C   UNL A   1      43.296  29.189  34.992  1.00  0.00     0.029 A 
ATOM     60  N   UNL A   1      42.782  28.375  32.989  1.00  0.00    -0.354 N 
ATOM     61  N   UNL A   1      43.134  26.620  30.653  1.00  0.00    -0.248 NA
ATOM     62  C   UNL A   1      44.371  25.009  29.494  1.00  0.00     0.031 C 
ATOM     63  C   UNL A   1      44.302  28.296  34.605  1.00  0.00     0.029 A 
ATOM     64  C   UNL A   1      43.963  27.759  33.374  1.00  0.00     0.049 A 
ATOM     65  H   UNL A   1      42.306  28.204  32.145  1.00  0.00     0.167 HD
ATOM     66  C   UNL A   1      44.249  26.269  31.409  1.00  0.00     0.074 A 
ATOM     67  C   UNL A   1      44.951  25.245  30.661  1.00  0.00     0.031 C 
ATOM     68  C   UNL A   1      44.658  26.746  32.613  1.00  0.00     0.034 A 
BRANCH  55  69
ATOM     69  C   UNL A   1      40.914  31.090  34.996  1.00  0.00     0.023 A 
ATOM     70  C   UNL A   1      39.802  30.966  35.849  1.00  0.00     0.031 A 
ATOM     71  C   UNL A   1      41.764  32.195  35.186  1.00  0.00     0.131 A 
ATOM     72  C   UNL A   1      39.524  31.967  36.792  1.00  0.00     0.055 A 
ATOM     73  C   UNL A   1      41.530  33.142  36.187  1.00  0.00     0.041 A 
ATOM     74  F   UNL A   1      42.829  32.383  34.392  1.00  0.00    -0.206 F 
ATOM     75  C   UNL A   1      40.397  33.041  36.987  1.00  0.00     0.022 A 
BRANCH  72  76
ATOM     76  S   UNL A   1      37.928  31.928  37.652  1.00  0.00     0.124 S 
ATOM     77  O   UNL A   1      37.105  32.767  36.783  1.00  0.00    -0.237 OA
ATOM     78  O   UNL A   1      37.607  30.506  37.659  1.00  0.00    -0.237 OA
ATOM     79  O   UNL A   1      38.229  32.507  38.960  1.00  0.00    -0.744 OA
ENDBRANCH  72  76
ENDBRANCH  55  69
BRANCH  56  80
ATOM     80  C   UNL A   1      42.515  24.952  27.227  1.00  0.00     0.023 A 
ATOM     81  C   UNL A   1      42.133  23.602  27.219  1.00  0.00     0.031 A 
ATOM     82  C   UNL A   1      43.204  25.450  26.107  1.00  0.00     0.131 A 
ATOM     83  C   UNL A   1      42.480  22.783  26.133  1.00  0.00     0.055 A 
ATOM     84  C   UNL A   1      43.498  24.644  25.005  1.00  0.00     0.041 A 
ATOM     85  F   UNL A   1      43.588  26.735  26.062  1.00  0.00    -0.206 F 
ATOM     86  C   UNL A   1      43.147  23.298  25.020  1.00  0.00     0.022 A 
BRANCH  83  87
ATOM     87  S   UNL A   1      42.116  21.009  26.235  1.00  0.00     0.124 S 
ATOM     88  O   UNL A   1      40.712  20.972  25.843  1.00  0.00    -0.237 OA
ATOM     89  O   UNL A   1      43.063  20.450  25.277  1.00  0.00    -0.237 OA
ATOM     90  O   UNL A   1      42.383  20.685  27.634  1.00  0.00    -0.744 OA
ENDBRANCH  83  87
ENDBRANCH  56  80
BRANCH  68  91
ATOM     91  C   UNL A   1      45.897  26.122  33.211  1.00  0.00     0.023 A 
ATOM     92  C   UNL A   1      45.825  25.025  34.088  1.00  0.00     0.031 A 
ATOM     93  C   UNL A   1      47.166  26.655  32.922  1.00  0.00     0.131 A 
ATOM     94  C   UNL A   1      46.992  24.542  34.699  1.00  0.00     0.055 A 
ATOM     95  C   UNL A   1      48.331  26.126  33.482  1.00  0.00     0.041 A 
ATOM     96  F   UNL A   1      47.295  27.704  32.094  1.00  0.00    -0.206 F 
ATOM     97  C   UNL A   1      48.246  25.075  34.390  1.00  0.00     0.022 A 
BRANCH  94  98
ATOM     98  S   UNL A   1      46.836  23.281  35.995  1.00  0.00     0.124 S 
ATOM     99  O   UNL A   1      45.838  22.382  35.425  1.00  0.00    -0.237 OA
ATOM    100  O   UNL A   1      48.195  22.755  36.082  1.00  0.00    -0.237 OA
ATOM    101  O   UNL A   1      46.392  24.042  37.162  1.00  0.00    -0.744 OA
ENDBRANCH  94  98
ENDBRANCH  68  91
ENDBRANCH  42  43
ENDBRANCH  34  37
ENDBRANCH  32  33
ENDBRANCH  31  32
ENDBRANCH   1  31
TORSDOF 18
ENDMDL
MODEL 2
REMARK VINA RESULT:      -9.6      5.532     11.609
REMARK SMILES O=C(CCOc1cccc(/C=C2/SC(=S)N(c3ccc(Cl)c(Cl)c3)C2=O)c1)NCCCNC(=O)c1ccc(-c2c3nc(c(-c4cc(S(=O)(=O)[O-])ccc4F)c4ccc([nH]4)c(-c4cc(S(=O)(=O)[O-])ccc4F)c4nc(c(-c5cc(S(=O)(=O)[O-])ccc5F)c5ccc2[nH]5)C=C4)C=C3)cc1
REMARK SMILES IDX 29 1 28 2 1 3 2 4 3 6 4 7 5 8 6 9 7 10 27 11 8 12 10 13 9 14
REMARK SMILES IDX 11 15 12 16 13 17 25 18 14 19 16 20 26 21 15 22 17 23 18 24
REMARK SMILES IDX 24 25 19 26 22 27 20 28 23 29 21 30 30 31 31 32 32 33 33 34
REMARK SMILES IDX 34 36 35 37 36 38 97 39 37 40 96 41 38 42 39 43 40 44 90 45
REMARK SMILES IDX 41 46 95 47 89 48 91 49 42 50 94 51 88 52 87 53 43 55 75 56
REMARK SMILES IDX 55 57 74 58 56 59 59 60 73 61 92 62 57 63 58 64 72 66 93 67
REMARK SMILES IDX 60 68 44 69 45 70 53 71 46 72 52 73 54 74 51 75 47 76 48 77
REMARK SMILES IDX 49 78 50 79 76 80 77 81 85 82 78 83 84 84 86 85 83 86 79 87
REMARK SMILES IDX 80 88 81 89 82 90 61 91 62 92 70 93 63 94 69 95 71 96 68 97
REMARK SMILES IDX 64 98 65 99 66 100 67 101
REMARK H PARENT 28 5 32 35 91 54 59 65
REMARK Flexibility Score: inf
ROOT
ATOM      1  C   UNL A   1      34.272  34.589  32.963  1.00  0.00     0.117 C 
ENDROOT
BRANCH   1   2
ATOM      2  N   UNL A   1      33.320  34.584  31.877  1.00  0.00    -0.356 N 
ATOM      3  O   UNL A   1      33.395  36.828  31.352  1.00  0.00    -0.275 OA
ATOM      4  C   UNL A   1      33.192  35.662  31.030  1.00  0.00     0.223 C 
ATOM      5  H   UNL A   1      32.751  33.793  31.739  1.00  0.00     0.163 HD
BRANCH   4   6
ATOM      6  C   UNL A   1      32.901  35.259  29.609  1.00  0.00     0.141 C 
BRANCH   6   7
ATOM      7  C   UNL A   1      34.178  34.760  28.922  1.00  0.00     0.239 C 
BRANCH   7   8
ATOM      8  O   UNL A   1      34.759  33.600  29.522  1.00  0.00    -0.493 OA
BRANCH   8   9
ATOM      9  C   UNL A   1      34.611  32.355  28.962  1.00  0.00     0.119 A 
ATOM     10  C   UNL A   1      35.699  31.507  29.192  1.00  0.00     0.046 A 
ATOM     11  C   UNL A   1      33.611  31.935  28.069  1.00  0.00     0.054 A 
ATOM     12  C   UNL A   1      35.815  30.293  28.509  1.00  0.00     0.004 A 
ATOM     13  C   UNL A   1      33.764  30.754  27.297  1.00  0.00    -0.021 A 
ATOM     14  C   UNL A   1      34.864  29.928  27.550  1.00  0.00     0.008 A 
BRANCH  13  15
ATOM     15  C   UNL A   1      32.772  30.401  26.255  1.00  0.00     0.029 C 
ATOM     16  C   UNL A   1      32.074  29.273  25.990  1.00  0.00     0.081 C 
ATOM     17  S   UNL A   1      31.180  29.138  24.508  1.00  0.00    -0.054 SA
ATOM     18  C   UNL A   1      31.977  27.931  26.672  1.00  0.00     0.270 C 
ATOM     19  C   UNL A   1      31.200  27.370  24.539  1.00  0.00     0.152 C 
ATOM     20  N   UNL A   1      31.782  26.924  25.715  1.00  0.00    -0.261 N 
ATOM     21  O   UNL A   1      32.021  27.794  27.877  1.00  0.00    -0.268 OA
ATOM     22  S   UNL A   1      30.507  26.502  23.285  1.00  0.00    -0.051 S 
BRANCH  20  23
ATOM     23  C   UNL A   1      32.189  25.558  25.970  1.00  0.00     0.052 A 
ATOM     24  C   UNL A   1      31.327  24.603  26.526  1.00  0.00     0.028 A 
ATOM     25  C   UNL A   1      33.536  25.177  25.807  1.00  0.00     0.048 A 
ATOM     26  C   UNL A   1      31.789  23.337  26.932  1.00  0.00     0.024 A 
ATOM     27  C   UNL A   1      34.007  23.915  26.211  1.00  0.00     0.061 A 
ATOM     28  C   UNL A   1      33.134  22.997  26.793  1.00  0.00     0.059 A 
ATOM     29  Cl  UNL A   1      35.694  23.585  26.015  1.00  0.00    -0.083 Cl
ATOM     30  Cl  UNL A   1      33.659  21.466  27.397  1.00  0.00    -0.083 Cl
ENDBRANCH  20  23
ENDBRANCH  13  15
ENDBRANCH   8   9
ENDBRANCH   7   8
ENDBRANCH   6   7
ENDBRANCH   4   6
ENDBRANCH   1   2
BRANCH   1  31
ATOM     31  C   UNL A   1      34.734  33.157  33.219  1.00  0.00     0.042 C 
BRANCH  31  32
ATOM     32  C   UNL A   1      36.050  32.740  32.605  1.00  0.00     0.118 C 
BRANCH  32  33
ATOM     33  N   UNL A   1      36.322  31.356  33.000  1.00  0.00    -0.352 N 
ATOM     34  C   UNL A   1      37.198  30.398  32.548  1.00  0.00     0.251 C 
ATOM     35  H   UNL A   1      35.758  31.048  33.746  1.00  0.00     0.163 HD
ATOM     36  O   UNL A   1      36.876  29.223  32.748  1.00  0.00    -0.269 OA
BRANCH  34  37
ATOM     37  C   UNL A   1      38.510  30.684  31.900  1.00  0.00     0.039 A 
ATOM     38  C   UNL A   1      39.544  31.205  32.699  1.00  0.00     0.014 A 
ATOM     39  C   UNL A   1      38.733  30.591  30.529  1.00  0.00     0.014 A 
ATOM     40  C   UNL A   1      40.749  31.645  32.131  1.00  0.00     0.010 A 
ATOM     41  C   UNL A   1      39.973  30.919  29.976  1.00  0.00     0.010 A 
ATOM     42  C   UNL A   1      40.976  31.503  30.758  1.00  0.00    -0.014 A 
BRANCH  42  43
ATOM     43  C   UNL A   1      42.189  32.040  30.079  1.00  0.00     0.031 A 
ATOM     44  C   UNL A   1      43.383  31.135  29.872  1.00  0.00     0.074 A 
ATOM     45  C   UNL A   1      42.263  33.337  29.727  1.00  0.00     0.049 A 
ATOM     46  N   UNL A   1      44.599  31.430  29.490  1.00  0.00    -0.248 NA
ATOM     47  C   UNL A   1      43.187  29.709  30.185  1.00  0.00     0.031 C 
ATOM     48  C   UNL A   1      41.189  34.318  29.882  1.00  0.00     0.029 A 
ATOM     49  N   UNL A   1      43.297  34.058  29.183  1.00  0.00    -0.354 N 
ATOM     50  C   UNL A   1      45.320  30.239  29.554  1.00  0.00     0.074 A 
ATOM     51  C   UNL A   1      44.416  29.233  30.067  1.00  0.00     0.031 C 
ATOM     52  C   UNL A   1      41.616  35.510  29.435  1.00  0.00     0.029 A 
ATOM     53  C   UNL A   1      43.009  35.393  29.012  1.00  0.00     0.049 A 
ATOM     54  H   UNL A   1      44.163  33.658  28.939  1.00  0.00     0.167 HD
ATOM     55  C   UNL A   1      46.609  30.003  29.201  1.00  0.00     0.034 A 
ATOM     56  C   UNL A   1      43.784  36.410  28.587  1.00  0.00     0.034 A 
ATOM     57  C   UNL A   1      47.486  31.012  28.655  1.00  0.00     0.049 A 
ATOM     58  C   UNL A   1      45.216  36.127  28.203  1.00  0.00     0.074 A 
ATOM     59  C   UNL A   1      48.791  30.873  28.214  1.00  0.00     0.029 A 
ATOM     60  N   UNL A   1      47.147  32.347  28.473  1.00  0.00    -0.354 N 
ATOM     61  N   UNL A   1      45.878  34.993  28.253  1.00  0.00    -0.248 NA
ATOM     62  C   UNL A   1      45.999  37.260  27.695  1.00  0.00     0.031 C 
ATOM     63  C   UNL A   1      49.260  32.134  27.825  1.00  0.00     0.029 A 
ATOM     64  C   UNL A   1      48.224  33.046  27.950  1.00  0.00     0.049 A 
ATOM     65  H   UNL A   1      46.270  32.739  28.685  1.00  0.00     0.167 HD
ATOM     66  C   UNL A   1      47.147  35.273  27.751  1.00  0.00     0.074 A 
ATOM     67  C   UNL A   1      47.147  36.676  27.389  1.00  0.00     0.031 C 
ATOM     68  C   UNL A   1      48.215  34.448  27.602  1.00  0.00     0.034 A 
BRANCH  55  69
ATOM     69  C   UNL A   1      47.152  28.607  29.423  1.00  0.00     0.023 A 
ATOM     70  C   UNL A   1      47.050  27.604  28.441  1.00  0.00     0.031 A 
ATOM     71  C   UNL A   1      47.756  28.264  30.647  1.00  0.00     0.131 A 
ATOM     72  C   UNL A   1      47.466  26.295  28.728  1.00  0.00     0.055 A 
ATOM     73  C   UNL A   1      48.249  26.980  30.893  1.00  0.00     0.041 A 
ATOM     74  F   UNL A   1      47.864  29.169  31.632  1.00  0.00    -0.206 F 
ATOM     75  C   UNL A   1      48.091  25.982  29.938  1.00  0.00     0.022 A 
BRANCH  72  76
ATOM     76  S   UNL A   1      47.038  24.975  27.560  1.00  0.00     0.124 S 
ATOM     77  O   UNL A   1      46.123  24.161  28.358  1.00  0.00    -0.237 OA
ATOM     78  O   UNL A   1      46.439  25.713  26.455  1.00  0.00    -0.237 OA
ATOM     79  O   UNL A   1      48.325  24.345  27.267  1.00  0.00    -0.744 OA
ENDBRANCH  72  76
ENDBRANCH  55  69
BRANCH  56  80
ATOM     80  C   UNL A   1      43.235  37.794  28.507  1.00  0.00     0.023 A 
ATOM     81  C   UNL A   1      43.451  38.716  29.544  1.00  0.00     0.031 A 
ATOM     82  C   UNL A   1      42.455  38.205  27.412  1.00  0.00     0.131 A 
ATOM     83  C   UNL A   1      42.860  39.987  29.486  1.00  0.00     0.055 A 
ATOM     84  C   UNL A   1      41.914  39.490  27.333  1.00  0.00     0.041 A 
ATOM     85  F   UNL A   1      42.220  37.365  26.392  1.00  0.00    -0.206 F 
ATOM     86  C   UNL A   1      42.104  40.385  28.382  1.00  0.00     0.022 A 
BRANCH  83  87
ATOM     87  S   UNL A   1      43.026  41.087  30.918  1.00  0.00     0.124 S 
ATOM     88  O   UNL A   1      44.405  41.541  30.785  1.00  0.00    -0.237 OA
ATOM     89  O   UNL A   1      41.994  42.084  30.656  1.00  0.00    -0.237 OA
ATOM     90  O   UNL A   1      42.765  40.207  32.055  1.00  0.00    -0.744 OA
ENDBRANCH  83  87
ENDBRANCH  56  80
BRANCH  68  91
ATOM     91  C   UNL A   1      49.454  35.040  26.972  1.00  0.00     0.023 A 
ATOM     92  C   UNL A   1      50.540  35.483  27.747  1.00  0.00     0.031 A 
ATOM     93  C   UNL A   1      49.533  35.191  25.575  1.00  0.00     0.131 A 
ATOM     94  C   UNL A   1      51.626  36.120  27.127  1.00  0.00     0.055 A 
ATOM     95  C   UNL A   1      50.647  35.764  24.959  1.00  0.00     0.041 A 
ATOM     96  F   UNL A   1      48.524  34.788  24.786  1.00  0.00    -0.206 F 
ATOM     97  C   UNL A   1      51.695  36.248  25.737  1.00  0.00     0.022 A 
BRANCH  94  98
ATOM     98  S   UNL A   1      52.899  36.882  28.172  1.00  0.00     0.124 S 
ATOM     99  O   UNL A   1      53.973  35.896  28.109  1.00  0.00    -0.237 OA
ATOM    100  O   UNL A   1      53.150  38.145  27.486  1.00  0.00    -0.237 OA
ATOM    101  O   UNL A   1      52.245  37.004  29.474  1.00  0.00    -0.744 OA
ENDBRANCH  94  98
ENDBRANCH  68  91
ENDBRANCH  42  43
ENDBRANCH  34  37
ENDBRANCH  32  33
ENDBRANCH  31  32
ENDBRANCH   1  31
TORSDOF 18
ENDMDL
MODEL 3
REMARK VINA RESULT:      -9.5      4.961     11.157
REMARK SMILES O=C(CCOc1cccc(/C=C2/SC(=S)N(c3ccc(Cl)c(Cl)c3)C2=O)c1)NCCCNC(=O)c1ccc(-c2c3nc(c(-c4cc(S(=O)(=O)[O-])ccc4F)c4ccc([nH]4)c(-c4cc(S(=O)(=O)[O-])ccc4F)c4nc(c(-c5cc(S(=O)(=O)[O-])ccc5F)c5ccc2[nH]5)C=C4)C=C3)cc1
REMARK SMILES IDX 29 1 28 2 1 3 2 4 3 6 4 7 5 8 6 9 7 10 27 11 8 12 10 13 9 14
REMARK SMILES IDX 11 15 12 16 13 17 25 18 14 19 16 20 26 21 15 22 17 23 18 24
REMARK SMILES IDX 24 25 19 26 22 27 20 28 23 29 21 30 30 31 31 32 32 33 33 34
REMARK SMILES IDX 34 36 35 37 36 38 97 39 37 40 96 41 38 42 39 43 40 44 90 45
REMARK SMILES IDX 41 46 95 47 89 48 91 49 42 50 94 51 88 52 87 53 43 55 75 56
REMARK SMILES IDX 55 57 74 58 56 59 59 60 73 61 92 62 57 63 58 64 72 66 93 67
REMARK SMILES IDX 60 68 44 69 45 70 53 71 46 72 52 73 54 74 51 75 47 76 48 77
REMARK SMILES IDX 49 78 50 79 76 80 77 81 85 82 78 83 84 84 86 85 83 86 79 87
REMARK SMILES IDX 80 88 81 89 82 90 61 91 62 92 70 93 63 94 69 95 71 96 68 97
REMARK SMILES IDX 64 98 65 99 66 100 67 101
REMARK H PARENT 28 5 32 35 91 54 59 65
REMARK Flexibility Score: inf
ROOT
ATOM      1  C   UNL A   1      30.872  30.497  24.976  1.00  0.00     0.117 C 
ENDROOT
BRANCH   1   2
ATOM      2  N   UNL A   1      30.425  30.119  23.655  1.00  0.00    -0.356 N 
ATOM      3  O   UNL A   1      32.413  29.261  22.860  1.00  0.00    -0.275 OA
ATOM      4  C   UNL A   1      31.187  29.307  22.846  1.00  0.00     0.223 C 
ATOM      5  H   UNL A   1      29.559  30.450  23.327  1.00  0.00     0.163 HD
BRANCH   4   6
ATOM      6  C   UNL A   1      30.358  28.364  22.015  1.00  0.00     0.141 C 
BRANCH   6   7
ATOM      7  C   UNL A   1      30.679  26.909  22.376  1.00  0.00     0.239 C 
BRANCH   7   8
ATOM      8  O   UNL A   1      30.059  26.445  23.578  1.00  0.00    -0.493 OA
BRANCH   8   9
ATOM      9  C   UNL A   1      30.719  25.613  24.449  1.00  0.00     0.119 A 
ATOM     10  C   UNL A   1      30.101  25.512  25.699  1.00  0.00     0.046 A 
ATOM     11  C   UNL A   1      31.987  25.034  24.278  1.00  0.00     0.054 A 
ATOM     12  C   UNL A   1      30.754  24.894  26.769  1.00  0.00     0.004 A 
ATOM     13  C   UNL A   1      32.701  24.492  25.379  1.00  0.00    -0.021 A 
ATOM     14  C   UNL A   1      32.057  24.406  26.617  1.00  0.00     0.008 A 
BRANCH  13  15
ATOM     15  C   UNL A   1      34.095  24.018  25.213  1.00  0.00     0.029 C 
ATOM     16  C   UNL A   1      34.628  22.858  24.765  1.00  0.00     0.081 C 
ATOM     17  S   UNL A   1      36.327  22.556  24.957  1.00  0.00    -0.054 SA
ATOM     18  C   UNL A   1      34.030  21.594  24.201  1.00  0.00     0.270 C 
ATOM     19  C   UNL A   1      36.129  20.802  24.861  1.00  0.00     0.152 C 
ATOM     20  N   UNL A   1      34.809  20.489  24.578  1.00  0.00    -0.261 N 
ATOM     21  O   UNL A   1      33.045  21.584  23.492  1.00  0.00    -0.268 OA
ATOM     22  S   UNL A   1      37.458  19.798  25.034  1.00  0.00    -0.051 S 
BRANCH  20  23
ATOM     23  C   UNL A   1      34.234  19.164  24.673  1.00  0.00     0.052 A 
ATOM     24  C   UNL A   1      32.860  18.946  24.844  1.00  0.00     0.028 A 
ATOM     25  C   UNL A   1      35.070  18.032  24.751  1.00  0.00     0.048 A 
ATOM     26  C   UNL A   1      32.343  17.665  25.115  1.00  0.00     0.024 A 
ATOM     27  C   UNL A   1      34.562  16.749  25.022  1.00  0.00     0.061 A 
ATOM     28  C   UNL A   1      33.195  16.567  25.222  1.00  0.00     0.059 A 
ATOM     29  Cl  UNL A   1      35.694  15.447  25.155  1.00  0.00    -0.083 Cl
ATOM     30  Cl  UNL A   1      32.511  15.039  25.650  1.00  0.00    -0.083 Cl
ENDBRANCH  20  23
ENDBRANCH  13  15
ENDBRANCH   8   9
ENDBRANCH   7   8
ENDBRANCH   6   7
ENDBRANCH   4   6
ENDBRANCH   1   2
BRANCH   1  31
ATOM     31  C   UNL A   1      31.480  29.275  25.658  1.00  0.00     0.042 C 
BRANCH  31  32
ATOM     32  C   UNL A   1      32.730  29.495  26.477  1.00  0.00     0.118 C 
BRANCH  32  33
ATOM     33  N   UNL A   1      32.889  30.934  26.693  1.00  0.00    -0.352 N 
ATOM     34  C   UNL A   1      33.722  31.686  27.487  1.00  0.00     0.251 C 
ATOM     35  H   UNL A   1      32.269  31.478  26.155  1.00  0.00     0.163 HD
ATOM     36  O   UNL A   1      33.314  32.808  27.804  1.00  0.00    -0.269 OA
BRANCH  34  37
ATOM     37  C   UNL A   1      35.082  31.264  27.932  1.00  0.00     0.039 A 
ATOM     38  C   UNL A   1      35.252  29.939  28.374  1.00  0.00     0.014 A 
ATOM     39  C   UNL A   1      36.160  32.136  28.062  1.00  0.00     0.014 A 
ATOM     40  C   UNL A   1      36.458  29.517  28.953  1.00  0.00     0.010 A 
ATOM     41  C   UNL A   1      37.397  31.688  28.529  1.00  0.00     0.010 A 
ATOM     42  C   UNL A   1      37.548  30.391  29.034  1.00  0.00    -0.014 A 
BRANCH  42  43
ATOM     43  C   UNL A   1      38.819  30.038  29.726  1.00  0.00     0.031 A 
ATOM     44  C   UNL A   1      39.744  29.019  29.100  1.00  0.00     0.074 A 
ATOM     45  C   UNL A   1      39.108  30.550  30.937  1.00  0.00     0.049 A 
ATOM     46  N   UNL A   1      40.790  28.418  29.606  1.00  0.00    -0.248 NA
ATOM     47  C   UNL A   1      39.413  28.587  27.732  1.00  0.00     0.031 C 
ATOM     48  C   UNL A   1      38.296  31.531  31.657  1.00  0.00     0.029 A 
ATOM     49  N   UNL A   1      40.158  30.300  31.786  1.00  0.00    -0.354 N 
ATOM     50  C   UNL A   1      41.217  27.512  28.636  1.00  0.00     0.074 A 
ATOM     51  C   UNL A   1      40.280  27.605  27.539  1.00  0.00     0.031 C 
ATOM     52  C   UNL A   1      38.882  31.808  32.833  1.00  0.00     0.029 A 
ATOM     53  C   UNL A   1      40.080  30.985  32.977  1.00  0.00     0.049 A 
ATOM     54  H   UNL A   1      40.896  29.687  31.564  1.00  0.00     0.167 HD
ATOM     55  C   UNL A   1      42.300  26.693  28.652  1.00  0.00     0.034 A 
ATOM     56  C   UNL A   1      40.869  30.939  34.068  1.00  0.00     0.034 A 
ATOM     57  C   UNL A   1      43.246  26.641  29.741  1.00  0.00     0.049 A 
ATOM     58  C   UNL A   1      42.065  30.018  34.068  1.00  0.00     0.074 A 
ATOM     59  C   UNL A   1      44.406  25.890  29.842  1.00  0.00     0.029 A 
ATOM     60  N   UNL A   1      43.146  27.371  30.919  1.00  0.00    -0.354 N 
ATOM     61  N   UNL A   1      42.465  29.181  33.138  1.00  0.00    -0.248 NA
ATOM     62  C   UNL A   1      42.921  30.048  35.260  1.00  0.00     0.031 C 
ATOM     63  C   UNL A   1      44.969  26.118  31.102  1.00  0.00     0.029 A 
ATOM     64  C   UNL A   1      44.207  27.070  31.759  1.00  0.00     0.049 A 
ATOM     65  H   UNL A   1      42.426  28.009  31.127  1.00  0.00     0.167 HD
ATOM     66  C   UNL A   1      43.638  28.609  33.623  1.00  0.00     0.074 A 
ATOM     67  C   UNL A   1      43.888  29.211  34.917  1.00  0.00     0.031 C 
ATOM     68  C   UNL A   1      44.438  27.671  33.053  1.00  0.00     0.034 A 
BRANCH  55  69
ATOM     69  C   UNL A   1      42.497  25.770  27.469  1.00  0.00     0.023 A 
ATOM     70  C   UNL A   1      41.925  24.486  27.422  1.00  0.00     0.031 A 
ATOM     71  C   UNL A   1      43.294  26.170  26.380  1.00  0.00     0.131 A 
ATOM     72  C   UNL A   1      42.224  23.621  26.358  1.00  0.00     0.055 A 
ATOM     73  C   UNL A   1      43.515  25.336  25.281  1.00  0.00     0.041 A 
ATOM     74  F   UNL A   1      43.886  27.374  26.372  1.00  0.00    -0.206 F 
ATOM     75  C   UNL A   1      42.992  24.048  25.272  1.00  0.00     0.022 A 
BRANCH  72  76
ATOM     76  S   UNL A   1      41.723  21.883  26.488  1.00  0.00     0.124 S 
ATOM     77  O   UNL A   1      40.296  21.965  26.182  1.00  0.00    -0.237 OA
ATOM     78  O   UNL A   1      42.556  21.237  25.481  1.00  0.00    -0.237 OA
ATOM     79  O   UNL A   1      42.036  21.538  27.874  1.00  0.00    -0.744 OA
ENDBRANCH  72  76
ENDBRANCH  55  69
BRANCH  56  80
ATOM     80  C   UNL A   1      40.556  31.778  35.261  1.00  0.00     0.023 A 
ATOM     81  C   UNL A   1      39.494  31.447  36.116  1.00  0.00     0.031 A 
ATOM     82  C   UNL A   1      41.291  32.944  35.542  1.00  0.00     0.131 A 
ATOM     83  C   UNL A   1      39.166  32.293  37.187  1.00  0.00     0.055 A 
ATOM     84  C   UNL A   1      40.995  33.753  36.642  1.00  0.00     0.041 A 
ATOM     85  F   UNL A   1      42.319  33.304  34.759  1.00  0.00    -0.206 F 
ATOM     86  C   UNL A   1      39.918  33.436  37.464  1.00  0.00     0.022 A 
BRANCH  83  87
ATOM     87  S   UNL A   1      37.687  31.918  38.167  1.00  0.00     0.124 S 
ATOM     88  O   UNL A   1      38.191  32.051  39.529  1.00  0.00    -0.237 OA
ATOM     89  O   UNL A   1      36.759  32.953  37.723  1.00  0.00    -0.237 OA
ATOM     90  O   UNL A   1      37.343  30.558  37.758  1.00  0.00    -0.744 OA
ENDBRANCH  83  87
ENDBRANCH  56  80
BRANCH  68  91
ATOM     91  C   UNL A   1      45.686  27.284  33.812  1.00  0.00     0.023 A 
ATOM     92  C   UNL A   1      45.703  26.200  34.707  1.00  0.00     0.031 A 
ATOM     93  C   UNL A   1      46.867  28.033  33.658  1.00  0.00     0.131 A 
ATOM     94  C   UNL A   1      46.853  25.939  35.466  1.00  0.00     0.055 A 
ATOM     95  C   UNL A   1      48.030  27.726  34.367  1.00  0.00     0.041 A 
ATOM     96  F   UNL A   1      46.909  29.080  32.818  1.00  0.00    -0.206 F 
ATOM     97  C   UNL A   1      48.022  26.684  35.290  1.00  0.00     0.022 A 
BRANCH  94  98
ATOM     98  S   UNL A   1      46.766  24.683  36.773  1.00  0.00     0.124 S 
ATOM     99  O   UNL A   1      46.266  23.522  36.044  1.00  0.00    -0.237 OA
ATOM    100  O   UNL A   1      48.152  24.605  37.223  1.00  0.00    -0.237 OA
ATOM    101  O   UNL A   1      45.833  25.258  37.740  1.00  0.00    -0.744 OA
ENDBRANCH  94  98
ENDBRANCH  68  91
ENDBRANCH  42  43
ENDBRANCH  34  37
ENDBRANCH  32  33
ENDBRANCH  31  32
ENDBRANCH   1  31
TORSDOF 18
ENDMDL
