MODEL 1
REMARK VINA RESULT:     -12.5      0.000      0.000
REMARK SMILES CS(=O)(=O)c1ccc(/C=C(/C(=O)NCCCNC(=O)c2ccc(-c3c4nc(c(-c5cc(S(=O)(=O)[O-])ccc5F)c5ccc([nH]5)c(-c5cc(S(=O)(=O)[O-])ccc5F)c5nc(c(-c6cc(S(=O)(=O)[O-])ccc6F)c6ccc3[nH]6)C=C5)C=C4)cc2)c2ccc(O)cc2)cc1
REMARK SMILES IDX 15 1 14 2 13 3 11 4 12 5 10 7 9 8 8 9 5 10 6 11 91 12 7 13
REMARK SMILES IDX 90 14 2 15 1 16 3 17 4 18 83 19 84 20 89 21 85 22 88 23
REMARK SMILES IDX 86 24 87 25 16 27 17 28 18 29 19 31 20 32 21 33 82 34 22 35
REMARK SMILES IDX 81 36 23 37 24 38 25 39 75 40 26 41 80 42 74 43 76 44 27 45
REMARK SMILES IDX 79 46 73 47 72 48 28 50 60 51 40 52 59 53 41 54 44 55 58 56
REMARK SMILES IDX 77 57 42 58 43 59 57 61 78 62 45 63 29 64 30 65 38 66 31 67
REMARK SMILES IDX 37 68 39 69 36 70 32 71 33 72 34 73 35 74 61 75 62 76 70 77
REMARK SMILES IDX 63 78 69 79 71 80 68 81 64 82 65 83 66 84 67 85 46 86 47 87
REMARK SMILES IDX 55 88 48 89 54 90 56 91 53 92 49 93 50 94 51 95 52 96
REMARK H PARENT 13 6 87 26 17 30 76 49 44 60
REMARK Flexibility Score: inf
ROOT
ATOM      1  C   UNL A   1      35.953  23.759  25.751  1.00  0.00     0.042 C 
ENDROOT
BRANCH   1   2
ATOM      2  C   UNL A   1      34.598  23.819  25.044  1.00  0.00     0.118 C 
BRANCH   2   3
ATOM      3  N   UNL A   1      33.532  23.447  25.954  1.00  0.00    -0.352 N 
ATOM      4  C   UNL A   1      32.376  24.041  26.351  1.00  0.00     0.251 C 
ATOM      5  O   UNL A   1      31.713  23.420  27.186  1.00  0.00    -0.269 OA
ATOM      6  H   UNL A   1      33.678  22.571  26.378  1.00  0.00     0.163 HD
BRANCH   4   7
ATOM      7  C   UNL A   1      31.852  25.331  25.761  1.00  0.00     0.047 C 
ATOM      8  C   UNL A   1      31.201  25.368  24.575  1.00  0.00     0.022 C 
BRANCH   8   9
ATOM      9  C   UNL A   1      30.492  26.485  23.908  1.00  0.00    -0.025 A 
ATOM     10  C   UNL A   1      28.997  28.633  22.893  1.00  0.00     0.067 A 
ATOM     11  C   UNL A   1      30.388  28.649  22.800  1.00  0.00     0.021 A 
ATOM     12  C   UNL A   1      28.337  27.540  23.450  1.00  0.00     0.021 A 
ATOM     13  C   UNL A   1      31.124  27.559  23.269  1.00  0.00     0.009 A 
ATOM     14  C   UNL A   1      29.086  26.472  23.952  1.00  0.00     0.009 A 
BRANCH  10  15
ATOM     15  S   UNL A   1      28.070  30.039  22.333  1.00  0.00     0.175 S 
ATOM     16  C   UNL A   1      29.094  31.405  22.810  1.00  0.00     0.163 C 
ATOM     17  O   UNL A   1      26.846  30.095  23.106  1.00  0.00    -0.224 OA
ATOM     18  O   UNL A   1      28.026  29.990  20.882  1.00  0.00    -0.224 OA
ENDBRANCH  10  15
ENDBRANCH   8   9
BRANCH   7  19
ATOM     19  C   UNL A   1      32.252  26.586  26.448  1.00  0.00    -0.013 A 
ATOM     20  C   UNL A   1      33.543  27.091  26.207  1.00  0.00     0.013 A 
ATOM     21  C   UNL A   1      31.363  27.344  27.222  1.00  0.00     0.013 A 
ATOM     22  C   UNL A   1      33.917  28.350  26.670  1.00  0.00     0.047 A 
ATOM     23  C   UNL A   1      31.729  28.621  27.664  1.00  0.00     0.047 A 
ATOM     24  C   UNL A   1      32.996  29.119  27.365  1.00  0.00     0.115 A 
BRANCH  24  25
ATOM     25  O   UNL A   1      33.367  30.383  27.716  1.00  0.00    -0.508 OA
ATOM     26  H   UNL A   1      32.791  31.103  27.550  1.00  0.00     0.293 HD
ENDBRANCH  24  25
ENDBRANCH   7  19
ENDBRANCH   4   7
ENDBRANCH   2   3
ENDBRANCH   1   2
BRANCH   1  27
ATOM     27  C   UNL A   1      37.091  23.305  24.838  1.00  0.00     0.118 C 
BRANCH  27  28
ATOM     28  N   UNL A   1      37.983  22.375  25.513  1.00  0.00    -0.352 N 
ATOM     29  C   UNL A   1      39.121  22.611  26.239  1.00  0.00     0.251 C 
ATOM     30  H   UNL A   1      37.728  21.428  25.438  1.00  0.00     0.163 HD
ATOM     31  O   UNL A   1      39.875  21.670  26.476  1.00  0.00    -0.269 OA
BRANCH  29  32
ATOM     32  C   UNL A   1      39.444  23.967  26.736  1.00  0.00     0.039 A 
ATOM     33  C   UNL A   1      40.064  24.869  25.867  1.00  0.00     0.014 A 
ATOM     34  C   UNL A   1      39.221  24.331  28.068  1.00  0.00     0.014 A 
ATOM     35  C   UNL A   1      40.444  26.131  26.326  1.00  0.00     0.010 A 
ATOM     36  C   UNL A   1      39.520  25.620  28.502  1.00  0.00     0.010 A 
ATOM     37  C   UNL A   1      40.166  26.524  27.646  1.00  0.00    -0.014 A 
BRANCH  37  38
ATOM     38  C   UNL A   1      40.605  27.850  28.157  1.00  0.00     0.031 A 
ATOM     39  C   UNL A   1      42.071  28.207  28.147  1.00  0.00     0.074 A 
ATOM     40  C   UNL A   1      39.695  28.716  28.647  1.00  0.00     0.049 A 
ATOM     41  N   UNL A   1      42.661  29.292  28.581  1.00  0.00    -0.248 NA
ATOM     42  C   UNL A   1      42.999  27.202  27.604  1.00  0.00     0.031 C 
ATOM     43  C   UNL A   1      38.254  28.466  28.738  1.00  0.00     0.029 A 
ATOM     44  N   UNL A   1      39.842  29.980  29.161  1.00  0.00    -0.354 N 
ATOM     45  C   UNL A   1      44.024  29.092  28.380  1.00  0.00     0.074 A 
ATOM     46  C   UNL A   1      44.178  27.759  27.840  1.00  0.00     0.031 C 
ATOM     47  C   UNL A   1      37.650  29.552  29.246  1.00  0.00     0.029 A 
ATOM     48  C   UNL A   1      38.659  30.558  29.562  1.00  0.00     0.049 A 
ATOM     49  H   UNL A   1      40.713  30.434  29.234  1.00  0.00     0.167 HD
ATOM     50  C   UNL A   1      45.050  29.949  28.604  1.00  0.00     0.034 A 
ATOM     51  C   UNL A   1      38.417  31.756  30.132  1.00  0.00     0.034 A 
ATOM     52  C   UNL A   1      44.875  31.285  29.116  1.00  0.00     0.049 A 
ATOM     53  C   UNL A   1      39.582  32.689  30.371  1.00  0.00     0.074 A 
ATOM     54  C   UNL A   1      45.838  32.258  29.329  1.00  0.00     0.029 A 
ATOM     55  N   UNL A   1      43.660  31.840  29.498  1.00  0.00    -0.354 N 
ATOM     56  N   UNL A   1      40.859  32.501  30.123  1.00  0.00    -0.248 NA
ATOM     57  C   UNL A   1      39.270  34.004  30.943  1.00  0.00     0.031 C 
ATOM     58  C   UNL A   1      45.218  33.367  29.911  1.00  0.00     0.029 A 
ATOM     59  C   UNL A   1      43.855  33.129  29.969  1.00  0.00     0.049 A 
ATOM     60  H   UNL A   1      42.790  31.385  29.441  1.00  0.00     0.167 HD
ATOM     61  C   UNL A   1      41.490  33.695  30.462  1.00  0.00     0.074 A 
ATOM     62  C   UNL A   1      40.452  34.599  30.912  1.00  0.00     0.031 C 
ATOM     63  C   UNL A   1      42.807  34.022  30.405  1.00  0.00     0.034 A 
BRANCH  50  64
ATOM     64  C   UNL A   1      46.452  29.464  28.325  1.00  0.00     0.023 A 
ATOM     65  C   UNL A   1      47.206  28.767  29.285  1.00  0.00     0.031 A 
ATOM     66  C   UNL A   1      47.038  29.687  27.065  1.00  0.00     0.131 A 
ATOM     67  C   UNL A   1      48.518  28.364  28.988  1.00  0.00     0.055 A 
ATOM     68  C   UNL A   1      48.313  29.216  26.750  1.00  0.00     0.041 A 
ATOM     69  F   UNL A   1      46.377  30.369  26.116  1.00  0.00    -0.206 F 
ATOM     70  C   UNL A   1      49.065  28.557  27.718  1.00  0.00     0.022 A 
BRANCH  67  71
ATOM     71  S   UNL A   1      49.541  27.682  30.321  1.00  0.00     0.124 S 
ATOM     72  O   UNL A   1      50.005  26.430  29.725  1.00  0.00    -0.237 OA
ATOM     73  O   UNL A   1      50.553  28.715  30.504  1.00  0.00    -0.237 OA
ATOM     74  O   UNL A   1      48.602  27.526  31.429  1.00  0.00    -0.744 OA
ENDBRANCH  67  71
ENDBRANCH  50  64
BRANCH  51  75
ATOM     75  C   UNL A   1      37.034  32.155  30.531  1.00  0.00     0.023 A 
ATOM     76  C   UNL A   1      36.142  32.715  29.602  1.00  0.00     0.031 A 
ATOM     77  C   UNL A   1      36.613  32.070  31.871  1.00  0.00     0.131 A 
ATOM     78  C   UNL A   1      34.917  33.244  30.035  1.00  0.00     0.055 A 
ATOM     79  C   UNL A   1      35.361  32.529  32.284  1.00  0.00     0.041 A 
ATOM     80  F   UNL A   1      37.420  31.540  32.805  1.00  0.00    -0.206 F 
ATOM     81  C   UNL A   1      34.514  33.142  31.368  1.00  0.00     0.022 A 
BRANCH  78  82
ATOM     82  S   UNL A   1      33.921  34.202  28.857  1.00  0.00     0.124 S 
ATOM     83  O   UNL A   1      33.480  33.164  27.933  1.00  0.00    -0.237 OA
ATOM     84  O   UNL A   1      32.894  34.770  29.724  1.00  0.00    -0.237 OA
ATOM     85  O   UNL A   1      34.876  35.164  28.311  1.00  0.00    -0.744 OA
ENDBRANCH  78  82
ENDBRANCH  51  75
BRANCH  63  86
ATOM     86  C   UNL A   1      43.181  35.441  30.762  1.00  0.00     0.023 A 
ATOM     87  C   UNL A   1      43.293  36.452  29.791  1.00  0.00     0.031 A 
ATOM     88  C   UNL A   1      43.467  35.779  32.098  1.00  0.00     0.131 A 
ATOM     89  C   UNL A   1      43.760  37.722  30.155  1.00  0.00     0.055 A 
ATOM     90  C   UNL A   1      43.852  37.067  32.467  1.00  0.00     0.041 A 
ATOM     91  F   UNL A   1      43.379  34.855  33.070  1.00  0.00    -0.206 F 
ATOM     92  C   UNL A   1      44.021  38.043  31.489  1.00  0.00     0.022 A 
BRANCH  89  93
ATOM     93  S   UNL A   1      44.158  38.909  28.842  1.00  0.00     0.124 S 
ATOM     94  O   UNL A   1      45.225  39.693  29.456  1.00  0.00    -0.237 OA
ATOM     95  O   UNL A   1      44.560  38.036  27.745  1.00  0.00    -0.237 OA
ATOM     96  O   UNL A   1      42.901  39.626  28.636  1.00  0.00    -0.744 OA
ENDBRANCH  89  93
ENDBRANCH  63  86
ENDBRANCH  37  38
ENDBRANCH  29  32
ENDBRANCH  27  28
ENDBRANCH   1  27
TORSDOF 17
ENDMDL
MODEL 2
REMARK VINA RESULT:     -12.4      4.822      9.880
REMARK SMILES CS(=O)(=O)c1ccc(/C=C(/C(=O)NCCCNC(=O)c2ccc(-c3c4nc(c(-c5cc(S(=O)(=O)[O-])ccc5F)c5ccc([nH]5)c(-c5cc(S(=O)(=O)[O-])ccc5F)c5nc(c(-c6cc(S(=O)(=O)[O-])ccc6F)c6ccc3[nH]6)C=C5)C=C4)cc2)c2ccc(O)cc2)cc1
REMARK SMILES IDX 15 1 14 2 13 3 11 4 12 5 10 7 9 8 8 9 5 10 6 11 91 12 7 13
REMARK SMILES IDX 90 14 2 15 1 16 3 17 4 18 83 19 84 20 89 21 85 22 88 23
REMARK SMILES IDX 86 24 87 25 16 27 17 28 18 29 19 31 20 32 21 33 82 34 22 35
REMARK SMILES IDX 81 36 23 37 24 38 25 39 75 40 26 41 80 42 74 43 76 44 27 45
REMARK SMILES IDX 79 46 73 47 72 48 28 50 60 51 40 52 59 53 41 54 44 55 58 56
REMARK SMILES IDX 77 57 42 58 43 59 57 61 78 62 45 63 29 64 30 65 38 66 31 67
REMARK SMILES IDX 37 68 39 69 36 70 32 71 33 72 34 73 35 74 61 75 62 76 70 77
REMARK SMILES IDX 63 78 69 79 71 80 68 81 64 82 65 83 66 84 67 85 46 86 47 87
REMARK SMILES IDX 55 88 48 89 54 90 56 91 53 92 49 93 50 94 51 95 52 96
REMARK H PARENT 13 6 87 26 17 30 76 49 44 60
REMARK Flexibility Score: inf
ROOT
ATOM      1  C   UNL A   1      32.740  28.010  26.780  1.00  0.00     0.042 C 
ENDROOT
BRANCH   1   2
ATOM      2  C   UNL A   1      32.754  26.620  26.144  1.00  0.00     0.118 C 
BRANCH   2   3
ATOM      3  N   UNL A   1      32.857  26.721  24.701  1.00  0.00    -0.352 N 
ATOM      4  C   UNL A   1      33.193  25.852  23.712  1.00  0.00     0.251 C 
ATOM      5  O   UNL A   1      33.198  26.314  22.569  1.00  0.00    -0.269 OA
ATOM      6  H   UNL A   1      32.635  27.618  24.362  1.00  0.00     0.163 HD
BRANCH   4   7
ATOM      7  C   UNL A   1      33.457  24.380  23.945  1.00  0.00     0.047 C 
ATOM      8  C   UNL A   1      32.454  23.485  24.099  1.00  0.00     0.022 C 
BRANCH   8   9
ATOM      9  C   UNL A   1      32.497  22.007  24.185  1.00  0.00    -0.025 A 
ATOM     10  C   UNL A   1      32.755  19.212  24.114  1.00  0.00     0.067 A 
ATOM     11  C   UNL A   1      32.982  19.901  25.306  1.00  0.00     0.021 A 
ATOM     12  C   UNL A   1      32.361  19.894  22.965  1.00  0.00     0.021 A 
ATOM     13  C   UNL A   1      32.811  21.287  25.344  1.00  0.00     0.009 A 
ATOM     14  C   UNL A   1      32.232  21.285  23.006  1.00  0.00     0.009 A 
BRANCH  10  15
ATOM     15  S   UNL A   1      33.014  17.457  24.061  1.00  0.00     0.175 S 
ATOM     16  C   UNL A   1      34.718  17.293  24.519  1.00  0.00     0.163 C 
ATOM     17  O   UNL A   1      32.869  17.033  22.683  1.00  0.00    -0.224 OA
ATOM     18  O   UNL A   1      32.203  16.858  25.108  1.00  0.00    -0.224 OA
ENDBRANCH  10  15
ENDBRANCH   8   9
BRANCH   7  19
ATOM     19  C   UNL A   1      34.869  23.989  24.190  1.00  0.00    -0.013 A 
ATOM     20  C   UNL A   1      35.414  24.241  25.462  1.00  0.00     0.013 A 
ATOM     21  C   UNL A   1      35.633  23.278  23.255  1.00  0.00     0.013 A 
ATOM     22  C   UNL A   1      36.664  23.738  25.817  1.00  0.00     0.047 A 
ATOM     23  C   UNL A   1      36.877  22.749  23.620  1.00  0.00     0.047 A 
ATOM     24  C   UNL A   1      37.370  22.968  24.905  1.00  0.00     0.115 A 
BRANCH  24  25
ATOM     25  O   UNL A   1      38.543  22.413  25.323  1.00  0.00    -0.508 OA
ATOM     26  H   UNL A   1      38.875  21.646  24.900  1.00  0.00     0.293 HD
ENDBRANCH  24  25
ENDBRANCH   7  19
ENDBRANCH   4   7
ENDBRANCH   2   3
ENDBRANCH   1   2
BRANCH   1  27
ATOM     27  C   UNL A   1      33.881  28.906  26.298  1.00  0.00     0.118 C 
BRANCH  27  28
ATOM     28  N   UNL A   1      33.703  30.283  26.733  1.00  0.00    -0.352 N 
ATOM     29  C   UNL A   1      34.367  30.999  27.694  1.00  0.00     0.251 C 
ATOM     30  H   UNL A   1      32.996  30.778  26.262  1.00  0.00     0.163 HD
ATOM     31  O   UNL A   1      33.869  32.047  28.097  1.00  0.00    -0.269 OA
BRANCH  29  32
ATOM     32  C   UNL A   1      35.660  30.531  28.241  1.00  0.00     0.039 A 
ATOM     33  C   UNL A   1      36.834  30.852  27.553  1.00  0.00     0.014 A 
ATOM     34  C   UNL A   1      35.722  29.711  29.372  1.00  0.00     0.014 A 
ATOM     35  C   UNL A   1      38.062  30.366  28.006  1.00  0.00     0.010 A 
ATOM     36  C   UNL A   1      36.956  29.301  29.873  1.00  0.00     0.010 A 
ATOM     37  C   UNL A   1      38.137  29.595  29.177  1.00  0.00    -0.014 A 
BRANCH  37  38
ATOM     38  C   UNL A   1      39.435  29.036  29.642  1.00  0.00     0.031 A 
ATOM     39  C   UNL A   1      40.172  29.701  30.778  1.00  0.00     0.074 A 
ATOM     40  C   UNL A   1      39.956  27.951  29.034  1.00  0.00     0.049 A 
ATOM     41  N   UNL A   1      41.329  29.394  31.306  1.00  0.00    -0.248 NA
ATOM     42  C   UNL A   1      39.538  30.885  31.382  1.00  0.00     0.031 C 
ATOM     43  C   UNL A   1      39.348  27.243  27.903  1.00  0.00     0.029 A 
ATOM     44  N   UNL A   1      41.111  27.252  29.276  1.00  0.00    -0.354 N 
ATOM     45  C   UNL A   1      41.569  30.353  32.286  1.00  0.00     0.074 A 
ATOM     46  C   UNL A   1      40.465  31.286  32.240  1.00  0.00     0.031 C 
ATOM     47  C   UNL A   1      40.121  26.197  27.572  1.00  0.00     0.029 A 
ATOM     48  C   UNL A   1      41.302  26.183  28.430  1.00  0.00     0.049 A 
ATOM     49  H   UNL A   1      41.746  27.492  29.989  1.00  0.00     0.167 HD
ATOM     50  C   UNL A   1      42.603  30.434  33.159  1.00  0.00     0.034 A 
ATOM     51  C   UNL A   1      42.318  25.300  28.348  1.00  0.00     0.034 A 
ATOM     52  C   UNL A   1      43.680  29.478  33.210  1.00  0.00     0.049 A 
ATOM     53  C   UNL A   1      43.457  25.418  29.334  1.00  0.00     0.074 A 
ATOM     54  C   UNL A   1      44.749  29.433  34.089  1.00  0.00     0.029 A 
ATOM     55  N   UNL A   1      43.832  28.400  32.347  1.00  0.00    -0.354 N 
ATOM     56  N   UNL A   1      43.637  26.301  30.290  1.00  0.00    -0.248 NA
ATOM     57  C   UNL A   1      44.516  24.406  29.245  1.00  0.00     0.031 C 
ATOM     58  C   UNL A   1      45.584  28.378  33.710  1.00  0.00     0.029 A 
ATOM     59  C   UNL A   1      44.989  27.702  32.657  1.00  0.00     0.049 A 
ATOM     60  H   UNL A   1      43.208  28.167  31.622  1.00  0.00     0.167 HD
ATOM     61  C   UNL A   1      44.804  25.916  30.946  1.00  0.00     0.074 A 
ATOM     62  C   UNL A   1      45.270  24.713  30.288  1.00  0.00     0.031 C 
ATOM     63  C   UNL A   1      45.435  26.498  31.998  1.00  0.00     0.034 A 
BRANCH  50  64
ATOM     64  C   UNL A   1      42.636  31.606  34.111  1.00  0.00     0.023 A 
ATOM     65  C   UNL A   1      42.112  31.524  35.413  1.00  0.00     0.031 A 
ATOM     66  C   UNL A   1      43.222  32.821  33.714  1.00  0.00     0.131 A 
ATOM     67  C   UNL A   1      42.138  32.651  36.251  1.00  0.00     0.055 A 
ATOM     68  C   UNL A   1      43.315  33.913  34.578  1.00  0.00     0.041 A 
ATOM     69  F   UNL A   1      43.717  32.968  32.474  1.00  0.00    -0.206 F 
ATOM     70  C   UNL A   1      42.763  33.835  35.853  1.00  0.00     0.022 A 
BRANCH  67  71
ATOM     71  S   UNL A   1      41.246  32.583  37.828  1.00  0.00     0.124 S 
ATOM     72  O   UNL A   1      41.312  33.977  38.264  1.00  0.00    -0.237 OA
ATOM     73  O   UNL A   1      39.930  32.100  37.428  1.00  0.00    -0.237 OA
ATOM     74  O   UNL A   1      42.036  31.649  38.629  1.00  0.00    -0.744 OA
ENDBRANCH  67  71
ENDBRANCH  50  64
BRANCH  51  75
ATOM     75  C   UNL A   1      42.329  24.233  27.301  1.00  0.00     0.023 A 
ATOM     76  C   UNL A   1      41.687  23.002  27.511  1.00  0.00     0.031 A 
ATOM     77  C   UNL A   1      43.064  24.393  26.112  1.00  0.00     0.131 A 
ATOM     78  C   UNL A   1      41.861  21.955  26.593  1.00  0.00     0.055 A 
ATOM     79  C   UNL A   1      43.172  23.373  25.166  1.00  0.00     0.041 A 
ATOM     80  F   UNL A   1      43.697  25.550  25.854  1.00  0.00    -0.206 F 
ATOM     81  C   UNL A   1      42.587  22.136  25.414  1.00  0.00     0.022 A 
BRANCH  78  82
ATOM     82  S   UNL A   1      41.247  20.304  27.036  1.00  0.00     0.124 S 
ATOM     83  O   UNL A   1      42.431  19.482  26.819  1.00  0.00    -0.237 OA
ATOM     84  O   UNL A   1      40.843  20.496  28.425  1.00  0.00    -0.237 OA
ATOM     85  O   UNL A   1      40.152  20.087  26.093  1.00  0.00    -0.744 OA
ENDBRANCH  78  82
ENDBRANCH  51  75
BRANCH  63  86
ATOM     86  C   UNL A   1      46.649  25.790  32.552  1.00  0.00     0.023 A 
ATOM     87  C   UNL A   1      46.560  24.872  33.613  1.00  0.00     0.031 A 
ATOM     88  C   UNL A   1      47.925  26.068  32.027  1.00  0.00     0.131 A 
ATOM     89  C   UNL A   1      47.728  24.333  34.171  1.00  0.00     0.055 A 
ATOM     90  C   UNL A   1      49.077  25.465  32.533  1.00  0.00     0.041 A 
ATOM     91  F   UNL A   1      48.073  26.937  31.014  1.00  0.00    -0.206 F 
ATOM     92  C   UNL A   1      48.984  24.608  33.625  1.00  0.00     0.022 A 
BRANCH  89  93
ATOM     93  S   UNL A   1      47.596  23.380  35.708  1.00  0.00     0.124 S 
ATOM     94  O   UNL A   1      46.739  22.270  35.304  1.00  0.00    -0.237 OA
ATOM     95  O   UNL A   1      48.987  23.042  35.986  1.00  0.00    -0.237 OA
ATOM     96  O   UNL A   1      46.988  24.324  36.645  1.00  0.00    -0.744 OA
ENDBRANCH  89  93
ENDBRANCH  63  86
ENDBRANCH  37  38
ENDBRANCH  29  32
ENDBRANCH  27  28
ENDBRANCH   1  27
TORSDOF 17
ENDMDL
MODEL 3
REMARK VINA RESULT:     -12.4      2.380      2.808
REMARK SMILES CS(=O)(=O)c1ccc(/C=C(/C(=O)NCCCNC(=O)c2ccc(-c3c4nc(c(-c5cc(S(=O)(=O)[O-])ccc5F)c5ccc([nH]5)c(-c5cc(S(=O)(=O)[O-])ccc5F)c5nc(c(-c6cc(S(=O)(=O)[O-])ccc6F)c6ccc3[nH]6)C=C5)C=C4)cc2)c2ccc(O)cc2)cc1
REMARK SMILES IDX 15 1 14 2 13 3 11 4 12 5 10 7 9 8 8 9 5 10 6 11 91 12 7 13
REMARK SMILES IDX 90 14 2 15 1 16 3 17 4 18 83 19 84 20 89 21 85 22 88 23
REMARK SMILES IDX 86 24 87 25 16 27 17 28 18 29 19 31 20 32 21 33 82 34 22 35
REMARK SMILES IDX 81 36 23 37 24 38 25 39 75 40 26 41 80 42 74 43 76 44 27 45
REMARK SMILES IDX 79 46 73 47 72 48 28 50 60 51 40 52 59 53 41 54 44 55 58 56
REMARK SMILES IDX 77 57 42 58 43 59 57 61 78 62 45 63 29 64 30 65 38 66 31 67
REMARK SMILES IDX 37 68 39 69 36 70 32 71 33 72 34 73 35 74 61 75 62 76 70 77
REMARK SMILES IDX 63 78 69 79 71 80 68 81 64 82 65 83 66 84 67 85 46 86 47 87
REMARK SMILES IDX 55 88 48 89 54 90 56 91 53 92 49 93 50 94 51 95 52 96
REMARK H PARENT 13 6 87 26 17 30 76 49 44 60
REMARK Flexibility Score: inf
ROOT
ATOM      1  C   UNL A   1      35.566  22.417  24.382  1.00  0.00     0.042 C 
ENDROOT
BRANCH   1   2
ATOM      2  C   UNL A   1      34.364  23.360  24.317  1.00  0.00     0.118 C 
BRANCH   2   3
ATOM      3  N   UNL A   1      33.398  23.025  25.346  1.00  0.00    -0.352 N 
ATOM      4  C   UNL A   1      32.335  23.670  25.893  1.00  0.00     0.251 C 
ATOM      5  O   UNL A   1      31.746  23.068  26.794  1.00  0.00    -0.269 OA
ATOM      6  H   UNL A   1      33.546  22.133  25.735  1.00  0.00     0.163 HD
BRANCH   4   7
ATOM      7  C   UNL A   1      31.815  25.000  25.393  1.00  0.00     0.047 C 
ATOM      8  C   UNL A   1      31.148  25.117  24.221  1.00  0.00     0.022 C 
BRANCH   8   9
ATOM      9  C   UNL A   1      30.440  26.279  23.636  1.00  0.00    -0.025 A 
ATOM     10  C   UNL A   1      28.996  28.535  22.796  1.00  0.00     0.067 A 
ATOM     11  C   UNL A   1      30.347  28.413  22.469  1.00  0.00     0.021 A 
ATOM     12  C   UNL A   1      28.344  27.528  23.503  1.00  0.00     0.021 A 
ATOM     13  C   UNL A   1      31.048  27.268  22.853  1.00  0.00     0.009 A 
ATOM     14  C   UNL A   1      29.067  26.406  23.918  1.00  0.00     0.009 A 
BRANCH  10  15
ATOM     15  S   UNL A   1      28.120  30.011  22.340  1.00  0.00     0.175 S 
ATOM     16  C   UNL A   1      29.210  31.301  22.877  1.00  0.00     0.163 C 
ATOM     17  O   UNL A   1      26.914  30.070  23.141  1.00  0.00    -0.224 OA
ATOM     18  O   UNL A   1      28.048  30.052  20.890  1.00  0.00    -0.224 OA
ENDBRANCH  10  15
ENDBRANCH   8   9
BRANCH   7  19
ATOM     19  C   UNL A   1      32.236  26.206  26.151  1.00  0.00    -0.013 A 
ATOM     20  C   UNL A   1      33.541  26.692  25.951  1.00  0.00     0.013 A 
ATOM     21  C   UNL A   1      31.357  26.941  26.957  1.00  0.00     0.013 A 
ATOM     22  C   UNL A   1      33.939  27.915  26.486  1.00  0.00     0.047 A 
ATOM     23  C   UNL A   1      31.747  28.184  27.472  1.00  0.00     0.047 A 
ATOM     24  C   UNL A   1      33.028  28.666  27.213  1.00  0.00     0.115 A 
BRANCH  24  25
ATOM     25  O   UNL A   1      33.425  29.900  27.636  1.00  0.00    -0.508 OA
ATOM     26  H   UNL A   1      32.785  30.542  27.871  1.00  0.00     0.293 HD
ENDBRANCH  24  25
ENDBRANCH   7  19
ENDBRANCH   4   7
ENDBRANCH   2   3
ENDBRANCH   1   2
BRANCH   1  27
ATOM     27  C   UNL A   1      36.158  22.290  25.785  1.00  0.00     0.118 C 
BRANCH  27  28
ATOM     28  N   UNL A   1      37.200  21.277  25.839  1.00  0.00    -0.352 N 
ATOM     29  C   UNL A   1      38.557  21.410  25.981  1.00  0.00     0.251 C 
ATOM     30  H   UNL A   1      36.881  20.350  25.762  1.00  0.00     0.163 HD
ATOM     31  O   UNL A   1      39.275  20.450  25.713  1.00  0.00    -0.269 OA
BRANCH  29  32
ATOM     32  C   UNL A   1      39.155  22.680  26.451  1.00  0.00     0.039 A 
ATOM     33  C   UNL A   1      38.631  23.885  25.974  1.00  0.00     0.014 A 
ATOM     34  C   UNL A   1      40.277  22.695  27.287  1.00  0.00     0.014 A 
ATOM     35  C   UNL A   1      39.219  25.096  26.345  1.00  0.00     0.010 A 
ATOM     36  C   UNL A   1      40.807  23.906  27.726  1.00  0.00     0.010 A 
ATOM     37  C   UNL A   1      40.306  25.119  27.233  1.00  0.00    -0.014 A 
BRANCH  37  38
ATOM     38  C   UNL A   1      40.967  26.401  27.599  1.00  0.00     0.031 A 
ATOM     39  C   UNL A   1      42.387  26.663  27.162  1.00  0.00     0.074 A 
ATOM     40  C   UNL A   1      40.301  27.313  28.337  1.00  0.00     0.049 A 
ATOM     41  N   UNL A   1      43.151  27.696  27.408  1.00  0.00    -0.248 NA
ATOM     42  C   UNL A   1      43.045  25.612  26.367  1.00  0.00     0.031 C 
ATOM     43  C   UNL A   1      38.935  27.154  28.844  1.00  0.00     0.029 A 
ATOM     44  N   UNL A   1      40.678  28.552  28.790  1.00  0.00    -0.354 N 
ATOM     45  C   UNL A   1      44.379  27.412  26.817  1.00  0.00     0.074 A 
ATOM     46  C   UNL A   1      44.277  26.086  26.251  1.00  0.00     0.031 C 
ATOM     47  C   UNL A   1      38.582  28.265  29.511  1.00  0.00     0.029 A 
ATOM     48  C   UNL A   1      39.706  29.196  29.522  1.00  0.00     0.049 A 
ATOM     49  H   UNL A   1      41.562  28.946  28.607  1.00  0.00     0.167 HD
ATOM     50  C   UNL A   1      45.482  28.196  26.735  1.00  0.00     0.034 A 
ATOM     51  C   UNL A   1      39.724  30.393  30.142  1.00  0.00     0.034 A 
ATOM     52  C   UNL A   1      45.557  29.528  27.280  1.00  0.00     0.049 A 
ATOM     53  C   UNL A   1      40.970  31.243  30.034  1.00  0.00     0.074 A 
ATOM     54  C   UNL A   1      46.605  30.430  27.207  1.00  0.00     0.029 A 
ATOM     55  N   UNL A   1      44.548  30.151  28.003  1.00  0.00    -0.354 N 
ATOM     56  N   UNL A   1      42.102  30.978  29.422  1.00  0.00    -0.248 NA
ATOM     57  C   UNL A   1      40.929  32.560  30.677  1.00  0.00     0.031 C 
ATOM     58  C   UNL A   1      46.260  31.564  27.948  1.00  0.00     0.029 A 
ATOM     59  C   UNL A   1      44.960  31.414  28.402  1.00  0.00     0.049 A 
ATOM     60  H   UNL A   1      43.669  29.755  28.202  1.00  0.00     0.167 HD
ATOM     61  C   UNL A   1      42.886  32.120  29.567  1.00  0.00     0.074 A 
ATOM     62  C   UNL A   1      42.089  33.078  30.304  1.00  0.00     0.031 C 
ATOM     63  C   UNL A   1      44.148  32.361  29.129  1.00  0.00     0.034 A 
BRANCH  50  64
ATOM     64  C   UNL A   1      46.705  27.628  26.055  1.00  0.00     0.023 A 
ATOM     65  C   UNL A   1      47.049  27.964  24.734  1.00  0.00     0.031 A 
ATOM     66  C   UNL A   1      47.555  26.749  26.751  1.00  0.00     0.131 A 
ATOM     67  C   UNL A   1      48.179  27.386  24.135  1.00  0.00     0.055 A 
ATOM     68  C   UNL A   1      48.720  26.238  26.177  1.00  0.00     0.041 A 
ATOM     69  F   UNL A   1      47.266  26.372  28.007  1.00  0.00    -0.206 F 
ATOM     70  C   UNL A   1      49.033  26.549  24.857  1.00  0.00     0.022 A 
BRANCH  67  71
ATOM     71  S   UNL A   1      48.458  27.653  22.363  1.00  0.00     0.124 S 
ATOM     72  O   UNL A   1      49.681  28.455  22.375  1.00  0.00    -0.237 OA
ATOM     73  O   UNL A   1      48.591  26.294  21.854  1.00  0.00    -0.237 OA
ATOM     74  O   UNL A   1      47.258  28.367  21.931  1.00  0.00    -0.744 OA
ENDBRANCH  67  71
ENDBRANCH  50  64
BRANCH  51  75
ATOM     75  C   UNL A   1      38.548  30.871  30.929  1.00  0.00     0.023 A 
ATOM     76  C   UNL A   1      37.441  31.461  30.298  1.00  0.00     0.031 A 
ATOM     77  C   UNL A   1      38.554  30.832  32.336  1.00  0.00     0.131 A 
ATOM     78  C   UNL A   1      36.432  32.061  31.066  1.00  0.00     0.055 A 
ATOM     79  C   UNL A   1      37.510  31.364  33.095  1.00  0.00     0.041 A 
ATOM     80  F   UNL A   1      39.583  30.277  32.997  1.00  0.00    -0.206 F 
ATOM     81  C   UNL A   1      36.451  32.004  32.461  1.00  0.00     0.022 A 
BRANCH  78  82
ATOM     82  S   UNL A   1      35.167  33.049  30.216  1.00  0.00     0.124 S 
ATOM     83  O   UNL A   1      35.981  34.059  29.551  1.00  0.00    -0.237 OA
ATOM     84  O   UNL A   1      34.541  32.055  29.350  1.00  0.00    -0.237 OA
ATOM     85  O   UNL A   1      34.330  33.539  31.309  1.00  0.00    -0.744 OA
ENDBRANCH  78  82
ENDBRANCH  51  75
BRANCH  63  86
ATOM     86  C   UNL A   1      44.708  33.744  29.366  1.00  0.00     0.023 A 
ATOM     87  C   UNL A   1      44.450  34.815  28.492  1.00  0.00     0.031 A 
ATOM     88  C   UNL A   1      45.545  33.985  30.472  1.00  0.00     0.131 A 
ATOM     89  C   UNL A   1      45.090  36.048  28.689  1.00  0.00     0.055 A 
ATOM     90  C   UNL A   1      46.112  35.237  30.708  1.00  0.00     0.041 A 
ATOM     91  F   UNL A   1      45.828  33.001  31.340  1.00  0.00    -0.206 F 
ATOM     92  C   UNL A   1      45.903  36.271  29.802  1.00  0.00     0.022 A 
BRANCH  89  93
ATOM     93  S   UNL A   1      44.957  37.310  27.393  1.00  0.00     0.124 S 
ATOM     94  O   UNL A   1      45.100  38.545  28.158  1.00  0.00    -0.237 OA
ATOM     95  O   UNL A   1      46.072  36.973  26.514  1.00  0.00    -0.237 OA
ATOM     96  O   UNL A   1      43.629  37.081  26.826  1.00  0.00    -0.744 OA
ENDBRANCH  89  93
ENDBRANCH  63  86
ENDBRANCH  37  38
ENDBRANCH  29  32
ENDBRANCH  27  28
ENDBRANCH   1  27
TORSDOF 17
ENDMDL
