MODEL 1
REMARK VINA RESULT:     -10.3      0.000      0.000
REMARK SMILES CCCCCCNC(=O)Oc1cccc(-c2ccc(CC(=O)NCCCNC(=O)c3ccc(-c4c5nc(c(-c6cc(S(=O)(=O)[O-])ccc6F)c6ccc([nH]6)c(-c6cc(S(=O)(=O)[O-])ccc6F)c6nc(c(-c7cc(S(=O)(=O)[O-])ccc7F)c7ccc4[nH]7)C=C6)C=C5)cc3)cc2F)c1
REMARK SMILES IDX 20 1 19 2 16 3 17 4 94 5 18 6 93 7 95 8 15 9 11 10 12 11
REMARK SMILES IDX 96 12 13 13 14 14 10 15 8 16 7 17 9 19 6 20 5 21 4 22 3 23
REMARK SMILES IDX 2 24 1 25 21 26 22 27 23 28 24 30 25 31 26 32 27 33 28 34
REMARK SMILES IDX 29 36 30 37 31 38 92 39 32 40 91 41 33 42 34 43 35 44 85 45
REMARK SMILES IDX 36 46 90 47 84 48 86 49 37 50 89 51 83 52 82 53 38 55 70 56
REMARK SMILES IDX 50 57 69 58 51 59 54 60 68 61 87 62 52 63 53 64 67 66 88 67
REMARK SMILES IDX 55 68 39 69 40 70 48 71 41 72 47 73 49 74 46 75 42 76 43 77
REMARK SMILES IDX 44 78 45 79 71 80 72 81 80 82 73 83 79 84 81 85 78 86 74 87
REMARK SMILES IDX 75 88 76 89 77 90 56 91 57 92 65 93 58 94 64 95 66 96 63 97
REMARK SMILES IDX 59 98 60 99 61 100 62 101
REMARK H PARENT 7 18 23 29 27 35 86 54 54 65
REMARK Flexibility Score: inf
ROOT
ATOM      1  C   UNL A   1      34.795  32.015  28.982  1.00  0.00     0.135 C 
ENDROOT
BRANCH   1   2
ATOM      2  C   UNL A   1      34.062  31.121  28.014  1.00  0.00    -0.036 A 
ATOM      3  C   UNL A   1      32.760  29.471  26.105  1.00  0.00     0.018 A 
ATOM      4  C   UNL A   1      32.208  30.702  26.497  1.00  0.00     0.012 A 
ATOM      5  C   UNL A   1      33.959  29.078  26.718  1.00  0.00     0.131 A 
ATOM      6  C   UNL A   1      32.847  31.515  27.441  1.00  0.00     0.005 A 
ATOM      7  C   UNL A   1      34.597  29.877  27.664  1.00  0.00     0.044 A 
ATOM      8  F   UNL A   1      34.548  27.919  26.386  1.00  0.00    -0.206 F 
BRANCH   3   9
ATOM      9  C   UNL A   1      32.108  28.629  25.089  1.00  0.00    -0.012 A 
ATOM     10  C   UNL A   1      30.747  26.703  24.501  1.00  0.00     0.133 A 
ATOM     11  C   UNL A   1      30.922  26.960  23.144  1.00  0.00     0.047 A 
ATOM     12  C   UNL A   1      31.341  27.516  25.467  1.00  0.00     0.056 A 
ATOM     13  C   UNL A   1      31.676  28.062  22.751  1.00  0.00     0.004 A 
ATOM     14  C   UNL A   1      32.261  28.890  23.716  1.00  0.00     0.009 A 
BRANCH  10  15
ATOM     15  O   UNL A   1      30.065  25.525  24.846  1.00  0.00    -0.410 OA
BRANCH  15  16
ATOM     16  C   UNL A   1      30.699  24.580  25.636  1.00  0.00     0.412 C 
ATOM     17  N   UNL A   1      31.143  23.497  24.932  1.00  0.00    -0.321 N 
ATOM     18  H   UNL A   1      31.586  22.786  25.449  1.00  0.00     0.167 HD
ATOM     19  O   UNL A   1      30.871  24.645  26.853  1.00  0.00    -0.224 OA
BRANCH  17  20
ATOM     20  C   UNL A   1      31.029  23.287  23.502  1.00  0.00     0.119 C 
BRANCH  20  21
ATOM     21  C   UNL A   1      32.353  23.548  22.782  1.00  0.00     0.021 C 
BRANCH  21  22
ATOM     22  C   UNL A   1      33.497  22.604  23.171  1.00  0.00     0.002 C 
BRANCH  22  23
ATOM     23  C   UNL A   1      34.879  23.255  23.292  1.00  0.00    -0.000 C 
BRANCH  23  24
ATOM     24  C   UNL A   1      35.163  23.953  24.625  1.00  0.00    -0.003 C 
ATOM     25  C   UNL A   1      34.340  25.217  24.828  1.00  0.00     0.004 C 
ENDBRANCH  23  24
ENDBRANCH  22  23
ENDBRANCH  21  22
ENDBRANCH  20  21
ENDBRANCH  17  20
ENDBRANCH  15  16
ENDBRANCH  10  15
ENDBRANCH   3   9
ENDBRANCH   1   2
BRANCH   1  26
ATOM     26  C   UNL A   1      35.913  32.825  28.347  1.00  0.00     0.224 C 
ATOM     27  O   UNL A   1      37.076  32.416  28.341  1.00  0.00    -0.275 OA
ATOM     28  N   UNL A   1      35.636  34.012  27.731  1.00  0.00    -0.356 N 
ATOM     29  H   UNL A   1      36.401  34.448  27.291  1.00  0.00     0.163 HD
BRANCH  28  30
ATOM     30  C   UNL A   1      34.373  34.723  27.635  1.00  0.00     0.117 C 
BRANCH  30  31
ATOM     31  C   UNL A   1      34.061  35.530  28.894  1.00  0.00     0.042 C 
BRANCH  31  32
ATOM     32  C   UNL A   1      32.865  35.010  29.688  1.00  0.00     0.118 C 
BRANCH  32  33
ATOM     33  N   UNL A   1      32.528  35.871  30.814  1.00  0.00    -0.352 N 
ATOM     34  C   UNL A   1      32.998  35.874  32.104  1.00  0.00     0.251 C 
ATOM     35  H   UNL A   1      31.854  36.561  30.618  1.00  0.00     0.163 HD
ATOM     36  O   UNL A   1      32.423  36.564  32.942  1.00  0.00    -0.269 OA
BRANCH  34  37
ATOM     37  C   UNL A   1      34.167  35.052  32.492  1.00  0.00     0.039 A 
ATOM     38  C   UNL A   1      35.445  35.485  32.124  1.00  0.00     0.014 A 
ATOM     39  C   UNL A   1      34.013  33.842  33.172  1.00  0.00     0.014 A 
ATOM     40  C   UNL A   1      36.567  34.735  32.487  1.00  0.00     0.010 A 
ATOM     41  C   UNL A   1      35.136  33.133  33.597  1.00  0.00     0.010 A 
ATOM     42  C   UNL A   1      36.425  33.569  33.255  1.00  0.00    -0.014 A 
BRANCH  42  43
ATOM     43  C   UNL A   1      37.610  32.785  33.695  1.00  0.00     0.031 A 
ATOM     44  C   UNL A   1      38.327  33.150  34.967  1.00  0.00     0.074 A 
ATOM     45  C   UNL A   1      38.075  31.783  32.922  1.00  0.00     0.049 A 
ATOM     46  N   UNL A   1      39.423  32.646  35.476  1.00  0.00    -0.248 NA
ATOM     47  C   UNL A   1      37.749  34.249  35.753  1.00  0.00     0.031 C 
ATOM     48  C   UNL A   1      37.483  31.351  31.655  1.00  0.00     0.029 A 
ATOM     49  N   UNL A   1      39.153  30.951  33.086  1.00  0.00    -0.354 N 
ATOM     50  C   UNL A   1      39.671  33.373  36.636  1.00  0.00     0.074 A 
ATOM     51  C   UNL A   1      38.649  34.396  36.712  1.00  0.00     0.031 C 
ATOM     52  C   UNL A   1      38.188  30.315  31.171  1.00  0.00     0.029 A 
ATOM     53  C   UNL A   1      39.309  30.041  32.064  1.00  0.00     0.049 A 
ATOM     54  H   UNL A   1      39.759  30.999  33.860  1.00  0.00     0.167 HD
ATOM     55  C   UNL A   1      40.643  33.188  37.566  1.00  0.00     0.034 A 
ATOM     56  C   UNL A   1      40.255  29.102  31.865  1.00  0.00     0.034 A 
ATOM     57  C   UNL A   1      41.654  32.161  37.475  1.00  0.00     0.049 A 
ATOM     58  C   UNL A   1      41.355  28.944  32.885  1.00  0.00     0.074 A 
ATOM     59  C   UNL A   1      42.664  31.861  38.373  1.00  0.00     0.029 A 
ATOM     60  N   UNL A   1      41.789  31.268  36.418  1.00  0.00    -0.354 N 
ATOM     61  N   UNL A   1      41.557  29.618  33.993  1.00  0.00    -0.248 NA
ATOM     62  C   UNL A   1      42.347  27.893  32.627  1.00  0.00     0.031 C 
ATOM     63  C   UNL A   1      43.448  30.837  37.829  1.00  0.00     0.029 A 
ATOM     64  C   UNL A   1      42.883  30.440  36.628  1.00  0.00     0.049 A 
ATOM     65  H   UNL A   1      41.196  31.230  35.634  1.00  0.00     0.167 HD
ATOM     66  C   UNL A   1      42.681  29.045  34.584  1.00  0.00     0.074 A 
ATOM     67  C   UNL A   1      43.104  27.968  33.712  1.00  0.00     0.031 C 
ATOM     68  C   UNL A   1      43.302  29.376  35.745  1.00  0.00     0.034 A 
BRANCH  55  69
ATOM     69  C   UNL A   1      40.665  34.141  38.739  1.00  0.00     0.023 A 
ATOM     70  C   UNL A   1      39.956  33.870  39.922  1.00  0.00     0.031 A 
ATOM     71  C   UNL A   1      41.360  35.362  38.659  1.00  0.00     0.131 A 
ATOM     72  C   UNL A   1      39.876  34.840  40.932  1.00  0.00     0.055 A 
ATOM     73  C   UNL A   1      41.355  36.284  39.708  1.00  0.00     0.041 A 
ATOM     74  F   UNL A   1      42.041  35.690  37.550  1.00  0.00    -0.206 F 
ATOM     75  C   UNL A   1      40.591  36.035  40.846  1.00  0.00     0.022 A 
BRANCH  72  76
ATOM     76  S   UNL A   1      38.681  34.590  42.276  1.00  0.00     0.124 S 
ATOM     77  O   UNL A   1      38.525  33.138  42.263  1.00  0.00    -0.237 OA
ATOM     78  O   UNL A   1      39.380  35.149  43.427  1.00  0.00    -0.237 OA
ATOM     79  O   UNL A   1      37.507  35.339  41.834  1.00  0.00    -0.744 OA
ENDBRANCH  72  76
ENDBRANCH  55  69
BRANCH  56  80
ATOM     80  C   UNL A   1      40.208  28.232  30.655  1.00  0.00     0.023 A 
ATOM     81  C   UNL A   1      41.106  28.427  29.594  1.00  0.00     0.031 A 
ATOM     82  C   UNL A   1      39.244  27.217  30.526  1.00  0.00     0.131 A 
ATOM     83  C   UNL A   1      40.998  27.648  28.433  1.00  0.00     0.055 A 
ATOM     84  C   UNL A   1      39.173  26.408  29.390  1.00  0.00     0.041 A 
ATOM     85  F   UNL A   1      38.364  26.985  31.513  1.00  0.00    -0.206 F 
ATOM     86  C   UNL A   1      40.046  26.630  28.330  1.00  0.00     0.022 A 
BRANCH  83  87
ATOM     87  S   UNL A   1      42.073  28.033  27.024  1.00  0.00     0.124 S 
ATOM     88  O   UNL A   1      41.244  27.622  25.897  1.00  0.00    -0.237 OA
ATOM     89  O   UNL A   1      42.276  29.470  27.183  1.00  0.00    -0.237 OA
ATOM     90  O   UNL A   1      43.256  27.209  27.264  1.00  0.00    -0.744 OA
ENDBRANCH  83  87
ENDBRANCH  56  80
BRANCH  68  91
ATOM     91  C   UNL A   1      44.477  28.523  36.161  1.00  0.00     0.023 A 
ATOM     92  C   UNL A   1      44.356  27.512  37.131  1.00  0.00     0.031 A 
ATOM     93  C   UNL A   1      45.743  28.737  35.585  1.00  0.00     0.131 A 
ATOM     94  C   UNL A   1      45.491  26.794  37.537  1.00  0.00     0.055 A 
ATOM     95  C   UNL A   1      46.855  27.976  35.948  1.00  0.00     0.041 A 
ATOM     96  F   UNL A   1      45.917  29.691  34.656  1.00  0.00    -0.206 F 
ATOM     97  C   UNL A   1      46.736  27.007  36.939  1.00  0.00     0.022 A 
BRANCH  94  98
ATOM     98  S   UNL A   1      45.339  25.638  38.928  1.00  0.00     0.124 S 
ATOM     99  O   UNL A   1      44.175  26.163  39.634  1.00  0.00    -0.237 OA
ATOM    100  O   UNL A   1      45.152  24.358  38.252  1.00  0.00    -0.237 OA
ATOM    101  O   UNL A   1      46.611  25.784  39.635  1.00  0.00    -0.744 OA
ENDBRANCH  94  98
ENDBRANCH  68  91
ENDBRANCH  42  43
ENDBRANCH  34  37
ENDBRANCH  32  33
ENDBRANCH  31  32
ENDBRANCH  30  31
ENDBRANCH  28  30
ENDBRANCH   1  26
TORSDOF 22
ENDMDL
MODEL 2
REMARK VINA RESULT:     -10.0      5.138      8.638
REMARK SMILES CCCCCCNC(=O)Oc1cccc(-c2ccc(CC(=O)NCCCNC(=O)c3ccc(-c4c5nc(c(-c6cc(S(=O)(=O)[O-])ccc6F)c6ccc([nH]6)c(-c6cc(S(=O)(=O)[O-])ccc6F)c6nc(c(-c7cc(S(=O)(=O)[O-])ccc7F)c7ccc4[nH]7)C=C6)C=C5)cc3)cc2F)c1
REMARK SMILES IDX 20 1 19 2 16 3 17 4 94 5 18 6 93 7 95 8 15 9 11 10 12 11
REMARK SMILES IDX 96 12 13 13 14 14 10 15 8 16 7 17 9 19 6 20 5 21 4 22 3 23
REMARK SMILES IDX 2 24 1 25 21 26 22 27 23 28 24 30 25 31 26 32 27 33 28 34
REMARK SMILES IDX 29 36 30 37 31 38 92 39 32 40 91 41 33 42 34 43 35 44 85 45
REMARK SMILES IDX 36 46 90 47 84 48 86 49 37 50 89 51 83 52 82 53 38 55 70 56
REMARK SMILES IDX 50 57 69 58 51 59 54 60 68 61 87 62 52 63 53 64 67 66 88 67
REMARK SMILES IDX 55 68 39 69 40 70 48 71 41 72 47 73 49 74 46 75 42 76 43 77
REMARK SMILES IDX 44 78 45 79 71 80 72 81 80 82 73 83 79 84 81 85 78 86 74 87
REMARK SMILES IDX 75 88 76 89 77 90 56 91 57 92 65 93 58 94 64 95 66 96 63 97
REMARK SMILES IDX 59 98 60 99 61 100 62 101
REMARK H PARENT 7 18 23 29 27 35 86 54 54 65
REMARK Flexibility Score: inf
ROOT
ATOM      1  C   UNL A   1      37.654  34.239  34.911  1.00  0.00     0.135 C 
ENDROOT
BRANCH   1   2
ATOM      2  C   UNL A   1      38.534  33.031  34.705  1.00  0.00    -0.036 A 
ATOM      3  C   UNL A   1      40.130  30.702  34.408  1.00  0.00     0.018 A 
ATOM      4  C   UNL A   1      40.626  31.843  35.061  1.00  0.00     0.012 A 
ATOM      5  C   UNL A   1      38.832  30.774  33.882  1.00  0.00     0.131 A 
ATOM      6  C   UNL A   1      39.841  32.993  35.206  1.00  0.00     0.005 A 
ATOM      7  C   UNL A   1      38.048  31.917  34.013  1.00  0.00     0.044 A 
ATOM      8  F   UNL A   1      38.291  29.719  33.252  1.00  0.00    -0.206 F 
BRANCH   3   9
ATOM      9  C   UNL A   1      40.941  29.480  34.282  1.00  0.00    -0.012 A 
ATOM     10  C   UNL A   1      42.043  27.565  35.294  1.00  0.00     0.133 A 
ATOM     11  C   UNL A   1      42.563  27.178  34.063  1.00  0.00     0.047 A 
ATOM     12  C   UNL A   1      41.251  28.707  35.413  1.00  0.00     0.056 A 
ATOM     13  C   UNL A   1      42.261  27.930  32.930  1.00  0.00     0.004 A 
ATOM     14  C   UNL A   1      41.454  29.068  33.040  1.00  0.00     0.009 A 
BRANCH  10  15
ATOM     15  O   UNL A   1      42.457  26.835  36.421  1.00  0.00    -0.410 OA
BRANCH  15  16
ATOM     16  C   UNL A   1      41.615  25.874  36.955  1.00  0.00     0.412 C 
ATOM     17  N   UNL A   1      42.051  24.596  36.746  1.00  0.00    -0.321 N 
ATOM     18  H   UNL A   1      41.479  23.873  37.090  1.00  0.00     0.167 HD
ATOM     19  O   UNL A   1      40.564  26.082  37.561  1.00  0.00    -0.224 OA
BRANCH  17  20
ATOM     20  C   UNL A   1      43.268  24.196  36.069  1.00  0.00     0.119 C 
BRANCH  20  21
ATOM     21  C   UNL A   1      42.978  23.361  34.821  1.00  0.00     0.021 C 
BRANCH  21  22
ATOM     22  C   UNL A   1      43.895  23.645  33.626  1.00  0.00     0.002 C 
BRANCH  22  23
ATOM     23  C   UNL A   1      45.395  23.462  33.884  1.00  0.00    -0.000 C 
BRANCH  23  24
ATOM     24  C   UNL A   1      46.272  24.671  33.547  1.00  0.00    -0.003 C 
ATOM     25  C   UNL A   1      45.804  25.428  32.313  1.00  0.00     0.004 C 
ENDBRANCH  23  24
ENDBRANCH  22  23
ENDBRANCH  21  22
ENDBRANCH  20  21
ENDBRANCH  17  20
ENDBRANCH  15  16
ENDBRANCH  10  15
ENDBRANCH   3   9
ENDBRANCH   1   2
BRANCH   1  26
ATOM     26  C   UNL A   1      36.235  33.901  35.336  1.00  0.00     0.224 C 
ATOM     27  O   UNL A   1      35.990  33.483  36.469  1.00  0.00    -0.275 OA
ATOM     28  N   UNL A   1      35.196  34.095  34.472  1.00  0.00    -0.356 N 
ATOM     29  H   UNL A   1      34.301  33.911  34.840  1.00  0.00     0.163 HD
BRANCH  28  30
ATOM     30  C   UNL A   1      35.222  34.533  33.087  1.00  0.00     0.117 C 
BRANCH  30  31
ATOM     31  C   UNL A   1      33.822  34.760  32.522  1.00  0.00     0.042 C 
BRANCH  31  32
ATOM     32  C   UNL A   1      33.797  35.533  31.206  1.00  0.00     0.118 C 
BRANCH  32  33
ATOM     33  N   UNL A   1      33.194  34.770  30.121  1.00  0.00    -0.352 N 
ATOM     34  C   UNL A   1      33.752  33.858  29.259  1.00  0.00     0.251 C 
ATOM     35  H   UNL A   1      32.234  34.934  29.986  1.00  0.00     0.163 HD
ATOM     36  O   UNL A   1      33.098  33.485  28.288  1.00  0.00    -0.269 OA
BRANCH  34  37
ATOM     37  C   UNL A   1      35.122  33.341  29.477  1.00  0.00     0.039 A 
ATOM     38  C   UNL A   1      36.177  33.906  28.753  1.00  0.00     0.014 A 
ATOM     39  C   UNL A   1      35.370  32.279  30.350  1.00  0.00     0.014 A 
ATOM     40  C   UNL A   1      37.483  33.446  28.947  1.00  0.00     0.010 A 
ATOM     41  C   UNL A   1      36.680  31.870  30.597  1.00  0.00     0.010 A 
ATOM     42  C   UNL A   1      37.750  32.445  29.894  1.00  0.00    -0.014 A 
BRANCH  42  43
ATOM     43  C   UNL A   1      39.138  31.978  30.153  1.00  0.00     0.031 A 
ATOM     44  C   UNL A   1      40.075  32.814  30.982  1.00  0.00     0.074 A 
ATOM     45  C   UNL A   1      39.573  30.830  29.594  1.00  0.00     0.049 A 
ATOM     46  N   UNL A   1      41.342  32.623  31.251  1.00  0.00    -0.248 NA
ATOM     47  C   UNL A   1      39.517  34.045  31.560  1.00  0.00     0.031 C 
ATOM     48  C   UNL A   1      38.769  29.946  28.749  1.00  0.00     0.029 A 
ATOM     49  N   UNL A   1      40.799  30.215  29.648  1.00  0.00    -0.354 N 
ATOM     50  C   UNL A   1      41.735  33.713  32.020  1.00  0.00     0.074 A 
ATOM     51  C   UNL A   1      40.588  34.593  32.112  1.00  0.00     0.031 C 
ATOM     52  C   UNL A   1      39.513  28.887  28.389  1.00  0.00     0.029 A 
ATOM     53  C   UNL A   1      40.859  29.041  28.932  1.00  0.00     0.049 A 
ATOM     54  H   UNL A   1      41.563  30.579  30.150  1.00  0.00     0.167 HD
ATOM     55  C   UNL A   1      42.932  33.947  32.617  1.00  0.00     0.034 A 
ATOM     56  C   UNL A   1      41.885  28.191  28.728  1.00  0.00     0.034 A 
ATOM     57  C   UNL A   1      44.066  33.059  32.516  1.00  0.00     0.049 A 
ATOM     58  C   UNL A   1      43.221  28.494  29.360  1.00  0.00     0.074 A 
ATOM     59  C   UNL A   1      45.313  33.178  33.106  1.00  0.00     0.029 A 
ATOM     60  N   UNL A   1      44.094  31.886  31.770  1.00  0.00    -0.354 N 
ATOM     61  N   UNL A   1      43.568  29.513  30.111  1.00  0.00    -0.248 NA
ATOM     62  C   UNL A   1      44.298  27.526  29.121  1.00  0.00     0.031 C 
ATOM     63  C   UNL A   1      46.113  32.119  32.662  1.00  0.00     0.029 A 
ATOM     64  C   UNL A   1      45.344  31.292  31.859  1.00  0.00     0.049 A 
ATOM     65  H   UNL A   1      43.337  31.530  31.251  1.00  0.00     0.167 HD
ATOM     66  C   UNL A   1      44.897  29.287  30.465  1.00  0.00     0.074 A 
ATOM     67  C   UNL A   1      45.281  28.033  29.851  1.00  0.00     0.031 C 
ATOM     68  C   UNL A   1      45.720  30.045  31.233  1.00  0.00     0.034 A 
BRANCH  55  69
ATOM     69  C   UNL A   1      43.071  35.232  33.402  1.00  0.00     0.023 A 
ATOM     70  C   UNL A   1      43.362  36.454  32.770  1.00  0.00     0.031 A 
ATOM     71  C   UNL A   1      42.962  35.231  34.805  1.00  0.00     0.131 A 
ATOM     72  C   UNL A   1      43.631  37.596  33.539  1.00  0.00     0.055 A 
ATOM     73  C   UNL A   1      43.138  36.394  35.559  1.00  0.00     0.041 A 
ATOM     74  F   UNL A   1      42.705  34.095  35.470  1.00  0.00    -0.206 F 
ATOM     75  C   UNL A   1      43.496  37.582  34.928  1.00  0.00     0.022 A 
BRANCH  72  76
ATOM     76  S   UNL A   1      44.333  39.050  32.708  1.00  0.00     0.124 S 
ATOM     77  O   UNL A   1      45.720  38.633  32.510  1.00  0.00    -0.237 OA
ATOM     78  O   UNL A   1      43.517  39.149  31.504  1.00  0.00    -0.237 OA
ATOM     79  O   UNL A   1      44.146  40.124  33.681  1.00  0.00    -0.744 OA
ENDBRANCH  72  76
ENDBRANCH  55  69
BRANCH  56  80
ATOM     80  C   UNL A   1      41.697  26.972  27.893  1.00  0.00     0.023 A 
ATOM     81  C   UNL A   1      41.863  25.691  28.442  1.00  0.00     0.031 A 
ATOM     82  C   UNL A   1      41.382  27.068  26.526  1.00  0.00     0.131 A 
ATOM     83  C   UNL A   1      41.754  24.558  27.622  1.00  0.00     0.055 A 
ATOM     84  C   UNL A   1      41.224  25.936  25.724  1.00  0.00     0.041 A 
ATOM     85  F   UNL A   1      41.208  28.269  25.951  1.00  0.00    -0.206 F 
ATOM     86  C   UNL A   1      41.423  24.672  26.269  1.00  0.00     0.022 A 
BRANCH  83  87
ATOM     87  S   UNL A   1      42.129  22.932  28.332  1.00  0.00     0.124 S 
ATOM     88  O   UNL A   1      42.481  23.280  29.703  1.00  0.00    -0.237 OA
ATOM     89  O   UNL A   1      40.866  22.224  28.152  1.00  0.00    -0.237 OA
ATOM     90  O   UNL A   1      43.234  22.447  27.507  1.00  0.00    -0.744 OA
ENDBRANCH  83  87
ENDBRANCH  56  80
BRANCH  68  91
ATOM     91  C   UNL A   1      47.106  29.504  31.492  1.00  0.00     0.023 A 
ATOM     92  C   UNL A   1      48.170  29.721  30.600  1.00  0.00     0.031 A 
ATOM     93  C   UNL A   1      47.360  28.744  32.650  1.00  0.00     0.131 A 
ATOM     94  C   UNL A   1      49.422  29.138  30.848  1.00  0.00     0.055 A 
ATOM     95  C   UNL A   1      48.624  28.218  32.922  1.00  0.00     0.041 A 
ATOM     96  F   UNL A   1      46.381  28.501  33.536  1.00  0.00    -0.206 F 
ATOM     97  C   UNL A   1      49.660  28.403  32.012  1.00  0.00     0.022 A 
BRANCH  94  98
ATOM     98  S   UNL A   1      50.713  29.273  29.580  1.00  0.00     0.124 S 
ATOM     99  O   UNL A   1      51.430  30.472  30.003  1.00  0.00    -0.237 OA
ATOM    100  O   UNL A   1      51.432  28.013  29.731  1.00  0.00    -0.237 OA
ATOM    101  O   UNL A   1      49.958  29.409  28.335  1.00  0.00    -0.744 OA
ENDBRANCH  94  98
ENDBRANCH  68  91
ENDBRANCH  42  43
ENDBRANCH  34  37
ENDBRANCH  32  33
ENDBRANCH  31  32
ENDBRANCH  30  31
ENDBRANCH  28  30
ENDBRANCH   1  26
TORSDOF 22
ENDMDL
MODEL 3
REMARK VINA RESULT:      -9.9      4.936      8.287
REMARK SMILES CCCCCCNC(=O)Oc1cccc(-c2ccc(CC(=O)NCCCNC(=O)c3ccc(-c4c5nc(c(-c6cc(S(=O)(=O)[O-])ccc6F)c6ccc([nH]6)c(-c6cc(S(=O)(=O)[O-])ccc6F)c6nc(c(-c7cc(S(=O)(=O)[O-])ccc7F)c7ccc4[nH]7)C=C6)C=C5)cc3)cc2F)c1
REMARK SMILES IDX 20 1 19 2 16 3 17 4 94 5 18 6 93 7 95 8 15 9 11 10 12 11
REMARK SMILES IDX 96 12 13 13 14 14 10 15 8 16 7 17 9 19 6 20 5 21 4 22 3 23
REMARK SMILES IDX 2 24 1 25 21 26 22 27 23 28 24 30 25 31 26 32 27 33 28 34
REMARK SMILES IDX 29 36 30 37 31 38 92 39 32 40 91 41 33 42 34 43 35 44 85 45
REMARK SMILES IDX 36 46 90 47 84 48 86 49 37 50 89 51 83 52 82 53 38 55 70 56
REMARK SMILES IDX 50 57 69 58 51 59 54 60 68 61 87 62 52 63 53 64 67 66 88 67
REMARK SMILES IDX 55 68 39 69 40 70 48 71 41 72 47 73 49 74 46 75 42 76 43 77
REMARK SMILES IDX 44 78 45 79 71 80 72 81 80 82 73 83 79 84 81 85 78 86 74 87
REMARK SMILES IDX 75 88 76 89 77 90 56 91 57 92 65 93 58 94 64 95 66 96 63 97
REMARK SMILES IDX 59 98 60 99 61 100 62 101
REMARK H PARENT 7 18 23 29 27 35 86 54 54 65
REMARK Flexibility Score: inf
ROOT
ATOM      1  C   UNL A   1      37.774  34.215  35.270  1.00  0.00     0.135 C 
ENDROOT
BRANCH   1   2
ATOM      2  C   UNL A   1      38.658  33.032  34.962  1.00  0.00    -0.036 A 
ATOM      3  C   UNL A   1      40.263  30.742  34.470  1.00  0.00     0.018 A 
ATOM      4  C   UNL A   1      40.763  31.837  35.195  1.00  0.00     0.012 A 
ATOM      5  C   UNL A   1      38.955  30.842  33.973  1.00  0.00     0.131 A 
ATOM      6  C   UNL A   1      39.974  32.968  35.436  1.00  0.00     0.005 A 
ATOM      7  C   UNL A   1      38.166  31.967  34.201  1.00  0.00     0.044 A 
ATOM      8  F   UNL A   1      38.409  29.831  33.279  1.00  0.00    -0.206 F 
BRANCH   3   9
ATOM      9  C   UNL A   1      41.078  29.538  34.243  1.00  0.00    -0.012 A 
ATOM     10  C   UNL A   1      42.386  27.681  35.106  1.00  0.00     0.133 A 
ATOM     11  C   UNL A   1      42.712  27.275  33.815  1.00  0.00     0.047 A 
ATOM     12  C   UNL A   1      41.590  28.805  35.325  1.00  0.00     0.056 A 
ATOM     13  C   UNL A   1      42.209  27.987  32.730  1.00  0.00     0.004 A 
ATOM     14  C   UNL A   1      41.397  29.106  32.943  1.00  0.00     0.009 A 
BRANCH  10  15
ATOM     15  O   UNL A   1      42.999  26.993  36.166  1.00  0.00    -0.410 OA
BRANCH  15  16
ATOM     16  C   UNL A   1      44.381  26.912  36.215  1.00  0.00     0.412 C 
ATOM     17  N   UNL A   1      44.840  25.642  36.423  1.00  0.00    -0.321 N 
ATOM     18  H   UNL A   1      45.816  25.531  36.484  1.00  0.00     0.167 HD
ATOM     19  O   UNL A   1      45.170  27.848  36.097  1.00  0.00    -0.224 OA
BRANCH  17  20
ATOM     20  C   UNL A   1      44.039  24.442  36.564  1.00  0.00     0.119 C 
BRANCH  20  21
ATOM     21  C   UNL A   1      44.302  23.446  35.434  1.00  0.00     0.021 C 
BRANCH  21  22
ATOM     22  C   UNL A   1      43.478  23.681  34.162  1.00  0.00     0.002 C 
BRANCH  22  23
ATOM     23  C   UNL A   1      44.192  23.366  32.843  1.00  0.00    -0.000 C 
BRANCH  23  24
ATOM     24  C   UNL A   1      44.568  24.584  31.993  1.00  0.00    -0.003 C 
ATOM     25  C   UNL A   1      45.692  25.414  32.595  1.00  0.00     0.004 C 
ENDBRANCH  23  24
ENDBRANCH  22  23
ENDBRANCH  21  22
ENDBRANCH  20  21
ENDBRANCH  17  20
ENDBRANCH  15  16
ENDBRANCH  10  15
ENDBRANCH   3   9
ENDBRANCH   1   2
BRANCH   1  26
ATOM     26  C   UNL A   1      36.349  33.839  35.640  1.00  0.00     0.224 C 
ATOM     27  O   UNL A   1      36.068  33.429  36.768  1.00  0.00    -0.275 OA
ATOM     28  N   UNL A   1      35.342  33.989  34.730  1.00  0.00    -0.356 N 
ATOM     29  H   UNL A   1      34.438  33.783  35.062  1.00  0.00     0.163 HD
BRANCH  28  30
ATOM     30  C   UNL A   1      35.415  34.410  33.341  1.00  0.00     0.117 C 
BRANCH  30  31
ATOM     31  C   UNL A   1      34.040  34.464  32.677  1.00  0.00     0.042 C 
BRANCH  31  32
ATOM     32  C   UNL A   1      33.992  35.313  31.409  1.00  0.00     0.118 C 
BRANCH  32  33
ATOM     33  N   UNL A   1      33.405  34.600  30.283  1.00  0.00    -0.352 N 
ATOM     34  C   UNL A   1      33.977  33.735  29.382  1.00  0.00     0.251 C 
ATOM     35  H   UNL A   1      32.444  34.765  30.146  1.00  0.00     0.163 HD
ATOM     36  O   UNL A   1      33.335  33.406  28.388  1.00  0.00    -0.269 OA
BRANCH  34  37
ATOM     37  C   UNL A   1      35.348  33.216  29.588  1.00  0.00     0.039 A 
ATOM     38  C   UNL A   1      36.398  33.783  28.859  1.00  0.00     0.014 A 
ATOM     39  C   UNL A   1      35.601  32.150  30.456  1.00  0.00     0.014 A 
ATOM     40  C   UNL A   1      37.704  33.320  29.042  1.00  0.00     0.010 A 
ATOM     41  C   UNL A   1      36.912  31.739  30.692  1.00  0.00     0.010 A 
ATOM     42  C   UNL A   1      37.978  32.316  29.983  1.00  0.00    -0.014 A 
BRANCH  42  43
ATOM     43  C   UNL A   1      39.367  31.846  30.230  1.00  0.00     0.031 A 
ATOM     44  C   UNL A   1      40.298  32.658  31.090  1.00  0.00     0.074 A 
ATOM     45  C   UNL A   1      39.809  30.721  29.634  1.00  0.00     0.049 A 
ATOM     46  N   UNL A   1      41.564  32.463  31.356  1.00  0.00    -0.248 NA
ATOM     47  C   UNL A   1      39.732  33.865  31.708  1.00  0.00     0.031 C 
ATOM     48  C   UNL A   1      39.012  29.862  28.757  1.00  0.00     0.029 A 
ATOM     49  N   UNL A   1      41.037  30.109  29.670  1.00  0.00    -0.354 N 
ATOM     50  C   UNL A   1      41.951  33.528  32.163  1.00  0.00     0.074 A 
ATOM     51  C   UNL A   1      40.799  34.399  32.282  1.00  0.00     0.031 C 
ATOM     52  C   UNL A   1      39.761  28.820  28.363  1.00  0.00     0.029 A 
ATOM     53  C   UNL A   1      41.105  28.961  28.915  1.00  0.00     0.049 A 
ATOM     54  H   UNL A   1      41.798  30.460  30.187  1.00  0.00     0.167 HD
ATOM     55  C   UNL A   1      43.145  33.747  32.772  1.00  0.00     0.034 A 
ATOM     56  C   UNL A   1      42.136  28.123  28.685  1.00  0.00     0.034 A 
ATOM     57  C   UNL A   1      44.283  32.867  32.644  1.00  0.00     0.049 A 
ATOM     58  C   UNL A   1      43.468  28.410  29.331  1.00  0.00     0.074 A 
ATOM     59  C   UNL A   1      45.527  32.972  33.241  1.00  0.00     0.029 A 
ATOM     60  N   UNL A   1      44.319  31.722  31.858  1.00  0.00    -0.354 N 
ATOM     61  N   UNL A   1      43.809  29.404  30.118  1.00  0.00    -0.248 NA
ATOM     62  C   UNL A   1      44.550  27.455  29.062  1.00  0.00     0.031 C 
ATOM     63  C   UNL A   1      46.334  31.933  32.765  1.00  0.00     0.029 A 
ATOM     64  C   UNL A   1      45.571  31.130  31.931  1.00  0.00     0.049 A 
ATOM     65  H   UNL A   1      43.564  31.379  31.326  1.00  0.00     0.167 HD
ATOM     66  C   UNL A   1      45.137  29.172  30.467  1.00  0.00     0.074 A 
ATOM     67  C   UNL A   1      45.529  27.941  29.812  1.00  0.00     0.031 C 
ATOM     68  C   UNL A   1      45.955  29.908  31.264  1.00  0.00     0.034 A 
BRANCH  55  69
ATOM     69  C   UNL A   1      43.275  35.004  33.601  1.00  0.00     0.023 A 
ATOM     70  C   UNL A   1      42.985  35.012  34.977  1.00  0.00     0.031 A 
ATOM     71  C   UNL A   1      43.644  36.224  33.004  1.00  0.00     0.131 A 
ATOM     72  C   UNL A   1      42.972  36.223  35.686  1.00  0.00     0.055 A 
ATOM     73  C   UNL A   1      43.722  37.410  33.737  1.00  0.00     0.041 A 
ATOM     74  F   UNL A   1      43.915  36.288  31.692  1.00  0.00    -0.206 F 
ATOM     75  C   UNL A   1      43.364  37.419  35.083  1.00  0.00     0.022 A 
BRANCH  72  76
ATOM     76  S   UNL A   1      42.265  36.236  37.358  1.00  0.00     0.124 S 
ATOM     77  O   UNL A   1      42.540  34.873  37.804  1.00  0.00    -0.237 OA
ATOM     78  O   UNL A   1      43.028  37.291  38.015  1.00  0.00    -0.237 OA
ATOM     79  O   UNL A   1      40.853  36.536  37.129  1.00  0.00    -0.744 OA
ENDBRANCH  72  76
ENDBRANCH  55  69
BRANCH  56  80
ATOM     80  C   UNL A   1      41.956  26.932  27.808  1.00  0.00     0.023 A 
ATOM     81  C   UNL A   1      41.991  25.634  28.341  1.00  0.00     0.031 A 
ATOM     82  C   UNL A   1      41.779  27.071  26.420  1.00  0.00     0.131 A 
ATOM     83  C   UNL A   1      41.894  24.524  27.488  1.00  0.00     0.055 A 
ATOM     84  C   UNL A   1      41.631  25.965  25.581  1.00  0.00     0.041 A 
ATOM     85  F   UNL A   1      41.734  28.290  25.859  1.00  0.00    -0.206 F 
ATOM     86  C   UNL A   1      41.700  24.681  26.113  1.00  0.00     0.022 A 
BRANCH  83  87
ATOM     87  S   UNL A   1      42.101  22.866  28.193  1.00  0.00     0.124 S 
ATOM     88  O   UNL A   1      43.184  22.330  27.378  1.00  0.00    -0.237 OA
ATOM     89  O   UNL A   1      42.429  23.167  29.583  1.00  0.00    -0.237 OA
ATOM     90  O   UNL A   1      40.795  22.243  27.985  1.00  0.00    -0.744 OA
ENDBRANCH  83  87
ENDBRANCH  56  80
BRANCH  68  91
ATOM     91  C   UNL A   1      47.342  29.363  31.509  1.00  0.00     0.023 A 
ATOM     92  C   UNL A   1      47.654  28.606  32.651  1.00  0.00     0.031 A 
ATOM     93  C   UNL A   1      48.373  29.622  30.586  1.00  0.00     0.131 A 
ATOM     94  C   UNL A   1      48.973  28.183  32.871  1.00  0.00     0.055 A 
ATOM     95  C   UNL A   1      49.671  29.145  30.780  1.00  0.00     0.041 A 
ATOM     96  F   UNL A   1      48.134  30.343  29.479  1.00  0.00    -0.206 F 
ATOM     97  C   UNL A   1      49.980  28.432  31.935  1.00  0.00     0.022 A 
BRANCH  94  98
ATOM     98  S   UNL A   1      49.380  27.380  34.447  1.00  0.00     0.124 S 
ATOM     99  O   UNL A   1      50.631  26.700  34.128  1.00  0.00    -0.237 OA
ATOM    100  O   UNL A   1      49.485  28.515  35.358  1.00  0.00    -0.237 OA
ATOM    101  O   UNL A   1      48.239  26.498  34.688  1.00  0.00    -0.744 OA
ENDBRANCH  94  98
ENDBRANCH  68  91
ENDBRANCH  42  43
ENDBRANCH  34  37
ENDBRANCH  32  33
ENDBRANCH  31  32
ENDBRANCH  30  31
ENDBRANCH  28  30
ENDBRANCH   1  26
TORSDOF 22
ENDMDL
