MODEL 1
REMARK VINA RESULT:     -12.7      0.000      0.000
REMARK SMILES O=C(NCCCNC(=O)c1cc(NC(=S)NC(=O)c2ccccc2F)ccc1Cl)c1ccc(-c2c3nc(c(-c4cc(S(=O)(=O)[O-])ccc4F)c4ccc([nH]4)c(-c4cc(S(=O)(=O)[O-])ccc4F)c4nc(c(-c5cc(S(=O)(=O)[O-])ccc5F)c5ccc2[nH]5)C=C4)C=C3)cc1
REMARK SMILES IDX 5 1 4 2 3 3 1 4 2 5 30 7 31 8 92 9 32 10 91 11 33 12 34 13
REMARK SMILES IDX 35 14 85 15 36 16 90 17 84 18 86 19 37 20 89 21 83 22 82 23
REMARK SMILES IDX 38 25 70 26 50 27 69 28 51 29 54 30 68 31 87 32 52 33 53 34
REMARK SMILES IDX 67 36 88 37 55 38 39 39 40 40 48 41 41 42 47 43 49 44 46 45
REMARK SMILES IDX 42 46 43 47 44 48 45 49 71 50 72 51 80 52 73 53 79 54 81 55
REMARK SMILES IDX 78 56 74 57 75 58 76 59 77 60 56 61 57 62 65 63 58 64 64 65
REMARK SMILES IDX 66 66 63 67 59 68 60 69 61 70 62 71 6 72 7 73 8 74 9 76
REMARK SMILES IDX 10 77 11 78 28 79 12 80 27 81 29 82 26 83 13 84 14 86 15 87
REMARK SMILES IDX 16 88 17 89 18 91 19 92 20 93 24 94 21 95 23 96 25 97 22 98
REMARK H PARENT 3 6 86 24 54 35 7 75 13 85 16 90
REMARK Flexibility Score: inf
ROOT
ATOM      1  C   UNL A   1      38.075  19.484  24.954  1.00  0.00     0.042 C 
ENDROOT
BRANCH   1   2
ATOM      2  C   UNL A   1      39.184  20.101  25.796  1.00  0.00     0.118 C 
BRANCH   2   3
ATOM      3  N   UNL A   1      40.316  19.196  25.974  1.00  0.00    -0.352 N 
ATOM      4  O   UNL A   1      42.494  18.601  26.034  1.00  0.00    -0.269 OA
ATOM      5  C   UNL A   1      41.650  19.484  26.140  1.00  0.00     0.251 C 
ATOM      6  H   UNL A   1      40.092  18.237  25.974  1.00  0.00     0.163 HD
BRANCH   5   7
ATOM      7  C   UNL A   1      42.047  20.874  26.431  1.00  0.00     0.039 A 
ATOM      8  C   UNL A   1      42.215  21.769  25.376  1.00  0.00     0.014 A 
ATOM      9  C   UNL A   1      42.278  21.279  27.747  1.00  0.00     0.014 A 
ATOM     10  C   UNL A   1      42.808  22.995  25.611  1.00  0.00     0.010 A 
ATOM     11  C   UNL A   1      42.738  22.575  27.995  1.00  0.00     0.010 A 
ATOM     12  C   UNL A   1      43.032  23.434  26.925  1.00  0.00    -0.014 A 
BRANCH  12  13
ATOM     13  C   UNL A   1      43.468  24.838  27.125  1.00  0.00     0.031 A 
ATOM     14  C   UNL A   1      42.552  25.874  27.706  1.00  0.00     0.074 A 
ATOM     15  C   UNL A   1      44.748  25.139  26.832  1.00  0.00     0.049 A 
ATOM     16  N   UNL A   1      42.809  27.126  27.985  1.00  0.00    -0.248 NA
ATOM     17  C   UNL A   1      41.171  25.465  28.003  1.00  0.00     0.031 C 
ATOM     18  C   UNL A   1      45.721  24.196  26.266  1.00  0.00     0.029 A 
ATOM     19  N   UNL A   1      45.472  26.289  27.007  1.00  0.00    -0.354 N 
ATOM     20  C   UNL A   1      41.623  27.662  28.471  1.00  0.00     0.074 A 
ATOM     21  C   UNL A   1      40.636  26.603  28.425  1.00  0.00     0.031 C 
ATOM     22  C   UNL A   1      46.928  24.772  26.236  1.00  0.00     0.029 A 
ATOM     23  C   UNL A   1      46.798  26.156  26.671  1.00  0.00     0.049 A 
ATOM     24  H   UNL A   1      45.080  27.127  27.342  1.00  0.00     0.167 HD
ATOM     25  C   UNL A   1      41.390  28.921  28.915  1.00  0.00     0.034 A 
ATOM     26  C   UNL A   1      47.803  27.050  26.681  1.00  0.00     0.034 A 
ATOM     27  C   UNL A   1      42.399  29.954  28.954  1.00  0.00     0.049 A 
ATOM     28  C   UNL A   1      47.508  28.450  27.125  1.00  0.00     0.074 A 
ATOM     29  C   UNL A   1      42.277  31.255  29.409  1.00  0.00     0.029 A 
ATOM     30  N   UNL A   1      43.711  29.808  28.516  1.00  0.00    -0.354 N 
ATOM     31  N   UNL A   1      46.373  28.947  27.558  1.00  0.00    -0.248 NA
ATOM     32  C   UNL A   1      48.612  29.412  27.069  1.00  0.00     0.031 C 
ATOM     33  C   UNL A   1      43.487  31.917  29.174  1.00  0.00     0.029 A 
ATOM     34  C   UNL A   1      44.394  31.007  28.654  1.00  0.00     0.049 A 
ATOM     35  H   UNL A   1      44.097  28.976  28.159  1.00  0.00     0.167 HD
ATOM     36  C   UNL A   1      46.629  30.283  27.838  1.00  0.00     0.074 A 
ATOM     37  C   UNL A   1      48.028  30.512  27.528  1.00  0.00     0.031 C 
ATOM     38  C   UNL A   1      45.783  31.226  28.320  1.00  0.00     0.034 A 
BRANCH  25  39
ATOM     39  C   UNL A   1      39.987  29.272  29.344  1.00  0.00     0.023 A 
ATOM     40  C   UNL A   1      39.626  29.373  30.698  1.00  0.00     0.031 A 
ATOM     41  C   UNL A   1      38.997  29.526  28.377  1.00  0.00     0.131 A 
ATOM     42  C   UNL A   1      38.299  29.675  31.048  1.00  0.00     0.055 A 
ATOM     43  C   UNL A   1      37.697  29.893  28.730  1.00  0.00     0.041 A 
ATOM     44  F   UNL A   1      39.279  29.423  27.068  1.00  0.00    -0.206 F 
ATOM     45  C   UNL A   1      37.340  29.961  30.073  1.00  0.00     0.022 A 
BRANCH  42  46
ATOM     46  S   UNL A   1      37.818  29.592  32.794  1.00  0.00     0.124 S 
ATOM     47  O   UNL A   1      39.066  29.952  33.463  1.00  0.00    -0.237 OA
ATOM     48  O   UNL A   1      36.744  30.577  32.874  1.00  0.00    -0.237 OA
ATOM     49  O   UNL A   1      37.403  28.202  32.972  1.00  0.00    -0.744 OA
ENDBRANCH  42  46
ENDBRANCH  25  39
BRANCH  26  50
ATOM     50  C   UNL A   1      49.151  26.627  26.219  1.00  0.00     0.023 A 
ATOM     51  C   UNL A   1      49.661  27.050  24.984  1.00  0.00     0.031 A 
ATOM     52  C   UNL A   1      49.986  25.865  27.059  1.00  0.00     0.131 A 
ATOM     53  C   UNL A   1      50.975  26.713  24.624  1.00  0.00     0.055 A 
ATOM     54  C   UNL A   1      51.304  25.568  26.715  1.00  0.00     0.041 A 
ATOM     55  F   UNL A   1      49.547  25.456  28.260  1.00  0.00    -0.206 F 
ATOM     56  C   UNL A   1      51.805  25.992  25.490  1.00  0.00     0.022 A 
BRANCH  53  57
ATOM     57  S   UNL A   1      51.598  27.236  23.004  1.00  0.00     0.124 S 
ATOM     58  O   UNL A   1      51.925  28.636  23.250  1.00  0.00    -0.237 OA
ATOM     59  O   UNL A   1      52.730  26.336  22.806  1.00  0.00    -0.237 OA
ATOM     60  O   UNL A   1      50.463  27.006  22.112  1.00  0.00    -0.744 OA
ENDBRANCH  53  57
ENDBRANCH  26  50
BRANCH  38  61
ATOM     61  C   UNL A   1      46.349  32.597  28.576  1.00  0.00     0.023 A 
ATOM     62  C   UNL A   1      46.410  33.570  27.565  1.00  0.00     0.031 A 
ATOM     63  C   UNL A   1      46.769  32.949  29.870  1.00  0.00     0.131 A 
ATOM     64  C   UNL A   1      46.898  34.850  27.864  1.00  0.00     0.055 A 
ATOM     65  C   UNL A   1      47.209  34.237  30.172  1.00  0.00     0.041 A 
ATOM     66  F   UNL A   1      46.727  32.053  30.868  1.00  0.00    -0.206 F 
ATOM     67  C   UNL A   1      47.278  35.196  29.165  1.00  0.00     0.022 A 
BRANCH  64  68
ATOM     68  S   UNL A   1      47.052  36.062  26.525  1.00  0.00     0.124 S 
ATOM     69  O   UNL A   1      47.298  35.205  25.369  1.00  0.00    -0.237 OA
ATOM     70  O   UNL A   1      45.758  36.735  26.556  1.00  0.00    -0.237 OA
ATOM     71  O   UNL A   1      48.186  36.888  26.938  1.00  0.00    -0.744 OA
ENDBRANCH  64  68
ENDBRANCH  38  61
ENDBRANCH  12  13
ENDBRANCH   5   7
ENDBRANCH   2   3
ENDBRANCH   1   2
BRANCH   1  72
ATOM     72  C   UNL A   1      36.782  20.286  24.999  1.00  0.00     0.118 C 
BRANCH  72  73
ATOM     73  N   UNL A   1      36.984  21.553  25.676  1.00  0.00    -0.352 N 
ATOM     74  C   UNL A   1      36.358  22.760  25.568  1.00  0.00     0.252 C 
ATOM     75  H   UNL A   1      37.711  21.539  26.340  1.00  0.00     0.163 HD
ATOM     76  O   UNL A   1      36.795  23.688  26.244  1.00  0.00    -0.269 OA
BRANCH  74  77
ATOM     77  C   UNL A   1      35.078  22.916  24.754  1.00  0.00     0.060 A 
ATOM     78  C   UNL A   1      34.511  23.832  23.045  1.00  0.00     0.041 A 
ATOM     79  C   UNL A   1      33.717  22.236  25.746  1.00  0.00     0.053 A 
ATOM     80  C   UNL A   1      32.880  24.087  22.626  1.00  0.00     0.041 A 
ATOM     81  C   UNL A   1      32.048  22.458  25.151  1.00  0.00     0.023 A 
ATOM     82  Cl  UNL A   1      33.940  21.461  27.265  1.00  0.00    -0.083 Cl
ATOM     83  C   UNL A   1      31.655  23.366  23.650  1.00  0.00     0.028 A 
BRANCH  80  84
ATOM     84  N   UNL A   1      32.777  25.236  21.823  1.00  0.00    -0.332 N 
ATOM     85  H   UNL A   1      32.791  25.065  20.853  1.00  0.00     0.169 HD
BRANCH  84  86
ATOM     86  C   UNL A   1      32.658  26.568  22.175  1.00  0.00     0.177 C 
ATOM     87  S   UNL A   1      34.027  27.264  22.869  1.00  0.00    -0.040 S 
BRANCH  86  88
ATOM     88  N   UNL A   1      31.538  27.455  22.004  1.00  0.00    -0.299 N 
ATOM     89  C   UNL A   1      30.374  28.296  22.460  1.00  0.00     0.260 C 
ATOM     90  H   UNL A   1      31.525  27.590  21.028  1.00  0.00     0.172 HD
ATOM     91  O   UNL A   1      29.754  28.953  21.628  1.00  0.00    -0.269 OA
BRANCH  89  92
ATOM     92  C   UNL A   1      29.937  28.333  23.920  1.00  0.00     0.075 A 
ATOM     93  C   UNL A   1      29.135  26.793  24.126  1.00  0.00     0.017 A 
ATOM     94  C   UNL A   1      31.262  28.908  24.995  1.00  0.00     0.135 A 
ATOM     95  C   UNL A   1      29.839  25.637  25.266  1.00  0.00     0.001 A 
ATOM     96  C   UNL A   1      32.080  27.853  26.184  1.00  0.00     0.040 A 
ATOM     97  F   UNL A   1      31.938  30.007  24.622  1.00  0.00    -0.206 F 
ATOM     98  C   UNL A   1      31.471  26.154  26.355  1.00  0.00     0.003 A 
ENDBRANCH  89  92
ENDBRANCH  86  88
ENDBRANCH  84  86
ENDBRANCH  80  84
ENDBRANCH  74  77
ENDBRANCH  72  73
ENDBRANCH   1  72
TORSDOF 17
ENDMDL
MODEL 2
REMARK VINA RESULT:     -12.6      0.909      7.701
REMARK SMILES O=C(NCCCNC(=O)c1cc(NC(=S)NC(=O)c2ccccc2F)ccc1Cl)c1ccc(-c2c3nc(c(-c4cc(S(=O)(=O)[O-])ccc4F)c4ccc([nH]4)c(-c4cc(S(=O)(=O)[O-])ccc4F)c4nc(c(-c5cc(S(=O)(=O)[O-])ccc5F)c5ccc2[nH]5)C=C4)C=C3)cc1
REMARK SMILES IDX 5 1 4 2 3 3 1 4 2 5 30 7 31 8 92 9 32 10 91 11 33 12 34 13
REMARK SMILES IDX 35 14 85 15 36 16 90 17 84 18 86 19 37 20 89 21 83 22 82 23
REMARK SMILES IDX 38 25 70 26 50 27 69 28 51 29 54 30 68 31 87 32 52 33 53 34
REMARK SMILES IDX 67 36 88 37 55 38 39 39 40 40 48 41 41 42 47 43 49 44 46 45
REMARK SMILES IDX 42 46 43 47 44 48 45 49 71 50 72 51 80 52 73 53 79 54 81 55
REMARK SMILES IDX 78 56 74 57 75 58 76 59 77 60 56 61 57 62 65 63 58 64 64 65
REMARK SMILES IDX 66 66 63 67 59 68 60 69 61 70 62 71 6 72 7 73 8 74 9 76
REMARK SMILES IDX 10 77 11 78 28 79 12 80 27 81 29 82 26 83 13 84 14 86 15 87
REMARK SMILES IDX 16 88 17 89 18 91 19 92 20 93 24 94 21 95 23 96 25 97 22 98
REMARK H PARENT 3 6 86 24 54 35 7 75 13 85 16 90
REMARK Flexibility Score: inf
ROOT
ATOM      1  C   UNL A   1      38.349  19.910  25.015  1.00  0.00     0.042 C 
ENDROOT
BRANCH   1   2
ATOM      2  C   UNL A   1      39.375  20.177  26.109  1.00  0.00     0.118 C 
BRANCH   2   3
ATOM      3  N   UNL A   1      40.458  19.196  26.105  1.00  0.00    -0.352 N 
ATOM      4  O   UNL A   1      42.580  18.466  25.858  1.00  0.00    -0.269 OA
ATOM      5  C   UNL A   1      41.818  19.394  26.105  1.00  0.00     0.251 C 
ATOM      6  H   UNL A   1      40.172  18.254  26.101  1.00  0.00     0.163 HD
BRANCH   5   7
ATOM      7  C   UNL A   1      42.341  20.743  26.389  1.00  0.00     0.039 A 
ATOM      8  C   UNL A   1      42.516  21.140  27.714  1.00  0.00     0.014 A 
ATOM      9  C   UNL A   1      42.632  21.621  25.342  1.00  0.00     0.014 A 
ATOM     10  C   UNL A   1      42.778  22.467  27.998  1.00  0.00     0.010 A 
ATOM     11  C   UNL A   1      43.044  22.924  25.634  1.00  0.00     0.010 A 
ATOM     12  C   UNL A   1      43.093  23.364  26.965  1.00  0.00    -0.014 A 
BRANCH  12  13
ATOM     13  C   UNL A   1      43.576  24.716  27.341  1.00  0.00     0.031 A 
ATOM     14  C   UNL A   1      44.999  25.135  27.121  1.00  0.00     0.074 A 
ATOM     15  C   UNL A   1      42.670  25.587  27.827  1.00  0.00     0.049 A 
ATOM     16  N   UNL A   1      45.552  26.298  27.353  1.00  0.00    -0.248 NA
ATOM     17  C   UNL A   1      45.926  24.128  26.584  1.00  0.00     0.031 C 
ATOM     18  C   UNL A   1      41.257  25.274  28.073  1.00  0.00     0.029 A 
ATOM     19  N   UNL A   1      42.772  26.913  28.153  1.00  0.00    -0.354 N 
ATOM     20  C   UNL A   1      46.892  26.161  27.010  1.00  0.00     0.074 A 
ATOM     21  C   UNL A   1      47.075  24.791  26.578  1.00  0.00     0.031 C 
ATOM     22  C   UNL A   1      40.610  26.394  28.412  1.00  0.00     0.029 A 
ATOM     23  C   UNL A   1      41.574  27.480  28.519  1.00  0.00     0.049 A 
ATOM     24  H   UNL A   1      43.620  27.412  28.127  1.00  0.00     0.167 HD
ATOM     25  C   UNL A   1      47.870  27.098  27.054  1.00  0.00     0.034 A 
ATOM     26  C   UNL A   1      41.278  28.727  28.924  1.00  0.00     0.034 A 
ATOM     27  C   UNL A   1      47.654  28.459  27.485  1.00  0.00     0.049 A 
ATOM     28  C   UNL A   1      42.386  29.730  29.015  1.00  0.00     0.074 A 
ATOM     29  C   UNL A   1      48.568  29.497  27.542  1.00  0.00     0.029 A 
ATOM     30  N   UNL A   1      46.443  28.972  27.939  1.00  0.00    -0.354 N 
ATOM     31  N   UNL A   1      43.654  29.577  28.712  1.00  0.00    -0.248 NA
ATOM     32  C   UNL A   1      42.037  31.064  29.516  1.00  0.00     0.031 C 
ATOM     33  C   UNL A   1      47.934  30.609  28.103  1.00  0.00     0.029 A 
ATOM     34  C   UNL A   1      46.600  30.298  28.315  1.00  0.00     0.049 A 
ATOM     35  H   UNL A   1      45.600  28.468  27.987  1.00  0.00     0.167 HD
ATOM     36  C   UNL A   1      44.255  30.801  28.974  1.00  0.00     0.074 A 
ATOM     37  C   UNL A   1      43.210  31.683  29.457  1.00  0.00     0.031 C 
ATOM     38  C   UNL A   1      45.553  31.159  28.816  1.00  0.00     0.034 A 
BRANCH  25  39
ATOM     39  C   UNL A   1      49.269  26.678  26.677  1.00  0.00     0.023 A 
ATOM     40  C   UNL A   1      49.875  27.094  25.480  1.00  0.00     0.031 A 
ATOM     41  C   UNL A   1      50.016  25.859  27.543  1.00  0.00     0.131 A 
ATOM     42  C   UNL A   1      51.170  26.654  25.161  1.00  0.00     0.055 A 
ATOM     43  C   UNL A   1      51.328  25.480  27.253  1.00  0.00     0.041 A 
ATOM     44  F   UNL A   1      49.480  25.413  28.691  1.00  0.00    -0.206 F 
ATOM     45  C   UNL A   1      51.909  25.871  26.052  1.00  0.00     0.022 A 
BRANCH  42  46
ATOM     46  S   UNL A   1      51.841  27.035  23.520  1.00  0.00     0.124 S 
ATOM     47  O   UNL A   1      52.785  25.937  23.322  1.00  0.00    -0.237 OA
ATOM     48  O   UNL A   1      50.650  27.013  22.677  1.00  0.00    -0.237 OA
ATOM     49  O   UNL A   1      52.456  28.349  23.696  1.00  0.00    -0.744 OA
ENDBRANCH  42  46
ENDBRANCH  25  39
BRANCH  26  50
ATOM     50  C   UNL A   1      39.875  29.050  29.300  1.00  0.00     0.023 A 
ATOM     51  C   UNL A   1      39.475  29.097  30.642  1.00  0.00     0.031 A 
ATOM     52  C   UNL A   1      38.939  29.413  28.313  1.00  0.00     0.131 A 
ATOM     53  C   UNL A   1      38.171  29.502  30.963  1.00  0.00     0.055 A 
ATOM     54  C   UNL A   1      37.657  29.854  28.639  1.00  0.00     0.041 A 
ATOM     55  F   UNL A   1      39.284  29.403  27.015  1.00  0.00    -0.206 F 
ATOM     56  C   UNL A   1      37.267  29.899  29.973  1.00  0.00     0.022 A 
BRANCH  53  57
ATOM     57  S   UNL A   1      37.664  29.513  32.704  1.00  0.00     0.124 S 
ATOM     58  O   UNL A   1      38.825  30.118  33.347  1.00  0.00    -0.237 OA
ATOM     59  O   UNL A   1      36.453  30.326  32.666  1.00  0.00    -0.237 OA
ATOM     60  O   UNL A   1      37.449  28.099  33.005  1.00  0.00    -0.744 OA
ENDBRANCH  53  57
ENDBRANCH  26  50
BRANCH  38  61
ATOM     61  C   UNL A   1      45.922  32.582  29.138  1.00  0.00     0.023 A 
ATOM     62  C   UNL A   1      45.877  33.594  28.166  1.00  0.00     0.031 A 
ATOM     63  C   UNL A   1      46.258  32.935  30.457  1.00  0.00     0.131 A 
ATOM     64  C   UNL A   1      46.180  34.915  28.526  1.00  0.00     0.055 A 
ATOM     65  C   UNL A   1      46.512  34.257  30.818  1.00  0.00     0.041 A 
ATOM     66  F   UNL A   1      46.312  32.001  31.420  1.00  0.00    -0.206 F 
ATOM     67  C   UNL A   1      46.477  35.256  29.850  1.00  0.00     0.022 A 
BRANCH  64  68
ATOM     68  S   UNL A   1      46.203  36.190  27.237  1.00  0.00     0.124 S 
ATOM     69  O   UNL A   1      46.124  35.389  26.019  1.00  0.00    -0.237 OA
ATOM     70  O   UNL A   1      45.022  36.984  27.556  1.00  0.00    -0.237 OA
ATOM     71  O   UNL A   1      47.480  36.870  27.450  1.00  0.00    -0.744 OA
ENDBRANCH  64  68
ENDBRANCH  38  61
ENDBRANCH  12  13
ENDBRANCH   5   7
ENDBRANCH   2   3
ENDBRANCH   1   2
BRANCH   1  72
ATOM     72  C   UNL A   1      37.353  21.050  24.849  1.00  0.00     0.118 C 
BRANCH  72  73
ATOM     73  N   UNL A   1      36.468  21.134  25.995  1.00  0.00    -0.352 N 
ATOM     74  C   UNL A   1      35.204  21.623  26.144  1.00  0.00     0.252 C 
ATOM     75  H   UNL A   1      36.853  20.767  26.824  1.00  0.00     0.163 HD
ATOM     76  O   UNL A   1      34.720  21.612  27.273  1.00  0.00    -0.269 OA
BRANCH  74  77
ATOM     77  C   UNL A   1      34.369  22.033  24.935  1.00  0.00     0.060 A 
ATOM     78  C   UNL A   1      33.910  23.742  23.962  1.00  0.00     0.041 A 
ATOM     79  C   UNL A   1      33.420  20.576  24.411  1.00  0.00     0.053 A 
ATOM     80  C   UNL A   1      32.633  23.858  22.841  1.00  0.00     0.041 A 
ATOM     81  C   UNL A   1      32.184  20.787  23.139  1.00  0.00     0.023 A 
ATOM     82  Cl  UNL A   1      33.589  19.020  25.126  1.00  0.00    -0.083 Cl
ATOM     83  C   UNL A   1      31.803  22.380  22.398  1.00  0.00     0.028 A 
BRANCH  80  84
ATOM     84  N   UNL A   1      32.134  25.172  22.832  1.00  0.00    -0.332 N 
ATOM     85  H   UNL A   1      31.910  25.535  23.720  1.00  0.00     0.169 HD
BRANCH  84  86
ATOM     86  C   UNL A   1      31.907  26.037  21.778  1.00  0.00     0.177 C 
ATOM     87  S   UNL A   1      32.517  25.546  20.286  1.00  0.00    -0.040 S 
BRANCH  86  88
ATOM     88  N   UNL A   1      31.196  27.288  21.768  1.00  0.00    -0.299 N 
ATOM     89  C   UNL A   1      30.432  28.436  22.378  1.00  0.00     0.260 C 
ATOM     90  H   UNL A   1      31.225  27.538  20.815  1.00  0.00     0.172 HD
ATOM     91  O   UNL A   1      30.093  29.372  21.658  1.00  0.00    -0.269 OA
BRANCH  89  92
ATOM     92  C   UNL A   1      30.054  28.450  23.853  1.00  0.00     0.075 A 
ATOM     93  C   UNL A   1      29.027  27.042  24.007  1.00  0.00     0.017 A 
ATOM     94  C   UNL A   1      31.486  28.747  24.903  1.00  0.00     0.135 A 
ATOM     95  C   UNL A   1      29.578  25.724  25.052  1.00  0.00     0.001 A 
ATOM     96  C   UNL A   1      32.167  27.508  25.997  1.00  0.00     0.040 A 
ATOM     97  F   UNL A   1      32.313  29.750  24.564  1.00  0.00    -0.206 F 
ATOM     98  C   UNL A   1      31.306  25.916  26.099  1.00  0.00     0.003 A 
ENDBRANCH  89  92
ENDBRANCH  86  88
ENDBRANCH  84  86
ENDBRANCH  80  84
ENDBRANCH  74  77
ENDBRANCH  72  73
ENDBRANCH   1  72
TORSDOF 17
ENDMDL
MODEL 3
REMARK VINA RESULT:     -12.2      3.794      4.965
REMARK SMILES O=C(NCCCNC(=O)c1cc(NC(=S)NC(=O)c2ccccc2F)ccc1Cl)c1ccc(-c2c3nc(c(-c4cc(S(=O)(=O)[O-])ccc4F)c4ccc([nH]4)c(-c4cc(S(=O)(=O)[O-])ccc4F)c4nc(c(-c5cc(S(=O)(=O)[O-])ccc5F)c5ccc2[nH]5)C=C4)C=C3)cc1
REMARK SMILES IDX 5 1 4 2 3 3 1 4 2 5 30 7 31 8 92 9 32 10 91 11 33 12 34 13
REMARK SMILES IDX 35 14 85 15 36 16 90 17 84 18 86 19 37 20 89 21 83 22 82 23
REMARK SMILES IDX 38 25 70 26 50 27 69 28 51 29 54 30 68 31 87 32 52 33 53 34
REMARK SMILES IDX 67 36 88 37 55 38 39 39 40 40 48 41 41 42 47 43 49 44 46 45
REMARK SMILES IDX 42 46 43 47 44 48 45 49 71 50 72 51 80 52 73 53 79 54 81 55
REMARK SMILES IDX 78 56 74 57 75 58 76 59 77 60 56 61 57 62 65 63 58 64 64 65
REMARK SMILES IDX 66 66 63 67 59 68 60 69 61 70 62 71 6 72 7 73 8 74 9 76
REMARK SMILES IDX 10 77 11 78 28 79 12 80 27 81 29 82 26 83 13 84 14 86 15 87
REMARK SMILES IDX 16 88 17 89 18 91 19 92 20 93 24 94 21 95 23 96 25 97 22 98
REMARK H PARENT 3 6 86 24 54 35 7 75 13 85 16 90
REMARK Flexibility Score: inf
ROOT
ATOM      1  C   UNL A   1      35.952  22.909  25.766  1.00  0.00     0.042 C 
ENDROOT
BRANCH   1   2
ATOM      2  C   UNL A   1      37.355  23.500  25.725  1.00  0.00     0.118 C 
BRANCH   2   3
ATOM      3  N   UNL A   1      38.381  22.523  26.081  1.00  0.00    -0.352 N 
ATOM      4  O   UNL A   1      40.473  21.790  26.510  1.00  0.00    -0.269 OA
ATOM      5  C   UNL A   1      39.680  22.725  26.483  1.00  0.00     0.251 C 
ATOM      6  H   UNL A   1      38.102  21.581  26.024  1.00  0.00     0.163 HD
BRANCH   5   7
ATOM      7  C   UNL A   1      40.104  24.084  26.865  1.00  0.00     0.039 A 
ATOM      8  C   UNL A   1      40.259  24.395  28.215  1.00  0.00     0.014 A 
ATOM      9  C   UNL A   1      40.322  25.055  25.885  1.00  0.00     0.014 A 
ATOM     10  C   UNL A   1      40.425  25.713  28.595  1.00  0.00     0.010 A 
ATOM     11  C   UNL A   1      40.638  26.360  26.271  1.00  0.00     0.010 A 
ATOM     12  C   UNL A   1      40.665  26.704  27.631  1.00  0.00    -0.014 A 
BRANCH  12  13
ATOM     13  C   UNL A   1      41.050  28.056  28.104  1.00  0.00     0.031 A 
ATOM     14  C   UNL A   1      40.037  29.024  28.639  1.00  0.00     0.074 A 
ATOM     15  C   UNL A   1      42.362  28.365  28.104  1.00  0.00     0.049 A 
ATOM     16  N   UNL A   1      40.232  30.219  29.135  1.00  0.00    -0.248 NA
ATOM     17  C   UNL A   1      38.626  28.612  28.608  1.00  0.00     0.031 C 
ATOM     18  C   UNL A   1      43.428  27.486  27.608  1.00  0.00     0.029 A 
ATOM     19  N   UNL A   1      43.035  29.461  28.573  1.00  0.00    -0.354 N 
ATOM     20  C   UNL A   1      38.974  30.711  29.457  1.00  0.00     0.074 A 
ATOM     21  C   UNL A   1      38.016  29.693  29.076  1.00  0.00     0.031 C 
ATOM     22  C   UNL A   1      44.616  28.031  27.888  1.00  0.00     0.029 A 
ATOM     23  C   UNL A   1      44.402  29.345  28.480  1.00  0.00     0.049 A 
ATOM     24  H   UNL A   1      42.585  30.255  28.942  1.00  0.00     0.167 HD
ATOM     25  C   UNL A   1      38.657  31.902  30.020  1.00  0.00     0.034 A 
ATOM     26  C   UNL A   1      45.383  30.205  28.806  1.00  0.00     0.034 A 
ATOM     27  C   UNL A   1      39.636  32.896  30.394  1.00  0.00     0.049 A 
ATOM     28  C   UNL A   1      45.005  31.536  29.377  1.00  0.00     0.074 A 
ATOM     29  C   UNL A   1      39.426  34.124  30.996  1.00  0.00     0.029 A 
ATOM     30  N   UNL A   1      41.008  32.780  30.197  1.00  0.00    -0.354 N 
ATOM     31  N   UNL A   1      43.807  31.996  29.652  1.00  0.00    -0.248 NA
ATOM     32  C   UNL A   1      46.097  32.471  29.667  1.00  0.00     0.031 C 
ATOM     33  C   UNL A   1      40.656  34.783  31.090  1.00  0.00     0.029 A 
ATOM     34  C   UNL A   1      41.649  33.932  30.629  1.00  0.00     0.049 A 
ATOM     35  H   UNL A   1      41.458  31.997  29.808  1.00  0.00     0.167 HD
ATOM     36  C   UNL A   1      44.001  33.274  30.160  1.00  0.00     0.074 A 
ATOM     37  C   UNL A   1      45.433  33.510  30.156  1.00  0.00     0.031 C 
ATOM     38  C   UNL A   1      43.075  34.161  30.599  1.00  0.00     0.034 A 
BRANCH  25  39
ATOM     39  C   UNL A   1      37.196  32.224  30.220  1.00  0.00     0.023 A 
ATOM     40  C   UNL A   1      36.455  32.945  29.269  1.00  0.00     0.031 A 
ATOM     41  C   UNL A   1      36.530  31.784  31.379  1.00  0.00     0.131 A 
ATOM     42  C   UNL A   1      35.104  33.243  29.514  1.00  0.00     0.055 A 
ATOM     43  C   UNL A   1      35.171  32.025  31.585  1.00  0.00     0.041 A 
ATOM     44  F   UNL A   1      37.193  31.110  32.332  1.00  0.00    -0.206 F 
ATOM     45  C   UNL A   1      34.452  32.766  30.653  1.00  0.00     0.022 A 
BRANCH  42  46
ATOM     46  S   UNL A   1      34.235  34.350  28.370  1.00  0.00     0.124 S 
ATOM     47  O   UNL A   1      34.110  35.566  29.171  1.00  0.00    -0.237 OA
ATOM     48  O   UNL A   1      35.154  34.423  27.239  1.00  0.00    -0.237 OA
ATOM     49  O   UNL A   1      32.976  33.655  28.107  1.00  0.00    -0.744 OA
ENDBRANCH  42  46
ENDBRANCH  25  39
BRANCH  26  50
ATOM     50  C   UNL A   1      46.797  29.817  28.553  1.00  0.00     0.023 A 
ATOM     51  C   UNL A   1      47.551  29.146  29.525  1.00  0.00     0.031 A 
ATOM     52  C   UNL A   1      47.379  30.032  27.289  1.00  0.00     0.131 A 
ATOM     53  C   UNL A   1      48.847  28.707  29.216  1.00  0.00     0.055 A 
ATOM     54  C   UNL A   1      48.652  29.558  26.974  1.00  0.00     0.041 A 
ATOM     55  F   UNL A   1      46.686  30.651  26.320  1.00  0.00    -0.206 F 
ATOM     56  C   UNL A   1      49.395  28.891  27.942  1.00  0.00     0.022 A 
BRANCH  53  57
ATOM     57  S   UNL A   1      49.818  27.879  30.504  1.00  0.00     0.124 S 
ATOM     58  O   UNL A   1      50.286  29.011  31.296  1.00  0.00    -0.237 OA
ATOM     59  O   UNL A   1      48.822  27.020  31.135  1.00  0.00    -0.237 OA
ATOM     60  O   UNL A   1      50.853  27.174  29.750  1.00  0.00    -0.744 OA
ENDBRANCH  53  57
ENDBRANCH  26  50
BRANCH  38  61
ATOM     61  C   UNL A   1      43.578  35.471  31.147  1.00  0.00     0.023 A 
ATOM     62  C   UNL A   1      43.896  35.628  32.505  1.00  0.00     0.031 A 
ATOM     63  C   UNL A   1      43.801  36.552  30.277  1.00  0.00     0.131 A 
ATOM     64  C   UNL A   1      44.409  36.851  32.960  1.00  0.00     0.055 A 
ATOM     65  C   UNL A   1      44.355  37.750  30.726  1.00  0.00     0.041 A 
ATOM     66  F   UNL A   1      43.512  36.447  28.970  1.00  0.00    -0.206 F 
ATOM     67  C   UNL A   1      44.660  37.905  32.075  1.00  0.00     0.022 A 
BRANCH  64  68
ATOM     68  S   UNL A   1      44.730  37.061  34.731  1.00  0.00     0.124 S 
ATOM     69  O   UNL A   1      44.736  38.515  34.866  1.00  0.00    -0.237 OA
ATOM     70  O   UNL A   1      43.600  36.370  35.343  1.00  0.00    -0.237 OA
ATOM     71  O   UNL A   1      46.027  36.415  34.924  1.00  0.00    -0.744 OA
ENDBRANCH  64  68
ENDBRANCH  38  61
ENDBRANCH  12  13
ENDBRANCH   5   7
ENDBRANCH   2   3
ENDBRANCH   1   2
BRANCH   1  72
ATOM     72  C   UNL A   1      35.609  22.114  24.514  1.00  0.00     0.118 C 
BRANCH  72  73
ATOM     73  N   UNL A   1      34.785  20.966  24.841  1.00  0.00    -0.352 N 
ATOM     74  C   UNL A   1      33.458  20.843  25.135  1.00  0.00     0.252 C 
ATOM     75  H   UNL A   1      35.276  20.113  24.853  1.00  0.00     0.163 HD
ATOM     76  O   UNL A   1      33.045  19.726  25.434  1.00  0.00    -0.269 OA
BRANCH  74  77
ATOM     77  C   UNL A   1      32.498  22.014  24.956  1.00  0.00     0.060 A 
ATOM     78  C   UNL A   1      31.595  22.969  23.422  1.00  0.00     0.041 A 
ATOM     79  C   UNL A   1      32.326  22.827  26.571  1.00  0.00     0.053 A 
ATOM     80  C   UNL A   1      30.854  24.494  23.585  1.00  0.00     0.041 A 
ATOM     81  C   UNL A   1      31.424  24.366  26.648  1.00  0.00     0.023 A 
ATOM     82  Cl  UNL A   1      33.051  22.240  28.016  1.00  0.00    -0.083 Cl
ATOM     83  C   UNL A   1      30.729  25.169  25.196  1.00  0.00     0.028 A 
BRANCH  80  84
ATOM     84  N   UNL A   1      30.910  25.176  22.357  1.00  0.00    -0.332 N 
ATOM     85  H   UNL A   1      30.105  25.084  21.796  1.00  0.00     0.169 HD
BRANCH  84  86
ATOM     86  C   UNL A   1      31.913  25.955  21.810  1.00  0.00     0.177 C 
ATOM     87  S   UNL A   1      32.615  25.356  20.400  1.00  0.00    -0.040 S 
BRANCH  86  88
ATOM     88  N   UNL A   1      32.423  27.223  22.259  1.00  0.00    -0.299 N 
ATOM     89  C   UNL A   1      32.717  28.302  23.269  1.00  0.00     0.260 C 
ATOM     90  H   UNL A   1      32.791  27.606  21.430  1.00  0.00     0.172 HD
ATOM     91  O   UNL A   1      33.340  29.298  22.909  1.00  0.00    -0.269 OA
BRANCH  89  92
ATOM     92  C   UNL A   1      32.243  28.197  24.713  1.00  0.00     0.075 A 
ATOM     93  C   UNL A   1      33.661  27.607  25.549  1.00  0.00     0.017 A 
ATOM     94  C   UNL A   1      31.336  29.667  25.223  1.00  0.00     0.135 A 
ATOM     95  C   UNL A   1      34.394  28.650  26.777  1.00  0.00     0.001 A 
ATOM     96  C   UNL A   1      31.956  30.822  26.438  1.00  0.00     0.040 A 
ATOM     97  F   UNL A   1      30.391  30.138  24.393  1.00  0.00    -0.206 F 
ATOM     98  C   UNL A   1      33.532  30.427  27.242  1.00  0.00     0.003 A 
ENDBRANCH  89  92
ENDBRANCH  86  88
ENDBRANCH  84  86
ENDBRANCH  80  84
ENDBRANCH  74  77
ENDBRANCH  72  73
ENDBRANCH   1  72
TORSDOF 17
ENDMDL
