MODEL 1
REMARK VINA RESULT:     -11.0      0.000      0.000
REMARK SMILES C[C@](NC(=O)CSCc1cccs1)(C(=O)NCCCNC(=O)c1ccc(-c2c3nc(c(-c4cc(S(=O)(=O)[O-])ccc4F)c4ccc([nH]4)c(-c4cc(S(=O)(=O)[O-])ccc4F)c4nc(c(-c5cc(S(=O)(=O)[O-])ccc5F)c5ccc2[nH]5)C=C4)C=C3)cc1)C(F)(F)F
REMARK SMILES IDX 17 1 16 2 14 3 15 4 2 6 1 7 86 8 87 9 88 10 89 11 3 12 4 13
REMARK SMILES IDX 5 15 6 16 7 17 8 18 9 19 10 20 13 21 11 22 12 23 18 24 19 25
REMARK SMILES IDX 20 26 21 27 22 29 23 30 24 31 85 32 25 33 84 34 26 35 27 36
REMARK SMILES IDX 28 37 78 38 29 39 83 40 77 41 79 42 30 43 82 44 76 45 75 46
REMARK SMILES IDX 31 48 63 49 43 50 62 51 44 52 47 53 61 54 80 55 45 56 46 57
REMARK SMILES IDX 60 59 81 60 48 61 32 62 33 63 41 64 34 65 40 66 42 67 39 68
REMARK SMILES IDX 35 69 36 70 37 71 38 72 64 73 65 74 73 75 66 76 72 77 74 78
REMARK SMILES IDX 71 79 67 80 68 81 69 82 70 83 49 84 50 85 58 86 51 87 57 88
REMARK SMILES IDX 59 89 56 90 52 91 53 92 54 93 55 94
REMARK H PARENT 16 5 3 14 20 28 79 47 47 58
REMARK Flexibility Score: inf
ROOT
ATOM      1  C   UNL A   1      31.391  29.401  24.938  1.00  0.00     0.117 C 
ENDROOT
BRANCH   1   2
ATOM      2  N   UNL A   1      32.585  29.437  24.101  1.00  0.00    -0.354 N 
ATOM      3  C   UNL A   1      33.388  28.424  23.638  1.00  0.00     0.254 C 
ATOM      4  O   UNL A   1      34.237  28.739  22.802  1.00  0.00    -0.272 OA
ATOM      5  H   UNL A   1      32.862  30.340  23.823  1.00  0.00     0.163 HD
BRANCH   3   6
ATOM      6  C   UNL A   1      33.108  26.956  24.032  1.00  0.00     0.212 C 
ATOM      7  C   UNL A   1      33.903  26.077  23.060  1.00  0.00     0.056 C 
BRANCH   6   8
ATOM      8  C   UNL A   1      33.668  26.736  25.451  1.00  0.00     0.420 C 
ATOM      9  F   UNL A   1      32.698  26.465  26.351  1.00  0.00    -0.168 F 
ATOM     10  F   UNL A   1      34.504  25.661  25.449  1.00  0.00    -0.168 F 
ATOM     11  F   UNL A   1      34.396  27.778  25.906  1.00  0.00    -0.168 F 
ENDBRANCH   6   8
BRANCH   6  12
ATOM     12  N   UNL A   1      31.615  26.805  23.996  1.00  0.00    -0.334 N 
ATOM     13  C   UNL A   1      30.731  25.791  23.854  1.00  0.00     0.231 C 
ATOM     14  H   UNL A   1      31.159  27.672  24.105  1.00  0.00     0.164 HD
ATOM     15  O   UNL A   1      29.544  26.079  24.031  1.00  0.00    -0.274 OA
BRANCH  13  16
ATOM     16  C   UNL A   1      31.120  24.389  23.449  1.00  0.00     0.169 C 
BRANCH  16  17
ATOM     17  S   UNL A   1      31.856  23.410  24.804  1.00  0.00    -0.146 SA
BRANCH  17  18
ATOM     18  C   UNL A   1      32.868  22.196  23.895  1.00  0.00     0.116 C 
BRANCH  18  19
ATOM     19  C   UNL A   1      34.336  22.242  24.176  1.00  0.00     0.014 A 
ATOM     20  C   UNL A   1      35.377  22.878  23.526  1.00  0.00     0.016 A 
ATOM     21  S   UNL A   1      34.909  21.367  25.545  1.00  0.00    -0.148 S 
ATOM     22  C   UNL A   1      36.635  22.654  24.156  1.00  0.00     0.012 A 
ATOM     23  C   UNL A   1      36.522  21.848  25.265  1.00  0.00     0.065 A 
ENDBRANCH  18  19
ENDBRANCH  17  18
ENDBRANCH  16  17
ENDBRANCH  13  16
ENDBRANCH   6  12
ENDBRANCH   3   6
ENDBRANCH   1   2
BRANCH   1  24
ATOM     24  C   UNL A   1      31.059  30.758  25.541  1.00  0.00     0.042 C 
BRANCH  24  25
ATOM     25  C   UNL A   1      32.014  31.165  26.654  1.00  0.00     0.118 C 
BRANCH  25  26
ATOM     26  N   UNL A   1      31.982  32.600  26.911  1.00  0.00    -0.352 N 
ATOM     27  C   UNL A   1      32.828  33.383  27.662  1.00  0.00     0.251 C 
ATOM     28  H   UNL A   1      31.241  33.084  26.480  1.00  0.00     0.163 HD
ATOM     29  O   UNL A   1      32.510  34.538  27.915  1.00  0.00    -0.269 OA
BRANCH  27  30
ATOM     30  C   UNL A   1      34.095  32.820  28.177  1.00  0.00     0.039 A 
ATOM     31  C   UNL A   1      35.230  33.632  28.224  1.00  0.00     0.014 A 
ATOM     32  C   UNL A   1      34.160  31.497  28.620  1.00  0.00     0.014 A 
ATOM     33  C   UNL A   1      36.406  33.143  28.796  1.00  0.00     0.010 A 
ATOM     34  C   UNL A   1      35.304  31.041  29.268  1.00  0.00     0.010 A 
ATOM     35  C   UNL A   1      36.437  31.862  29.369  1.00  0.00    -0.014 A 
BRANCH  35  36
ATOM     36  C   UNL A   1      37.634  31.359  30.092  1.00  0.00     0.031 A 
ATOM     37  C   UNL A   1      38.514  30.316  29.457  1.00  0.00     0.074 A 
ATOM     38  C   UNL A   1      37.877  31.775  31.351  1.00  0.00     0.049 A 
ATOM     39  N   UNL A   1      39.523  29.662  29.968  1.00  0.00    -0.248 NA
ATOM     40  C   UNL A   1      38.192  29.939  28.072  1.00  0.00     0.031 C 
ATOM     41  C   UNL A   1      37.074  32.757  32.086  1.00  0.00     0.029 A 
ATOM     42  N   UNL A   1      38.856  31.417  32.243  1.00  0.00    -0.354 N 
ATOM     43  C   UNL A   1      39.949  28.784  28.975  1.00  0.00     0.074 A 
ATOM     44  C   UNL A   1      39.046  28.950  27.856  1.00  0.00     0.031 C 
ATOM     45  C   UNL A   1      37.606  32.937  33.305  1.00  0.00     0.029 A 
ATOM     46  C   UNL A   1      38.750  32.045  33.463  1.00  0.00     0.049 A 
ATOM     47  H   UNL A   1      39.568  30.773  32.030  1.00  0.00     0.167 HD
ATOM     48  C   UNL A   1      41.007  27.936  28.990  1.00  0.00     0.034 A 
ATOM     49  C   UNL A   1      39.475  31.901  34.591  1.00  0.00     0.034 A 
ATOM     50  C   UNL A   1      41.901  27.793  30.112  1.00  0.00     0.049 A 
ATOM     51  C   UNL A   1      40.619  30.917  34.598  1.00  0.00     0.074 A 
ATOM     52  C   UNL A   1      43.036  27.007  30.214  1.00  0.00     0.029 A 
ATOM     53  N   UNL A   1      41.757  28.439  31.334  1.00  0.00    -0.354 N 
ATOM     54  N   UNL A   1      41.037  30.130  33.634  1.00  0.00    -0.248 NA
ATOM     55  C   UNL A   1      41.388  30.806  35.844  1.00  0.00     0.031 C 
ATOM     56  C   UNL A   1      43.532  27.119  31.516  1.00  0.00     0.029 A 
ATOM     57  C   UNL A   1      42.759  28.040  32.205  1.00  0.00     0.049 A 
ATOM     58  H   UNL A   1      41.046  29.086  31.550  1.00  0.00     0.167 HD
ATOM     59  C   UNL A   1      42.140  29.454  34.149  1.00  0.00     0.074 A 
ATOM     60  C   UNL A   1      42.327  29.936  35.502  1.00  0.00     0.031 C 
ATOM     61  C   UNL A   1      42.929  28.521  33.557  1.00  0.00     0.034 A 
BRANCH  48  62
ATOM     62  C   UNL A   1      41.231  27.082  27.764  1.00  0.00     0.023 A 
ATOM     63  C   UNL A   1      40.927  25.708  27.756  1.00  0.00     0.031 A 
ATOM     64  C   UNL A   1      41.776  27.640  26.596  1.00  0.00     0.131 A 
ATOM     65  C   UNL A   1      41.242  24.928  26.634  1.00  0.00     0.055 A 
ATOM     66  C   UNL A   1      42.007  26.875  25.450  1.00  0.00     0.041 A 
ATOM     67  F   UNL A   1      42.107  28.941  26.549  1.00  0.00    -0.206 F 
ATOM     68  C   UNL A   1      41.754  25.506  25.470  1.00  0.00     0.022 A 
BRANCH  65  69
ATOM     69  S   UNL A   1      41.113  23.124  26.771  1.00  0.00     0.124 S 
ATOM     70  O   UNL A   1      42.099  22.682  25.787  1.00  0.00    -0.237 OA
ATOM     71  O   UNL A   1      41.457  22.889  28.168  1.00  0.00    -0.237 OA
ATOM     72  O   UNL A   1      39.723  22.851  26.415  1.00  0.00    -0.744 OA
ENDBRANCH  65  69
ENDBRANCH  48  62
BRANCH  49  73
ATOM     73  C   UNL A   1      39.135  32.685  35.814  1.00  0.00     0.023 A 
ATOM     74  C   UNL A   1      39.609  33.994  35.987  1.00  0.00     0.031 A 
ATOM     75  C   UNL A   1      38.369  32.119  36.850  1.00  0.00     0.131 A 
ATOM     76  C   UNL A   1      39.355  34.679  37.186  1.00  0.00     0.055 A 
ATOM     77  C   UNL A   1      38.069  32.825  38.017  1.00  0.00     0.041 A 
ATOM     78  F   UNL A   1      37.890  30.870  36.736  1.00  0.00    -0.206 F 
ATOM     79  C   UNL A   1      38.576  34.109  38.196  1.00  0.00     0.022 A 
BRANCH  76  80
ATOM     80  S   UNL A   1      40.139  36.293  37.447  1.00  0.00     0.124 S 
ATOM     81  O   UNL A   1      39.289  36.872  38.481  1.00  0.00    -0.237 OA
ATOM     82  O   UNL A   1      41.485  35.913  37.861  1.00  0.00    -0.237 OA
ATOM     83  O   UNL A   1      40.049  36.931  36.135  1.00  0.00    -0.744 OA
ENDBRANCH  76  80
ENDBRANCH  49  73
BRANCH  61  84
ATOM     84  C   UNL A   1      44.095  27.997  34.357  1.00  0.00     0.023 A 
ATOM     85  C   UNL A   1      43.987  26.849  35.162  1.00  0.00     0.031 A 
ATOM     86  C   UNL A   1      45.336  28.657  34.310  1.00  0.00     0.131 A 
ATOM     87  C   UNL A   1      45.086  26.424  35.924  1.00  0.00     0.055 A 
ATOM     88  C   UNL A   1      46.443  28.194  35.021  1.00  0.00     0.041 A 
ATOM     89  F   UNL A   1      45.495  29.760  33.562  1.00  0.00    -0.206 F 
ATOM     90  C   UNL A   1      46.319  27.078  35.843  1.00  0.00     0.022 A 
BRANCH  87  91
ATOM     91  S   UNL A   1      44.863  25.051  37.087  1.00  0.00     0.124 S 
ATOM     92  O   UNL A   1      43.600  25.400  37.728  1.00  0.00    -0.237 OA
ATOM     93  O   UNL A   1      44.829  23.892  36.200  1.00  0.00    -0.237 OA
ATOM     94  O   UNL A   1      46.040  25.136  37.949  1.00  0.00    -0.744 OA
ENDBRANCH  87  91
ENDBRANCH  61  84
ENDBRANCH  35  36
ENDBRANCH  27  30
ENDBRANCH  25  26
ENDBRANCH  24  25
ENDBRANCH   1  24
TORSDOF 19
ENDMDL
MODEL 2
REMARK VINA RESULT:     -10.9      5.335     10.397
REMARK SMILES C[C@](NC(=O)CSCc1cccs1)(C(=O)NCCCNC(=O)c1ccc(-c2c3nc(c(-c4cc(S(=O)(=O)[O-])ccc4F)c4ccc([nH]4)c(-c4cc(S(=O)(=O)[O-])ccc4F)c4nc(c(-c5cc(S(=O)(=O)[O-])ccc5F)c5ccc2[nH]5)C=C4)C=C3)cc1)C(F)(F)F
REMARK SMILES IDX 17 1 16 2 14 3 15 4 2 6 1 7 86 8 87 9 88 10 89 11 3 12 4 13
REMARK SMILES IDX 5 15 6 16 7 17 8 18 9 19 10 20 13 21 11 22 12 23 18 24 19 25
REMARK SMILES IDX 20 26 21 27 22 29 23 30 24 31 85 32 25 33 84 34 26 35 27 36
REMARK SMILES IDX 28 37 78 38 29 39 83 40 77 41 79 42 30 43 82 44 76 45 75 46
REMARK SMILES IDX 31 48 63 49 43 50 62 51 44 52 47 53 61 54 80 55 45 56 46 57
REMARK SMILES IDX 60 59 81 60 48 61 32 62 33 63 41 64 34 65 40 66 42 67 39 68
REMARK SMILES IDX 35 69 36 70 37 71 38 72 64 73 65 74 73 75 66 76 72 77 74 78
REMARK SMILES IDX 71 79 67 80 68 81 69 82 70 83 49 84 50 85 58 86 51 87 57 88
REMARK SMILES IDX 59 89 56 90 52 91 53 92 54 93 55 94
REMARK H PARENT 16 5 3 14 20 28 79 47 47 58
REMARK Flexibility Score: inf
ROOT
ATOM      1  C   UNL A   1      35.122  21.707  24.556  1.00  0.00     0.117 C 
ENDROOT
BRANCH   1   2
ATOM      2  N   UNL A   1      33.888  21.035  24.947  1.00  0.00    -0.354 N 
ATOM      3  C   UNL A   1      32.635  21.536  25.201  1.00  0.00     0.254 C 
ATOM      4  O   UNL A   1      31.736  20.706  25.347  1.00  0.00    -0.272 OA
ATOM      5  H   UNL A   1      33.968  20.059  25.046  1.00  0.00     0.163 HD
BRANCH   3   6
ATOM      6  C   UNL A   1      32.366  23.056  25.133  1.00  0.00     0.212 C 
ATOM      7  C   UNL A   1      30.859  23.230  24.915  1.00  0.00     0.056 C 
BRANCH   6   8
ATOM      8  C   UNL A   1      32.729  23.658  26.505  1.00  0.00     0.420 C 
ATOM      9  F   UNL A   1      32.326  24.942  26.627  1.00  0.00    -0.168 F 
ATOM     10  F   UNL A   1      32.099  22.960  27.490  1.00  0.00    -0.168 F 
ATOM     11  F   UNL A   1      34.049  23.595  26.784  1.00  0.00    -0.168 F 
ENDBRANCH   6   8
BRANCH   6  12
ATOM     12  N   UNL A   1      33.261  23.576  24.046  1.00  0.00    -0.334 N 
ATOM     13  C   UNL A   1      33.413  24.738  23.369  1.00  0.00     0.231 C 
ATOM     14  H   UNL A   1      33.906  22.894  23.748  1.00  0.00     0.164 HD
ATOM     15  O   UNL A   1      34.397  24.805  22.625  1.00  0.00    -0.274 OA
BRANCH  13  16
ATOM     16  C   UNL A   1      32.438  25.887  23.443  1.00  0.00     0.169 C 
BRANCH  16  17
ATOM     17  S   UNL A   1      32.956  27.355  22.488  1.00  0.00    -0.146 SA
BRANCH  17  18
ATOM     18  C   UNL A   1      34.009  28.240  23.685  1.00  0.00     0.116 C 
BRANCH  18  19
ATOM     19  C   UNL A   1      33.429  28.402  25.054  1.00  0.00     0.014 A 
ATOM     20  C   UNL A   1      33.838  27.929  26.287  1.00  0.00     0.016 A 
ATOM     21  S   UNL A   1      31.990  29.337  25.201  1.00  0.00    -0.148 S 
ATOM     22  C   UNL A   1      32.977  28.341  27.345  1.00  0.00     0.012 A 
ATOM     23  C   UNL A   1      31.932  29.111  26.891  1.00  0.00     0.065 A 
ENDBRANCH  18  19
ENDBRANCH  17  18
ENDBRANCH  16  17
ENDBRANCH  13  16
ENDBRANCH   6  12
ENDBRANCH   3   6
ENDBRANCH   1   2
BRANCH   1  24
ATOM     24  C   UNL A   1      36.245  21.500  25.562  1.00  0.00     0.042 C 
BRANCH  24  25
ATOM     25  C   UNL A   1      37.624  21.481  24.920  1.00  0.00     0.118 C 
BRANCH  25  26
ATOM     26  N   UNL A   1      38.468  20.418  25.454  1.00  0.00    -0.352 N 
ATOM     27  C   UNL A   1      39.644  20.495  26.163  1.00  0.00     0.251 C 
ATOM     28  H   UNL A   1      38.145  19.505  25.281  1.00  0.00     0.163 HD
ATOM     29  O   UNL A   1      40.302  19.479  26.345  1.00  0.00    -0.269 OA
BRANCH  27  30
ATOM     30  C   UNL A   1      40.116  21.801  26.673  1.00  0.00     0.039 A 
ATOM     31  C   UNL A   1      41.183  21.832  27.574  1.00  0.00     0.014 A 
ATOM     32  C   UNL A   1      39.514  22.990  26.257  1.00  0.00     0.014 A 
ATOM     33  C   UNL A   1      41.701  23.061  27.989  1.00  0.00     0.010 A 
ATOM     34  C   UNL A   1      40.085  24.211  26.602  1.00  0.00     0.010 A 
ATOM     35  C   UNL A   1      41.189  24.259  27.466  1.00  0.00    -0.014 A 
BRANCH  35  36
ATOM     36  C   UNL A   1      41.796  25.576  27.794  1.00  0.00     0.031 A 
ATOM     37  C   UNL A   1      40.985  26.621  28.511  1.00  0.00     0.074 A 
ATOM     38  C   UNL A   1      43.043  25.859  27.369  1.00  0.00     0.049 A 
ATOM     39  N   UNL A   1      41.286  27.865  28.774  1.00  0.00    -0.248 NA
ATOM     40  C   UNL A   1      39.644  26.217  28.962  1.00  0.00     0.031 C 
ATOM     41  C   UNL A   1      43.915  24.939  26.633  1.00  0.00     0.029 A 
ATOM     42  N   UNL A   1      43.791  27.005  27.477  1.00  0.00    -0.354 N 
ATOM     43  C   UNL A   1      40.168  28.400  29.408  1.00  0.00     0.074 A 
ATOM     44  C   UNL A   1      39.163  27.359  29.431  1.00  0.00     0.031 C 
ATOM     45  C   UNL A   1      45.083  25.548  26.376  1.00  0.00     0.029 A 
ATOM     46  C   UNL A   1      45.027  26.918  26.875  1.00  0.00     0.049 A 
ATOM     47  H   UNL A   1      43.475  27.812  27.942  1.00  0.00     0.167 HD
ATOM     48  C   UNL A   1      40.006  29.637  29.940  1.00  0.00     0.034 A 
ATOM     49  C   UNL A   1      45.994  27.844  26.720  1.00  0.00     0.034 A 
ATOM     50  C   UNL A   1      41.024  30.658  29.915  1.00  0.00     0.049 A 
ATOM     51  C   UNL A   1      45.772  29.228  27.279  1.00  0.00     0.074 A 
ATOM     52  C   UNL A   1      40.988  31.924  30.473  1.00  0.00     0.029 A 
ATOM     53  N   UNL A   1      42.260  30.537  29.290  1.00  0.00    -0.354 N 
ATOM     54  N   UNL A   1      44.727  29.703  27.918  1.00  0.00    -0.248 NA
ATOM     55  C   UNL A   1      46.860  30.198  27.098  1.00  0.00     0.031 C 
ATOM     56  C   UNL A   1      42.164  32.593  30.121  1.00  0.00     0.029 A 
ATOM     57  C   UNL A   1      42.975  31.718  29.415  1.00  0.00     0.049 A 
ATOM     58  H   UNL A   1      42.580  29.730  28.825  1.00  0.00     0.167 HD
ATOM     59  C   UNL A   1      45.048  31.018  28.243  1.00  0.00     0.074 A 
ATOM     60  C   UNL A   1      46.386  31.255  27.741  1.00  0.00     0.031 C 
ATOM     61  C   UNL A   1      44.305  31.945  28.900  1.00  0.00     0.034 A 
BRANCH  48  62
ATOM     62  C   UNL A   1      38.668  29.956  30.565  1.00  0.00     0.023 A 
ATOM     63  C   UNL A   1      37.669  30.650  29.858  1.00  0.00     0.031 A 
ATOM     64  C   UNL A   1      38.393  29.582  31.891  1.00  0.00     0.131 A 
ATOM     65  C   UNL A   1      36.479  31.015  30.503  1.00  0.00     0.055 A 
ATOM     66  C   UNL A   1      37.171  29.873  32.501  1.00  0.00     0.041 A 
ATOM     67  F   UNL A   1      39.315  28.938  32.625  1.00  0.00    -0.206 F 
ATOM     68  C   UNL A   1      36.211  30.608  31.812  1.00  0.00     0.022 A 
BRANCH  65  69
ATOM     69  S   UNL A   1      35.352  32.158  29.659  1.00  0.00     0.124 S 
ATOM     70  O   UNL A   1      34.383  32.449  30.712  1.00  0.00    -0.237 OA
ATOM     71  O   UNL A   1      36.237  33.255  29.286  1.00  0.00    -0.237 OA
ATOM     72  O   UNL A   1      34.833  31.368  28.545  1.00  0.00    -0.744 OA
ENDBRANCH  65  69
ENDBRANCH  48  62
BRANCH  49  73
ATOM     73  C   UNL A   1      47.251  27.510  25.988  1.00  0.00     0.023 A 
ATOM     74  C   UNL A   1      47.382  27.783  24.618  1.00  0.00     0.031 A 
ATOM     75  C   UNL A   1      48.322  26.871  26.638  1.00  0.00     0.131 A 
ATOM     76  C   UNL A   1      48.536  27.377  23.930  1.00  0.00     0.055 A 
ATOM     77  C   UNL A   1      49.493  26.521  25.962  1.00  0.00     0.041 A 
ATOM     78  F   UNL A   1      48.250  26.587  27.949  1.00  0.00    -0.206 F 
ATOM     79  C   UNL A   1      49.598  26.761  24.595  1.00  0.00     0.022 A 
BRANCH  76  80
ATOM     80  S   UNL A   1      48.588  27.580  22.128  1.00  0.00     0.124 S 
ATOM     81  O   UNL A   1      48.775  26.204  21.681  1.00  0.00    -0.237 OA
ATOM     82  O   UNL A   1      47.286  28.174  21.852  1.00  0.00    -0.237 OA
ATOM     83  O   UNL A   1      49.733  28.465  21.919  1.00  0.00    -0.744 OA
ENDBRANCH  76  80
ENDBRANCH  49  73
BRANCH  61  84
ATOM     84  C   UNL A   1      44.946  33.288  29.153  1.00  0.00     0.023 A 
ATOM     85  C   UNL A   1      44.762  34.374  28.280  1.00  0.00     0.031 A 
ATOM     86  C   UNL A   1      45.752  33.481  30.289  1.00  0.00     0.131 A 
ATOM     87  C   UNL A   1      45.414  35.591  28.532  1.00  0.00     0.055 A 
ATOM     88  C   UNL A   1      46.348  34.711  30.567  1.00  0.00     0.041 A 
ATOM     89  F   UNL A   1      45.967  32.477  31.154  1.00  0.00    -0.206 F 
ATOM     90  C   UNL A   1      46.190  35.772  29.680  1.00  0.00     0.022 A 
BRANCH  87  91
ATOM     91  S   UNL A   1      45.302  36.913  27.296  1.00  0.00     0.124 S 
ATOM     92  O   UNL A   1      43.863  36.992  27.067  1.00  0.00    -0.237 OA
ATOM     93  O   UNL A   1      45.898  38.047  27.995  1.00  0.00    -0.237 OA
ATOM     94  O   UNL A   1      46.081  36.399  26.172  1.00  0.00    -0.744 OA
ENDBRANCH  87  91
ENDBRANCH  61  84
ENDBRANCH  35  36
ENDBRANCH  27  30
ENDBRANCH  25  26
ENDBRANCH  24  25
ENDBRANCH   1  24
TORSDOF 19
ENDMDL
MODEL 3
REMARK VINA RESULT:     -10.8      5.147     10.150
REMARK SMILES C[C@](NC(=O)CSCc1cccs1)(C(=O)NCCCNC(=O)c1ccc(-c2c3nc(c(-c4cc(S(=O)(=O)[O-])ccc4F)c4ccc([nH]4)c(-c4cc(S(=O)(=O)[O-])ccc4F)c4nc(c(-c5cc(S(=O)(=O)[O-])ccc5F)c5ccc2[nH]5)C=C4)C=C3)cc1)C(F)(F)F
REMARK SMILES IDX 17 1 16 2 14 3 15 4 2 6 1 7 86 8 87 9 88 10 89 11 3 12 4 13
REMARK SMILES IDX 5 15 6 16 7 17 8 18 9 19 10 20 13 21 11 22 12 23 18 24 19 25
REMARK SMILES IDX 20 26 21 27 22 29 23 30 24 31 85 32 25 33 84 34 26 35 27 36
REMARK SMILES IDX 28 37 78 38 29 39 83 40 77 41 79 42 30 43 82 44 76 45 75 46
REMARK SMILES IDX 31 48 63 49 43 50 62 51 44 52 47 53 61 54 80 55 45 56 46 57
REMARK SMILES IDX 60 59 81 60 48 61 32 62 33 63 41 64 34 65 40 66 42 67 39 68
REMARK SMILES IDX 35 69 36 70 37 71 38 72 64 73 65 74 73 75 66 76 72 77 74 78
REMARK SMILES IDX 71 79 67 80 68 81 69 82 70 83 49 84 50 85 58 86 51 87 57 88
REMARK SMILES IDX 59 89 56 90 52 91 53 92 54 93 55 94
REMARK H PARENT 16 5 3 14 20 28 79 47 47 58
REMARK Flexibility Score: inf
ROOT
ATOM      1  C   UNL A   1      34.549  23.570  26.101  1.00  0.00     0.117 C 
ENDROOT
BRANCH   1   2
ATOM      2  N   UNL A   1      33.265  23.502  26.789  1.00  0.00    -0.354 N 
ATOM      3  C   UNL A   1      32.095  24.189  26.577  1.00  0.00     0.254 C 
ATOM      4  O   UNL A   1      31.111  23.799  27.209  1.00  0.00    -0.272 OA
ATOM      5  H   UNL A   1      33.233  22.856  27.532  1.00  0.00     0.163 HD
BRANCH   3   6
ATOM      6  C   UNL A   1      32.006  25.271  25.478  1.00  0.00     0.212 C 
ATOM      7  C   UNL A   1      30.523  25.421  25.120  1.00  0.00     0.056 C 
BRANCH   6   8
ATOM      8  C   UNL A   1      32.492  26.600  26.088  1.00  0.00     0.420 C 
ATOM      9  F   UNL A   1      31.858  26.901  27.242  1.00  0.00    -0.168 F 
ATOM     10  F   UNL A   1      33.817  26.506  26.389  1.00  0.00    -0.168 F 
ATOM     11  F   UNL A   1      32.372  27.651  25.247  1.00  0.00    -0.168 F 
ENDBRANCH   6   8
BRANCH   6  12
ATOM     12  N   UNL A   1      32.913  24.804  24.376  1.00  0.00    -0.334 N 
ATOM     13  C   UNL A   1      32.830  23.953  23.328  1.00  0.00     0.231 C 
ATOM     14  H   UNL A   1      33.800  25.229  24.430  1.00  0.00     0.164 HD
ATOM     15  O   UNL A   1      33.787  23.960  22.549  1.00  0.00    -0.274 OA
BRANCH  13  16
ATOM     16  C   UNL A   1      31.684  22.993  23.114  1.00  0.00     0.169 C 
BRANCH  16  17
ATOM     17  S   UNL A   1      32.206  21.339  22.543  1.00  0.00    -0.146 SA
BRANCH  17  18
ATOM     18  C   UNL A   1      32.377  20.427  24.113  1.00  0.00     0.116 C 
BRANCH  18  19
ATOM     19  C   UNL A   1      33.167  19.160  24.038  1.00  0.00     0.014 A 
ATOM     20  C   UNL A   1      34.350  18.777  24.642  1.00  0.00     0.016 A 
ATOM     21  S   UNL A   1      32.553  17.900  23.036  1.00  0.00    -0.148 S 
ATOM     22  C   UNL A   1      34.742  17.453  24.290  1.00  0.00     0.012 A 
ATOM     23  C   UNL A   1      33.853  16.864  23.421  1.00  0.00     0.065 A 
ENDBRANCH  18  19
ENDBRANCH  17  18
ENDBRANCH  16  17
ENDBRANCH  13  16
ENDBRANCH   6  12
ENDBRANCH   3   6
ENDBRANCH   1   2
BRANCH   1  24
ATOM     24  C   UNL A   1      35.206  22.206  25.954  1.00  0.00     0.042 C 
BRANCH  24  25
ATOM     25  C   UNL A   1      36.462  22.239  25.095  1.00  0.00     0.118 C 
BRANCH  25  26
ATOM     26  N   UNL A   1      37.336  21.100  25.351  1.00  0.00    -0.352 N 
ATOM     27  C   UNL A   1      38.627  21.064  25.824  1.00  0.00     0.251 C 
ATOM     28  H   UNL A   1      36.940  20.221  25.154  1.00  0.00     0.163 HD
ATOM     29  O   UNL A   1      39.255  20.014  25.776  1.00  0.00    -0.269 OA
BRANCH  27  30
ATOM     30  C   UNL A   1      39.252  22.293  26.360  1.00  0.00     0.039 A 
ATOM     31  C   UNL A   1      40.357  22.178  27.207  1.00  0.00     0.014 A 
ATOM     32  C   UNL A   1      38.755  23.553  26.021  1.00  0.00     0.014 A 
ATOM     33  C   UNL A   1      41.015  23.330  27.643  1.00  0.00     0.010 A 
ATOM     34  C   UNL A   1      39.463  24.694  26.384  1.00  0.00     0.010 A 
ATOM     35  C   UNL A   1      40.605  24.595  27.193  1.00  0.00    -0.014 A 
BRANCH  35  36
ATOM     36  C   UNL A   1      41.357  25.829  27.540  1.00  0.00     0.031 A 
ATOM     37  C   UNL A   1      40.699  26.905  28.361  1.00  0.00     0.074 A 
ATOM     38  C   UNL A   1      42.596  26.016  27.044  1.00  0.00     0.049 A 
ATOM     39  N   UNL A   1      41.137  28.100  28.662  1.00  0.00    -0.248 NA
ATOM     40  C   UNL A   1      39.358  26.606  28.884  1.00  0.00     0.031 C 
ATOM     41  C   UNL A   1      43.324  25.059  26.206  1.00  0.00     0.029 A 
ATOM     42  N   UNL A   1      43.458  27.079  27.155  1.00  0.00    -0.354 N 
ATOM     43  C   UNL A   1      40.120  28.702  29.396  1.00  0.00     0.074 A 
ATOM     44  C   UNL A   1      39.021  27.760  29.439  1.00  0.00     0.031 C 
ATOM     45  C   UNL A   1      44.528  25.569  25.899  1.00  0.00     0.029 A 
ATOM     46  C   UNL A   1      44.637  26.909  26.465  1.00  0.00     0.049 A 
ATOM     47  H   UNL A   1      43.252  27.886  27.679  1.00  0.00     0.167 HD
ATOM     48  C   UNL A   1      40.113  29.918  29.996  1.00  0.00     0.034 A 
ATOM     49  C   UNL A   1      45.679  27.747  26.288  1.00  0.00     0.034 A 
ATOM     50  C   UNL A   1      41.222  30.838  29.950  1.00  0.00     0.049 A 
ATOM     51  C   UNL A   1      45.629  29.113  26.926  1.00  0.00     0.074 A 
ATOM     52  C   UNL A   1      41.346  32.071  30.569  1.00  0.00     0.029 A 
ATOM     53  N   UNL A   1      42.398  30.636  29.236  1.00  0.00    -0.354 N 
ATOM     54  N   UNL A   1      44.679  29.649  27.658  1.00  0.00    -0.248 NA
ATOM     55  C   UNL A   1      46.792  29.985  26.717  1.00  0.00     0.031 C 
ATOM     56  C   UNL A   1      42.556  32.644  30.168  1.00  0.00     0.029 A 
ATOM     57  C   UNL A   1      43.231  31.736  29.367  1.00  0.00     0.049 A 
ATOM     58  H   UNL A   1      42.607  29.829  28.711  1.00  0.00     0.167 HD
ATOM     59  C   UNL A   1      45.146  30.908  28.022  1.00  0.00     0.074 A 
ATOM     60  C   UNL A   1      46.466  31.045  27.441  1.00  0.00     0.031 C 
ATOM     61  C   UNL A   1      44.541  31.865  28.773  1.00  0.00     0.034 A 
BRANCH  48  62
ATOM     62  C   UNL A   1      38.856  30.328  30.727  1.00  0.00     0.023 A 
ATOM     63  C   UNL A   1      37.905  31.182  30.139  1.00  0.00     0.031 A 
ATOM     64  C   UNL A   1      38.612  29.876  32.035  1.00  0.00     0.131 A 
ATOM     65  C   UNL A   1      36.800  31.619  30.885  1.00  0.00     0.055 A 
ATOM     66  C   UNL A   1      37.466  30.246  32.741  1.00  0.00     0.041 A 
ATOM     67  F   UNL A   1      39.493  29.077  32.658  1.00  0.00    -0.206 F 
ATOM     68  C   UNL A   1      36.559  31.136  32.173  1.00  0.00     0.022 A 
BRANCH  65  69
ATOM     69  S   UNL A   1      35.767  32.944  30.203  1.00  0.00     0.124 S 
ATOM     70  O   UNL A   1      36.178  34.087  31.015  1.00  0.00    -0.237 OA
ATOM     71  O   UNL A   1      36.176  32.976  28.804  1.00  0.00    -0.237 OA
ATOM     72  O   UNL A   1      34.404  32.476  30.445  1.00  0.00    -0.744 OA
ENDBRANCH  65  69
ENDBRANCH  48  62
BRANCH  49  73
ATOM     73  C   UNL A   1      46.847  27.337  25.456  1.00  0.00     0.023 A 
ATOM     74  C   UNL A   1      47.014  27.830  24.153  1.00  0.00     0.031 A 
ATOM     75  C   UNL A   1      47.790  26.408  25.935  1.00  0.00     0.131 A 
ATOM     76  C   UNL A   1      48.068  27.360  23.355  1.00  0.00     0.055 A 
ATOM     77  C   UNL A   1      48.871  25.987  25.158  1.00  0.00     0.041 A 
ATOM     78  F   UNL A   1      47.678  25.904  27.174  1.00  0.00    -0.206 F 
ATOM     79  C   UNL A   1      49.007  26.453  23.853  1.00  0.00     0.022 A 
BRANCH  76  80
ATOM     80  S   UNL A   1      48.142  27.880  21.619  1.00  0.00     0.124 S 
ATOM     81  O   UNL A   1      48.506  26.635  20.952  1.00  0.00    -0.237 OA
ATOM     82  O   UNL A   1      46.784  28.358  21.388  1.00  0.00    -0.237 OA
ATOM     83  O   UNL A   1      49.175  28.914  21.617  1.00  0.00    -0.744 OA
ENDBRANCH  76  80
ENDBRANCH  49  73
BRANCH  61  84
ATOM     84  C   UNL A   1      45.325  33.125  29.045  1.00  0.00     0.023 A 
ATOM     85  C   UNL A   1      45.247  34.244  28.198  1.00  0.00     0.031 A 
ATOM     86  C   UNL A   1      46.161  33.205  30.172  1.00  0.00     0.131 A 
ATOM     87  C   UNL A   1      46.028  35.379  28.466  1.00  0.00     0.055 A 
ATOM     88  C   UNL A   1      46.889  34.359  30.468  1.00  0.00     0.041 A 
ATOM     89  F   UNL A   1      46.278  32.165  31.012  1.00  0.00    -0.206 F 
ATOM     90  C   UNL A   1      46.833  35.450  29.606  1.00  0.00     0.022 A 
BRANCH  87  91
ATOM     91  S   UNL A   1      46.042  36.733  27.260  1.00  0.00     0.124 S 
ATOM     92  O   UNL A   1      44.629  37.089  27.188  1.00  0.00    -0.237 OA
ATOM     93  O   UNL A   1      46.914  37.714  27.900  1.00  0.00    -0.237 OA
ATOM     94  O   UNL A   1      46.587  36.114  26.054  1.00  0.00    -0.744 OA
ENDBRANCH  87  91
ENDBRANCH  61  84
ENDBRANCH  35  36
ENDBRANCH  27  30
ENDBRANCH  25  26
ENDBRANCH  24  25
ENDBRANCH   1  24
TORSDOF 19
ENDMDL
