MODEL 1
REMARK VINA RESULT:     -12.2      0.000      0.000
REMARK SMILES COc1ccc([C@@H]2CC(c3ccc(Cl)cc3)=NN2C2=[NH+]C(=O)[C@@H](CC(=O)NCCCNC(=O)c3ccc(-c4c5nc(c(-c6cc(S(=O)(=O)[O-])ccc6F)c6ccc([nH]6)c(-c6cc(S(=O)(=O)[O-])ccc6F)c6nc(c(-c7cc(S(=O)(=O)[O-])ccc7F)c7ccc4[nH]7)C=C6)C=C5)cc3)S2)cc1OC
REMARK SMILES IDX 28 1 27 2 25 3 26 4 24 6 23 7 19 8 20 9 97 10 21 11 22 13
REMARK SMILES IDX 18 14 7 15 8 16 9 17 17 18 6 19 3 20 4 21 99 22 5 23 98 24
REMARK SMILES IDX 2 25 1 26 100 27 101 28 10 29 11 30 16 31 12 32 15 33 13 34
REMARK SMILES IDX 14 35 29 36 30 37 31 38 32 39 33 41 34 42 35 43 96 44 36 45
REMARK SMILES IDX 95 46 37 47 38 48 39 49 89 50 40 51 94 52 88 53 90 54 41 55
REMARK SMILES IDX 93 56 87 57 86 58 42 60 74 61 54 62 73 63 55 64 58 65 72 66
REMARK SMILES IDX 91 67 56 68 57 69 71 71 92 72 59 73 43 74 44 75 52 76 45 77
REMARK SMILES IDX 51 78 53 79 50 80 46 81 47 82 48 83 49 84 75 85 76 86 84 87
REMARK SMILES IDX 77 88 83 89 85 90 82 91 78 92 79 93 80 94 81 95 60 96 61 97
REMARK SMILES IDX 69 98 62 99 68 100 70 101 67 102 63 103 64 104 65 105 66 106
REMARK H PARENT 27 5 20 12 31 40 90 59 58 70
REMARK Flexibility Score: inf
ROOT
ATOM      1  C   UNL A   1      31.398  27.624  26.477  1.00  0.00     0.117 C 
ENDROOT
BRANCH   1   2
ATOM      2  N   UNL A   1      31.366  26.170  26.418  1.00  0.00    -0.356 N 
ATOM      3  C   UNL A   1      31.338  25.348  25.332  1.00  0.00     0.221 C 
ATOM      4  O   UNL A   1      31.052  24.161  25.488  1.00  0.00    -0.275 OA
ATOM      5  H   UNL A   1      31.365  25.714  27.291  1.00  0.00     0.163 HD
BRANCH   3   6
ATOM      6  C   UNL A   1      31.733  25.878  23.981  1.00  0.00     0.127 C 
BRANCH   6   7
ATOM      7  C   UNL A   1      33.214  26.203  23.825  1.00  0.00     0.183 C 
ATOM      8  C   UNL A   1      34.512  24.047  23.985  1.00  0.00     0.340 C 
ATOM      9  N   UNL A   1      34.108  24.213  22.767  1.00  0.00    -0.202 N 
ATOM     10  S   UNL A   1      34.322  25.431  25.045  1.00  0.00    -0.020 SA
ATOM     11  C   UNL A   1      33.651  25.498  22.552  1.00  0.00     0.322 C 
ATOM     12  H   UNL A   1      34.122  23.510  22.078  1.00  0.00     0.316 HD
ATOM     13  O   UNL A   1      33.497  25.988  21.440  1.00  0.00    -0.246 OA
BRANCH   8  14
ATOM     14  N   UNL A   1      35.032  22.894  24.528  1.00  0.00    -0.120 N 
ATOM     15  C   UNL A   1      35.475  22.838  25.927  1.00  0.00     0.243 C 
ATOM     16  C   UNL A   1      34.927  21.497  26.415  1.00  0.00     0.118 C 
ATOM     17  C   UNL A   1      34.575  20.862  25.099  1.00  0.00     0.096 C 
ATOM     18  N   UNL A   1      34.645  21.647  24.068  1.00  0.00    -0.086 NA
BRANCH  15  19
ATOM     19  C   UNL A   1      36.998  22.915  26.027  1.00  0.00     0.003 A 
ATOM     20  C   UNL A   1      39.829  23.037  26.340  1.00  0.00     0.160 A 
ATOM     21  C   UNL A   1      39.182  21.859  25.940  1.00  0.00     0.051 A 
ATOM     22  C   UNL A   1      39.052  24.177  26.561  1.00  0.00     0.161 A 
ATOM     23  C   UNL A   1      37.797  21.791  25.790  1.00  0.00     0.012 A 
ATOM     24  C   UNL A   1      37.647  24.104  26.416  1.00  0.00     0.058 A 
BRANCH  20  25
ATOM     25  O   UNL A   1      41.170  22.840  26.450  1.00  0.00    -0.493 OA
ATOM     26  C   UNL A   1      41.783  21.621  26.085  1.00  0.00     0.278 C 
ENDBRANCH  20  25
BRANCH  22  27
ATOM     27  O   UNL A   1      39.519  25.370  27.046  1.00  0.00    -0.493 OA
ATOM     28  C   UNL A   1      39.326  25.554  28.447  1.00  0.00     0.278 C 
ENDBRANCH  22  27
ENDBRANCH  15  19
BRANCH  17  29
ATOM     29  C   UNL A   1      34.126  19.457  25.023  1.00  0.00     0.000 A 
ATOM     30  C   UNL A   1      32.835  19.121  25.441  1.00  0.00     0.011 A 
ATOM     31  C   UNL A   1      35.002  18.458  24.580  1.00  0.00     0.011 A 
ATOM     32  C   UNL A   1      32.414  17.787  25.405  1.00  0.00     0.021 A 
ATOM     33  C   UNL A   1      34.584  17.124  24.561  1.00  0.00     0.021 A 
ATOM     34  C   UNL A   1      33.293  16.794  24.973  1.00  0.00     0.041 A 
ATOM     35  Cl  UNL A   1      32.795  15.148  24.962  1.00  0.00    -0.084 Cl
ENDBRANCH  17  29
ENDBRANCH   8  14
ENDBRANCH   6   7
ENDBRANCH   3   6
ENDBRANCH   1   2
BRANCH   1  36
ATOM     36  C   UNL A   1      32.672  28.108  27.155  1.00  0.00     0.042 C 
BRANCH  36  37
ATOM     37  C   UNL A   1      33.453  29.150  26.375  1.00  0.00     0.118 C 
BRANCH  37  38
ATOM     38  N   UNL A   1      33.118  30.513  26.746  1.00  0.00    -0.352 N 
ATOM     39  C   UNL A   1      33.800  31.438  27.496  1.00  0.00     0.251 C 
ATOM     40  H   UNL A   1      32.253  30.828  26.398  1.00  0.00     0.163 HD
ATOM     41  O   UNL A   1      33.247  32.510  27.742  1.00  0.00    -0.269 OA
BRANCH  39  42
ATOM     42  C   UNL A   1      35.165  31.171  28.013  1.00  0.00     0.039 A 
ATOM     43  C   UNL A   1      35.463  29.886  28.483  1.00  0.00     0.014 A 
ATOM     44  C   UNL A   1      36.124  32.181  28.129  1.00  0.00     0.014 A 
ATOM     45  C   UNL A   1      36.716  29.607  29.030  1.00  0.00     0.010 A 
ATOM     46  C   UNL A   1      37.400  31.888  28.610  1.00  0.00     0.010 A 
ATOM     47  C   UNL A   1      37.693  30.607  29.099  1.00  0.00    -0.014 A 
BRANCH  47  48
ATOM     48  C   UNL A   1      38.966  30.374  29.823  1.00  0.00     0.031 A 
ATOM     49  C   UNL A   1      39.104  30.883  31.232  1.00  0.00     0.074 A 
ATOM     50  C   UNL A   1      39.981  29.720  29.227  1.00  0.00     0.049 A 
ATOM     51  N   UNL A   1      40.132  30.842  32.040  1.00  0.00    -0.248 NA
ATOM     52  C   UNL A   1      37.924  31.555  31.798  1.00  0.00     0.031 C 
ATOM     53  C   UNL A   1      39.956  29.185  27.865  1.00  0.00     0.029 A 
ATOM     54  N   UNL A   1      41.229  29.395  29.691  1.00  0.00    -0.354 N 
ATOM     55  C   UNL A   1      39.728  31.493  33.200  1.00  0.00     0.074 A 
ATOM     56  C   UNL A   1      38.385  31.978  32.964  1.00  0.00     0.031 C 
ATOM     57  C   UNL A   1      41.129  28.579  27.612  1.00  0.00     0.029 A 
ATOM     58  C   UNL A   1      41.998  28.713  28.778  1.00  0.00     0.049 A 
ATOM     59  H   UNL A   1      41.545  29.629  30.594  1.00  0.00     0.167 HD
ATOM     60  C   UNL A   1      40.405  31.652  34.366  1.00  0.00     0.034 A 
ATOM     61  C   UNL A   1      43.260  28.253  28.877  1.00  0.00     0.034 A 
ATOM     62  C   UNL A   1      41.743  31.159  34.579  1.00  0.00     0.049 A 
ATOM     63  C   UNL A   1      44.005  28.459  30.172  1.00  0.00     0.074 A 
ATOM     64  C   UNL A   1      42.534  31.254  35.710  1.00  0.00     0.029 A 
ATOM     65  N   UNL A   1      42.494  30.473  33.629  1.00  0.00    -0.354 N 
ATOM     66  N   UNL A   1      43.609  29.070  31.266  1.00  0.00    -0.248 NA
ATOM     67  C   UNL A   1      45.357  27.897  30.249  1.00  0.00     0.031 C 
ATOM     68  C   UNL A   1      43.778  30.677  35.426  1.00  0.00     0.029 A 
ATOM     69  C   UNL A   1      43.741  30.155  34.143  1.00  0.00     0.049 A 
ATOM     70  H   UNL A   1      42.183  30.246  32.723  1.00  0.00     0.167 HD
ATOM     71  C   UNL A   1      44.658  28.938  32.174  1.00  0.00     0.074 A 
ATOM     72  C   UNL A   1      45.689  28.172  31.502  1.00  0.00     0.031 C 
ATOM     73  C   UNL A   1      44.761  29.404  33.447  1.00  0.00     0.034 A 
BRANCH  60  74
ATOM     74  C   UNL A   1      39.708  32.427  35.463  1.00  0.00     0.023 A 
ATOM     75  C   UNL A   1      39.938  33.802  35.658  1.00  0.00     0.031 A 
ATOM     76  C   UNL A   1      38.865  31.770  36.376  1.00  0.00     0.131 A 
ATOM     77  C   UNL A   1      39.415  34.449  36.789  1.00  0.00     0.055 A 
ATOM     78  C   UNL A   1      38.271  32.441  37.448  1.00  0.00     0.041 A 
ATOM     79  F   UNL A   1      38.623  30.454  36.259  1.00  0.00    -0.206 F 
ATOM     80  C   UNL A   1      38.562  33.784  37.671  1.00  0.00     0.022 A 
BRANCH  77  81
ATOM     81  S   UNL A   1      40.008  36.117  37.185  1.00  0.00     0.124 S 
ATOM     82  O   UNL A   1      41.393  35.854  37.569  1.00  0.00    -0.237 OA
ATOM     83  O   UNL A   1      39.818  36.828  35.926  1.00  0.00    -0.237 OA
ATOM     84  O   UNL A   1      39.138  36.541  38.280  1.00  0.00    -0.744 OA
ENDBRANCH  77  81
ENDBRANCH  60  74
BRANCH  61  85
ATOM     85  C   UNL A   1      43.900  27.547  27.729  1.00  0.00     0.023 A 
ATOM     86  C   UNL A   1      44.916  28.160  26.978  1.00  0.00     0.031 A 
ATOM     87  C   UNL A   1      43.484  26.260  27.348  1.00  0.00     0.131 A 
ATOM     88  C   UNL A   1      45.455  27.503  25.861  1.00  0.00     0.055 A 
ATOM     89  C   UNL A   1      44.055  25.590  26.263  1.00  0.00     0.041 A 
ATOM     90  F   UNL A   1      42.522  25.625  28.036  1.00  0.00    -0.206 F 
ATOM     91  C   UNL A   1      45.039  26.217  25.505  1.00  0.00     0.022 A 
BRANCH  88  92
ATOM     92  S   UNL A   1      46.669  28.380  24.838  1.00  0.00     0.124 S 
ATOM     93  O   UNL A   1      46.337  29.773  25.110  1.00  0.00    -0.237 OA
ATOM     94  O   UNL A   1      47.932  27.900  25.390  1.00  0.00    -0.237 OA
ATOM     95  O   UNL A   1      46.370  27.919  23.484  1.00  0.00    -0.744 OA
ENDBRANCH  88  92
ENDBRANCH  61  85
BRANCH  73  96
ATOM     96  C   UNL A   1      46.026  29.051  34.194  1.00  0.00     0.023 A 
ATOM     97  C   UNL A   1      47.163  29.876  34.155  1.00  0.00     0.031 A 
ATOM     98  C   UNL A   1      46.106  27.846  34.916  1.00  0.00     0.131 A 
ATOM     99  C   UNL A   1      48.356  29.451  34.758  1.00  0.00     0.055 A 
ATOM    100  C   UNL A   1      47.276  27.461  35.572  1.00  0.00     0.041 A 
ATOM    101  F   UNL A   1      45.052  27.019  34.987  1.00  0.00    -0.206 F 
ATOM    102  C   UNL A   1      48.416  28.255  35.478  1.00  0.00     0.022 A 
BRANCH  99 103
ATOM    103  S   UNL A   1      49.864  30.416  34.471  1.00  0.00     0.124 S 
ATOM    104  O   UNL A   1      50.644  29.518  33.623  1.00  0.00    -0.237 OA
ATOM    105  O   UNL A   1      49.348  31.616  33.822  1.00  0.00    -0.237 OA
ATOM    106  O   UNL A   1      50.402  30.619  35.815  1.00  0.00    -0.744 OA
ENDBRANCH  99 103
ENDBRANCH  73  96
ENDBRANCH  47  48
ENDBRANCH  39  42
ENDBRANCH  37  38
ENDBRANCH  36  37
ENDBRANCH   1  36
TORSDOF 19
ENDMDL
MODEL 2
REMARK VINA RESULT:     -12.2      2.070      2.349
REMARK SMILES COc1ccc([C@@H]2CC(c3ccc(Cl)cc3)=NN2C2=[NH+]C(=O)[C@@H](CC(=O)NCCCNC(=O)c3ccc(-c4c5nc(c(-c6cc(S(=O)(=O)[O-])ccc6F)c6ccc([nH]6)c(-c6cc(S(=O)(=O)[O-])ccc6F)c6nc(c(-c7cc(S(=O)(=O)[O-])ccc7F)c7ccc4[nH]7)C=C6)C=C5)cc3)S2)cc1OC
REMARK SMILES IDX 28 1 27 2 25 3 26 4 24 6 23 7 19 8 20 9 97 10 21 11 22 13
REMARK SMILES IDX 18 14 7 15 8 16 9 17 17 18 6 19 3 20 4 21 99 22 5 23 98 24
REMARK SMILES IDX 2 25 1 26 100 27 101 28 10 29 11 30 16 31 12 32 15 33 13 34
REMARK SMILES IDX 14 35 29 36 30 37 31 38 32 39 33 41 34 42 35 43 96 44 36 45
REMARK SMILES IDX 95 46 37 47 38 48 39 49 89 50 40 51 94 52 88 53 90 54 41 55
REMARK SMILES IDX 93 56 87 57 86 58 42 60 74 61 54 62 73 63 55 64 58 65 72 66
REMARK SMILES IDX 91 67 56 68 57 69 71 71 92 72 59 73 43 74 44 75 52 76 45 77
REMARK SMILES IDX 51 78 53 79 50 80 46 81 47 82 48 83 49 84 75 85 76 86 84 87
REMARK SMILES IDX 77 88 83 89 85 90 82 91 78 92 79 93 80 94 81 95 60 96 61 97
REMARK SMILES IDX 69 98 62 99 68 100 70 101 67 102 63 103 64 104 65 105 66 106
REMARK H PARENT 27 5 20 12 31 40 90 59 58 70
REMARK Flexibility Score: inf
ROOT
ATOM      1  C   UNL A   1      31.415  27.635  26.391  1.00  0.00     0.117 C 
ENDROOT
BRANCH   1   2
ATOM      2  N   UNL A   1      31.324  26.183  26.377  1.00  0.00    -0.356 N 
ATOM      3  C   UNL A   1      31.266  25.330  25.317  1.00  0.00     0.221 C 
ATOM      4  O   UNL A   1      30.933  24.161  25.509  1.00  0.00    -0.275 OA
ATOM      5  H   UNL A   1      31.302  25.755  27.263  1.00  0.00     0.163 HD
BRANCH   3   6
ATOM      6  C   UNL A   1      31.686  25.801  23.952  1.00  0.00     0.127 C 
BRANCH   6   7
ATOM      7  C   UNL A   1      33.167  26.134  23.813  1.00  0.00     0.183 C 
ATOM      8  C   UNL A   1      34.474  23.983  23.975  1.00  0.00     0.340 C 
ATOM      9  N   UNL A   1      34.081  24.154  22.754  1.00  0.00    -0.202 N 
ATOM     10  S   UNL A   1      34.266  25.361  25.040  1.00  0.00    -0.020 SA
ATOM     11  C   UNL A   1      33.621  25.438  22.540  1.00  0.00     0.322 C 
ATOM     12  H   UNL A   1      34.107  23.455  22.061  1.00  0.00     0.316 HD
ATOM     13  O   UNL A   1      33.476  25.934  21.430  1.00  0.00    -0.246 OA
BRANCH   8  14
ATOM     14  N   UNL A   1      34.994  22.831  24.516  1.00  0.00    -0.120 N 
ATOM     15  C   UNL A   1      35.447  22.776  25.913  1.00  0.00     0.243 C 
ATOM     16  C   UNL A   1      34.898  21.439  26.408  1.00  0.00     0.118 C 
ATOM     17  C   UNL A   1      34.534  20.802  25.096  1.00  0.00     0.096 C 
ATOM     18  N   UNL A   1      34.599  21.583  24.063  1.00  0.00    -0.086 NA
BRANCH  15  19
ATOM     19  C   UNL A   1      36.970  22.849  26.002  1.00  0.00     0.003 A 
ATOM     20  C   UNL A   1      39.804  22.963  26.295  1.00  0.00     0.160 A 
ATOM     21  C   UNL A   1      39.150  21.783  25.915  1.00  0.00     0.051 A 
ATOM     22  C   UNL A   1      39.033  24.110  26.506  1.00  0.00     0.161 A 
ATOM     23  C   UNL A   1      37.763  21.718  25.775  1.00  0.00     0.012 A 
ATOM     24  C   UNL A   1      37.627  24.040  26.370  1.00  0.00     0.058 A 
BRANCH  20  25
ATOM     25  O   UNL A   1      41.145  22.763  26.399  1.00  0.00    -0.493 OA
ATOM     26  C   UNL A   1      41.694  21.498  26.705  1.00  0.00     0.278 C 
ENDBRANCH  20  25
BRANCH  22  27
ATOM     27  O   UNL A   1      39.508  25.307  26.971  1.00  0.00    -0.493 OA
ATOM     28  C   UNL A   1      39.829  25.314  28.361  1.00  0.00     0.278 C 
ENDBRANCH  22  27
ENDBRANCH  15  19
BRANCH  17  29
ATOM     29  C   UNL A   1      34.081  19.398  25.026  1.00  0.00     0.000 A 
ATOM     30  C   UNL A   1      32.801  19.062  25.479  1.00  0.00     0.011 A 
ATOM     31  C   UNL A   1      34.941  18.398  24.554  1.00  0.00     0.011 A 
ATOM     32  C   UNL A   1      32.376  17.729  25.449  1.00  0.00     0.021 A 
ATOM     33  C   UNL A   1      34.520  17.066  24.542  1.00  0.00     0.021 A 
ATOM     34  C   UNL A   1      33.240  16.736  24.988  1.00  0.00     0.041 A 
ATOM     35  Cl  UNL A   1      32.739  15.092  24.984  1.00  0.00    -0.084 Cl
ENDBRANCH  17  29
ENDBRANCH   8  14
ENDBRANCH   6   7
ENDBRANCH   3   6
ENDBRANCH   1   2
BRANCH   1  36
ATOM     36  C   UNL A   1      32.614  28.093  27.209  1.00  0.00     0.042 C 
BRANCH  36  37
ATOM     37  C   UNL A   1      33.509  29.107  26.516  1.00  0.00     0.118 C 
BRANCH  37  38
ATOM     38  N   UNL A   1      33.194  30.480  26.864  1.00  0.00    -0.352 N 
ATOM     39  C   UNL A   1      33.904  31.418  27.572  1.00  0.00     0.251 C 
ATOM     40  H   UNL A   1      32.320  30.793  26.535  1.00  0.00     0.163 HD
ATOM     41  O   UNL A   1      33.365  32.499  27.809  1.00  0.00    -0.269 OA
BRANCH  39  42
ATOM     42  C   UNL A   1      35.282  31.153  28.054  1.00  0.00     0.039 A 
ATOM     43  C   UNL A   1      35.593  29.869  28.517  1.00  0.00     0.014 A 
ATOM     44  C   UNL A   1      36.242  32.164  28.143  1.00  0.00     0.014 A 
ATOM     45  C   UNL A   1      36.861  29.592  29.033  1.00  0.00     0.010 A 
ATOM     46  C   UNL A   1      37.530  31.874  28.590  1.00  0.00     0.010 A 
ATOM     47  C   UNL A   1      37.838  30.594  29.074  1.00  0.00    -0.014 A 
BRANCH  47  48
ATOM     48  C   UNL A   1      39.130  30.364  29.766  1.00  0.00     0.031 A 
ATOM     49  C   UNL A   1      39.316  30.906  31.157  1.00  0.00     0.074 A 
ATOM     50  C   UNL A   1      40.119  29.683  29.155  1.00  0.00     0.049 A 
ATOM     51  N   UNL A   1      40.368  30.872  31.934  1.00  0.00    -0.248 NA
ATOM     52  C   UNL A   1      38.162  31.606  31.741  1.00  0.00     0.031 C 
ATOM     53  C   UNL A   1      40.046  29.115  27.809  1.00  0.00     0.029 A 
ATOM     54  N   UNL A   1      41.377  29.355  29.590  1.00  0.00    -0.354 N 
ATOM     55  C   UNL A   1      40.006  31.557  33.089  1.00  0.00     0.074 A 
ATOM     56  C   UNL A   1      38.662  32.052  32.881  1.00  0.00     0.031 C 
ATOM     57  C   UNL A   1      41.204  28.489  27.536  1.00  0.00     0.029 A 
ATOM     58  C   UNL A   1      42.110  28.641  28.672  1.00  0.00     0.049 A 
ATOM     59  H   UNL A   1      41.722  29.607  30.477  1.00  0.00     0.167 HD
ATOM     60  C   UNL A   1      40.720  31.737  34.229  1.00  0.00     0.034 A 
ATOM     61  C   UNL A   1      43.369  28.168  28.744  1.00  0.00     0.034 A 
ATOM     62  C   UNL A   1      42.059  31.234  34.414  1.00  0.00     0.049 A 
ATOM     63  C   UNL A   1      44.155  28.398  30.011  1.00  0.00     0.074 A 
ATOM     64  C   UNL A   1      42.884  31.347  35.518  1.00  0.00     0.029 A 
ATOM     65  N   UNL A   1      42.772  30.515  33.459  1.00  0.00    -0.354 N 
ATOM     66  N   UNL A   1      43.800  29.041  31.101  1.00  0.00    -0.248 NA
ATOM     67  C   UNL A   1      45.503  27.822  30.061  1.00  0.00     0.031 C 
ATOM     68  C   UNL A   1      44.113  30.748  35.212  1.00  0.00     0.029 A 
ATOM     69  C   UNL A   1      44.031  30.194  33.944  1.00  0.00     0.049 A 
ATOM     70  H   UNL A   1      42.432  30.269  32.569  1.00  0.00     0.167 HD
ATOM     71  C   UNL A   1      44.874  28.919  31.980  1.00  0.00     0.074 A 
ATOM     72  C   UNL A   1      45.875  28.124  31.296  1.00  0.00     0.031 C 
ATOM     73  C   UNL A   1      45.021  29.415  33.237  1.00  0.00     0.034 A 
BRANCH  60  74
ATOM     74  C   UNL A   1      40.066  32.547  35.327  1.00  0.00     0.023 A 
ATOM     75  C   UNL A   1      39.342  31.933  36.368  1.00  0.00     0.031 A 
ATOM     76  C   UNL A   1      40.098  33.952  35.294  1.00  0.00     0.131 A 
ATOM     77  C   UNL A   1      38.603  32.718  37.267  1.00  0.00     0.055 A 
ATOM     78  C   UNL A   1      39.436  34.728  36.248  1.00  0.00     0.041 A 
ATOM     79  F   UNL A   1      40.751  34.598  34.315  1.00  0.00    -0.206 F 
ATOM     80  C   UNL A   1      38.665  34.112  37.230  1.00  0.00     0.022 A 
BRANCH  77  81
ATOM     81  S   UNL A   1      37.421  31.892  38.369  1.00  0.00     0.124 S 
ATOM     82  O   UNL A   1      38.145  31.900  39.638  1.00  0.00    -0.237 OA
ATOM     83  O   UNL A   1      36.255  32.764  38.292  1.00  0.00    -0.237 OA
ATOM     84  O   UNL A   1      37.254  30.571  37.766  1.00  0.00    -0.744 OA
ENDBRANCH  77  81
ENDBRANCH  60  74
BRANCH  61  85
ATOM     85  C   UNL A   1      43.966  27.427  27.595  1.00  0.00     0.023 A 
ATOM     86  C   UNL A   1      44.154  26.038  27.649  1.00  0.00     0.031 A 
ATOM     87  C   UNL A   1      44.385  28.105  26.436  1.00  0.00     0.131 A 
ATOM     88  C   UNL A   1      44.780  25.373  26.583  1.00  0.00     0.055 A 
ATOM     89  C   UNL A   1      44.966  27.434  25.359  1.00  0.00     0.041 A 
ATOM     90  F   UNL A   1      44.222  29.433  26.330  1.00  0.00    -0.206 F 
ATOM     91  C   UNL A   1      45.177  26.061  25.433  1.00  0.00     0.022 A 
BRANCH  88  92
ATOM     92  S   UNL A   1      45.125  23.600  26.745  1.00  0.00     0.124 S 
ATOM     93  O   UNL A   1      44.397  23.265  27.964  1.00  0.00    -0.237 OA
ATOM     94  O   UNL A   1      44.575  23.069  25.502  1.00  0.00    -0.237 OA
ATOM     95  O   UNL A   1      46.581  23.545  26.852  1.00  0.00    -0.744 OA
ENDBRANCH  88  92
ENDBRANCH  61  85
BRANCH  73  96
ATOM     96  C   UNL A   1      46.304  29.065  33.954  1.00  0.00     0.023 A 
ATOM     97  C   UNL A   1      46.408  27.922  34.766  1.00  0.00     0.031 A 
ATOM     98  C   UNL A   1      47.421  29.914  33.859  1.00  0.00     0.131 A 
ATOM     99  C   UNL A   1      47.574  27.701  35.513  1.00  0.00     0.055 A 
ATOM    100  C   UNL A   1      48.604  29.651  34.552  1.00  0.00     0.041 A 
ATOM    101  F   UNL A   1      47.378  31.019  33.099  1.00  0.00    -0.206 F 
ATOM    102  C   UNL A   1      48.678  28.550  35.400  1.00  0.00     0.022 A 
BRANCH  99 103
ATOM    103  S   UNL A   1      47.579  26.363  36.738  1.00  0.00     0.124 S 
ATOM    104  O   UNL A   1      46.753  25.350  36.087  1.00  0.00    -0.237 OA
ATOM    105  O   UNL A   1      48.999  26.049  36.852  1.00  0.00    -0.237 OA
ATOM    106  O   UNL A   1      46.983  26.980  37.921  1.00  0.00    -0.744 OA
ENDBRANCH  99 103
ENDBRANCH  73  96
ENDBRANCH  47  48
ENDBRANCH  39  42
ENDBRANCH  37  38
ENDBRANCH  36  37
ENDBRANCH   1  36
TORSDOF 19
ENDMDL
MODEL 3
REMARK VINA RESULT:     -12.1      2.197      7.429
REMARK SMILES COc1ccc([C@@H]2CC(c3ccc(Cl)cc3)=NN2C2=[NH+]C(=O)[C@@H](CC(=O)NCCCNC(=O)c3ccc(-c4c5nc(c(-c6cc(S(=O)(=O)[O-])ccc6F)c6ccc([nH]6)c(-c6cc(S(=O)(=O)[O-])ccc6F)c6nc(c(-c7cc(S(=O)(=O)[O-])ccc7F)c7ccc4[nH]7)C=C6)C=C5)cc3)S2)cc1OC
REMARK SMILES IDX 28 1 27 2 25 3 26 4 24 6 23 7 19 8 20 9 97 10 21 11 22 13
REMARK SMILES IDX 18 14 7 15 8 16 9 17 17 18 6 19 3 20 4 21 99 22 5 23 98 24
REMARK SMILES IDX 2 25 1 26 100 27 101 28 10 29 11 30 16 31 12 32 15 33 13 34
REMARK SMILES IDX 14 35 29 36 30 37 31 38 32 39 33 41 34 42 35 43 96 44 36 45
REMARK SMILES IDX 95 46 37 47 38 48 39 49 89 50 40 51 94 52 88 53 90 54 41 55
REMARK SMILES IDX 93 56 87 57 86 58 42 60 74 61 54 62 73 63 55 64 58 65 72 66
REMARK SMILES IDX 91 67 56 68 57 69 71 71 92 72 59 73 43 74 44 75 52 76 45 77
REMARK SMILES IDX 51 78 53 79 50 80 46 81 47 82 48 83 49 84 75 85 76 86 84 87
REMARK SMILES IDX 77 88 83 89 85 90 82 91 78 92 79 93 80 94 81 95 60 96 61 97
REMARK SMILES IDX 69 98 62 99 68 100 70 101 67 102 63 103 64 104 65 105 66 106
REMARK H PARENT 27 5 20 12 31 40 90 59 58 70
REMARK Flexibility Score: inf
ROOT
ATOM      1  C   UNL A   1      31.424  27.548  26.410  1.00  0.00     0.117 C 
ENDROOT
BRANCH   1   2
ATOM      2  N   UNL A   1      31.385  26.095  26.333  1.00  0.00    -0.356 N 
ATOM      3  C   UNL A   1      31.336  25.288  25.237  1.00  0.00     0.221 C 
ATOM      4  O   UNL A   1      31.047  24.100  25.383  1.00  0.00    -0.275 OA
ATOM      5  H   UNL A   1      31.394  25.628  27.200  1.00  0.00     0.163 HD
BRANCH   3   6
ATOM      6  C   UNL A   1      31.713  25.833  23.887  1.00  0.00     0.127 C 
BRANCH   6   7
ATOM      7  C   UNL A   1      33.198  26.128  23.704  1.00  0.00     0.183 C 
ATOM      8  C   UNL A   1      34.462  23.955  23.904  1.00  0.00     0.340 C 
ATOM      9  N   UNL A   1      34.044  24.097  22.687  1.00  0.00    -0.202 N 
ATOM     10  S   UNL A   1      34.308  25.369  24.930  1.00  0.00    -0.020 SA
ATOM     11  C   UNL A   1      33.607  25.384  22.444  1.00  0.00     0.322 C 
ATOM     12  H   UNL A   1      34.038  23.377  22.017  1.00  0.00     0.316 HD
ATOM     13  O   UNL A   1      33.446  25.848  21.323  1.00  0.00    -0.246 OA
BRANCH   8  14
ATOM     14  N   UNL A   1      34.969  22.808  24.469  1.00  0.00    -0.120 N 
ATOM     15  C   UNL A   1      35.384  22.767  25.878  1.00  0.00     0.243 C 
ATOM     16  C   UNL A   1      34.824  21.432  26.369  1.00  0.00     0.118 C 
ATOM     17  C   UNL A   1      34.499  20.783  25.053  1.00  0.00     0.096 C 
ATOM     18  N   UNL A   1      34.590  21.556  24.015  1.00  0.00    -0.086 NA
BRANCH  15  19
ATOM     19  C   UNL A   1      36.904  22.844  26.008  1.00  0.00     0.003 A 
ATOM     20  C   UNL A   1      39.728  22.970  26.378  1.00  0.00     0.160 A 
ATOM     21  C   UNL A   1      39.086  21.780  26.005  1.00  0.00     0.051 A 
ATOM     22  C   UNL A   1      38.950  24.119  26.543  1.00  0.00     0.161 A 
ATOM     23  C   UNL A   1      37.704  21.710  25.827  1.00  0.00     0.012 A 
ATOM     24  C   UNL A   1      37.548  24.044  26.370  1.00  0.00     0.058 A 
BRANCH  20  25
ATOM     25  O   UNL A   1      41.065  22.774  26.524  1.00  0.00    -0.493 OA
ATOM     26  C   UNL A   1      41.720  21.639  25.997  1.00  0.00     0.278 C 
ENDBRANCH  20  25
BRANCH  22  27
ATOM     27  O   UNL A   1      39.410  25.327  26.996  1.00  0.00    -0.493 OA
ATOM     28  C   UNL A   1      39.944  25.296  28.319  1.00  0.00     0.278 C 
ENDBRANCH  22  27
ENDBRANCH  15  19
BRANCH  17  29
ATOM     29  C   UNL A   1      34.050  19.378  24.983  1.00  0.00     0.000 A 
ATOM     30  C   UNL A   1      32.749  19.047  25.373  1.00  0.00     0.011 A 
ATOM     31  C   UNL A   1      34.935  18.372  24.573  1.00  0.00     0.011 A 
ATOM     32  C   UNL A   1      32.327  17.713  25.343  1.00  0.00     0.021 A 
ATOM     33  C   UNL A   1      34.516  17.039  24.561  1.00  0.00     0.021 A 
ATOM     34  C   UNL A   1      33.215  16.715  24.945  1.00  0.00     0.041 A 
ATOM     35  Cl  UNL A   1      32.715  15.070  24.941  1.00  0.00    -0.084 Cl
ENDBRANCH  17  29
ENDBRANCH   8  14
ENDBRANCH   6   7
ENDBRANCH   3   6
ENDBRANCH   1   2
BRANCH   1  36
ATOM     36  C   UNL A   1      32.746  28.021  27.000  1.00  0.00     0.042 C 
BRANCH  36  37
ATOM     37  C   UNL A   1      33.468  29.077  26.181  1.00  0.00     0.118 C 
BRANCH  37  38
ATOM     38  N   UNL A   1      33.053  30.430  26.500  1.00  0.00    -0.352 N 
ATOM     39  C   UNL A   1      33.625  31.385  27.304  1.00  0.00     0.251 C 
ATOM     40  H   UNL A   1      32.217  30.713  26.063  1.00  0.00     0.163 HD
ATOM     41  O   UNL A   1      33.015  32.440  27.479  1.00  0.00    -0.269 OA
BRANCH  39  42
ATOM     42  C   UNL A   1      34.938  31.169  27.958  1.00  0.00     0.039 A 
ATOM     43  C   UNL A   1      35.178  29.941  28.588  1.00  0.00     0.014 A 
ATOM     44  C   UNL A   1      35.899  32.180  28.043  1.00  0.00     0.014 A 
ATOM     45  C   UNL A   1      36.378  29.717  29.265  1.00  0.00     0.010 A 
ATOM     46  C   UNL A   1      37.127  31.935  28.656  1.00  0.00     0.010 A 
ATOM     47  C   UNL A   1      37.361  30.714  29.305  1.00  0.00    -0.014 A 
BRANCH  47  48
ATOM     48  C   UNL A   1      38.567  30.555  30.154  1.00  0.00     0.031 A 
ATOM     49  C   UNL A   1      39.771  29.859  29.579  1.00  0.00     0.074 A 
ATOM     50  C   UNL A   1      38.580  31.021  31.416  1.00  0.00     0.049 A 
ATOM     51  N   UNL A   1      40.913  29.561  30.144  1.00  0.00    -0.248 NA
ATOM     52  C   UNL A   1      39.660  29.416  28.181  1.00  0.00     0.031 C 
ATOM     53  C   UNL A   1      37.468  31.710  32.074  1.00  0.00     0.029 A 
ATOM     54  N   UNL A   1      39.564  30.987  32.370  1.00  0.00    -0.354 N 
ATOM     55  C   UNL A   1      41.648  28.885  29.176  1.00  0.00     0.074 A 
ATOM     56  C   UNL A   1      40.796  28.759  28.013  1.00  0.00     0.031 C 
ATOM     57  C   UNL A   1      37.842  32.052  33.319  1.00  0.00     0.029 A 
ATOM     58  C   UNL A   1      39.202  31.578  33.558  1.00  0.00     0.049 A 
ATOM     59  H   UNL A   1      40.447  30.578  32.219  1.00  0.00     0.167 HD
ATOM     60  C   UNL A   1      42.925  28.431  29.241  1.00  0.00     0.034 A 
ATOM     61  C   UNL A   1      39.894  31.716  34.706  1.00  0.00     0.034 A 
ATOM     62  C   UNL A   1      43.757  28.569  30.411  1.00  0.00     0.049 A 
ATOM     63  C   UNL A   1      41.304  31.185  34.767  1.00  0.00     0.074 A 
ATOM     64  C   UNL A   1      45.062  28.156  30.603  1.00  0.00     0.029 A 
ATOM     65  N   UNL A   1      43.356  29.173  31.600  1.00  0.00    -0.354 N 
ATOM     66  N   UNL A   1      41.993  30.554  33.842  1.00  0.00    -0.248 NA
ATOM     67  C   UNL A   1      42.035  31.402  36.020  1.00  0.00     0.031 C 
ATOM     68  C   UNL A   1      45.431  28.457  31.920  1.00  0.00     0.029 A 
ATOM     69  C   UNL A   1      44.382  29.126  32.531  1.00  0.00     0.049 A 
ATOM     70  H   UNL A   1      42.471  29.574  31.756  1.00  0.00     0.167 HD
ATOM     71  C   UNL A   1      43.251  30.326  34.395  1.00  0.00     0.074 A 
ATOM     72  C   UNL A   1      43.227  30.907  35.723  1.00  0.00     0.031 C 
ATOM     73  C   UNL A   1      44.329  29.697  33.857  1.00  0.00     0.034 A 
BRANCH  60  74
ATOM     74  C   UNL A   1      43.461  27.713  28.022  1.00  0.00     0.023 A 
ATOM     75  C   UNL A   1      43.620  26.314  27.999  1.00  0.00     0.031 A 
ATOM     76  C   UNL A   1      43.893  28.438  26.898  1.00  0.00     0.131 A 
ATOM     77  C   UNL A   1      44.282  25.700  26.924  1.00  0.00     0.055 A 
ATOM     78  C   UNL A   1      44.466  27.810  25.790  1.00  0.00     0.041 A 
ATOM     79  F   UNL A   1      43.790  29.776  26.866  1.00  0.00    -0.206 F 
ATOM     80  C   UNL A   1      44.683  26.435  25.807  1.00  0.00     0.022 A 
BRANCH  77  81
ATOM     81  S   UNL A   1      44.769  23.959  27.086  1.00  0.00     0.124 S 
ATOM     82  O   UNL A   1      44.482  23.446  25.749  1.00  0.00    -0.237 OA
ATOM     83  O   UNL A   1      46.179  24.058  27.444  1.00  0.00    -0.237 OA
ATOM     84  O   UNL A   1      43.892  23.453  28.140  1.00  0.00    -0.744 OA
ENDBRANCH  77  81
ENDBRANCH  60  74
BRANCH  61  85
ATOM     85  C   UNL A   1      39.276  32.387  35.886  1.00  0.00     0.023 A 
ATOM     86  C   UNL A   1      38.597  31.647  36.867  1.00  0.00     0.031 A 
ATOM     87  C   UNL A   1      39.330  33.784  36.034  1.00  0.00     0.131 A 
ATOM     88  C   UNL A   1      37.966  32.308  37.932  1.00  0.00     0.055 A 
ATOM     89  C   UNL A   1      38.740  34.434  37.119  1.00  0.00     0.041 A 
ATOM     90  F   UNL A   1      39.973  34.539  35.129  1.00  0.00    -0.206 F 
ATOM     91  C   UNL A   1      38.042  33.696  38.071  1.00  0.00     0.022 A 
BRANCH  88  92
ATOM     92  S   UNL A   1      36.988  31.331  39.105  1.00  0.00     0.124 S 
ATOM     93  O   UNL A   1      35.752  32.101  39.178  1.00  0.00    -0.237 OA
ATOM     94  O   UNL A   1      36.903  30.041  38.428  1.00  0.00    -0.237 OA
ATOM     95  O   UNL A   1      37.802  31.341  40.318  1.00  0.00    -0.744 OA
ENDBRANCH  88  92
ENDBRANCH  61  85
BRANCH  73  96
ATOM     96  C   UNL A   1      45.577  29.653  34.706  1.00  0.00     0.023 A 
ATOM     97  C   UNL A   1      45.811  28.612  35.623  1.00  0.00     0.031 A 
ATOM     98  C   UNL A   1      46.522  30.692  34.630  1.00  0.00     0.131 A 
ATOM     99  C   UNL A   1      46.919  28.674  36.481  1.00  0.00     0.055 A 
ATOM    100  C   UNL A   1      47.658  30.712  35.439  1.00  0.00     0.041 A 
ATOM    101  F   UNL A   1      46.350  31.711  33.774  1.00  0.00    -0.206 F 
ATOM    102  C   UNL A   1      47.851  29.709  36.386  1.00  0.00     0.022 A 
BRANCH  99 103
ATOM    103  S   UNL A   1      47.050  27.453  37.816  1.00  0.00     0.124 S 
ATOM    104  O   UNL A   1      45.669  27.358  38.279  1.00  0.00    -0.237 OA
ATOM    105  O   UNL A   1      47.569  26.281  37.117  1.00  0.00    -0.237 OA
ATOM    106  O   UNL A   1      47.978  28.074  38.759  1.00  0.00    -0.744 OA
ENDBRANCH  99 103
ENDBRANCH  73  96
ENDBRANCH  47  48
ENDBRANCH  39  42
ENDBRANCH  37  38
ENDBRANCH  36  37
ENDBRANCH   1  36
TORSDOF 19
ENDMDL
