MODEL 1
REMARK VINA RESULT:     -11.7      0.000      0.000
REMARK SMILES COc1ccc([C@H]2C[NH2+]C[C@@H]2C(=O)NCCCNC(=O)c2ccc(-c3c4nc(c(-c5cc(S(=O)(=O)[O-])ccc5F)c5ccc([nH]5)c(-c5cc(S(=O)(=O)[O-])ccc5F)c5nc(c(-c6cc(S(=O)(=O)[O-])ccc6F)c6ccc3[nH]6)C=C5)C=C4)cc2)cc1OC
REMARK SMILES IDX 16 1 15 2 14 3 12 4 13 5 11 7 7 8 8 9 9 10 10 11 6 14 3 15
REMARK SMILES IDX 4 16 85 17 5 18 84 19 2 20 1 21 86 22 87 23 17 24 18 25
REMARK SMILES IDX 19 26 20 28 21 29 22 30 83 31 23 32 82 33 24 34 25 35 26 36
REMARK SMILES IDX 76 37 27 38 81 39 75 40 77 41 28 42 80 43 74 44 73 45 29 47
REMARK SMILES IDX 61 48 41 49 60 50 42 51 45 52 59 53 78 54 43 55 44 56 58 58
REMARK SMILES IDX 79 59 46 60 30 61 31 62 39 63 32 64 38 65 40 66 37 67 33 68
REMARK SMILES IDX 34 69 35 70 36 71 62 72 63 73 71 74 64 75 70 76 72 77 69 78
REMARK SMILES IDX 65 79 66 80 67 81 68 82 47 83 48 84 56 85 49 86 55 87 57 88
REMARK SMILES IDX 54 89 50 90 51 91 52 92 53 93
REMARK H PARENT 14 6 9 12 9 13 18 27 77 46 45 57
REMARK Flexibility Score: inf
ROOT
ATOM      1  C   UNL A   1      36.302  20.136  24.973  1.00  0.00     0.042 C 
ENDROOT
BRANCH   1   2
ATOM      2  C   UNL A   1      35.101  21.065  25.046  1.00  0.00     0.117 C 
BRANCH   2   3
ATOM      3  N   UNL A   1      34.506  21.129  26.374  1.00  0.00    -0.356 N 
ATOM      4  C   UNL A   1      33.531  21.970  26.841  1.00  0.00     0.229 C 
ATOM      5  O   UNL A   1      33.132  21.829  27.996  1.00  0.00    -0.275 OA
ATOM      6  H   UNL A   1      34.853  20.478  27.027  1.00  0.00     0.163 HD
BRANCH   4   7
ATOM      7  C   UNL A   1      33.023  23.064  25.910  1.00  0.00     0.146 C 
ATOM      8  C   UNL A   1      32.283  24.203  26.642  1.00  0.00     0.092 C 
ATOM      9  C   UNL A   1      30.850  23.644  26.618  1.00  0.00     0.269 C 
ATOM     10  N   UNL A   1      30.683  23.112  25.256  1.00  0.00    -0.345 N 
ATOM     11  C   UNL A   1      31.983  22.502  24.934  1.00  0.00     0.274 C 
ATOM     12  H   UNL A   1      30.464  23.862  24.601  1.00  0.00     0.346 HD
ATOM     13  H   UNL A   1      29.915  22.443  25.193  1.00  0.00     0.346 HD
BRANCH   8  14
ATOM     14  C   UNL A   1      32.403  25.595  25.998  1.00  0.00    -0.034 A 
ATOM     15  C   UNL A   1      32.640  28.090  24.650  1.00  0.00     0.160 A 
ATOM     16  C   UNL A   1      33.777  27.400  25.090  1.00  0.00     0.051 A 
ATOM     17  C   UNL A   1      31.379  27.539  24.867  1.00  0.00     0.161 A 
ATOM     18  C   UNL A   1      33.659  26.167  25.750  1.00  0.00     0.008 A 
ATOM     19  C   UNL A   1      31.285  26.308  25.534  1.00  0.00     0.054 A 
BRANCH  15  20
ATOM     20  O   UNL A   1      32.828  29.198  23.871  1.00  0.00    -0.493 OA
ATOM     21  C   UNL A   1      33.671  28.936  22.751  1.00  0.00     0.278 C 
ENDBRANCH  15  20
BRANCH  17  22
ATOM     22  O   UNL A   1      30.153  27.994  24.469  1.00  0.00    -0.493 OA
ATOM     23  C   UNL A   1      29.442  27.282  23.475  1.00  0.00     0.278 C 
ENDBRANCH  17  22
ENDBRANCH   8  14
ENDBRANCH   4   7
ENDBRANCH   2   3
ENDBRANCH   1   2
BRANCH   1  24
ATOM     24  C   UNL A   1      37.639  20.817  25.231  1.00  0.00     0.118 C 
BRANCH  24  25
ATOM     25  N   UNL A   1      38.691  19.880  25.599  1.00  0.00    -0.352 N 
ATOM     26  C   UNL A   1      39.943  20.104  26.119  1.00  0.00     0.251 C 
ATOM     27  H   UNL A   1      38.470  18.932  25.452  1.00  0.00     0.163 HD
ATOM     28  O   UNL A   1      40.738  19.167  26.188  1.00  0.00    -0.269 OA
BRANCH  26  29
ATOM     29  C   UNL A   1      40.348  21.457  26.560  1.00  0.00     0.039 A 
ATOM     30  C   UNL A   1      41.296  21.578  27.580  1.00  0.00     0.014 A 
ATOM     31  C   UNL A   1      39.803  22.604  25.978  1.00  0.00     0.014 A 
ATOM     32  C   UNL A   1      41.756  22.844  27.953  1.00  0.00     0.010 A 
ATOM     33  C   UNL A   1      40.328  23.856  26.285  1.00  0.00     0.010 A 
ATOM     34  C   UNL A   1      41.315  23.990  27.273  1.00  0.00    -0.014 A 
BRANCH  34  35
ATOM     35  C   UNL A   1      41.886  25.332  27.568  1.00  0.00     0.031 A 
ATOM     36  C   UNL A   1      41.072  26.361  28.304  1.00  0.00     0.074 A 
ATOM     37  C   UNL A   1      43.113  25.647  27.104  1.00  0.00     0.049 A 
ATOM     38  N   UNL A   1      41.364  27.607  28.577  1.00  0.00    -0.248 NA
ATOM     39  C   UNL A   1      39.739  25.942  28.762  1.00  0.00     0.031 C 
ATOM     40  C   UNL A   1      43.981  24.750  26.336  1.00  0.00     0.029 A 
ATOM     41  N   UNL A   1      43.840  26.808  27.195  1.00  0.00    -0.354 N 
ATOM     42  C   UNL A   1      40.248  28.126  29.225  1.00  0.00     0.074 A 
ATOM     43  C   UNL A   1      39.252  27.074  29.247  1.00  0.00     0.031 C 
ATOM     44  C   UNL A   1      45.127  25.386  26.047  1.00  0.00     0.029 A 
ATOM     45  C   UNL A   1      45.058  26.751  26.556  1.00  0.00     0.049 A 
ATOM     46  H   UNL A   1      43.520  27.607  27.674  1.00  0.00     0.167 HD
ATOM     47  C   UNL A   1      40.077  29.358  29.766  1.00  0.00     0.034 A 
ATOM     48  C   UNL A   1      46.003  27.696  26.376  1.00  0.00     0.034 A 
ATOM     49  C   UNL A   1      41.086  30.390  29.739  1.00  0.00     0.049 A 
ATOM     50  C   UNL A   1      45.780  29.067  26.961  1.00  0.00     0.074 A 
ATOM     51  C   UNL A   1      41.049  31.644  30.323  1.00  0.00     0.029 A 
ATOM     52  N   UNL A   1      42.307  30.298  29.080  1.00  0.00    -0.354 N 
ATOM     53  N   UNL A   1      44.747  29.520  27.633  1.00  0.00    -0.248 NA
ATOM     54  C   UNL A   1      46.853  30.051  26.770  1.00  0.00     0.031 C 
ATOM     55  C   UNL A   1      42.201  32.339  29.944  1.00  0.00     0.029 A 
ATOM     56  C   UNL A   1      43.006  31.489  29.202  1.00  0.00     0.049 A 
ATOM     57  H   UNL A   1      42.627  29.502  28.597  1.00  0.00     0.167 HD
ATOM     58  C   UNL A   1      45.059  30.835  27.967  1.00  0.00     0.074 A 
ATOM     59  C   UNL A   1      46.382  31.094  27.437  1.00  0.00     0.031 C 
ATOM     60  C   UNL A   1      44.318  31.745  28.652  1.00  0.00     0.034 A 
BRANCH  47  61
ATOM     61  C   UNL A   1      38.738  29.665  30.396  1.00  0.00     0.023 A 
ATOM     62  C   UNL A   1      37.753  30.410  29.724  1.00  0.00     0.031 A 
ATOM     63  C   UNL A   1      38.450  29.228  31.702  1.00  0.00     0.131 A 
ATOM     64  C   UNL A   1      36.567  30.765  30.386  1.00  0.00     0.055 A 
ATOM     65  C   UNL A   1      37.230  29.508  32.322  1.00  0.00     0.041 A 
ATOM     66  F   UNL A   1      39.357  28.533  32.405  1.00  0.00    -0.206 F 
ATOM     67  C   UNL A   1      36.288  30.296  31.671  1.00  0.00     0.022 A 
BRANCH  64  68
ATOM     68  S   UNL A   1      35.470  31.981  29.605  1.00  0.00     0.124 S 
ATOM     69  O   UNL A   1      34.586  32.335  30.714  1.00  0.00    -0.237 OA
ATOM     70  O   UNL A   1      36.403  33.016  29.175  1.00  0.00    -0.237 OA
ATOM     71  O   UNL A   1      34.834  31.227  28.528  1.00  0.00    -0.744 OA
ENDBRANCH  64  68
ENDBRANCH  47  61
BRANCH  48  72
ATOM     72  C   UNL A   1      47.229  27.389  25.584  1.00  0.00     0.023 A 
ATOM     73  C   UNL A   1      47.321  27.720  24.224  1.00  0.00     0.031 A 
ATOM     74  C   UNL A   1      48.323  26.729  26.176  1.00  0.00     0.131 A 
ATOM     75  C   UNL A   1      48.463  27.358  23.491  1.00  0.00     0.055 A 
ATOM     76  C   UNL A   1      49.478  26.422  25.457  1.00  0.00     0.041 A 
ATOM     77  F   UNL A   1      48.289  26.391  27.475  1.00  0.00    -0.206 F 
ATOM     78  C   UNL A   1      49.548  26.727  24.102  1.00  0.00     0.022 A 
BRANCH  75  79
ATOM     79  S   UNL A   1      48.478  27.652  21.700  1.00  0.00     0.124 S 
ATOM     80  O   UNL A   1      47.147  28.205  21.479  1.00  0.00    -0.237 OA
ATOM     81  O   UNL A   1      49.592  28.583  21.556  1.00  0.00    -0.237 OA
ATOM     82  O   UNL A   1      48.704  26.321  21.139  1.00  0.00    -0.744 OA
ENDBRANCH  75  79
ENDBRANCH  48  72
BRANCH  60  83
ATOM     83  C   UNL A   1      44.944  33.098  28.898  1.00  0.00     0.023 A 
ATOM     84  C   UNL A   1      44.634  34.215  28.103  1.00  0.00     0.031 A 
ATOM     85  C   UNL A   1      45.870  33.270  29.944  1.00  0.00     0.131 A 
ATOM     86  C   UNL A   1      45.282  35.438  28.331  1.00  0.00     0.055 A 
ATOM     87  C   UNL A   1      46.460  34.506  30.210  1.00  0.00     0.041 A 
ATOM     88  F   UNL A   1      46.210  32.237  30.732  1.00  0.00    -0.206 F 
ATOM     89  C   UNL A   1      46.178  35.595  29.393  1.00  0.00     0.022 A 
BRANCH  86  90
ATOM     90  S   UNL A   1      45.015  36.799  27.161  1.00  0.00     0.124 S 
ATOM     91  O   UNL A   1      43.773  36.395  26.509  1.00  0.00    -0.237 OA
ATOM     92  O   UNL A   1      44.926  37.958  28.043  1.00  0.00    -0.237 OA
ATOM     93  O   UNL A   1      46.203  36.758  26.311  1.00  0.00    -0.744 OA
ENDBRANCH  86  90
ENDBRANCH  60  83
ENDBRANCH  34  35
ENDBRANCH  26  29
ENDBRANCH  24  25
ENDBRANCH   1  24
TORSDOF 16
ENDMDL
MODEL 2
REMARK VINA RESULT:     -11.7      5.936     11.142
REMARK SMILES COc1ccc([C@H]2C[NH2+]C[C@@H]2C(=O)NCCCNC(=O)c2ccc(-c3c4nc(c(-c5cc(S(=O)(=O)[O-])ccc5F)c5ccc([nH]5)c(-c5cc(S(=O)(=O)[O-])ccc5F)c5nc(c(-c6cc(S(=O)(=O)[O-])ccc6F)c6ccc3[nH]6)C=C5)C=C4)cc2)cc1OC
REMARK SMILES IDX 16 1 15 2 14 3 12 4 13 5 11 7 7 8 8 9 9 10 10 11 6 14 3 15
REMARK SMILES IDX 4 16 85 17 5 18 84 19 2 20 1 21 86 22 87 23 17 24 18 25
REMARK SMILES IDX 19 26 20 28 21 29 22 30 83 31 23 32 82 33 24 34 25 35 26 36
REMARK SMILES IDX 76 37 27 38 81 39 75 40 77 41 28 42 80 43 74 44 73 45 29 47
REMARK SMILES IDX 61 48 41 49 60 50 42 51 45 52 59 53 78 54 43 55 44 56 58 58
REMARK SMILES IDX 79 59 46 60 30 61 31 62 39 63 32 64 38 65 40 66 37 67 33 68
REMARK SMILES IDX 34 69 35 70 36 71 62 72 63 73 71 74 64 75 70 76 72 77 69 78
REMARK SMILES IDX 65 79 66 80 67 81 68 82 47 83 48 84 56 85 49 86 55 87 57 88
REMARK SMILES IDX 54 89 50 90 51 91 52 92 53 93
REMARK H PARENT 14 6 9 12 9 13 18 27 77 46 45 57
REMARK Flexibility Score: inf
ROOT
ATOM      1  C   UNL A   1      31.750  31.200  26.676  1.00  0.00     0.042 C 
ENDROOT
BRANCH   1   2
ATOM      2  C   UNL A   1      32.079  29.825  26.116  1.00  0.00     0.117 C 
BRANCH   2   3
ATOM      3  N   UNL A   1      32.202  29.811  24.665  1.00  0.00    -0.356 N 
ATOM      4  C   UNL A   1      32.255  28.736  23.817  1.00  0.00     0.229 C 
ATOM      5  O   UNL A   1      32.315  28.942  22.605  1.00  0.00    -0.275 OA
ATOM      6  H   UNL A   1      32.254  30.695  24.235  1.00  0.00     0.163 HD
BRANCH   4   7
ATOM      7  C   UNL A   1      32.278  27.341  24.428  1.00  0.00     0.146 C 
ATOM      8  C   UNL A   1      32.704  26.239  23.437  1.00  0.00     0.092 C 
ATOM      9  C   UNL A   1      31.330  25.863  22.856  1.00  0.00     0.269 C 
ATOM     10  N   UNL A   1      30.437  25.807  24.024  1.00  0.00    -0.345 N 
ATOM     11  C   UNL A   1      30.873  26.925  24.877  1.00  0.00     0.274 C 
ATOM     12  H   UNL A   1      30.540  24.918  24.514  1.00  0.00     0.346 HD
ATOM     13  H   UNL A   1      29.453  25.880  23.764  1.00  0.00     0.346 HD
BRANCH   8  14
ATOM     14  C   UNL A   1      33.452  25.043  24.051  1.00  0.00    -0.034 A 
ATOM     15  C   UNL A   1      34.715  22.831  25.319  1.00  0.00     0.160 A 
ATOM     16  C   UNL A   1      35.048  24.146  25.669  1.00  0.00     0.051 A 
ATOM     17  C   UNL A   1      33.744  22.607  24.346  1.00  0.00     0.161 A 
ATOM     18  C   UNL A   1      34.421  25.236  25.047  1.00  0.00     0.008 A 
ATOM     19  C   UNL A   1      33.134  23.713  23.733  1.00  0.00     0.054 A 
BRANCH  15  20
ATOM     20  O   UNL A   1      35.238  21.818  26.074  1.00  0.00    -0.493 OA
ATOM     21  C   UNL A   1      36.266  21.108  25.389  1.00  0.00     0.278 C 
ENDBRANCH  15  20
BRANCH  17  22
ATOM     22  O   UNL A   1      33.217  21.427  23.900  1.00  0.00    -0.493 OA
ATOM     23  C   UNL A   1      32.288  20.736  24.713  1.00  0.00     0.278 C 
ENDBRANCH  17  22
ENDBRANCH   8  14
ENDBRANCH   4   7
ENDBRANCH   2   3
ENDBRANCH   1   2
BRANCH   1  24
ATOM     24  C   UNL A   1      32.953  31.965  27.209  1.00  0.00     0.118 C 
BRANCH  24  25
ATOM     25  N   UNL A   1      32.654  33.360  27.504  1.00  0.00    -0.352 N 
ATOM     26  C   UNL A   1      33.181  34.205  28.451  1.00  0.00     0.251 C 
ATOM     27  H   UNL A   1      31.960  33.763  26.932  1.00  0.00     0.163 HD
ATOM     28  O   UNL A   1      32.649  35.299  28.637  1.00  0.00    -0.269 OA
BRANCH  26  29
ATOM     29  C   UNL A   1      34.350  33.798  29.259  1.00  0.00     0.039 A 
ATOM     30  C   UNL A   1      34.156  32.929  30.337  1.00  0.00     0.014 A 
ATOM     31  C   UNL A   1      35.633  34.265  28.966  1.00  0.00     0.014 A 
ATOM     32  C   UNL A   1      35.257  32.464  31.061  1.00  0.00     0.010 A 
ATOM     33  C   UNL A   1      36.736  33.731  29.627  1.00  0.00     0.010 A 
ATOM     34  C   UNL A   1      36.561  32.820  30.680  1.00  0.00    -0.014 A 
BRANCH  34  35
ATOM     35  C   UNL A   1      37.751  32.236  31.356  1.00  0.00     0.031 A 
ATOM     36  C   UNL A   1      38.508  31.102  30.720  1.00  0.00     0.074 A 
ATOM     37  C   UNL A   1      38.102  32.681  32.580  1.00  0.00     0.049 A 
ATOM     38  N   UNL A   1      39.512  30.411  31.192  1.00  0.00    -0.248 NA
ATOM     39  C   UNL A   1      38.051  30.668  29.391  1.00  0.00     0.031 C 
ATOM     40  C   UNL A   1      37.417  33.743  33.321  1.00  0.00     0.029 A 
ATOM     41  N   UNL A   1      39.111  32.289  33.425  1.00  0.00    -0.354 N 
ATOM     42  C   UNL A   1      39.799  29.450  30.228  1.00  0.00     0.074 A 
ATOM     43  C   UNL A   1      38.819  29.612  29.173  1.00  0.00     0.031 C 
ATOM     44  C   UNL A   1      38.038  33.932  34.496  1.00  0.00     0.029 A 
ATOM     45  C   UNL A   1      39.128  32.970  34.621  1.00  0.00     0.049 A 
ATOM     46  H   UNL A   1      39.763  31.587  33.196  1.00  0.00     0.167 HD
ATOM     47  C   UNL A   1      40.796  28.530  30.216  1.00  0.00     0.034 A 
ATOM     48  C   UNL A   1      39.913  32.823  35.708  1.00  0.00     0.034 A 
ATOM     49  C   UNL A   1      41.767  28.389  31.275  1.00  0.00     0.049 A 
ATOM     50  C   UNL A   1      40.997  31.775  35.684  1.00  0.00     0.074 A 
ATOM     51  C   UNL A   1      42.863  27.546  31.330  1.00  0.00     0.029 A 
ATOM     52  N   UNL A   1      41.751  29.094  32.473  1.00  0.00    -0.354 N 
ATOM     53  N   UNL A   1      41.299  30.921  34.734  1.00  0.00    -0.248 NA
ATOM     54  C   UNL A   1      41.849  31.677  36.876  1.00  0.00     0.031 C 
ATOM     55  C   UNL A   1      43.454  27.676  32.591  1.00  0.00     0.029 A 
ATOM     56  C   UNL A   1      42.787  28.669  33.291  1.00  0.00     0.049 A 
ATOM     57  H   UNL A   1      41.098  29.793  32.706  1.00  0.00     0.167 HD
ATOM     58  C   UNL A   1      42.393  30.202  35.205  1.00  0.00     0.074 A 
ATOM     59  C   UNL A   1      42.708  30.735  36.515  1.00  0.00     0.031 C 
ATOM     60  C   UNL A   1      43.079  29.193  34.606  1.00  0.00     0.034 A 
BRANCH  47  61
ATOM     61  C   UNL A   1      40.860  27.583  29.039  1.00  0.00     0.023 A 
ATOM     62  C   UNL A   1      41.802  27.741  28.008  1.00  0.00     0.031 A 
ATOM     63  C   UNL A   1      39.946  26.519  28.933  1.00  0.00     0.131 A 
ATOM     64  C   UNL A   1      41.756  26.905  26.881  1.00  0.00     0.055 A 
ATOM     65  C   UNL A   1      39.964  25.634  27.852  1.00  0.00     0.041 A 
ATOM     66  F   UNL A   1      39.007  26.328  29.873  1.00  0.00    -0.206 F 
ATOM     67  C   UNL A   1      40.862  25.836  26.809  1.00  0.00     0.022 A 
BRANCH  64  68
ATOM     68  S   UNL A   1      42.774  27.336  25.442  1.00  0.00     0.124 S 
ATOM     69  O   UNL A   1      42.070  28.509  24.924  1.00  0.00    -0.237 OA
ATOM     70  O   UNL A   1      44.078  27.588  26.042  1.00  0.00    -0.237 OA
ATOM     71  O   UNL A   1      42.693  26.148  24.596  1.00  0.00    -0.744 OA
ENDBRANCH  64  68
ENDBRANCH  47  61
BRANCH  48  72
ATOM     72  C   UNL A   1      39.685  33.665  36.918  1.00  0.00     0.023 A 
ATOM     73  C   UNL A   1      38.999  33.166  38.036  1.00  0.00     0.031 A 
ATOM     74  C   UNL A   1      40.129  35.000  36.960  1.00  0.00     0.131 A 
ATOM     75  C   UNL A   1      38.743  34.005  39.132  1.00  0.00     0.055 A 
ATOM     76  C   UNL A   1      39.922  35.813  38.075  1.00  0.00     0.041 A 
ATOM     77  F   UNL A   1      40.792  35.528  35.919  1.00  0.00    -0.206 F 
ATOM     78  C   UNL A   1      39.214  35.319  39.166  1.00  0.00     0.022 A 
BRANCH  75  79
ATOM     79  S   UNL A   1      37.711  33.378  40.486  1.00  0.00     0.124 S 
ATOM     80  O   UNL A   1      36.557  32.859  39.764  1.00  0.00    -0.237 OA
ATOM     81  O   UNL A   1      38.587  32.384  41.098  1.00  0.00    -0.237 OA
ATOM     82  O   UNL A   1      37.458  34.567  41.299  1.00  0.00    -0.744 OA
ENDBRANCH  75  79
ENDBRANCH  48  72
BRANCH  60  83
ATOM     83  C   UNL A   1      44.263  28.626  35.354  1.00  0.00     0.023 A 
ATOM     84  C   UNL A   1      44.122  27.581  36.284  1.00  0.00     0.031 A 
ATOM     85  C   UNL A   1      45.553  29.143  35.134  1.00  0.00     0.131 A 
ATOM     86  C   UNL A   1      45.240  27.125  36.998  1.00  0.00     0.055 A 
ATOM     87  C   UNL A   1      46.672  28.638  35.796  1.00  0.00     0.041 A 
ATOM     88  F   UNL A   1      45.748  30.146  34.262  1.00  0.00    -0.206 F 
ATOM     89  C   UNL A   1      46.517  27.632  36.745  1.00  0.00     0.022 A 
BRANCH  86  90
ATOM     90  S   UNL A   1      44.991  25.923  38.334  1.00  0.00     0.124 S 
ATOM     91  O   UNL A   1      46.297  25.920  38.985  1.00  0.00    -0.237 OA
ATOM     92  O   UNL A   1      43.900  26.523  39.096  1.00  0.00    -0.237 OA
ATOM     93  O   UNL A   1      44.647  24.691  37.627  1.00  0.00    -0.744 OA
ENDBRANCH  86  90
ENDBRANCH  60  83
ENDBRANCH  34  35
ENDBRANCH  26  29
ENDBRANCH  24  25
ENDBRANCH   1  24
TORSDOF 16
ENDMDL
MODEL 3
REMARK VINA RESULT:     -11.7      5.107      8.301
REMARK SMILES COc1ccc([C@H]2C[NH2+]C[C@@H]2C(=O)NCCCNC(=O)c2ccc(-c3c4nc(c(-c5cc(S(=O)(=O)[O-])ccc5F)c5ccc([nH]5)c(-c5cc(S(=O)(=O)[O-])ccc5F)c5nc(c(-c6cc(S(=O)(=O)[O-])ccc6F)c6ccc3[nH]6)C=C5)C=C4)cc2)cc1OC
REMARK SMILES IDX 16 1 15 2 14 3 12 4 13 5 11 7 7 8 8 9 9 10 10 11 6 14 3 15
REMARK SMILES IDX 4 16 85 17 5 18 84 19 2 20 1 21 86 22 87 23 17 24 18 25
REMARK SMILES IDX 19 26 20 28 21 29 22 30 83 31 23 32 82 33 24 34 25 35 26 36
REMARK SMILES IDX 76 37 27 38 81 39 75 40 77 41 28 42 80 43 74 44 73 45 29 47
REMARK SMILES IDX 61 48 41 49 60 50 42 51 45 52 59 53 78 54 43 55 44 56 58 58
REMARK SMILES IDX 79 59 46 60 30 61 31 62 39 63 32 64 38 65 40 66 37 67 33 68
REMARK SMILES IDX 34 69 35 70 36 71 62 72 63 73 71 74 64 75 70 76 72 77 69 78
REMARK SMILES IDX 65 79 66 80 67 81 68 82 47 83 48 84 56 85 49 86 55 87 57 88
REMARK SMILES IDX 54 89 50 90 51 91 52 92 53 93
REMARK H PARENT 14 6 9 12 9 13 18 27 77 46 45 57
REMARK Flexibility Score: inf
ROOT
ATOM      1  C   UNL A   1      33.690  28.795  26.040  1.00  0.00     0.042 C 
ENDROOT
BRANCH   1   2
ATOM      2  C   UNL A   1      32.913  29.245  24.813  1.00  0.00     0.117 C 
BRANCH   2   3
ATOM      3  N   UNL A   1      33.679  29.138  23.579  1.00  0.00    -0.356 N 
ATOM      4  C   UNL A   1      33.641  28.157  22.624  1.00  0.00     0.229 C 
ATOM      5  O   UNL A   1      34.344  28.279  21.622  1.00  0.00    -0.275 OA
ATOM      6  H   UNL A   1      34.312  29.873  23.407  1.00  0.00     0.163 HD
BRANCH   4   7
ATOM      7  C   UNL A   1      32.754  26.945  22.878  1.00  0.00     0.146 C 
ATOM      8  C   UNL A   1      33.338  25.626  22.331  1.00  0.00     0.092 C 
ATOM      9  C   UNL A   1      32.748  25.646  20.911  1.00  0.00     0.269 C 
ATOM     10  N   UNL A   1      31.351  26.071  21.097  1.00  0.00    -0.345 N 
ATOM     11  C   UNL A   1      31.412  27.095  22.152  1.00  0.00     0.274 C 
ATOM     12  H   UNL A   1      30.771  25.284  21.391  1.00  0.00     0.346 HD
ATOM     13  H   UNL A   1      30.936  26.427  20.235  1.00  0.00     0.346 HD
BRANCH   8  14
ATOM     14  C   UNL A   1      32.975  24.358  23.123  1.00  0.00    -0.034 A 
ATOM     15  C   UNL A   1      32.471  22.009  24.648  1.00  0.00     0.160 A 
ATOM     16  C   UNL A   1      32.983  21.924  23.347  1.00  0.00     0.051 A 
ATOM     17  C   UNL A   1      32.217  23.262  25.203  1.00  0.00     0.161 A 
ATOM     18  C   UNL A   1      33.237  23.083  22.598  1.00  0.00     0.008 A 
ATOM     19  C   UNL A   1      32.472  24.407  24.433  1.00  0.00     0.054 A 
BRANCH  15  20
ATOM     20  O   UNL A   1      32.402  20.858  25.384  1.00  0.00    -0.493 OA
ATOM     21  C   UNL A   1      32.519  19.691  24.574  1.00  0.00     0.278 C 
ENDBRANCH  15  20
BRANCH  17  22
ATOM     22  O   UNL A   1      31.788  23.583  26.461  1.00  0.00    -0.493 OA
ATOM     23  C   UNL A   1      30.445  23.323  26.820  1.00  0.00     0.278 C 
ENDBRANCH  17  22
ENDBRANCH   8  14
ENDBRANCH   4   7
ENDBRANCH   2   3
ENDBRANCH   1   2
BRANCH   1  24
ATOM     24  C   UNL A   1      33.177  29.370  27.353  1.00  0.00     0.118 C 
BRANCH  24  25
ATOM     25  N   UNL A   1      33.441  30.795  27.490  1.00  0.00    -0.352 N 
ATOM     26  C   UNL A   1      34.517  31.455  28.033  1.00  0.00     0.251 C 
ATOM     27  H   UNL A   1      32.733  31.382  27.136  1.00  0.00     0.163 HD
ATOM     28  O   UNL A   1      34.447  32.672  28.203  1.00  0.00    -0.269 OA
BRANCH  26  29
ATOM     29  C   UNL A   1      35.731  30.715  28.440  1.00  0.00     0.039 A 
ATOM     30  C   UNL A   1      36.911  30.904  27.714  1.00  0.00     0.014 A 
ATOM     31  C   UNL A   1      35.717  29.838  29.527  1.00  0.00     0.014 A 
ATOM     32  C   UNL A   1      38.090  30.282  28.132  1.00  0.00     0.010 A 
ATOM     33  C   UNL A   1      36.909  29.294  29.996  1.00  0.00     0.010 A 
ATOM     34  C   UNL A   1      38.111  29.513  29.307  1.00  0.00    -0.014 A 
BRANCH  34  35
ATOM     35  C   UNL A   1      39.381  28.948  29.839  1.00  0.00     0.031 A 
ATOM     36  C   UNL A   1      40.076  29.601  31.003  1.00  0.00     0.074 A 
ATOM     37  C   UNL A   1      39.944  27.889  29.223  1.00  0.00     0.049 A 
ATOM     38  N   UNL A   1      41.227  29.307  31.550  1.00  0.00    -0.248 NA
ATOM     39  C   UNL A   1      39.401  30.759  31.608  1.00  0.00     0.031 C 
ATOM     40  C   UNL A   1      39.390  27.198  28.055  1.00  0.00     0.029 A 
ATOM     41  N   UNL A   1      41.113  27.216  29.478  1.00  0.00    -0.354 N 
ATOM     42  C   UNL A   1      41.423  30.251  32.552  1.00  0.00     0.074 A 
ATOM     43  C   UNL A   1      40.299  31.162  32.494  1.00  0.00     0.031 C 
ATOM     44  C   UNL A   1      40.206  26.189  27.712  1.00  0.00     0.029 A 
ATOM     45  C   UNL A   1      41.368  26.192  28.594  1.00  0.00     0.049 A 
ATOM     46  H   UNL A   1      41.713  27.443  30.226  1.00  0.00     0.167 HD
ATOM     47  C   UNL A   1      42.438  30.338  33.449  1.00  0.00     0.034 A 
ATOM     48  C   UNL A   1      42.427  25.364  28.486  1.00  0.00     0.034 A 
ATOM     49  C   UNL A   1      43.546  29.415  33.494  1.00  0.00     0.049 A 
ATOM     50  C   UNL A   1      43.557  25.497  29.475  1.00  0.00     0.074 A 
ATOM     51  C   UNL A   1      44.586  29.363  34.407  1.00  0.00     0.029 A 
ATOM     52  N   UNL A   1      43.773  28.391  32.581  1.00  0.00    -0.354 N 
ATOM     53  N   UNL A   1      43.693  26.352  30.463  1.00  0.00    -0.248 NA
ATOM     54  C   UNL A   1      44.670  24.550  29.340  1.00  0.00     0.031 C 
ATOM     55  C   UNL A   1      45.483  28.373  33.996  1.00  0.00     0.029 A 
ATOM     56  C   UNL A   1      44.959  27.738  32.880  1.00  0.00     0.049 A 
ATOM     57  H   UNL A   1      43.177  28.165  31.831  1.00  0.00     0.167 HD
ATOM     58  C   UNL A   1      44.897  26.027  31.082  1.00  0.00     0.074 A 
ATOM     59  C   UNL A   1      45.436  24.888  30.367  1.00  0.00     0.031 C 
ATOM     60  C   UNL A   1      45.500  26.616  32.147  1.00  0.00     0.034 A 
BRANCH  47  61
ATOM     61  C   UNL A   1      42.412  31.493  34.424  1.00  0.00     0.023 A 
ATOM     62  C   UNL A   1      41.600  31.479  35.572  1.00  0.00     0.031 A 
ATOM     63  C   UNL A   1      43.193  32.639  34.189  1.00  0.00     0.131 A 
ATOM     64  C   UNL A   1      41.523  32.615  36.392  1.00  0.00     0.055 A 
ATOM     65  C   UNL A   1      43.181  33.732  35.060  1.00  0.00     0.041 A 
ATOM     66  F   UNL A   1      43.972  32.724  33.100  1.00  0.00    -0.206 F 
ATOM     67  C   UNL A   1      42.329  33.731  36.159  1.00  0.00     0.022 A 
BRANCH  64  68
ATOM     68  S   UNL A   1      40.238  32.675  37.671  1.00  0.00     0.124 S 
ATOM     69  O   UNL A   1      39.321  31.630  37.216  1.00  0.00    -0.237 OA
ATOM     70  O   UNL A   1      40.988  32.381  38.886  1.00  0.00    -0.237 OA
ATOM     71  O   UNL A   1      39.717  34.036  37.571  1.00  0.00    -0.744 OA
ENDBRANCH  64  68
ENDBRANCH  47  61
BRANCH  48  72
ATOM     72  C   UNL A   1      42.484  24.359  27.385  1.00  0.00     0.023 A 
ATOM     73  C   UNL A   1      41.879  23.100  27.515  1.00  0.00     0.031 A 
ATOM     74  C   UNL A   1      43.176  24.637  26.191  1.00  0.00     0.131 A 
ATOM     75  C   UNL A   1      42.008  22.152  26.487  1.00  0.00     0.055 A 
ATOM     76  C   UNL A   1      43.254  23.712  25.149  1.00  0.00     0.041 A 
ATOM     77  F   UNL A   1      43.772  25.826  26.014  1.00  0.00    -0.206 F 
ATOM     78  C   UNL A   1      42.676  22.456  25.299  1.00  0.00     0.022 A 
BRANCH  75  79
ATOM     79  S   UNL A   1      41.356  20.481  26.757  1.00  0.00     0.124 S 
ATOM     80  O   UNL A   1      42.140  20.038  27.903  1.00  0.00    -0.237 OA
ATOM     81  O   UNL A   1      39.943  20.744  27.009  1.00  0.00    -0.237 OA
ATOM     82  O   UNL A   1      41.645  19.796  25.498  1.00  0.00    -0.744 OA
ENDBRANCH  75  79
ENDBRANCH  48  72
BRANCH  60  83
ATOM     83  C   UNL A   1      46.799  26.010  32.625  1.00  0.00     0.023 A 
ATOM     84  C   UNL A   1      46.830  24.968  33.569  1.00  0.00     0.031 A 
ATOM     85  C   UNL A   1      48.026  26.486  32.129  1.00  0.00     0.131 A 
ATOM     86  C   UNL A   1      48.060  24.475  34.026  1.00  0.00     0.055 A 
ATOM     87  C   UNL A   1      49.246  25.945  32.537  1.00  0.00     0.041 A 
ATOM     88  F   UNL A   1      48.060  27.484  31.230  1.00  0.00    -0.206 F 
ATOM     89  C   UNL A   1      49.268  24.942  33.501  1.00  0.00     0.022 A 
BRANCH  86  90
ATOM     90  S   UNL A   1      48.068  23.280  35.391  1.00  0.00     0.124 S 
ATOM     91  O   UNL A   1      48.121  22.007  34.677  1.00  0.00    -0.237 OA
ATOM     92  O   UNL A   1      49.272  23.650  36.126  1.00  0.00    -0.237 OA
ATOM     93  O   UNL A   1      46.810  23.547  36.087  1.00  0.00    -0.744 OA
ENDBRANCH  86  90
ENDBRANCH  60  83
ENDBRANCH  34  35
ENDBRANCH  26  29
ENDBRANCH  24  25
ENDBRANCH   1  24
TORSDOF 16
ENDMDL
