MODEL 1
REMARK VINA RESULT:     -11.8      0.000      0.000
REMARK SMILES CC1CC[NH+](CC2(CC(=O)NCCCNC(=O)c3ccc(-c4c5nc(c(-c6cc(S(=O)(=O)[O-])ccc6F)c6ccc([nH]6)c(-c6cc(S(=O)(=O)[O-])ccc6F)c6nc(c(-c7cc(S(=O)(=O)[O-])ccc7F)c7ccc4[nH]7)C=C6)C=C5)cc3)CCCCC2)CC1
REMARK SMILES IDX 13 1 12 2 11 3 9 4 10 5 8 7 7 8 81 9 85 10 82 11 84 12 83 13
REMARK SMILES IDX 6 14 5 15 1 16 2 17 3 18 87 19 4 20 86 21 14 23 15 24 16 25
REMARK SMILES IDX 17 27 18 28 19 29 80 30 20 31 79 32 21 33 22 34 23 35 73 36
REMARK SMILES IDX 24 37 78 38 72 39 74 40 25 41 77 42 71 43 70 44 26 46 58 47
REMARK SMILES IDX 38 48 57 49 39 50 42 51 56 52 75 53 40 54 41 55 55 57 76 58
REMARK SMILES IDX 43 59 27 60 28 61 36 62 29 63 35 64 37 65 34 66 30 67 31 68
REMARK SMILES IDX 32 69 33 70 59 71 60 72 68 73 61 74 67 75 69 76 66 77 62 78
REMARK SMILES IDX 63 79 64 80 65 81 44 82 45 83 53 84 46 85 52 86 54 87 51 88
REMARK SMILES IDX 47 89 48 90 49 91 50 92
REMARK H PARENT 11 6 5 22 15 26 74 45 42 56
REMARK Flexibility Score: inf
ROOT
ATOM      1  C   UNL A   1      32.383  29.957  25.352  1.00  0.00     0.042 C 
ENDROOT
BRANCH   1   2
ATOM      2  C   UNL A   1      33.660  29.121  25.248  1.00  0.00     0.117 C 
BRANCH   2   3
ATOM      3  N   UNL A   1      34.071  28.964  23.861  1.00  0.00    -0.356 N 
ATOM      4  C   UNL A   1      33.601  28.177  22.853  1.00  0.00     0.220 C 
ATOM      5  O   UNL A   1      34.226  28.194  21.789  1.00  0.00    -0.275 OA
ATOM      6  H   UNL A   1      34.831  29.533  23.602  1.00  0.00     0.163 HD
BRANCH   4   7
ATOM      7  C   UNL A   1      32.326  27.346  22.968  1.00  0.00     0.112 C 
BRANCH   7   8
ATOM      8  C   UNL A   1      32.417  25.911  23.579  1.00  0.00     0.028 C 
ATOM      9  C   UNL A   1      31.137  25.101  23.185  1.00  0.00     0.013 C 
ATOM     10  C   UNL A   1      32.447  25.978  25.117  1.00  0.00     0.013 C 
ATOM     11  C   UNL A   1      29.854  25.496  23.926  1.00  0.00     0.001 C 
ATOM     12  C   UNL A   1      31.183  26.478  25.795  1.00  0.00     0.001 C 
ATOM     13  C   UNL A   1      30.043  25.543  25.439  1.00  0.00     0.000 C 
BRANCH   8  14
ATOM     14  C   UNL A   1      33.699  25.151  23.043  1.00  0.00     0.269 C 
BRANCH  14  15
ATOM     15  N   UNL A   1      34.067  24.056  23.928  1.00  0.00    -0.334 N 
ATOM     16  C   UNL A   1      33.205  22.661  27.453  1.00  0.00     0.008 C 
ATOM     17  C   UNL A   1      34.097  22.433  26.219  1.00  0.00    -0.003 C 
ATOM     18  C   UNL A   1      35.074  23.622  26.066  1.00  0.00     0.065 C 
ATOM     19  C   UNL A   1      33.198  22.103  25.001  1.00  0.00     0.065 C 
ATOM     20  C   UNL A   1      35.332  24.088  24.632  1.00  0.00     0.262 C 
ATOM     21  C   UNL A   1      33.630  22.707  23.663  1.00  0.00     0.262 C 
ATOM     22  H   UNL A   1      33.376  24.406  24.592  1.00  0.00     0.348 HD
ENDBRANCH  14  15
ENDBRANCH   8  14
ENDBRANCH   7   8
ENDBRANCH   4   7
ENDBRANCH   2   3
ENDBRANCH   1   2
BRANCH   1  23
ATOM     23  C   UNL A   1      32.014  30.448  26.737  1.00  0.00     0.118 C 
BRANCH  23  24
ATOM     24  N   UNL A   1      32.075  31.895  26.843  1.00  0.00    -0.352 N 
ATOM     25  C   UNL A   1      32.980  32.704  27.490  1.00  0.00     0.251 C 
ATOM     26  H   UNL A   1      31.353  32.374  26.376  1.00  0.00     0.163 HD
ATOM     27  O   UNL A   1      32.699  33.897  27.615  1.00  0.00    -0.269 OA
BRANCH  25  28
ATOM     28  C   UNL A   1      34.261  32.185  28.047  1.00  0.00     0.039 A 
ATOM     29  C   UNL A   1      34.333  30.832  28.405  1.00  0.00     0.014 A 
ATOM     30  C   UNL A   1      35.365  33.003  28.295  1.00  0.00     0.014 A 
ATOM     31  C   UNL A   1      35.494  30.314  28.989  1.00  0.00     0.010 A 
ATOM     32  C   UNL A   1      36.561  32.463  28.766  1.00  0.00     0.010 A 
ATOM     33  C   UNL A   1      36.627  31.123  29.167  1.00  0.00    -0.014 A 
BRANCH  33  34
ATOM     34  C   UNL A   1      37.844  30.612  29.855  1.00  0.00     0.031 A 
ATOM     35  C   UNL A   1      38.125  31.024  31.282  1.00  0.00     0.074 A 
ATOM     36  C   UNL A   1      38.706  29.810  29.199  1.00  0.00     0.049 A 
ATOM     37  N   UNL A   1      39.143  30.725  32.050  1.00  0.00    -0.248 NA
ATOM     38  C   UNL A   1      37.149  31.923  31.919  1.00  0.00     0.031 C 
ATOM     39  C   UNL A   1      38.572  29.387  27.804  1.00  0.00     0.029 A 
ATOM     40  N   UNL A   1      39.867  29.206  29.616  1.00  0.00    -0.354 N 
ATOM     41  C   UNL A   1      38.942  31.420  33.240  1.00  0.00     0.074 A 
ATOM     42  C   UNL A   1      37.740  32.205  33.070  1.00  0.00     0.031 C 
ATOM     43  C   UNL A   1      39.592  28.571  27.490  1.00  0.00     0.029 A 
ATOM     44  C   UNL A   1      40.473  28.440  28.646  1.00  0.00     0.049 A 
ATOM     45  H   UNL A   1      40.232  29.311  30.524  1.00  0.00     0.167 HD
ATOM     46  C   UNL A   1      39.676  31.386  34.380  1.00  0.00     0.034 A 
ATOM     47  C   UNL A   1      41.610  27.716  28.685  1.00  0.00     0.034 A 
ATOM     48  C   UNL A   1      40.848  30.562  34.547  1.00  0.00     0.049 A 
ATOM     49  C   UNL A   1      42.384  27.658  29.980  1.00  0.00     0.074 A 
ATOM     50  C   UNL A   1      41.631  30.395  35.676  1.00  0.00     0.029 A 
ATOM     51  N   UNL A   1      41.404  29.763  33.556  1.00  0.00    -0.354 N 
ATOM     52  N   UNL A   1      42.142  28.271  31.117  1.00  0.00    -0.248 NA
ATOM     53  C   UNL A   1      43.565  26.787  30.007  1.00  0.00     0.031 C 
ATOM     54  C   UNL A   1      42.694  29.546  35.350  1.00  0.00     0.029 A 
ATOM     55  C   UNL A   1      42.530  29.117  34.042  1.00  0.00     0.049 A 
ATOM     56  H   UNL A   1      41.050  29.669  32.642  1.00  0.00     0.167 HD
ATOM     57  C   UNL A   1      43.122  27.830  32.002  1.00  0.00     0.074 A 
ATOM     58  C   UNL A   1      43.938  26.881  31.273  1.00  0.00     0.031 C 
ATOM     59  C   UNL A   1      43.331  28.173  33.298  1.00  0.00     0.034 A 
BRANCH  46  60
ATOM     60  C   UNL A   1      39.245  32.277  35.523  1.00  0.00     0.023 A 
ATOM     61  C   UNL A   1      39.661  33.617  35.624  1.00  0.00     0.031 A 
ATOM     62  C   UNL A   1      38.409  31.772  36.536  1.00  0.00     0.131 A 
ATOM     63  C   UNL A   1      39.298  34.382  36.743  1.00  0.00     0.055 A 
ATOM     64  C   UNL A   1      37.986  32.563  37.606  1.00  0.00     0.041 A 
ATOM     65  F   UNL A   1      37.996  30.495  36.508  1.00  0.00    -0.206 F 
ATOM     66  C   UNL A   1      38.441  33.873  37.721  1.00  0.00     0.022 A 
BRANCH  63  67
ATOM     67  S   UNL A   1      40.063  36.011  36.972  1.00  0.00     0.124 S 
ATOM     68  O   UNL A   1      39.826  36.632  35.669  1.00  0.00    -0.237 OA
ATOM     69  O   UNL A   1      39.296  36.564  38.088  1.00  0.00    -0.237 OA
ATOM     70  O   UNL A   1      41.455  35.702  37.265  1.00  0.00    -0.744 OA
ENDBRANCH  63  67
ENDBRANCH  46  60
BRANCH  47  71
ATOM     71  C   UNL A   1      42.092  26.985  27.475  1.00  0.00     0.023 A 
ATOM     72  C   UNL A   1      41.870  25.607  27.318  1.00  0.00     0.031 A 
ATOM     73  C   UNL A   1      42.838  27.646  26.482  1.00  0.00     0.131 A 
ATOM     74  C   UNL A   1      42.438  24.923  26.232  1.00  0.00     0.055 A 
ATOM     75  C   UNL A   1      43.350  26.973  25.371  1.00  0.00     0.041 A 
ATOM     76  F   UNL A   1      43.076  28.964  26.575  1.00  0.00    -0.206 F 
ATOM     77  C   UNL A   1      43.166  25.599  25.251  1.00  0.00     0.022 A 
BRANCH  74  78
ATOM     78  S   UNL A   1      42.308  23.114  26.179  1.00  0.00     0.124 S 
ATOM     79  O   UNL A   1      42.817  22.817  24.848  1.00  0.00    -0.237 OA
ATOM     80  O   UNL A   1      43.160  22.719  27.298  1.00  0.00    -0.237 OA
ATOM     81  O   UNL A   1      40.879  22.871  26.373  1.00  0.00    -0.744 OA
ENDBRANCH  74  78
ENDBRANCH  47  71
BRANCH  59  82
ATOM     82  C   UNL A   1      44.455  27.468  34.020  1.00  0.00     0.023 A 
ATOM     83  C   UNL A   1      44.261  26.234  34.666  1.00  0.00     0.031 A 
ATOM     84  C   UNL A   1      45.728  28.060  34.092  1.00  0.00     0.131 A 
ATOM     85  C   UNL A   1      45.300  25.672  35.421  1.00  0.00     0.055 A 
ATOM     86  C   UNL A   1      46.780  27.458  34.784  1.00  0.00     0.041 A 
ATOM     87  F   UNL A   1      45.970  29.237  33.494  1.00  0.00    -0.206 F 
ATOM     88  C   UNL A   1      46.563  26.268  35.471  1.00  0.00     0.022 A 
BRANCH  85  89
ATOM     89  S   UNL A   1      44.939  24.220  36.446  1.00  0.00     0.124 S 
ATOM     90  O   UNL A   1      44.444  24.831  37.676  1.00  0.00    -0.237 OA
ATOM     91  O   UNL A   1      43.948  23.511  35.642  1.00  0.00    -0.237 OA
ATOM     92  O   UNL A   1      46.234  23.552  36.562  1.00  0.00    -0.744 OA
ENDBRANCH  85  89
ENDBRANCH  59  82
ENDBRANCH  33  34
ENDBRANCH  25  28
ENDBRANCH  23  24
ENDBRANCH   1  23
TORSDOF 16
ENDMDL
MODEL 2
REMARK VINA RESULT:     -11.5      2.270      7.896
REMARK SMILES CC1CC[NH+](CC2(CC(=O)NCCCNC(=O)c3ccc(-c4c5nc(c(-c6cc(S(=O)(=O)[O-])ccc6F)c6ccc([nH]6)c(-c6cc(S(=O)(=O)[O-])ccc6F)c6nc(c(-c7cc(S(=O)(=O)[O-])ccc7F)c7ccc4[nH]7)C=C6)C=C5)cc3)CCCCC2)CC1
REMARK SMILES IDX 13 1 12 2 11 3 9 4 10 5 8 7 7 8 81 9 85 10 82 11 84 12 83 13
REMARK SMILES IDX 6 14 5 15 1 16 2 17 3 18 87 19 4 20 86 21 14 23 15 24 16 25
REMARK SMILES IDX 17 27 18 28 19 29 80 30 20 31 79 32 21 33 22 34 23 35 73 36
REMARK SMILES IDX 24 37 78 38 72 39 74 40 25 41 77 42 71 43 70 44 26 46 58 47
REMARK SMILES IDX 38 48 57 49 39 50 42 51 56 52 75 53 40 54 41 55 55 57 76 58
REMARK SMILES IDX 43 59 27 60 28 61 36 62 29 63 35 64 37 65 34 66 30 67 31 68
REMARK SMILES IDX 32 69 33 70 59 71 60 72 68 73 61 74 67 75 69 76 66 77 62 78
REMARK SMILES IDX 63 79 64 80 65 81 44 82 45 83 53 84 46 85 52 86 54 87 51 88
REMARK SMILES IDX 47 89 48 90 49 91 50 92
REMARK H PARENT 11 6 5 22 15 26 74 45 42 56
REMARK Flexibility Score: inf
ROOT
ATOM      1  C   UNL A   1      31.475  31.598  26.310  1.00  0.00     0.042 C 
ENDROOT
BRANCH   1   2
ATOM      2  C   UNL A   1      31.532  30.136  25.863  1.00  0.00     0.117 C 
BRANCH   2   3
ATOM      3  N   UNL A   1      32.498  29.955  24.789  1.00  0.00    -0.356 N 
ATOM      4  C   UNL A   1      33.022  28.838  24.212  1.00  0.00     0.220 C 
ATOM      5  O   UNL A   1      33.909  29.004  23.369  1.00  0.00    -0.275 OA
ATOM      6  H   UNL A   1      32.834  30.797  24.407  1.00  0.00     0.163 HD
BRANCH   4   7
ATOM      7  C   UNL A   1      32.523  27.427  24.517  1.00  0.00     0.112 C 
BRANCH   7   8
ATOM      8  C   UNL A   1      31.834  26.612  23.376  1.00  0.00     0.028 C 
ATOM      9  C   UNL A   1      30.923  27.568  22.537  1.00  0.00     0.013 C 
ATOM     10  C   UNL A   1      30.917  25.525  23.966  1.00  0.00     0.013 C 
ATOM     11  C   UNL A   1      29.619  28.000  23.218  1.00  0.00     0.001 C 
ATOM     12  C   UNL A   1      29.693  26.012  24.722  1.00  0.00     0.001 C 
ATOM     13  C   UNL A   1      28.829  26.819  23.773  1.00  0.00     0.000 C 
BRANCH   8  14
ATOM     14  C   UNL A   1      32.915  25.953  22.423  1.00  0.00     0.269 C 
BRANCH  14  15
ATOM     15  N   UNL A   1      33.276  24.621  22.884  1.00  0.00    -0.334 N 
ATOM     16  C   UNL A   1      31.945  21.819  25.227  1.00  0.00     0.008 C 
ATOM     17  C   UNL A   1      33.108  22.198  24.292  1.00  0.00    -0.003 C 
ATOM     18  C   UNL A   1      33.861  23.415  24.878  1.00  0.00     0.065 C 
ATOM     19  C   UNL A   1      32.568  22.337  22.847  1.00  0.00     0.065 C 
ATOM     20  C   UNL A   1      34.333  24.455  23.861  1.00  0.00     0.262 C 
ATOM     21  C   UNL A   1      33.161  23.476  22.014  1.00  0.00     0.262 C 
ATOM     22  H   UNL A   1      32.407  24.607  23.417  1.00  0.00     0.348 HD
ENDBRANCH  14  15
ENDBRANCH   8  14
ENDBRANCH   7   8
ENDBRANCH   4   7
ENDBRANCH   2   3
ENDBRANCH   1   2
BRANCH   1  23
ATOM     23  C   UNL A   1      32.646  32.093  27.133  1.00  0.00     0.118 C 
BRANCH  23  24
ATOM     24  N   UNL A   1      32.560  33.515  27.414  1.00  0.00    -0.352 N 
ATOM     25  C   UNL A   1      33.188  34.273  28.375  1.00  0.00     0.251 C 
ATOM     26  H   UNL A   1      31.955  34.017  26.822  1.00  0.00     0.163 HD
ATOM     27  O   UNL A   1      32.789  35.426  28.550  1.00  0.00    -0.269 OA
BRANCH  25  28
ATOM     28  C   UNL A   1      34.306  33.745  29.206  1.00  0.00     0.039 A 
ATOM     29  C   UNL A   1      35.605  34.202  28.945  1.00  0.00     0.014 A 
ATOM     30  C   UNL A   1      34.125  32.763  30.182  1.00  0.00     0.014 A 
ATOM     31  C   UNL A   1      36.694  33.688  29.659  1.00  0.00     0.010 A 
ATOM     32  C   UNL A   1      35.192  32.339  30.974  1.00  0.00     0.010 A 
ATOM     33  C   UNL A   1      36.497  32.757  30.689  1.00  0.00    -0.014 A 
BRANCH  33  34
ATOM     34  C   UNL A   1      37.647  32.142  31.408  1.00  0.00     0.031 A 
ATOM     35  C   UNL A   1      38.439  31.038  30.745  1.00  0.00     0.074 A 
ATOM     36  C   UNL A   1      37.962  32.548  32.654  1.00  0.00     0.049 A 
ATOM     37  N   UNL A   1      39.449  30.345  31.209  1.00  0.00    -0.248 NA
ATOM     38  C   UNL A   1      38.016  30.634  29.394  1.00  0.00     0.031 C 
ATOM     39  C   UNL A   1      37.239  33.565  33.419  1.00  0.00     0.029 A 
ATOM     40  N   UNL A   1      38.970  32.154  33.500  1.00  0.00    -0.354 N 
ATOM     41  C   UNL A   1      39.756  29.411  30.223  1.00  0.00     0.074 A 
ATOM     42  C   UNL A   1      38.788  29.584  29.164  1.00  0.00     0.031 C 
ATOM     43  C   UNL A   1      37.844  33.738  34.607  1.00  0.00     0.029 A 
ATOM     44  C   UNL A   1      38.973  32.819  34.706  1.00  0.00     0.049 A 
ATOM     45  H   UNL A   1      39.629  31.463  33.265  1.00  0.00     0.167 HD
ATOM     46  C   UNL A   1      40.770  28.510  30.190  1.00  0.00     0.034 A 
ATOM     47  C   UNL A   1      39.793  32.699  35.770  1.00  0.00     0.034 A 
ATOM     48  C   UNL A   1      41.755  28.382  31.236  1.00  0.00     0.049 A 
ATOM     49  C   UNL A   1      40.941  31.722  35.689  1.00  0.00     0.074 A 
ATOM     50  C   UNL A   1      42.863  27.554  31.280  1.00  0.00     0.029 A 
ATOM     51  N   UNL A   1      41.751  29.106  32.421  1.00  0.00    -0.354 N 
ATOM     52  N   UNL A   1      41.255  30.892  34.720  1.00  0.00    -0.248 NA
ATOM     53  C   UNL A   1      41.862  31.687  36.831  1.00  0.00     0.031 C 
ATOM     54  C   UNL A   1      43.492  27.732  32.517  1.00  0.00     0.029 A 
ATOM     55  C   UNL A   1      42.826  28.729  33.211  1.00  0.00     0.049 A 
ATOM     56  H   UNL A   1      41.083  29.787  32.664  1.00  0.00     0.167 HD
ATOM     57  C   UNL A   1      42.430  30.265  35.123  1.00  0.00     0.074 A 
ATOM     58  C   UNL A   1      42.780  30.832  36.409  1.00  0.00     0.031 C 
ATOM     59  C   UNL A   1      43.158  29.308  34.492  1.00  0.00     0.034 A 
BRANCH  46  60
ATOM     60  C   UNL A   1      40.852  27.584  28.998  1.00  0.00     0.023 A 
ATOM     61  C   UNL A   1      41.788  27.775  27.965  1.00  0.00     0.031 A 
ATOM     62  C   UNL A   1      39.968  26.494  28.886  1.00  0.00     0.131 A 
ATOM     63  C   UNL A   1      41.777  26.935  26.842  1.00  0.00     0.055 A 
ATOM     64  C   UNL A   1      40.014  25.614  27.803  1.00  0.00     0.041 A 
ATOM     65  F   UNL A   1      39.037  26.271  29.827  1.00  0.00    -0.206 F 
ATOM     66  C   UNL A   1      40.914  25.840  26.765  1.00  0.00     0.022 A 
BRANCH  63  67
ATOM     67  S   UNL A   1      42.815  27.366  25.419  1.00  0.00     0.124 S 
ATOM     68  O   UNL A   1      44.075  27.722  26.071  1.00  0.00    -0.237 OA
ATOM     69  O   UNL A   1      42.828  26.122  24.650  1.00  0.00    -0.237 OA
ATOM     70  O   UNL A   1      42.107  28.476  24.796  1.00  0.00    -0.744 OA
ENDBRANCH  63  67
ENDBRANCH  46  60
BRANCH  47  71
ATOM     71  C   UNL A   1      39.572  33.516  37.000  1.00  0.00     0.023 A 
ATOM     72  C   UNL A   1      38.999  32.956  38.155  1.00  0.00     0.031 A 
ATOM     73  C   UNL A   1      39.876  34.889  37.019  1.00  0.00     0.131 A 
ATOM     74  C   UNL A   1      38.691  33.775  39.253  1.00  0.00     0.055 A 
ATOM     75  C   UNL A   1      39.624  35.688  38.136  1.00  0.00     0.041 A 
ATOM     76  F   UNL A   1      40.431  35.477  35.947  1.00  0.00    -0.206 F 
ATOM     77  C   UNL A   1      39.011  35.134  39.256  1.00  0.00     0.022 A 
BRANCH  74  78
ATOM     78  S   UNL A   1      37.761  33.059  40.637  1.00  0.00     0.124 S 
ATOM     79  O   UNL A   1      38.452  31.793  40.837  1.00  0.00    -0.237 OA
ATOM     80  O   UNL A   1      37.949  34.066  41.678  1.00  0.00    -0.237 OA
ATOM     81  O   UNL A   1      36.400  32.955  40.115  1.00  0.00    -0.744 OA
ENDBRANCH  74  78
ENDBRANCH  47  71
BRANCH  59  82
ATOM     82  C   UNL A   1      44.435  28.865  35.165  1.00  0.00     0.023 A 
ATOM     83  C   UNL A   1      44.439  27.897  36.185  1.00  0.00     0.031 A 
ATOM     84  C   UNL A   1      45.662  29.449  34.802  1.00  0.00     0.131 A 
ATOM     85  C   UNL A   1      45.630  27.600  36.861  1.00  0.00     0.055 A 
ATOM     86  C   UNL A   1      46.858  29.095  35.430  1.00  0.00     0.041 A 
ATOM     87  F   UNL A   1      45.719  30.377  33.835  1.00  0.00    -0.206 F 
ATOM     88  C   UNL A   1      46.843  28.181  36.479  1.00  0.00     0.022 A 
BRANCH  85  89
ATOM     89  S   UNL A   1      45.552  26.545  38.333  1.00  0.00     0.124 S 
ATOM     90  O   UNL A   1      45.895  25.235  37.788  1.00  0.00    -0.237 OA
ATOM     91  O   UNL A   1      46.551  27.154  39.205  1.00  0.00    -0.237 OA
ATOM     92  O   UNL A   1      44.168  26.686  38.783  1.00  0.00    -0.744 OA
ENDBRANCH  85  89
ENDBRANCH  59  82
ENDBRANCH  33  34
ENDBRANCH  25  28
ENDBRANCH  23  24
ENDBRANCH   1  23
TORSDOF 16
ENDMDL
MODEL 3
REMARK VINA RESULT:     -11.5      2.402      3.396
REMARK SMILES CC1CC[NH+](CC2(CC(=O)NCCCNC(=O)c3ccc(-c4c5nc(c(-c6cc(S(=O)(=O)[O-])ccc6F)c6ccc([nH]6)c(-c6cc(S(=O)(=O)[O-])ccc6F)c6nc(c(-c7cc(S(=O)(=O)[O-])ccc7F)c7ccc4[nH]7)C=C6)C=C5)cc3)CCCCC2)CC1
REMARK SMILES IDX 13 1 12 2 11 3 9 4 10 5 8 7 7 8 81 9 85 10 82 11 84 12 83 13
REMARK SMILES IDX 6 14 5 15 1 16 2 17 3 18 87 19 4 20 86 21 14 23 15 24 16 25
REMARK SMILES IDX 17 27 18 28 19 29 80 30 20 31 79 32 21 33 22 34 23 35 73 36
REMARK SMILES IDX 24 37 78 38 72 39 74 40 25 41 77 42 71 43 70 44 26 46 58 47
REMARK SMILES IDX 38 48 57 49 39 50 42 51 56 52 75 53 40 54 41 55 55 57 76 58
REMARK SMILES IDX 43 59 27 60 28 61 36 62 29 63 35 64 37 65 34 66 30 67 31 68
REMARK SMILES IDX 32 69 33 70 59 71 60 72 68 73 61 74 67 75 69 76 66 77 62 78
REMARK SMILES IDX 63 79 64 80 65 81 44 82 45 83 53 84 46 85 52 86 54 87 51 88
REMARK SMILES IDX 47 89 48 90 49 91 50 92
REMARK H PARENT 11 6 5 22 15 26 74 45 42 56
REMARK Flexibility Score: inf
ROOT
ATOM      1  C   UNL A   1      32.353  28.375  26.798  1.00  0.00     0.042 C 
ENDROOT
BRANCH   1   2
ATOM      2  C   UNL A   1      31.493  27.464  25.918  1.00  0.00     0.117 C 
BRANCH   2   3
ATOM      3  N   UNL A   1      31.084  26.271  26.643  1.00  0.00    -0.356 N 
ATOM      4  C   UNL A   1      31.446  24.962  26.526  1.00  0.00     0.220 C 
ATOM      5  O   UNL A   1      30.846  24.148  27.234  1.00  0.00    -0.275 OA
ATOM      6  H   UNL A   1      30.422  26.440  27.352  1.00  0.00     0.163 HD
BRANCH   4   7
ATOM      7  C   UNL A   1      32.580  24.487  25.621  1.00  0.00     0.112 C 
BRANCH   7   8
ATOM      8  C   UNL A   1      32.243  23.525  24.438  1.00  0.00     0.028 C 
ATOM      9  C   UNL A   1      33.447  23.498  23.438  1.00  0.00     0.013 C 
ATOM     10  C   UNL A   1      31.022  24.038  23.653  1.00  0.00     0.013 C 
ATOM     11  C   UNL A   1      33.608  24.751  22.569  1.00  0.00     0.001 C 
ATOM     12  C   UNL A   1      31.206  25.341  22.894  1.00  0.00     0.001 C 
ATOM     13  C   UNL A   1      32.312  25.152  21.873  1.00  0.00     0.000 C 
BRANCH   8  14
ATOM     14  C   UNL A   1      31.972  22.056  24.966  1.00  0.00     0.269 C 
BRANCH  14  15
ATOM     15  N   UNL A   1      33.208  21.417  25.390  1.00  0.00    -0.334 N 
ATOM     16  C   UNL A   1      37.021  21.511  24.633  1.00  0.00     0.008 C 
ATOM     17  C   UNL A   1      35.949  20.811  25.489  1.00  0.00    -0.003 C 
ATOM     18  C   UNL A   1      34.988  20.028  24.565  1.00  0.00     0.065 C 
ATOM     19  C   UNL A   1      35.310  21.850  26.445  1.00  0.00     0.065 C 
ATOM     20  C   UNL A   1      33.510  20.067  24.959  1.00  0.00     0.262 C 
ATOM     21  C   UNL A   1      33.802  21.721  26.669  1.00  0.00     0.262 C 
ATOM     22  H   UNL A   1      33.707  22.027  24.743  1.00  0.00     0.348 HD
ENDBRANCH  14  15
ENDBRANCH   8  14
ENDBRANCH   7   8
ENDBRANCH   4   7
ENDBRANCH   2   3
ENDBRANCH   1   2
BRANCH   1  23
ATOM     23  C   UNL A   1      33.442  29.156  26.091  1.00  0.00     0.118 C 
BRANCH  23  24
ATOM     24  N   UNL A   1      33.523  30.529  26.555  1.00  0.00    -0.352 N 
ATOM     25  C   UNL A   1      34.404  31.124  27.429  1.00  0.00     0.251 C 
ATOM     26  H   UNL A   1      32.839  31.131  26.184  1.00  0.00     0.163 HD
ATOM     27  O   UNL A   1      34.138  32.258  27.830  1.00  0.00    -0.269 OA
BRANCH  25  28
ATOM     28  C   UNL A   1      35.639  30.442  27.907  1.00  0.00     0.039 A 
ATOM     29  C   UNL A   1      35.588  29.744  29.121  1.00  0.00     0.014 A 
ATOM     30  C   UNL A   1      36.860  30.529  27.235  1.00  0.00     0.014 A 
ATOM     31  C   UNL A   1      36.738  29.139  29.640  1.00  0.00     0.010 A 
ATOM     32  C   UNL A   1      37.976  29.827  27.692  1.00  0.00     0.010 A 
ATOM     33  C   UNL A   1      37.945  29.166  28.925  1.00  0.00    -0.014 A 
BRANCH  33  34
ATOM     34  C   UNL A   1      39.197  28.596  29.494  1.00  0.00     0.031 A 
ATOM     35  C   UNL A   1      39.769  29.174  30.768  1.00  0.00     0.074 A 
ATOM     36  C   UNL A   1      39.831  27.589  28.861  1.00  0.00     0.049 A 
ATOM     37  N   UNL A   1      40.865  28.850  31.409  1.00  0.00    -0.248 NA
ATOM     38  C   UNL A   1      39.031  30.288  31.384  1.00  0.00     0.031 C 
ATOM     39  C   UNL A   1      39.407  26.985  27.597  1.00  0.00     0.029 A 
ATOM     40  N   UNL A   1      40.970  26.896  29.191  1.00  0.00    -0.354 N 
ATOM     41  C   UNL A   1      40.957  29.738  32.479  1.00  0.00     0.074 A 
ATOM     42  C   UNL A   1      39.844  30.652  32.364  1.00  0.00     0.031 C 
ATOM     43  C   UNL A   1      40.254  25.993  27.275  1.00  0.00     0.029 A 
ATOM     44  C   UNL A   1      41.303  25.913  28.285  1.00  0.00     0.049 A 
ATOM     45  H   UNL A   1      41.498  27.083  30.000  1.00  0.00     0.167 HD
ATOM     46  C   UNL A   1      41.872  29.772  33.480  1.00  0.00     0.034 A 
ATOM     47  C   UNL A   1      42.338  25.049  28.273  1.00  0.00     0.034 A 
ATOM     48  C   UNL A   1      42.951  28.823  33.604  1.00  0.00     0.049 A 
ATOM     49  C   UNL A   1      43.314  25.076  29.423  1.00  0.00     0.074 A 
ATOM     50  C   UNL A   1      43.895  28.717  34.610  1.00  0.00     0.029 A 
ATOM     51  N   UNL A   1      43.228  27.813  32.691  1.00  0.00    -0.354 N 
ATOM     52  N   UNL A   1      43.349  25.882  30.461  1.00  0.00    -0.248 NA
ATOM     53  C   UNL A   1      44.373  24.059  29.417  1.00  0.00     0.031 C 
ATOM     54  C   UNL A   1      44.779  27.686  34.275  1.00  0.00     0.029 A 
ATOM     55  C   UNL A   1      44.340  27.094  33.101  1.00  0.00     0.049 A 
ATOM     56  H   UNL A   1      42.711  27.635  31.873  1.00  0.00     0.167 HD
ATOM     57  C   UNL A   1      44.411  25.443  31.247  1.00  0.00     0.074 A 
ATOM     58  C   UNL A   1      44.972  24.288  30.575  1.00  0.00     0.031 C 
ATOM     59  C   UNL A   1      44.883  25.944  32.417  1.00  0.00     0.034 A 
BRANCH  46  60
ATOM     60  C   UNL A   1      41.754  30.876  34.505  1.00  0.00     0.023 A 
ATOM     61  C   UNL A   1      40.654  30.974  35.376  1.00  0.00     0.031 A 
ATOM     62  C   UNL A   1      42.758  31.858  34.607  1.00  0.00     0.131 A 
ATOM     63  C   UNL A   1      40.550  32.059  36.259  1.00  0.00     0.055 A 
ATOM     64  C   UNL A   1      42.688  32.891  35.542  1.00  0.00     0.041 A 
ATOM     65  F   UNL A   1      43.822  31.833  33.789  1.00  0.00    -0.206 F 
ATOM     66  C   UNL A   1      41.573  33.005  36.367  1.00  0.00     0.022 A 
BRANCH  63  67
ATOM     67  S   UNL A   1      39.003  32.295  37.176  1.00  0.00     0.124 S 
ATOM     68  O   UNL A   1      39.500  32.577  38.523  1.00  0.00    -0.237 OA
ATOM     69  O   UNL A   1      38.392  33.424  36.476  1.00  0.00    -0.237 OA
ATOM     70  O   UNL A   1      38.314  31.022  37.026  1.00  0.00    -0.744 OA
ENDBRANCH  63  67
ENDBRANCH  46  60
BRANCH  47  71
ATOM     71  C   UNL A   1      42.512  24.083  27.147  1.00  0.00     0.023 A 
ATOM     72  C   UNL A   1      41.921  22.809  27.180  1.00  0.00     0.031 A 
ATOM     73  C   UNL A   1      43.325  24.400  26.044  1.00  0.00     0.131 A 
ATOM     74  C   UNL A   1      42.201  21.878  26.167  1.00  0.00     0.055 A 
ATOM     75  C   UNL A   1      43.551  23.492  25.007  1.00  0.00     0.041 A 
ATOM     76  F   UNL A   1      43.910  25.605  25.954  1.00  0.00    -0.206 F 
ATOM     77  C   UNL A   1      43.001  22.216  25.074  1.00  0.00     0.022 A 
BRANCH  74  78
ATOM     78  S   UNL A   1      41.592  20.179  26.355  1.00  0.00     0.124 S 
ATOM     79  O   UNL A   1      41.993  19.868  27.720  1.00  0.00    -0.237 OA
ATOM     80  O   UNL A   1      40.159  20.347  26.128  1.00  0.00    -0.237 OA
ATOM     81  O   UNL A   1      42.303  19.446  25.310  1.00  0.00    -0.744 OA
ENDBRANCH  74  78
ENDBRANCH  47  71
BRANCH  59  82
ATOM     82  C   UNL A   1      46.027  25.202  33.067  1.00  0.00     0.023 A 
ATOM     83  C   UNL A   1      45.813  24.064  33.865  1.00  0.00     0.031 A 
ATOM     84  C   UNL A   1      47.346  25.664  32.912  1.00  0.00     0.131 A 
ATOM     85  C   UNL A   1      46.890  23.476  34.543  1.00  0.00     0.055 A 
ATOM     86  C   UNL A   1      48.424  25.030  33.531  1.00  0.00     0.041 A 
ATOM     87  F   UNL A   1      47.609  26.745  32.161  1.00  0.00    -0.206 F 
ATOM     88  C   UNL A   1      48.196  23.942  34.368  1.00  0.00     0.022 A 
BRANCH  85  89
ATOM     89  S   UNL A   1      46.543  22.178  35.761  1.00  0.00     0.124 S 
ATOM     90  O   UNL A   1      47.846  21.536  35.901  1.00  0.00    -0.237 OA
ATOM     91  O   UNL A   1      46.084  22.947  36.913  1.00  0.00    -0.237 OA
ATOM     92  O   UNL A   1      45.518  21.364  35.111  1.00  0.00    -0.744 OA
ENDBRANCH  85  89
ENDBRANCH  59  82
ENDBRANCH  33  34
ENDBRANCH  25  28
ENDBRANCH  23  24
ENDBRANCH   1  23
TORSDOF 16
ENDMDL
