MODEL 1
REMARK VINA RESULT:     -12.6      0.000      0.000
REMARK SMILES O=C(NCCCNC(=O)[C@@H]1CCn2c(C(=O)c3ccccc3)ccc21)c1ccc(-c2c3nc(c(-c4cc(S(=O)(=O)[O-])ccc4F)c4ccc([nH]4)c(-c4cc(S(=O)(=O)[O-])ccc4F)c4nc(c(-c5cc(S(=O)(=O)[O-])ccc5F)c5ccc2[nH]5)C=C4)C=C3)cc1
REMARK SMILES IDX 4 1 3 2 1 3 2 4 26 6 27 7 88 8 28 9 87 10 29 11 30 12 31 13
REMARK SMILES IDX 81 14 32 15 86 16 80 17 82 18 33 19 85 20 79 21 78 22 34 24
REMARK SMILES IDX 66 25 46 26 65 27 47 28 50 29 64 30 83 31 48 32 49 33 63 35
REMARK SMILES IDX 84 36 51 37 35 38 36 39 44 40 37 41 43 42 45 43 42 44 38 45
REMARK SMILES IDX 39 46 40 47 41 48 67 49 68 50 76 51 69 52 75 53 77 54 74 55
REMARK SMILES IDX 70 56 71 57 72 58 73 59 52 60 53 61 61 62 54 63 60 64 62 65
REMARK SMILES IDX 59 66 55 67 56 68 57 69 58 70 5 71 6 72 7 73 8 74 9 76 10 77
REMARK SMILES IDX 11 78 25 79 12 80 13 81 24 82 14 83 23 84 15 85 16 86 17 87
REMARK SMILES IDX 18 88 22 89 19 90 21 91 20 92
REMARK H PARENT 3 5 82 23 50 34 7 75
REMARK Flexibility Score: inf
ROOT
ATOM      1  C   UNL A   1      32.770  32.445  27.208  1.00  0.00     0.118 C 
ENDROOT
BRANCH   1   2
ATOM      2  N   UNL A   1      32.627  33.839  27.602  1.00  0.00    -0.352 N 
ATOM      3  O   UNL A   1      32.794  35.642  28.933  1.00  0.00    -0.269 OA
ATOM      4  C   UNL A   1      33.227  34.528  28.626  1.00  0.00     0.251 C 
ATOM      5  H   UNL A   1      32.006  34.369  27.051  1.00  0.00     0.163 HD
BRANCH   4   6
ATOM      6  C   UNL A   1      34.379  33.956  29.357  1.00  0.00     0.039 A 
ATOM      7  C   UNL A   1      34.197  32.984  30.344  1.00  0.00     0.014 A 
ATOM      8  C   UNL A   1      35.672  34.353  29.002  1.00  0.00     0.014 A 
ATOM      9  C   UNL A   1      35.291  32.496  31.053  1.00  0.00     0.010 A 
ATOM     10  C   UNL A   1      36.776  33.803  29.661  1.00  0.00     0.010 A 
ATOM     11  C   UNL A   1      36.594  32.884  30.706  1.00  0.00    -0.014 A 
BRANCH  11  12
ATOM     12  C   UNL A   1      37.759  32.281  31.404  1.00  0.00     0.031 A 
ATOM     13  C   UNL A   1      38.551  31.175  30.763  1.00  0.00     0.074 A 
ATOM     14  C   UNL A   1      38.095  32.731  32.629  1.00  0.00     0.049 A 
ATOM     15  N   UNL A   1      39.555  30.489  31.248  1.00  0.00    -0.248 NA
ATOM     16  C   UNL A   1      38.153  30.783  29.405  1.00  0.00     0.031 C 
ATOM     17  C   UNL A   1      37.400  33.802  33.350  1.00  0.00     0.029 A 
ATOM     18  N   UNL A   1      39.096  32.352  33.485  1.00  0.00    -0.354 N 
ATOM     19  C   UNL A   1      39.900  29.570  30.261  1.00  0.00     0.074 A 
ATOM     20  C   UNL A   1      38.968  29.766  29.169  1.00  0.00     0.031 C 
ATOM     21  C   UNL A   1      38.011  34.009  34.525  1.00  0.00     0.029 A 
ATOM     22  C   UNL A   1      39.092  33.041  34.676  1.00  0.00     0.049 A 
ATOM     23  H   UNL A   1      39.755  31.654  33.270  1.00  0.00     0.167 HD
ATOM     24  C   UNL A   1      40.903  28.656  30.269  1.00  0.00     0.034 A 
ATOM     25  C   UNL A   1      39.849  32.893  35.780  1.00  0.00     0.034 A 
ATOM     26  C   UNL A   1      41.815  28.473  31.375  1.00  0.00     0.049 A 
ATOM     27  C   UNL A   1      40.918  31.835  35.789  1.00  0.00     0.074 A 
ATOM     28  C   UNL A   1      42.881  27.597  31.479  1.00  0.00     0.029 A 
ATOM     29  N   UNL A   1      41.761  29.172  32.576  1.00  0.00    -0.354 N 
ATOM     30  N   UNL A   1      41.239  30.978  34.846  1.00  0.00    -0.248 NA
ATOM     31  C   UNL A   1      41.728  31.722  37.008  1.00  0.00     0.031 C 
ATOM     32  C   UNL A   1      43.423  27.712  32.765  1.00  0.00     0.029 A 
ATOM     33  C   UNL A   1      42.751  28.721  33.437  1.00  0.00     0.049 A 
ATOM     34  H   UNL A   1      41.113  29.882  32.786  1.00  0.00     0.167 HD
ATOM     35  C   UNL A   1      42.309  30.245  35.349  1.00  0.00     0.074 A 
ATOM     36  C   UNL A   1      42.582  30.767  36.673  1.00  0.00     0.031 C 
ATOM     37  C   UNL A   1      43.007  29.239  34.763  1.00  0.00     0.034 A 
BRANCH  24  38
ATOM     38  C   UNL A   1      41.026  27.751  29.062  1.00  0.00     0.023 A 
ATOM     39  C   UNL A   1      42.010  27.956  28.078  1.00  0.00     0.031 A 
ATOM     40  C   UNL A   1      40.119  26.694  28.870  1.00  0.00     0.131 A 
ATOM     41  C   UNL A   1      42.010  27.174  26.913  1.00  0.00     0.055 A 
ATOM     42  C   UNL A   1      40.177  25.864  27.748  1.00  0.00     0.041 A 
ATOM     43  F   UNL A   1      39.144  26.459  29.763  1.00  0.00    -0.206 F 
ATOM     44  C   UNL A   1      41.116  26.114  26.751  1.00  0.00     0.022 A 
BRANCH  41  45
ATOM     45  S   UNL A   1      43.088  27.669  25.539  1.00  0.00     0.124 S 
ATOM     46  O   UNL A   1      42.149  28.368  24.664  1.00  0.00    -0.237 OA
ATOM     47  O   UNL A   1      44.083  28.501  26.203  1.00  0.00    -0.237 OA
ATOM     48  O   UNL A   1      43.583  26.397  25.017  1.00  0.00    -0.744 OA
ENDBRANCH  41  45
ENDBRANCH  24  38
BRANCH  25  49
ATOM     49  C   UNL A   1      39.593  33.744  36.977  1.00  0.00     0.023 A 
ATOM     50  C   UNL A   1      38.945  33.230  38.109  1.00  0.00     0.031 A 
ATOM     51  C   UNL A   1      39.996  35.092  37.000  1.00  0.00     0.131 A 
ATOM     52  C   UNL A   1      38.691  34.067  39.207  1.00  0.00     0.055 A 
ATOM     53  C   UNL A   1      39.789  35.905  38.114  1.00  0.00     0.041 A 
ATOM     54  F   UNL A   1      40.627  35.631  35.944  1.00  0.00    -0.206 F 
ATOM     55  C   UNL A   1      39.123  35.396  39.223  1.00  0.00     0.022 A 
BRANCH  52  56
ATOM     56  S   UNL A   1      37.732  33.409  40.598  1.00  0.00     0.124 S 
ATOM     57  O   UNL A   1      36.480  33.038  39.946  1.00  0.00    -0.237 OA
ATOM     58  O   UNL A   1      38.572  32.305  41.051  1.00  0.00    -0.237 OA
ATOM     59  O   UNL A   1      37.645  34.541  41.518  1.00  0.00    -0.744 OA
ENDBRANCH  52  56
ENDBRANCH  25  49
BRANCH  37  60
ATOM     60  C   UNL A   1      44.174  28.674  35.536  1.00  0.00     0.023 A 
ATOM     61  C   UNL A   1      44.017  27.626  36.462  1.00  0.00     0.031 A 
ATOM     62  C   UNL A   1      45.463  29.202  35.346  1.00  0.00     0.131 A 
ATOM     63  C   UNL A   1      45.124  27.174  37.197  1.00  0.00     0.055 A 
ATOM     64  C   UNL A   1      46.569  28.707  36.037  1.00  0.00     0.041 A 
ATOM     65  F   UNL A   1      45.669  30.207  34.479  1.00  0.00    -0.206 F 
ATOM     66  C   UNL A   1      46.402  27.696  36.977  1.00  0.00     0.022 A 
BRANCH  63  67
ATOM     67  S   UNL A   1      44.860  25.950  38.510  1.00  0.00     0.124 S 
ATOM     68  O   UNL A   1      44.061  26.705  39.470  1.00  0.00    -0.237 OA
ATOM     69  O   UNL A   1      44.166  24.879  37.805  1.00  0.00    -0.237 OA
ATOM     70  O   UNL A   1      46.214  25.625  38.953  1.00  0.00    -0.744 OA
ENDBRANCH  63  67
ENDBRANCH  37  60
ENDBRANCH  11  12
ENDBRANCH   4   6
ENDBRANCH   1   2
BRANCH   1  71
ATOM     71  C   UNL A   1      31.512  31.906  26.536  1.00  0.00     0.042 C 
BRANCH  71  72
ATOM     72  C   UNL A   1      31.530  30.391  26.347  1.00  0.00     0.117 C 
BRANCH  72  73
ATOM     73  N   UNL A   1      31.425  30.033  24.941  1.00  0.00    -0.355 N 
ATOM     74  C   UNL A   1      31.791  28.912  24.264  1.00  0.00     0.229 C 
ATOM     75  H   UNL A   1      31.015  30.729  24.377  1.00  0.00     0.163 HD
ATOM     76  O   UNL A   1      31.687  28.961  23.031  1.00  0.00    -0.274 OA
BRANCH  74  77
ATOM     77  C   UNL A   1      32.133  27.582  24.928  1.00  0.00     0.127 C 
ATOM     78  C   UNL A   1      33.668  27.375  24.915  1.00  0.00     0.042 C 
ATOM     79  C   UNL A   1      31.625  26.347  24.282  1.00  0.00     0.031 A 
ATOM     80  C   UNL A   1      33.914  25.902  24.569  1.00  0.00     0.124 C 
ATOM     81  N   UNL A   1      32.630  25.442  24.075  1.00  0.00    -0.341 N 
ATOM     82  C   UNL A   1      30.458  25.787  23.841  1.00  0.00     0.025 A 
ATOM     83  C   UNL A   1      32.208  24.385  23.325  1.00  0.00     0.090 A 
ATOM     84  C   UNL A   1      30.833  24.580  23.184  1.00  0.00     0.032 A 
BRANCH  83  85
ATOM     85  C   UNL A   1      32.998  23.325  22.726  1.00  0.00     0.209 C 
ATOM     86  O   UNL A   1      33.535  23.441  21.619  1.00  0.00    -0.287 OA
BRANCH  85  87
ATOM     87  C   UNL A   1      33.219  22.044  23.439  1.00  0.00     0.024 A 
ATOM     88  C   UNL A   1      34.373  21.897  24.218  1.00  0.00     0.012 A 
ATOM     89  C   UNL A   1      32.321  20.977  23.312  1.00  0.00     0.012 A 
ATOM     90  C   UNL A   1      34.604  20.706  24.906  1.00  0.00     0.001 A 
ATOM     91  C   UNL A   1      32.552  19.790  24.010  1.00  0.00     0.001 A 
ATOM     92  C   UNL A   1      33.690  19.658  24.809  1.00  0.00     0.000 A 
ENDBRANCH  85  87
ENDBRANCH  83  85
ENDBRANCH  74  77
ENDBRANCH  72  73
ENDBRANCH  71  72
ENDBRANCH   1  71
TORSDOF 15
ENDMDL
MODEL 2
REMARK VINA RESULT:     -12.5      3.268      8.577
REMARK SMILES O=C(NCCCNC(=O)[C@@H]1CCn2c(C(=O)c3ccccc3)ccc21)c1ccc(-c2c3nc(c(-c4cc(S(=O)(=O)[O-])ccc4F)c4ccc([nH]4)c(-c4cc(S(=O)(=O)[O-])ccc4F)c4nc(c(-c5cc(S(=O)(=O)[O-])ccc5F)c5ccc2[nH]5)C=C4)C=C3)cc1
REMARK SMILES IDX 4 1 3 2 1 3 2 4 26 6 27 7 88 8 28 9 87 10 29 11 30 12 31 13
REMARK SMILES IDX 81 14 32 15 86 16 80 17 82 18 33 19 85 20 79 21 78 22 34 24
REMARK SMILES IDX 66 25 46 26 65 27 47 28 50 29 64 30 83 31 48 32 49 33 63 35
REMARK SMILES IDX 84 36 51 37 35 38 36 39 44 40 37 41 43 42 45 43 42 44 38 45
REMARK SMILES IDX 39 46 40 47 41 48 67 49 68 50 76 51 69 52 75 53 77 54 74 55
REMARK SMILES IDX 70 56 71 57 72 58 73 59 52 60 53 61 61 62 54 63 60 64 62 65
REMARK SMILES IDX 59 66 55 67 56 68 57 69 58 70 5 71 6 72 7 73 8 74 9 76 10 77
REMARK SMILES IDX 11 78 25 79 12 80 13 81 24 82 14 83 23 84 15 85 16 86 17 87
REMARK SMILES IDX 18 88 22 89 19 90 21 91 20 92
REMARK H PARENT 3 5 82 23 50 34 7 75
REMARK Flexibility Score: inf
ROOT
ATOM      1  C   UNL A   1      33.917  29.041  26.113  1.00  0.00     0.118 C 
ENDROOT
BRANCH   1   2
ATOM      2  N   UNL A   1      33.697  30.394  26.603  1.00  0.00    -0.352 N 
ATOM      3  O   UNL A   1      33.842  32.133  28.019  1.00  0.00    -0.269 OA
ATOM      4  C   UNL A   1      34.335  31.081  27.605  1.00  0.00     0.251 C 
ATOM      5  H   UNL A   1      32.981  30.893  26.147  1.00  0.00     0.163 HD
BRANCH   4   6
ATOM      6  C   UNL A   1      35.600  30.578  28.186  1.00  0.00     0.039 A 
ATOM      7  C   UNL A   1      35.597  29.717  29.286  1.00  0.00     0.014 A 
ATOM      8  C   UNL A   1      36.811  30.924  27.578  1.00  0.00     0.014 A 
ATOM      9  C   UNL A   1      36.800  29.296  29.847  1.00  0.00     0.010 A 
ATOM     10  C   UNL A   1      38.015  30.436  28.094  1.00  0.00     0.010 A 
ATOM     11  C   UNL A   1      38.021  29.634  29.245  1.00  0.00    -0.014 A 
BRANCH  11  12
ATOM     12  C   UNL A   1      39.293  29.097  29.796  1.00  0.00     0.031 A 
ATOM     13  C   UNL A   1      39.942  29.734  30.993  1.00  0.00     0.074 A 
ATOM     14  C   UNL A   1      39.868  28.034  29.200  1.00  0.00     0.049 A 
ATOM     15  N   UNL A   1      41.081  29.443  31.569  1.00  0.00    -0.248 NA
ATOM     16  C   UNL A   1      39.221  30.853  31.614  1.00  0.00     0.031 C 
ATOM     17  C   UNL A   1      39.328  27.332  28.032  1.00  0.00     0.029 A 
ATOM     18  N   UNL A   1      41.025  27.357  29.487  1.00  0.00    -0.354 N 
ATOM     19  C   UNL A   1      41.224  30.353  32.612  1.00  0.00     0.074 A 
ATOM     20  C   UNL A   1      40.071  31.229  32.559  1.00  0.00     0.031 C 
ATOM     21  C   UNL A   1      40.139  26.311  27.720  1.00  0.00     0.029 A 
ATOM     22  C   UNL A   1      41.291  26.328  28.614  1.00  0.00     0.049 A 
ATOM     23  H   UNL A   1      41.610  27.585  30.244  1.00  0.00     0.167 HD
ATOM     24  C   UNL A   1      42.222  30.441  33.528  1.00  0.00     0.034 A 
ATOM     25  C   UNL A   1      42.356  25.509  28.519  1.00  0.00     0.034 A 
ATOM     26  C   UNL A   1      43.367  29.561  33.555  1.00  0.00     0.049 A 
ATOM     27  C   UNL A   1      43.478  25.661  29.509  1.00  0.00     0.074 A 
ATOM     28  C   UNL A   1      44.422  29.544  34.451  1.00  0.00     0.029 A 
ATOM     29  N   UNL A   1      43.615  28.546  32.636  1.00  0.00    -0.354 N 
ATOM     30  N   UNL A   1      43.597  26.520  30.495  1.00  0.00    -0.248 NA
ATOM     31  C   UNL A   1      44.609  24.735  29.376  1.00  0.00     0.031 C 
ATOM     32  C   UNL A   1      45.341  28.573  34.033  1.00  0.00     0.029 A 
ATOM     33  C   UNL A   1      44.822  27.924  32.924  1.00  0.00     0.049 A 
ATOM     34  H   UNL A   1      43.022  28.307  31.888  1.00  0.00     0.167 HD
ATOM     35  C   UNL A   1      44.803  26.217  31.119  1.00  0.00     0.074 A 
ATOM     36  C   UNL A   1      45.368  25.092  30.401  1.00  0.00     0.031 C 
ATOM     37  C   UNL A   1      45.383  26.810  32.193  1.00  0.00     0.034 A 
BRANCH  24  38
ATOM     38  C   UNL A   1      42.138  31.564  34.539  1.00  0.00     0.023 A 
ATOM     39  C   UNL A   1      41.245  31.519  35.626  1.00  0.00     0.031 A 
ATOM     40  C   UNL A   1      42.930  32.716  34.391  1.00  0.00     0.131 A 
ATOM     41  C   UNL A   1      41.108  32.634  36.466  1.00  0.00     0.055 A 
ATOM     42  C   UNL A   1      42.851  33.788  35.282  1.00  0.00     0.041 A 
ATOM     43  F   UNL A   1      43.788  32.828  33.363  1.00  0.00    -0.206 F 
ATOM     44  C   UNL A   1      41.921  33.759  36.317  1.00  0.00     0.022 A 
BRANCH  41  45
ATOM     45  S   UNL A   1      39.736  32.657  37.654  1.00  0.00     0.124 S 
ATOM     46  O   UNL A   1      39.207  34.007  37.469  1.00  0.00    -0.237 OA
ATOM     47  O   UNL A   1      38.889  31.570  37.180  1.00  0.00    -0.237 OA
ATOM     48  O   UNL A   1      40.391  32.425  38.940  1.00  0.00    -0.744 OA
ENDBRANCH  41  45
ENDBRANCH  24  38
BRANCH  25  49
ATOM     49  C   UNL A   1      42.423  24.501  27.423  1.00  0.00     0.023 A 
ATOM     50  C   UNL A   1      41.661  23.324  27.468  1.00  0.00     0.031 A 
ATOM     51  C   UNL A   1      43.260  24.706  26.309  1.00  0.00     0.131 A 
ATOM     52  C   UNL A   1      41.772  22.382  26.433  1.00  0.00     0.055 A 
ATOM     53  C   UNL A   1      43.327  23.790  25.259  1.00  0.00     0.041 A 
ATOM     54  F   UNL A   1      44.004  25.819  26.214  1.00  0.00    -0.206 F 
ATOM     55  C   UNL A   1      42.587  22.614  25.323  1.00  0.00     0.022 A 
BRANCH  52  56
ATOM     56  S   UNL A   1      40.879  20.812  26.589  1.00  0.00     0.124 S 
ATOM     57  O   UNL A   1      39.575  21.155  26.029  1.00  0.00    -0.237 OA
ATOM     58  O   UNL A   1      41.704  19.912  25.790  1.00  0.00    -0.237 OA
ATOM     59  O   UNL A   1      40.892  20.553  28.027  1.00  0.00    -0.744 OA
ENDBRANCH  52  56
ENDBRANCH  25  49
BRANCH  37  60
ATOM     60  C   UNL A   1      46.677  26.211  32.690  1.00  0.00     0.023 A 
ATOM     61  C   UNL A   1      46.702  25.125  33.582  1.00  0.00     0.031 A 
ATOM     62  C   UNL A   1      47.906  26.747  32.265  1.00  0.00     0.131 A 
ATOM     63  C   UNL A   1      47.931  24.641  34.059  1.00  0.00     0.055 A 
ATOM     64  C   UNL A   1      49.125  26.223  32.696  1.00  0.00     0.041 A 
ATOM     65  F   UNL A   1      47.941  27.788  31.418  1.00  0.00    -0.206 F 
ATOM     66  C   UNL A   1      49.142  25.171  33.607  1.00  0.00     0.022 A 
BRANCH  63  67
ATOM     67  S   UNL A   1      47.926  23.361  35.344  1.00  0.00     0.124 S 
ATOM     68  O   UNL A   1      48.014  24.157  36.564  1.00  0.00    -0.237 OA
ATOM     69  O   UNL A   1      46.653  22.688  35.113  1.00  0.00    -0.237 OA
ATOM     70  O   UNL A   1      49.113  22.564  35.039  1.00  0.00    -0.744 OA
ENDBRANCH  63  67
ENDBRANCH  37  60
ENDBRANCH  11  12
ENDBRANCH   4   6
ENDBRANCH   1   2
BRANCH   1  71
ATOM     71  C   UNL A   1      32.610  28.327  25.788  1.00  0.00     0.042 C 
BRANCH  71  72
ATOM     72  C   UNL A   1      31.965  27.662  27.001  1.00  0.00     0.117 C 
BRANCH  72  73
ATOM     73  N   UNL A   1      31.314  26.414  26.635  1.00  0.00    -0.355 N 
ATOM     74  C   UNL A   1      31.813  25.233  26.180  1.00  0.00     0.229 C 
ATOM     75  H   UNL A   1      30.334  26.427  26.732  1.00  0.00     0.163 HD
ATOM     76  O   UNL A   1      30.979  24.388  25.829  1.00  0.00    -0.274 OA
BRANCH  74  77
ATOM     77  C   UNL A   1      33.285  24.839  26.254  1.00  0.00     0.127 C 
ATOM     78  C   UNL A   1      33.925  24.959  24.848  1.00  0.00     0.042 C 
ATOM     79  C   UNL A   1      33.598  23.443  26.645  1.00  0.00     0.031 A 
ATOM     80  C   UNL A   1      34.839  23.741  24.673  1.00  0.00     0.124 C 
ATOM     81  N   UNL A   1      34.442  22.850  25.746  1.00  0.00    -0.341 N 
ATOM     82  C   UNL A   1      33.342  22.540  27.641  1.00  0.00     0.025 A 
ATOM     83  C   UNL A   1      34.592  21.519  25.999  1.00  0.00     0.090 A 
ATOM     84  C   UNL A   1      33.917  21.312  27.204  1.00  0.00     0.032 A 
BRANCH  83  85
ATOM     85  C   UNL A   1      35.232  20.506  25.182  1.00  0.00     0.209 C 
ATOM     86  O   UNL A   1      36.448  20.501  24.961  1.00  0.00    -0.287 OA
BRANCH  85  87
ATOM     87  C   UNL A   1      34.446  19.400  24.584  1.00  0.00     0.024 A 
ATOM     88  C   UNL A   1      35.044  18.140  24.458  1.00  0.00     0.012 A 
ATOM     89  C   UNL A   1      33.144  19.605  24.113  1.00  0.00     0.012 A 
ATOM     90  C   UNL A   1      34.327  17.078  23.907  1.00  0.00     0.001 A 
ATOM     91  C   UNL A   1      32.426  18.537  23.571  1.00  0.00     0.001 A 
ATOM     92  C   UNL A   1      33.016  17.275  23.474  1.00  0.00     0.000 A 
ENDBRANCH  85  87
ENDBRANCH  83  85
ENDBRANCH  74  77
ENDBRANCH  72  73
ENDBRANCH  71  72
ENDBRANCH   1  71
TORSDOF 15
ENDMDL
MODEL 3
REMARK VINA RESULT:     -12.5      2.357      3.299
REMARK SMILES O=C(NCCCNC(=O)[C@@H]1CCn2c(C(=O)c3ccccc3)ccc21)c1ccc(-c2c3nc(c(-c4cc(S(=O)(=O)[O-])ccc4F)c4ccc([nH]4)c(-c4cc(S(=O)(=O)[O-])ccc4F)c4nc(c(-c5cc(S(=O)(=O)[O-])ccc5F)c5ccc2[nH]5)C=C4)C=C3)cc1
REMARK SMILES IDX 4 1 3 2 1 3 2 4 26 6 27 7 88 8 28 9 87 10 29 11 30 12 31 13
REMARK SMILES IDX 81 14 32 15 86 16 80 17 82 18 33 19 85 20 79 21 78 22 34 24
REMARK SMILES IDX 66 25 46 26 65 27 47 28 50 29 64 30 83 31 48 32 49 33 63 35
REMARK SMILES IDX 84 36 51 37 35 38 36 39 44 40 37 41 43 42 45 43 42 44 38 45
REMARK SMILES IDX 39 46 40 47 41 48 67 49 68 50 76 51 69 52 75 53 77 54 74 55
REMARK SMILES IDX 70 56 71 57 72 58 73 59 52 60 53 61 61 62 54 63 60 64 62 65
REMARK SMILES IDX 59 66 55 67 56 68 57 69 58 70 5 71 6 72 7 73 8 74 9 76 10 77
REMARK SMILES IDX 11 78 25 79 12 80 13 81 24 82 14 83 23 84 15 85 16 86 17 87
REMARK SMILES IDX 18 88 22 89 19 90 21 91 20 92
REMARK H PARENT 3 5 82 23 50 34 7 75
REMARK Flexibility Score: inf
ROOT
ATOM      1  C   UNL A   1      32.935  29.317  25.463  1.00  0.00     0.118 C 
ENDROOT
BRANCH   1   2
ATOM      2  N   UNL A   1      32.497  30.641  25.882  1.00  0.00    -0.352 N 
ATOM      3  O   UNL A   1      32.283  32.417  27.241  1.00  0.00    -0.269 OA
ATOM      4  C   UNL A   1      32.944  31.429  26.912  1.00  0.00     0.251 C 
ATOM      5  H   UNL A   1      31.770  31.031  25.344  1.00  0.00     0.163 HD
BRANCH   4   6
ATOM      6  C   UNL A   1      34.201  31.110  27.625  1.00  0.00     0.039 A 
ATOM      7  C   UNL A   1      35.128  32.108  27.935  1.00  0.00     0.014 A 
ATOM      8  C   UNL A   1      34.426  29.796  28.048  1.00  0.00     0.014 A 
ATOM      9  C   UNL A   1      36.326  31.777  28.561  1.00  0.00     0.010 A 
ATOM     10  C   UNL A   1      35.594  29.479  28.747  1.00  0.00     0.010 A 
ATOM     11  C   UNL A   1      36.564  30.464  28.993  1.00  0.00    -0.014 A 
BRANCH  11  12
ATOM     12  C   UNL A   1      37.803  30.142  29.748  1.00  0.00     0.031 A 
ATOM     13  C   UNL A   1      38.841  29.223  29.168  1.00  0.00     0.074 A 
ATOM     14  C   UNL A   1      37.983  30.680  30.971  1.00  0.00     0.049 A 
ATOM     15  N   UNL A   1      39.949  28.780  29.707  1.00  0.00    -0.248 NA
ATOM     16  C   UNL A   1      38.592  28.726  27.808  1.00  0.00     0.031 C 
ATOM     17  C   UNL A   1      37.044  31.588  31.636  1.00  0.00     0.029 A 
ATOM     18  N   UNL A   1      39.007  30.545  31.873  1.00  0.00    -0.354 N 
ATOM     19  C   UNL A   1      40.524  27.939  28.760  1.00  0.00     0.074 A 
ATOM     20  C   UNL A   1      39.617  27.905  27.630  1.00  0.00     0.031 C 
ATOM     21  C   UNL A   1      37.547  31.947  32.826  1.00  0.00     0.029 A 
ATOM     22  C   UNL A   1      38.805  31.241  33.042  1.00  0.00     0.049 A 
ATOM     23  H   UNL A   1      39.810  30.002  31.701  1.00  0.00     0.167 HD
ATOM     24  C   UNL A   1      41.700  27.265  28.829  1.00  0.00     0.034 A 
ATOM     25  C   UNL A   1      39.531  31.283  34.176  1.00  0.00     0.034 A 
ATOM     26  C   UNL A   1      42.584  27.307  29.971  1.00  0.00     0.049 A 
ATOM     27  C   UNL A   1      40.802  30.482  34.254  1.00  0.00     0.074 A 
ATOM     28  C   UNL A   1      43.809  26.686  30.138  1.00  0.00     0.029 A 
ATOM     29  N   UNL A   1      42.332  28.002  31.150  1.00  0.00    -0.354 N 
ATOM     30  N   UNL A   1      41.339  29.697  33.347  1.00  0.00    -0.248 NA
ATOM     31  C   UNL A   1      41.567  30.574  35.502  1.00  0.00     0.031 C 
ATOM     32  C   UNL A   1      44.261  26.942  31.439  1.00  0.00     0.029 A 
ATOM     33  C   UNL A   1      43.360  27.794  32.058  1.00  0.00     0.049 A 
ATOM     34  H   UNL A   1      41.537  28.558  31.316  1.00  0.00     0.167 HD
ATOM     35  C   UNL A   1      42.521  29.224  33.908  1.00  0.00     0.074 A 
ATOM     36  C   UNL A   1      42.620  29.820  35.226  1.00  0.00     0.031 C 
ATOM     37  C   UNL A   1      43.443  28.383  33.376  1.00  0.00     0.034 A 
BRANCH  24  38
ATOM     38  C   UNL A   1      42.065  26.384  27.654  1.00  0.00     0.023 A 
ATOM     39  C   UNL A   1      41.774  25.008  27.638  1.00  0.00     0.031 A 
ATOM     40  C   UNL A   1      42.752  26.920  26.550  1.00  0.00     0.131 A 
ATOM     41  C   UNL A   1      42.242  24.204  26.588  1.00  0.00     0.055 A 
ATOM     42  C   UNL A   1      43.140  26.130  25.466  1.00  0.00     0.041 A 
ATOM     43  F   UNL A   1      43.075  28.223  26.512  1.00  0.00    -0.206 F 
ATOM     44  C   UNL A   1      42.902  24.758  25.489  1.00  0.00     0.022 A 
BRANCH  41  45
ATOM     45  S   UNL A   1      42.121  22.402  26.758  1.00  0.00     0.124 S 
ATOM     46  O   UNL A   1      43.366  22.086  27.454  1.00  0.00    -0.237 OA
ATOM     47  O   UNL A   1      40.898  22.239  27.533  1.00  0.00    -0.237 OA
ATOM     48  O   UNL A   1      42.053  21.931  25.376  1.00  0.00    -0.744 OA
ENDBRANCH  41  45
ENDBRANCH  24  38
BRANCH  25  49
ATOM     49  C   UNL A   1      39.048  32.081  35.338  1.00  0.00     0.023 A 
ATOM     50  C   UNL A   1      38.423  31.468  36.434  1.00  0.00     0.031 A 
ATOM     51  C   UNL A   1      39.208  33.480  35.365  1.00  0.00     0.131 A 
ATOM     52  C   UNL A   1      37.952  32.253  37.497  1.00  0.00     0.055 A 
ATOM     53  C   UNL A   1      38.785  34.249  36.449  1.00  0.00     0.041 A 
ATOM     54  F   UNL A   1      39.806  34.115  34.345  1.00  0.00    -0.206 F 
ATOM     55  C   UNL A   1      38.143  33.637  37.520  1.00  0.00     0.022 A 
BRANCH  52  56
ATOM     56  S   UNL A   1      37.028  31.445  38.832  1.00  0.00     0.124 S 
ATOM     57  O   UNL A   1      36.917  30.079  38.331  1.00  0.00    -0.237 OA
ATOM     58  O   UNL A   1      37.914  31.639  39.976  1.00  0.00    -0.237 OA
ATOM     59  O   UNL A   1      35.776  32.195  38.882  1.00  0.00    -0.744 OA
ENDBRANCH  52  56
ENDBRANCH  25  49
BRANCH  37  60
ATOM     60  C   UNL A   1      44.672  28.100  34.206  1.00  0.00     0.023 A 
ATOM     61  C   UNL A   1      44.742  27.006  35.087  1.00  0.00     0.031 A 
ATOM     62  C   UNL A   1      45.790  28.949  34.116  1.00  0.00     0.131 A 
ATOM     63  C   UNL A   1      45.886  26.820  35.879  1.00  0.00     0.055 A 
ATOM     64  C   UNL A   1      46.947  28.724  34.862  1.00  0.00     0.041 A 
ATOM     65  F   UNL A   1      45.776  30.012  33.295  1.00  0.00    -0.206 F 
ATOM     66  C   UNL A   1      46.995  27.661  35.759  1.00  0.00     0.022 A 
BRANCH  63  67
ATOM     67  S   UNL A   1      45.875  25.509  37.134  1.00  0.00     0.124 S 
ATOM     68  O   UNL A   1      47.110  24.793  36.833  1.00  0.00    -0.237 OA
ATOM     69  O   UNL A   1      45.866  26.268  38.380  1.00  0.00    -0.237 OA
ATOM     70  O   UNL A   1      44.647  24.771  36.849  1.00  0.00    -0.744 OA
ENDBRANCH  63  67
ENDBRANCH  37  60
ENDBRANCH  11  12
ENDBRANCH   4   6
ENDBRANCH   1   2
BRANCH   1  71
ATOM     71  C   UNL A   1      31.782  28.321  25.409  1.00  0.00     0.042 C 
BRANCH  71  72
ATOM     72  C   UNL A   1      31.558  27.582  26.726  1.00  0.00     0.117 C 
BRANCH  72  73
ATOM     73  N   UNL A   1      30.988  26.263  26.501  1.00  0.00    -0.355 N 
ATOM     74  C   UNL A   1      31.552  25.091  26.101  1.00  0.00     0.229 C 
ATOM     75  H   UNL A   1      30.019  26.209  26.666  1.00  0.00     0.163 HD
ATOM     76  O   UNL A   1      30.768  24.160  25.874  1.00  0.00    -0.274 OA
BRANCH  74  77
ATOM     77  C   UNL A   1      33.052  24.817  26.099  1.00  0.00     0.127 C 
ATOM     78  C   UNL A   1      33.588  24.877  24.646  1.00  0.00     0.042 C 
ATOM     79  C   UNL A   1      33.503  23.484  26.566  1.00  0.00     0.031 A 
ATOM     80  C   UNL A   1      34.585  23.722  24.495  1.00  0.00     0.124 C 
ATOM     81  N   UNL A   1      34.333  22.890  25.655  1.00  0.00    -0.341 N 
ATOM     82  C   UNL A   1      33.387  22.644  27.640  1.00  0.00     0.025 A 
ATOM     83  C   UNL A   1      34.607  21.598  25.992  1.00  0.00     0.090 A 
ATOM     84  C   UNL A   1      34.030  21.434  27.254  1.00  0.00     0.032 A 
BRANCH  83  85
ATOM     85  C   UNL A   1      35.273  20.577  25.207  1.00  0.00     0.209 C 
ATOM     86  O   UNL A   1      36.492  20.586  25.001  1.00  0.00    -0.287 OA
BRANCH  85  87
ATOM     87  C   UNL A   1      34.512  19.444  24.627  1.00  0.00     0.024 A 
ATOM     88  C   UNL A   1      33.180  19.652  24.247  1.00  0.00     0.012 A 
ATOM     89  C   UNL A   1      35.087  18.175  24.492  1.00  0.00     0.012 A 
ATOM     90  C   UNL A   1      32.442  18.607  23.691  1.00  0.00     0.001 A 
ATOM     91  C   UNL A   1      34.347  17.134  23.927  1.00  0.00     0.001 A 
ATOM     92  C   UNL A   1      33.028  17.353  23.523  1.00  0.00     0.000 A 
ENDBRANCH  85  87
ENDBRANCH  83  85
ENDBRANCH  74  77
ENDBRANCH  72  73
ENDBRANCH  71  72
ENDBRANCH   1  71
TORSDOF 15
ENDMDL
