MODEL 1
REMARK VINA RESULT:     -12.6      0.000      0.000
REMARK SMILES Cn1c(COc2ccc(C(=O)NCCCNC(=O)c3ccc(-c4c5nc(c(-c6cc(S(=O)(=O)[O-])ccc6F)c6ccc([nH]6)c(-c6cc(S(=O)(=O)[O-])ccc6F)c6nc(c(-c7cc(S(=O)(=O)[O-])ccc7F)c7ccc4[nH]7)C=C6)C=C5)cc3)cc2)nc2ccccc21
REMARK SMILES IDX 14 1 13 2 12 3 10 4 11 5 9 7 6 8 7 9 83 10 8 11 82 12 5 13
REMARK SMILES IDX 4 14 3 15 1 16 2 17 90 18 84 19 85 20 89 21 86 22 88 23
REMARK SMILES IDX 87 24 15 25 16 26 17 27 18 29 19 30 20 31 81 32 21 33 80 34
REMARK SMILES IDX 22 35 23 36 24 37 74 38 25 39 79 40 73 41 75 42 26 43 78 44
REMARK SMILES IDX 72 45 71 46 27 48 59 49 39 50 58 51 40 52 43 53 57 54 76 55
REMARK SMILES IDX 41 56 42 57 56 59 77 60 44 61 28 62 29 63 37 64 30 65 36 66
REMARK SMILES IDX 38 67 35 68 31 69 32 70 33 71 34 72 60 73 61 74 69 75 62 76
REMARK SMILES IDX 68 77 70 78 67 79 63 80 64 81 65 82 66 83 45 84 46 85 54 86
REMARK SMILES IDX 47 87 53 88 55 89 52 90 48 91 49 92 50 93 51 94
REMARK H PARENT 12 6 16 28 75 47 43 58
REMARK Flexibility Score: inf
ROOT
ATOM      1  C   UNL A   1      31.386  32.236  26.522  1.00  0.00     0.042 C 
ENDROOT
BRANCH   1   2
ATOM      2  C   UNL A   1      31.303  30.728  26.292  1.00  0.00     0.118 C 
BRANCH   2   3
ATOM      3  N   UNL A   1      31.262  30.390  24.879  1.00  0.00    -0.352 N 
ATOM      4  C   UNL A   1      31.211  29.169  24.249  1.00  0.00     0.251 C 
ATOM      5  O   UNL A   1      30.999  29.133  23.038  1.00  0.00    -0.269 OA
ATOM      6  H   UNL A   1      31.273  31.164  24.270  1.00  0.00     0.163 HD
BRANCH   4   7
ATOM      7  C   UNL A   1      31.345  27.895  24.999  1.00  0.00     0.040 A 
ATOM      8  C   UNL A   1      31.466  25.502  26.432  1.00  0.00     0.120 A 
ATOM      9  C   UNL A   1      30.377  25.747  25.603  1.00  0.00     0.047 A 
ATOM     10  C   UNL A   1      32.539  26.389  26.465  1.00  0.00     0.047 A 
ATOM     11  C   UNL A   1      30.317  26.946  24.884  1.00  0.00     0.017 A 
ATOM     12  C   UNL A   1      32.479  27.585  25.752  1.00  0.00     0.017 A 
BRANCH   8  13
ATOM     13  O   UNL A   1      31.529  24.342  27.158  1.00  0.00    -0.486 OA
BRANCH  13  14
ATOM     14  C   UNL A   1      31.384  23.170  26.324  1.00  0.00     0.304 C 
BRANCH  14  15
ATOM     15  C   UNL A   1      32.690  22.834  25.664  1.00  0.00     0.147 A 
ATOM     16  C   UNL A   1      33.876  21.821  27.667  1.00  0.00     0.151 C 
ATOM     17  N   UNL A   1      33.787  22.299  26.309  1.00  0.00    -0.328 N 
ATOM     18  C   UNL A   1      34.862  22.357  25.448  1.00  0.00     0.068 A 
ATOM     19  N   UNL A   1      32.985  23.091  24.401  1.00  0.00    -0.229 NA
ATOM     20  C   UNL A   1      34.330  22.861  24.268  1.00  0.00     0.089 A 
ATOM     21  C   UNL A   1      36.221  22.046  25.590  1.00  0.00     0.028 A 
ATOM     22  C   UNL A   1      35.172  23.092  23.171  1.00  0.00     0.030 A 
ATOM     23  C   UNL A   1      37.050  22.293  24.490  1.00  0.00     0.002 A 
ATOM     24  C   UNL A   1      36.537  22.812  23.299  1.00  0.00     0.002 A 
ENDBRANCH  14  15
ENDBRANCH  13  14
ENDBRANCH   8  13
ENDBRANCH   4   7
ENDBRANCH   2   3
ENDBRANCH   1   2
BRANCH   1  25
ATOM     25  C   UNL A   1      32.699  32.698  27.149  1.00  0.00     0.118 C 
BRANCH  25  26
ATOM     26  N   UNL A   1      32.609  34.049  27.680  1.00  0.00    -0.352 N 
ATOM     27  C   UNL A   1      33.271  34.633  28.734  1.00  0.00     0.251 C 
ATOM     28  H   UNL A   1      31.975  34.638  27.211  1.00  0.00     0.163 HD
ATOM     29  O   UNL A   1      32.877  35.718  29.152  1.00  0.00    -0.269 OA
BRANCH  27  30
ATOM     30  C   UNL A   1      34.429  33.964  29.374  1.00  0.00     0.039 A 
ATOM     31  C   UNL A   1      35.719  34.384  29.033  1.00  0.00     0.014 A 
ATOM     32  C   UNL A   1      34.260  32.902  30.268  1.00  0.00     0.014 A 
ATOM     33  C   UNL A   1      36.830  33.784  29.632  1.00  0.00     0.010 A 
ATOM     34  C   UNL A   1      35.366  32.352  30.916  1.00  0.00     0.010 A 
ATOM     35  C   UNL A   1      36.664  32.786  30.606  1.00  0.00    -0.014 A 
BRANCH  35  36
ATOM     36  C   UNL A   1      37.832  32.193  31.311  1.00  0.00     0.031 A 
ATOM     37  C   UNL A   1      38.609  31.069  30.682  1.00  0.00     0.074 A 
ATOM     38  C   UNL A   1      38.154  32.630  32.545  1.00  0.00     0.049 A 
ATOM     39  N   UNL A   1      39.595  30.365  31.176  1.00  0.00    -0.248 NA
ATOM     40  C   UNL A   1      38.206  30.668  29.327  1.00  0.00     0.031 C 
ATOM     41  C   UNL A   1      37.455  33.691  33.274  1.00  0.00     0.029 A 
ATOM     42  N   UNL A   1      39.140  32.230  33.413  1.00  0.00    -0.354 N 
ATOM     43  C   UNL A   1      39.928  29.435  30.197  1.00  0.00     0.074 A 
ATOM     44  C   UNL A   1      38.996  29.627  29.105  1.00  0.00     0.031 C 
ATOM     45  C   UNL A   1      38.040  33.864  34.470  1.00  0.00     0.029 A 
ATOM     46  C   UNL A   1      39.124  32.898  34.616  1.00  0.00     0.049 A 
ATOM     47  H   UNL A   1      39.798  31.530  33.194  1.00  0.00     0.167 HD
ATOM     48  C   UNL A   1      40.930  28.521  30.199  1.00  0.00     0.034 A 
ATOM     49  C   UNL A   1      39.881  32.739  35.720  1.00  0.00     0.034 A 
ATOM     50  C   UNL A   1      41.853  28.342  31.295  1.00  0.00     0.049 A 
ATOM     51  C   UNL A   1      40.967  31.692  35.712  1.00  0.00     0.074 A 
ATOM     52  C   UNL A   1      42.926  27.472  31.386  1.00  0.00     0.029 A 
ATOM     53  N   UNL A   1      41.810  29.041  32.494  1.00  0.00    -0.354 N 
ATOM     54  N   UNL A   1      41.294  30.848  34.759  1.00  0.00    -0.248 NA
ATOM     55  C   UNL A   1      41.794  31.585  36.921  1.00  0.00     0.031 C 
ATOM     56  C   UNL A   1      43.489  27.600  32.661  1.00  0.00     0.029 A 
ATOM     57  C   UNL A   1      42.818  28.604  33.340  1.00  0.00     0.049 A 
ATOM     58  H   UNL A   1      41.157  29.746  32.713  1.00  0.00     0.167 HD
ATOM     59  C   UNL A   1      42.382  30.130  35.247  1.00  0.00     0.074 A 
ATOM     60  C   UNL A   1      42.668  30.654  36.567  1.00  0.00     0.031 C 
ATOM     61  C   UNL A   1      43.084  29.128  34.658  1.00  0.00     0.034 A 
BRANCH  48  62
ATOM     62  C   UNL A   1      41.064  27.632  28.984  1.00  0.00     0.023 A 
ATOM     63  C   UNL A   1      42.051  27.862  28.010  1.00  0.00     0.031 A 
ATOM     64  C   UNL A   1      40.187  26.550  28.789  1.00  0.00     0.131 A 
ATOM     65  C   UNL A   1      42.094  27.069  26.853  1.00  0.00     0.055 A 
ATOM     66  C   UNL A   1      40.285  25.715  27.673  1.00  0.00     0.041 A 
ATOM     67  F   UNL A   1      39.212  26.291  29.675  1.00  0.00    -0.206 F 
ATOM     68  C   UNL A   1      41.233  25.981  26.690  1.00  0.00     0.022 A 
BRANCH  65  69
ATOM     69  S   UNL A   1      43.199  27.565  25.504  1.00  0.00     0.124 S 
ATOM     70  O   UNL A   1      43.686  26.271  25.031  1.00  0.00    -0.237 OA
ATOM     71  O   UNL A   1      42.300  28.277  24.604  1.00  0.00    -0.237 OA
ATOM     72  O   UNL A   1      44.202  28.394  26.169  1.00  0.00    -0.744 OA
ENDBRANCH  65  69
ENDBRANCH  48  62
BRANCH  49  73
ATOM     73  C   UNL A   1      39.629  33.564  36.937  1.00  0.00     0.023 A 
ATOM     74  C   UNL A   1      39.026  33.011  38.076  1.00  0.00     0.031 A 
ATOM     75  C   UNL A   1      39.946  34.935  36.958  1.00  0.00     0.131 A 
ATOM     76  C   UNL A   1      38.707  33.833  39.168  1.00  0.00     0.055 A 
ATOM     77  C   UNL A   1      39.678  35.737  38.069  1.00  0.00     0.041 A 
ATOM     78  F   UNL A   1      40.528  35.515  35.896  1.00  0.00    -0.206 F 
ATOM     79  C   UNL A   1      39.042  35.189  39.178  1.00  0.00     0.022 A 
BRANCH  76  80
ATOM     80  S   UNL A   1      37.756  33.123  40.541  1.00  0.00     0.124 S 
ATOM     81  O   UNL A   1      38.463  31.869  40.774  1.00  0.00    -0.237 OA
ATOM     82  O   UNL A   1      37.905  34.145  41.572  1.00  0.00    -0.237 OA
ATOM     83  O   UNL A   1      36.410  32.988  39.989  1.00  0.00    -0.744 OA
ENDBRANCH  76  80
ENDBRANCH  49  73
BRANCH  61  84
ATOM     84  C   UNL A   1      44.256  28.568  35.429  1.00  0.00     0.023 A 
ATOM     85  C   UNL A   1      44.103  27.512  36.343  1.00  0.00     0.031 A 
ATOM     86  C   UNL A   1      45.540  29.112  35.254  1.00  0.00     0.131 A 
ATOM     87  C   UNL A   1      45.205  27.070  37.090  1.00  0.00     0.055 A 
ATOM     88  C   UNL A   1      46.646  28.627  35.955  1.00  0.00     0.041 A 
ATOM     89  F   UNL A   1      45.743  30.124  34.394  1.00  0.00    -0.206 F 
ATOM     90  C   UNL A   1      46.479  27.609  36.888  1.00  0.00     0.022 A 
BRANCH  87  91
ATOM     91  S   UNL A   1      44.937  25.839  38.396  1.00  0.00     0.124 S 
ATOM     92  O   UNL A   1      44.185  26.606  39.384  1.00  0.00    -0.237 OA
ATOM     93  O   UNL A   1      44.193  24.798  37.695  1.00  0.00    -0.237 OA
ATOM     94  O   UNL A   1      46.291  25.467  38.800  1.00  0.00    -0.744 OA
ENDBRANCH  87  91
ENDBRANCH  61  84
ENDBRANCH  35  36
ENDBRANCH  27  30
ENDBRANCH  25  26
ENDBRANCH   1  25
TORSDOF 16
ENDMDL
MODEL 2
REMARK VINA RESULT:     -12.4      3.406      8.469
REMARK SMILES Cn1c(COc2ccc(C(=O)NCCCNC(=O)c3ccc(-c4c5nc(c(-c6cc(S(=O)(=O)[O-])ccc6F)c6ccc([nH]6)c(-c6cc(S(=O)(=O)[O-])ccc6F)c6nc(c(-c7cc(S(=O)(=O)[O-])ccc7F)c7ccc4[nH]7)C=C6)C=C5)cc3)cc2)nc2ccccc21
REMARK SMILES IDX 14 1 13 2 12 3 10 4 11 5 9 7 6 8 7 9 83 10 8 11 82 12 5 13
REMARK SMILES IDX 4 14 3 15 1 16 2 17 90 18 84 19 85 20 89 21 86 22 88 23
REMARK SMILES IDX 87 24 15 25 16 26 17 27 18 29 19 30 20 31 81 32 21 33 80 34
REMARK SMILES IDX 22 35 23 36 24 37 74 38 25 39 79 40 73 41 75 42 26 43 78 44
REMARK SMILES IDX 72 45 71 46 27 48 59 49 39 50 58 51 40 52 43 53 57 54 76 55
REMARK SMILES IDX 41 56 42 57 56 59 77 60 44 61 28 62 29 63 37 64 30 65 36 66
REMARK SMILES IDX 38 67 35 68 31 69 32 70 33 71 34 72 60 73 61 74 69 75 62 76
REMARK SMILES IDX 68 77 70 78 67 79 63 80 64 81 65 82 66 83 45 84 46 85 54 86
REMARK SMILES IDX 47 87 53 88 55 89 52 90 48 91 49 92 50 93 51 94
REMARK H PARENT 12 6 16 28 75 47 43 58
REMARK Flexibility Score: inf
ROOT
ATOM      1  C   UNL A   1      33.033  28.922  24.893  1.00  0.00     0.042 C 
ENDROOT
BRANCH   1   2
ATOM      2  C   UNL A   1      31.651  29.569  24.968  1.00  0.00     0.118 C 
BRANCH   2   3
ATOM      3  N   UNL A   1      31.048  29.731  23.655  1.00  0.00    -0.352 N 
ATOM      4  C   UNL A   1      30.587  28.797  22.758  1.00  0.00     0.251 C 
ATOM      5  O   UNL A   1      29.945  29.178  21.780  1.00  0.00    -0.269 OA
ATOM      6  H   UNL A   1      30.954  30.664  23.358  1.00  0.00     0.163 HD
BRANCH   4   7
ATOM      7  C   UNL A   1      30.789  27.341  22.969  1.00  0.00     0.040 A 
ATOM      8  C   UNL A   1      31.198  24.592  23.238  1.00  0.00     0.120 A 
ATOM      9  C   UNL A   1      32.021  25.326  22.389  1.00  0.00     0.047 A 
ATOM     10  C   UNL A   1      30.251  25.237  24.030  1.00  0.00     0.047 A 
ATOM     11  C   UNL A   1      31.816  26.703  22.256  1.00  0.00     0.017 A 
ATOM     12  C   UNL A   1      30.044  26.609  23.895  1.00  0.00     0.017 A 
BRANCH   8  13
ATOM     13  O   UNL A   1      31.372  23.240  23.364  1.00  0.00    -0.486 OA
BRANCH  13  14
ATOM     14  C   UNL A   1      31.549  22.841  24.742  1.00  0.00     0.304 C 
BRANCH  14  15
ATOM     15  C   UNL A   1      33.009  22.690  25.059  1.00  0.00     0.147 A 
ATOM     16  C   UNL A   1      33.448  25.032  25.936  1.00  0.00     0.151 C 
ATOM     17  N   UNL A   1      33.825  23.702  25.523  1.00  0.00    -0.328 N 
ATOM     18  C   UNL A   1      35.131  23.263  25.465  1.00  0.00     0.068 A 
ATOM     19  N   UNL A   1      33.718  21.594  24.849  1.00  0.00    -0.229 NA
ATOM     20  C   UNL A   1      35.030  21.946  25.035  1.00  0.00     0.089 A 
ATOM     21  C   UNL A   1      36.362  23.882  25.719  1.00  0.00     0.028 A 
ATOM     22  C   UNL A   1      36.195  21.195  24.823  1.00  0.00     0.030 A 
ATOM     23  C   UNL A   1      37.515  23.123  25.492  1.00  0.00     0.002 A 
ATOM     24  C   UNL A   1      37.437  21.801  25.047  1.00  0.00     0.002 A 
ENDBRANCH  14  15
ENDBRANCH  13  14
ENDBRANCH   8  13
ENDBRANCH   4   7
ENDBRANCH   2   3
ENDBRANCH   1   2
BRANCH   1  25
ATOM     25  C   UNL A   1      33.847  29.045  26.178  1.00  0.00     0.118 C 
BRANCH  25  26
ATOM     26  N   UNL A   1      33.753  30.373  26.763  1.00  0.00    -0.352 N 
ATOM     27  C   UNL A   1      34.513  30.966  27.744  1.00  0.00     0.251 C 
ATOM     28  H   UNL A   1      33.033  30.937  26.400  1.00  0.00     0.163 HD
ATOM     29  O   UNL A   1      34.118  32.014  28.246  1.00  0.00    -0.269 OA
BRANCH  27  30
ATOM     30  C   UNL A   1      35.779  30.348  28.207  1.00  0.00     0.039 A 
ATOM     31  C   UNL A   1      36.914  30.458  27.398  1.00  0.00     0.014 A 
ATOM     32  C   UNL A   1      35.848  29.626  29.403  1.00  0.00     0.014 A 
ATOM     33  C   UNL A   1      38.126  29.901  27.816  1.00  0.00     0.010 A 
ATOM     34  C   UNL A   1      37.072  29.130  29.850  1.00  0.00     0.010 A 
ATOM     35  C   UNL A   1      38.226  29.262  29.062  1.00  0.00    -0.014 A 
BRANCH  35  36
ATOM     36  C   UNL A   1      39.526  28.734  29.557  1.00  0.00     0.031 A 
ATOM     37  C   UNL A   1      40.277  29.459  30.640  1.00  0.00     0.074 A 
ATOM     38  C   UNL A   1      40.056  27.632  28.988  1.00  0.00     0.049 A 
ATOM     39  N   UNL A   1      41.460  29.209  31.138  1.00  0.00    -0.248 NA
ATOM     40  C   UNL A   1      39.619  30.638  31.221  1.00  0.00     0.031 C 
ATOM     41  C   UNL A   1      39.439  26.862  27.907  1.00  0.00     0.029 A 
ATOM     42  N   UNL A   1      41.239  26.977  29.226  1.00  0.00    -0.354 N 
ATOM     43  C   UNL A   1      41.693  30.199  32.087  1.00  0.00     0.074 A 
ATOM     44  C   UNL A   1      40.551  31.089  32.049  1.00  0.00     0.031 C 
ATOM     45  C   UNL A   1      40.241  25.835  27.584  1.00  0.00     0.029 A 
ATOM     46  C   UNL A   1      41.450  25.898  28.399  1.00  0.00     0.049 A 
ATOM     47  H   UNL A   1      41.876  27.254  29.924  1.00  0.00     0.167 HD
ATOM     48  C   UNL A   1      42.749  30.341  32.926  1.00  0.00     0.034 A 
ATOM     49  C   UNL A   1      42.505  25.065  28.292  1.00  0.00     0.034 A 
ATOM     50  C   UNL A   1      43.880  29.444  32.953  1.00  0.00     0.049 A 
ATOM     51  C   UNL A   1      43.684  25.264  29.212  1.00  0.00     0.074 A 
ATOM     52  C   UNL A   1      44.986  29.475  33.787  1.00  0.00     0.029 A 
ATOM     53  N   UNL A   1      44.056  28.358  32.106  1.00  0.00    -0.354 N 
ATOM     54  N   UNL A   1      43.867  26.183  30.132  1.00  0.00    -0.248 NA
ATOM     55  C   UNL A   1      44.790  24.306  29.088  1.00  0.00     0.031 C 
ATOM     56  C   UNL A   1      45.856  28.449  33.401  1.00  0.00     0.029 A 
ATOM     57  C   UNL A   1      45.262  27.729  32.377  1.00  0.00     0.049 A 
ATOM     58  H   UNL A   1      43.417  28.076  31.410  1.00  0.00     0.167 HD
ATOM     59  C   UNL A   1      45.099  25.895  30.714  1.00  0.00     0.074 A 
ATOM     60  C   UNL A   1      45.602  24.707  30.055  1.00  0.00     0.031 C 
ATOM     61  C   UNL A   1      45.755  26.552  31.704  1.00  0.00     0.034 A 
BRANCH  48  62
ATOM     62  C   UNL A   1      42.736  31.523  33.868  1.00  0.00     0.023 A 
ATOM     63  C   UNL A   1      42.210  31.421  35.168  1.00  0.00     0.031 A 
ATOM     64  C   UNL A   1      43.241  32.770  33.459  1.00  0.00     0.131 A 
ATOM     65  C   UNL A   1      42.136  32.558  35.987  1.00  0.00     0.055 A 
ATOM     66  C   UNL A   1      43.237  33.879  34.308  1.00  0.00     0.041 A 
ATOM     67  F   UNL A   1      43.739  32.934  32.224  1.00  0.00    -0.206 F 
ATOM     68  C   UNL A   1      42.669  33.781  35.574  1.00  0.00     0.022 A 
BRANCH  65  69
ATOM     69  S   UNL A   1      41.211  32.447  37.542  1.00  0.00     0.124 S 
ATOM     70  O   UNL A   1      39.959  31.837  37.098  1.00  0.00    -0.237 OA
ATOM     71  O   UNL A   1      42.074  31.608  38.364  1.00  0.00    -0.237 OA
ATOM     72  O   UNL A   1      41.098  33.839  37.974  1.00  0.00    -0.744 OA
ENDBRANCH  65  69
ENDBRANCH  48  62
BRANCH  49  73
ATOM     73  C   UNL A   1      42.517  23.986  27.263  1.00  0.00     0.023 A 
ATOM     74  C   UNL A   1      41.963  22.724  27.528  1.00  0.00     0.031 A 
ATOM     75  C   UNL A   1      43.129  24.186  26.012  1.00  0.00     0.131 A 
ATOM     76  C   UNL A   1      42.079  21.695  26.581  1.00  0.00     0.055 A 
ATOM     77  C   UNL A   1      43.192  23.177  25.050  1.00  0.00     0.041 A 
ATOM     78  F   UNL A   1      43.671  25.376  25.704  1.00  0.00    -0.206 F 
ATOM     79  C   UNL A   1      42.677  21.917  25.337  1.00  0.00     0.022 A 
BRANCH  76  80
ATOM     80  S   UNL A   1      41.522  20.029  27.035  1.00  0.00     0.124 S 
ATOM     81  O   UNL A   1      42.767  19.409  27.474  1.00  0.00    -0.237 OA
ATOM     82  O   UNL A   1      40.543  20.313  28.079  1.00  0.00    -0.237 OA
ATOM     83  O   UNL A   1      40.967  19.504  25.788  1.00  0.00    -0.744 OA
ENDBRANCH  76  80
ENDBRANCH  49  73
BRANCH  61  84
ATOM     84  C   UNL A   1      47.071  25.966  32.159  1.00  0.00     0.023 A 
ATOM     85  C   UNL A   1      47.150  25.085  33.252  1.00  0.00     0.031 A 
ATOM     86  C   UNL A   1      48.262  26.306  31.495  1.00  0.00     0.131 A 
ATOM     87  C   UNL A   1      48.401  24.620  33.684  1.00  0.00     0.055 A 
ATOM     88  C   UNL A   1      49.498  25.791  31.891  1.00  0.00     0.041 A 
ATOM     89  F   UNL A   1      48.245  27.145  30.446  1.00  0.00    -0.206 F 
ATOM     90  C   UNL A   1      49.573  24.954  32.999  1.00  0.00     0.022 A 
BRANCH  87  91
ATOM     91  S   UNL A   1      48.488  23.642  35.209  1.00  0.00     0.124 S 
ATOM     92  O   UNL A   1      49.848  23.912  35.665  1.00  0.00    -0.237 OA
ATOM     93  O   UNL A   1      47.418  24.223  36.013  1.00  0.00    -0.237 OA
ATOM     94  O   UNL A   1      48.247  22.274  34.754  1.00  0.00    -0.744 OA
ENDBRANCH  87  91
ENDBRANCH  61  84
ENDBRANCH  35  36
ENDBRANCH  27  30
ENDBRANCH  25  26
ENDBRANCH   1  25
TORSDOF 16
ENDMDL
MODEL 3
REMARK VINA RESULT:     -12.4      5.572     11.158
REMARK SMILES Cn1c(COc2ccc(C(=O)NCCCNC(=O)c3ccc(-c4c5nc(c(-c6cc(S(=O)(=O)[O-])ccc6F)c6ccc([nH]6)c(-c6cc(S(=O)(=O)[O-])ccc6F)c6nc(c(-c7cc(S(=O)(=O)[O-])ccc7F)c7ccc4[nH]7)C=C6)C=C5)cc3)cc2)nc2ccccc21
REMARK SMILES IDX 14 1 13 2 12 3 10 4 11 5 9 7 6 8 7 9 83 10 8 11 82 12 5 13
REMARK SMILES IDX 4 14 3 15 1 16 2 17 90 18 84 19 85 20 89 21 86 22 88 23
REMARK SMILES IDX 87 24 15 25 16 26 17 27 18 29 19 30 20 31 81 32 21 33 80 34
REMARK SMILES IDX 22 35 23 36 24 37 74 38 25 39 79 40 73 41 75 42 26 43 78 44
REMARK SMILES IDX 72 45 71 46 27 48 59 49 39 50 58 51 40 52 43 53 57 54 76 55
REMARK SMILES IDX 41 56 42 57 56 59 77 60 44 61 28 62 29 63 37 64 30 65 36 66
REMARK SMILES IDX 38 67 35 68 31 69 32 70 33 71 34 72 60 73 61 74 69 75 62 76
REMARK SMILES IDX 68 77 70 78 67 79 63 80 64 81 65 82 66 83 45 84 46 85 54 86
REMARK SMILES IDX 47 87 53 88 55 89 52 90 48 91 49 92 50 93 51 94
REMARK H PARENT 12 6 16 28 75 47 43 58
REMARK Flexibility Score: inf
ROOT
ATOM      1  C   UNL A   1      35.666  21.461  24.629  1.00  0.00     0.042 C 
ENDROOT
BRANCH   1   2
ATOM      2  C   UNL A   1      35.019  21.116  25.969  1.00  0.00     0.118 C 
BRANCH   2   3
ATOM      3  N   UNL A   1      33.972  20.116  25.832  1.00  0.00    -0.352 N 
ATOM      4  C   UNL A   1      32.720  20.197  25.272  1.00  0.00     0.251 C 
ATOM      5  O   UNL A   1      32.074  19.164  25.106  1.00  0.00    -0.269 OA
ATOM      6  H   UNL A   1      34.198  19.232  26.202  1.00  0.00     0.163 HD
BRANCH   4   7
ATOM      7  C   UNL A   1      32.153  21.488  24.807  1.00  0.00     0.040 A 
ATOM      8  C   UNL A   1      31.182  23.921  23.839  1.00  0.00     0.120 A 
ATOM      9  C   UNL A   1      31.664  22.973  22.943  1.00  0.00     0.047 A 
ATOM     10  C   UNL A   1      31.081  23.620  25.195  1.00  0.00     0.047 A 
ATOM     11  C   UNL A   1      32.150  21.754  23.428  1.00  0.00     0.017 A 
ATOM     12  C   UNL A   1      31.568  22.407  25.680  1.00  0.00     0.017 A 
BRANCH   8  13
ATOM     13  O   UNL A   1      30.722  25.127  23.381  1.00  0.00    -0.486 OA
BRANCH  13  14
ATOM     14  C   UNL A   1      31.128  26.222  24.233  1.00  0.00     0.304 C 
BRANCH  14  15
ATOM     15  C   UNL A   1      30.462  27.496  23.800  1.00  0.00     0.147 A 
ATOM     16  C   UNL A   1      32.018  29.143  24.944  1.00  0.00     0.151 C 
ATOM     17  N   UNL A   1      30.849  28.762  24.191  1.00  0.00    -0.328 N 
ATOM     18  C   UNL A   1      29.870  29.651  23.801  1.00  0.00     0.068 A 
ATOM     19  N   UNL A   1      29.365  27.563  23.064  1.00  0.00    -0.229 NA
ATOM     20  C   UNL A   1      28.956  28.870  23.105  1.00  0.00     0.089 A 
ATOM     21  C   UNL A   1      29.687  31.026  24.003  1.00  0.00     0.028 A 
ATOM     22  C   UNL A   1      27.790  29.457  22.593  1.00  0.00     0.030 A 
ATOM     23  C   UNL A   1      28.514  31.594  23.496  1.00  0.00     0.002 A 
ATOM     24  C   UNL A   1      27.576  30.824  22.806  1.00  0.00     0.002 A 
ENDBRANCH  14  15
ENDBRANCH  13  14
ENDBRANCH   8  13
ENDBRANCH   4   7
ENDBRANCH   2   3
ENDBRANCH   1   2
BRANCH   1  25
ATOM     25  C   UNL A   1      37.145  21.822  24.728  1.00  0.00     0.118 C 
BRANCH  25  26
ATOM     26  N   UNL A   1      37.933  20.753  25.321  1.00  0.00    -0.352 N 
ATOM     27  C   UNL A   1      39.138  20.802  25.982  1.00  0.00     0.251 C 
ATOM     28  H   UNL A   1      37.543  19.854  25.237  1.00  0.00     0.163 HD
ATOM     29  O   UNL A   1      39.734  19.752  26.202  1.00  0.00    -0.269 OA
BRANCH  27  30
ATOM     30  C   UNL A   1      39.724  22.095  26.408  1.00  0.00     0.039 A 
ATOM     31  C   UNL A   1      40.799  22.082  27.303  1.00  0.00     0.014 A 
ATOM     32  C   UNL A   1      39.200  23.316  25.973  1.00  0.00     0.014 A 
ATOM     33  C   UNL A   1      41.384  23.284  27.710  1.00  0.00     0.010 A 
ATOM     34  C   UNL A   1      39.828  24.511  26.326  1.00  0.00     0.010 A 
ATOM     35  C   UNL A   1      40.927  24.509  27.198  1.00  0.00    -0.014 A 
BRANCH  35  36
ATOM     36  C   UNL A   1      41.589  25.792  27.558  1.00  0.00     0.031 A 
ATOM     37  C   UNL A   1      40.845  26.837  28.343  1.00  0.00     0.074 A 
ATOM     38  C   UNL A   1      42.843  26.037  27.125  1.00  0.00     0.049 A 
ATOM     39  N   UNL A   1      41.217  28.047  28.674  1.00  0.00    -0.248 NA
ATOM     40  C   UNL A   1      39.492  26.481  28.795  1.00  0.00     0.031 C 
ATOM     41  C   UNL A   1      43.654  25.115  26.327  1.00  0.00     0.029 A 
ATOM     42  N   UNL A   1      43.649  27.137  27.280  1.00  0.00    -0.354 N 
ATOM     43  C   UNL A   1      40.145  28.600  29.367  1.00  0.00     0.074 A 
ATOM     44  C   UNL A   1      39.086  27.612  29.355  1.00  0.00     0.031 C 
ATOM     45  C   UNL A   1      44.844  25.683  26.073  1.00  0.00     0.029 A 
ATOM     46  C   UNL A   1      44.866  27.025  26.647  1.00  0.00     0.049 A 
ATOM     47  H   UNL A   1      43.382  27.932  27.796  1.00  0.00     0.167 HD
ATOM     48  C   UNL A   1      40.060  29.810  29.975  1.00  0.00     0.034 A 
ATOM     49  C   UNL A   1      45.877  27.908  26.522  1.00  0.00     0.034 A 
ATOM     50  C   UNL A   1      41.126  30.784  29.979  1.00  0.00     0.049 A 
ATOM     51  C   UNL A   1      45.745  29.261  27.177  1.00  0.00     0.074 A 
ATOM     52  C   UNL A   1      41.158  32.024  30.595  1.00  0.00     0.029 A 
ATOM     53  N   UNL A   1      42.345  30.633  29.333  1.00  0.00    -0.354 N 
ATOM     54  N   UNL A   1      44.738  29.751  27.864  1.00  0.00    -0.248 NA
ATOM     55  C   UNL A   1      46.889  30.172  27.051  1.00  0.00     0.031 C 
ATOM     56  C   UNL A   1      42.368  32.646  30.267  1.00  0.00     0.029 A 
ATOM     57  C   UNL A   1      43.125  31.766  29.512  1.00  0.00     0.049 A 
ATOM     58  H   UNL A   1      42.618  29.836  28.821  1.00  0.00     0.167 HD
ATOM     59  C   UNL A   1      45.142  31.019  28.274  1.00  0.00     0.074 A 
ATOM     60  C   UNL A   1      46.489  31.207  27.776  1.00  0.00     0.031 C 
ATOM     61  C   UNL A   1      44.462  31.944  28.999  1.00  0.00     0.034 A 
BRANCH  48  62
ATOM     62  C   UNL A   1      38.761  30.151  30.667  1.00  0.00     0.023 A 
ATOM     63  C   UNL A   1      37.740  30.857  30.007  1.00  0.00     0.031 A 
ATOM     64  C   UNL A   1      38.544  29.779  32.006  1.00  0.00     0.131 A 
ATOM     65  C   UNL A   1      36.581  31.231  30.705  1.00  0.00     0.055 A 
ATOM     66  C   UNL A   1      37.354  30.085  32.671  1.00  0.00     0.041 A 
ATOM     67  F   UNL A   1      39.489  29.120  32.694  1.00  0.00    -0.206 F 
ATOM     68  C   UNL A   1      36.371  30.828  32.026  1.00  0.00     0.022 A 
BRANCH  65  69
ATOM     69  S   UNL A   1      35.416  32.366  29.904  1.00  0.00     0.124 S 
ATOM     70  O   UNL A   1      35.035  31.608  28.715  1.00  0.00    -0.237 OA
ATOM     71  O   UNL A   1      34.381  32.525  30.919  1.00  0.00    -0.237 OA
ATOM     72  O   UNL A   1      36.222  33.558  29.644  1.00  0.00    -0.744 OA
ENDBRANCH  65  69
ENDBRANCH  48  62
BRANCH  49  73
ATOM     73  C   UNL A   1      47.091  27.563  25.727  1.00  0.00     0.023 A 
ATOM     74  C   UNL A   1      47.187  27.897  24.367  1.00  0.00     0.031 A 
ATOM     75  C   UNL A   1      48.155  26.848  26.306  1.00  0.00     0.131 A 
ATOM     76  C   UNL A   1      48.294  27.471  23.618  1.00  0.00     0.055 A 
ATOM     77  C   UNL A   1      49.281  26.476  25.570  1.00  0.00     0.041 A 
ATOM     78  F   UNL A   1      48.117  26.507  27.604  1.00  0.00    -0.206 F 
ATOM     79  C   UNL A   1      49.349  26.774  24.213  1.00  0.00     0.022 A 
BRANCH  76  80
ATOM     80  S   UNL A   1      48.291  27.755  21.826  1.00  0.00     0.124 S 
ATOM     81  O   UNL A   1      46.966  28.328  21.618  1.00  0.00    -0.237 OA
ATOM     82  O   UNL A   1      49.418  28.668  21.664  1.00  0.00    -0.237 OA
ATOM     83  O   UNL A   1      48.488  26.418  21.269  1.00  0.00    -0.744 OA
ENDBRANCH  76  80
ENDBRANCH  49  73
BRANCH  61  84
ATOM     84  C   UNL A   1      45.191  33.225  29.327  1.00  0.00     0.023 A 
ATOM     85  C   UNL A   1      45.133  34.347  28.482  1.00  0.00     0.031 A 
ATOM     86  C   UNL A   1      45.965  33.317  30.497  1.00  0.00     0.131 A 
ATOM     87  C   UNL A   1      45.881  35.493  28.790  1.00  0.00     0.055 A 
ATOM     88  C   UNL A   1      46.659  34.482  30.830  1.00  0.00     0.041 A 
ATOM     89  F   UNL A   1      46.058  32.275  31.339  1.00  0.00    -0.206 F 
ATOM     90  C   UNL A   1      46.630  35.573  29.967  1.00  0.00     0.022 A 
BRANCH  87  91
ATOM     91  S   UNL A   1      45.936  36.848  27.585  1.00  0.00     0.124 S 
ATOM     92  O   UNL A   1      44.612  37.441  27.735  1.00  0.00    -0.237 OA
ATOM     93  O   UNL A   1      47.054  37.651  28.069  1.00  0.00    -0.237 OA
ATOM     94  O   UNL A   1      46.170  36.166  26.313  1.00  0.00    -0.744 OA
ENDBRANCH  87  91
ENDBRANCH  61  84
ENDBRANCH  35  36
ENDBRANCH  27  30
ENDBRANCH  25  26
ENDBRANCH   1  25
TORSDOF 16
ENDMDL
