MODEL 1
REMARK VINA RESULT:     -11.6      0.000      0.000
REMARK SMILES CC[C@](C)(NC(=O)Cc1cccc(F)c1)C(=O)NCCCNC(=O)c1ccc(-c2c3nc(c(-c4cc(S(=O)(=O)[O-])ccc4F)c4ccc([nH]4)c(-c4cc(S(=O)(=O)[O-])ccc4F)c4nc(c(-c5cc(S(=O)(=O)[O-])ccc5F)c5ccc2[nH]5)C=C4)C=C3)cc1
REMARK SMILES IDX 20 1 19 2 18 3 16 4 17 5 3 7 4 8 2 9 1 10 5 11 6 12 7 14
REMARK SMILES IDX 8 15 9 16 10 17 15 18 11 19 13 20 12 21 14 22 21 23 22 24
REMARK SMILES IDX 23 25 24 27 25 28 26 29 87 30 27 31 86 32 28 33 29 34 30 35
REMARK SMILES IDX 80 36 31 37 85 38 79 39 81 40 32 41 84 42 78 43 77 44 33 46
REMARK SMILES IDX 65 47 45 48 64 49 46 50 49 51 63 52 82 53 47 54 48 55 62 57
REMARK SMILES IDX 83 58 50 59 34 60 35 61 43 62 36 63 42 64 44 65 41 66 37 67
REMARK SMILES IDX 38 68 39 69 40 70 66 71 67 72 75 73 68 74 74 75 76 76 73 77
REMARK SMILES IDX 69 78 70 79 71 80 72 81 51 82 52 83 60 84 53 85 59 86 61 87
REMARK SMILES IDX 58 88 54 89 55 90 56 91 57 92
REMARK H PARENT 18 6 5 13 22 26 81 45 49 56
REMARK Flexibility Score: inf
ROOT
ATOM      1  C   UNL A   1      38.450  19.485  24.977  1.00  0.00     0.042 C 
ENDROOT
BRANCH   1   2
ATOM      2  C   UNL A   1      37.420  20.563  24.656  1.00  0.00     0.117 C 
BRANCH   2   3
ATOM      3  N   UNL A   1      37.847  21.926  24.935  1.00  0.00    -0.354 N 
ATOM      4  C   UNL A   1      37.158  23.067  25.236  1.00  0.00     0.245 C 
ATOM      5  O   UNL A   1      37.836  24.010  25.656  1.00  0.00    -0.272 OA
ATOM      6  H   UNL A   1      38.823  22.051  24.901  1.00  0.00     0.163 HD
BRANCH   4   7
ATOM      7  C   UNL A   1      35.603  23.139  25.213  1.00  0.00     0.116 C 
ATOM      8  C   UNL A   1      35.045  22.919  23.792  1.00  0.00     0.045 C 
BRANCH   7   9
ATOM      9  C   UNL A   1      35.178  24.571  25.675  1.00  0.00     0.035 C 
ATOM     10  C   UNL A   1      34.300  25.352  24.697  1.00  0.00     0.007 C 
ENDBRANCH   7   9
BRANCH   7  11
ATOM     11  N   UNL A   1      34.974  22.150  26.126  1.00  0.00    -0.342 N 
ATOM     12  C   UNL A   1      33.729  21.585  26.118  1.00  0.00     0.225 C 
ATOM     13  H   UNL A   1      35.553  21.849  26.863  1.00  0.00     0.164 HD
ATOM     14  O   UNL A   1      33.280  21.222  27.209  1.00  0.00    -0.275 OA
BRANCH  12  15
ATOM     15  C   UNL A   1      32.970  21.285  24.835  1.00  0.00     0.135 C 
BRANCH  15  16
ATOM     16  C   UNL A   1      33.159  19.917  24.244  1.00  0.00    -0.036 A 
ATOM     17  C   UNL A   1      32.309  19.479  23.213  1.00  0.00     0.004 A 
ATOM     18  C   UNL A   1      34.172  19.061  24.693  1.00  0.00     0.043 A 
ATOM     19  C   UNL A   1      32.418  18.187  22.696  1.00  0.00     0.003 A 
ATOM     20  C   UNL A   1      34.275  17.777  24.164  1.00  0.00     0.123 A 
ATOM     21  C   UNL A   1      33.399  17.329  23.181  1.00  0.00     0.039 A 
ATOM     22  F   UNL A   1      35.221  16.948  24.626  1.00  0.00    -0.207 F 
ENDBRANCH  15  16
ENDBRANCH  12  15
ENDBRANCH   7  11
ENDBRANCH   4   7
ENDBRANCH   2   3
ENDBRANCH   1   2
BRANCH   1  23
ATOM     23  C   UNL A   1      39.505  19.875  26.005  1.00  0.00     0.118 C 
BRANCH  23  24
ATOM     24  N   UNL A   1      40.632  18.961  26.027  1.00  0.00    -0.352 N 
ATOM     25  C   UNL A   1      41.981  19.215  26.102  1.00  0.00     0.251 C 
ATOM     26  H   UNL A   1      40.392  18.007  25.979  1.00  0.00     0.163 HD
ATOM     27  O   UNL A   1      42.767  18.293  25.901  1.00  0.00    -0.269 OA
BRANCH  25  28
ATOM     28  C   UNL A   1      42.491  20.576  26.396  1.00  0.00     0.039 A 
ATOM     29  C   UNL A   1      42.905  21.377  25.327  1.00  0.00     0.014 A 
ATOM     30  C   UNL A   1      42.616  21.049  27.706  1.00  0.00     0.014 A 
ATOM     31  C   UNL A   1      43.388  22.667  25.568  1.00  0.00     0.010 A 
ATOM     32  C   UNL A   1      43.033  22.361  27.939  1.00  0.00     0.010 A 
ATOM     33  C   UNL A   1      43.428  23.183  26.873  1.00  0.00    -0.014 A 
BRANCH  33  34
ATOM     34  C   UNL A   1      43.896  24.570  27.134  1.00  0.00     0.031 A 
ATOM     35  C   UNL A   1      42.940  25.607  27.663  1.00  0.00     0.074 A 
ATOM     36  C   UNL A   1      45.174  24.908  26.869  1.00  0.00     0.049 A 
ATOM     37  N   UNL A   1      43.145  26.879  27.891  1.00  0.00    -0.248 NA
ATOM     38  C   UNL A   1      41.570  25.159  27.957  1.00  0.00     0.031 C 
ATOM     39  C   UNL A   1      46.194  24.003  26.337  1.00  0.00     0.029 A 
ATOM     40  N   UNL A   1      45.835  26.103  27.011  1.00  0.00    -0.354 N 
ATOM     41  C   UNL A   1      41.931  27.386  28.342  1.00  0.00     0.074 A 
ATOM     42  C   UNL A   1      40.983  26.293  28.312  1.00  0.00     0.031 C 
ATOM     43  C   UNL A   1      47.357  24.664  26.230  1.00  0.00     0.029 A 
ATOM     44  C   UNL A   1      47.159  26.050  26.642  1.00  0.00     0.049 A 
ATOM     45  H   UNL A   1      45.402  26.921  27.347  1.00  0.00     0.167 HD
ATOM     46  C   UNL A   1      41.640  28.642  28.760  1.00  0.00     0.034 A 
ATOM     47  C   UNL A   1      48.107  27.010  26.626  1.00  0.00     0.034 A 
ATOM     48  C   UNL A   1      42.594  29.719  28.813  1.00  0.00     0.049 A 
ATOM     49  C   UNL A   1      47.752  28.403  27.068  1.00  0.00     0.074 A 
ATOM     50  C   UNL A   1      42.406  31.013  29.267  1.00  0.00     0.029 A 
ATOM     51  N   UNL A   1      43.917  29.632  28.400  1.00  0.00    -0.354 N 
ATOM     52  N   UNL A   1      46.597  28.863  27.490  1.00  0.00    -0.248 NA
ATOM     53  C   UNL A   1      48.824  29.408  27.032  1.00  0.00     0.031 C 
ATOM     54  C   UNL A   1      43.596  31.722  29.080  1.00  0.00     0.029 A 
ATOM     55  C   UNL A   1      44.547  30.854  28.567  1.00  0.00     0.049 A 
ATOM     56  H   UNL A   1      44.343  28.820  28.042  1.00  0.00     0.167 HD
ATOM     57  C   UNL A   1      46.809  30.205  27.786  1.00  0.00     0.074 A 
ATOM     58  C   UNL A   1      48.201  30.483  27.498  1.00  0.00     0.031 C 
ATOM     59  C   UNL A   1      45.930  31.123  28.261  1.00  0.00     0.034 A 
BRANCH  46  60
ATOM     60  C   UNL A   1      40.221  28.924  29.183  1.00  0.00     0.023 A 
ATOM     61  C   UNL A   1      39.835  28.883  30.532  1.00  0.00     0.031 A 
ATOM     62  C   UNL A   1      39.249  29.260  28.224  1.00  0.00     0.131 A 
ATOM     63  C   UNL A   1      38.498  29.128  30.882  1.00  0.00     0.055 A 
ATOM     64  C   UNL A   1      37.936  29.565  28.585  1.00  0.00     0.041 A 
ATOM     65  F   UNL A   1      39.562  29.298  26.918  1.00  0.00    -0.206 F 
ATOM     66  C   UNL A   1      37.552  29.491  29.921  1.00  0.00     0.022 A 
BRANCH  63  67
ATOM     67  S   UNL A   1      37.993  28.886  32.606  1.00  0.00     0.124 S 
ATOM     68  O   UNL A   1      36.630  29.410  32.590  1.00  0.00    -0.237 OA
ATOM     69  O   UNL A   1      38.121  27.443  32.777  1.00  0.00    -0.237 OA
ATOM     70  O   UNL A   1      38.954  29.688  33.361  1.00  0.00    -0.744 OA
ENDBRANCH  63  67
ENDBRANCH  46  60
BRANCH  47  71
ATOM     71  C   UNL A   1      49.483  26.684  26.161  1.00  0.00     0.023 A 
ATOM     72  C   UNL A   1      49.924  27.074  24.887  1.00  0.00     0.031 A 
ATOM     73  C   UNL A   1      50.377  25.985  26.990  1.00  0.00     0.131 A 
ATOM     74  C   UNL A   1      51.223  26.746  24.470  1.00  0.00     0.055 A 
ATOM     75  C   UNL A   1      51.679  25.691  26.584  1.00  0.00     0.041 A 
ATOM     76  F   UNL A   1      50.001  25.602  28.220  1.00  0.00    -0.206 F 
ATOM     77  C   UNL A   1      52.108  26.068  25.314  1.00  0.00     0.022 A 
BRANCH  74  78
ATOM     78  S   UNL A   1      51.743  27.203  22.794  1.00  0.00     0.124 S 
ATOM     79  O   UNL A   1      52.952  26.405  22.630  1.00  0.00    -0.237 OA
ATOM     80  O   UNL A   1      50.591  26.797  21.995  1.00  0.00    -0.237 OA
ATOM     81  O   UNL A   1      51.953  28.647  22.885  1.00  0.00    -0.744 OA
ENDBRANCH  74  78
ENDBRANCH  47  71
BRANCH  59  82
ATOM     82  C   UNL A   1      46.450  32.509  28.528  1.00  0.00     0.023 A 
ATOM     83  C   UNL A   1      46.412  33.510  27.543  1.00  0.00     0.031 A 
ATOM     84  C   UNL A   1      46.943  32.842  29.802  1.00  0.00     0.131 A 
ATOM     85  C   UNL A   1      46.883  34.797  27.844  1.00  0.00     0.055 A 
ATOM     86  C   UNL A   1      47.370  34.135  30.107  1.00  0.00     0.041 A 
ATOM     87  F   UNL A   1      46.995  31.920  30.776  1.00  0.00    -0.206 F 
ATOM     88  C   UNL A   1      47.345  35.120  29.123  1.00  0.00     0.022 A 
BRANCH  85  89
ATOM     89  S   UNL A   1      46.902  36.050  26.532  1.00  0.00     0.124 S 
ATOM     90  O   UNL A   1      48.331  36.303  26.377  1.00  0.00    -0.237 OA
ATOM     91  O   UNL A   1      46.254  35.358  25.423  1.00  0.00    -0.237 OA
ATOM     92  O   UNL A   1      46.134  37.155  27.102  1.00  0.00    -0.744 OA
ENDBRANCH  85  89
ENDBRANCH  59  82
ENDBRANCH  33  34
ENDBRANCH  25  28
ENDBRANCH  23  24
ENDBRANCH   1  23
TORSDOF 17
ENDMDL
MODEL 2
REMARK VINA RESULT:     -11.6      6.084      9.030
REMARK SMILES CC[C@](C)(NC(=O)Cc1cccc(F)c1)C(=O)NCCCNC(=O)c1ccc(-c2c3nc(c(-c4cc(S(=O)(=O)[O-])ccc4F)c4ccc([nH]4)c(-c4cc(S(=O)(=O)[O-])ccc4F)c4nc(c(-c5cc(S(=O)(=O)[O-])ccc5F)c5ccc2[nH]5)C=C4)C=C3)cc1
REMARK SMILES IDX 20 1 19 2 18 3 16 4 17 5 3 7 4 8 2 9 1 10 5 11 6 12 7 14
REMARK SMILES IDX 8 15 9 16 10 17 15 18 11 19 13 20 12 21 14 22 21 23 22 24
REMARK SMILES IDX 23 25 24 27 25 28 26 29 87 30 27 31 86 32 28 33 29 34 30 35
REMARK SMILES IDX 80 36 31 37 85 38 79 39 81 40 32 41 84 42 78 43 77 44 33 46
REMARK SMILES IDX 65 47 45 48 64 49 46 50 49 51 63 52 82 53 47 54 48 55 62 57
REMARK SMILES IDX 83 58 50 59 34 60 35 61 43 62 36 63 42 64 44 65 41 66 37 67
REMARK SMILES IDX 38 68 39 69 40 70 66 71 67 72 75 73 68 74 74 75 76 76 73 77
REMARK SMILES IDX 69 78 70 79 71 80 72 81 51 82 52 83 60 84 53 85 59 86 61 87
REMARK SMILES IDX 58 88 54 89 55 90 56 91 57 92
REMARK H PARENT 18 6 5 13 22 26 81 45 49 56
REMARK Flexibility Score: inf
ROOT
ATOM      1  C   UNL A   1      31.821  28.151  26.171  1.00  0.00     0.042 C 
ENDROOT
BRANCH   1   2
ATOM      2  C   UNL A   1      32.473  26.798  26.437  1.00  0.00     0.117 C 
BRANCH   2   3
ATOM      3  N   UNL A   1      31.547  25.718  26.747  1.00  0.00    -0.354 N 
ATOM      4  C   UNL A   1      31.619  24.364  26.585  1.00  0.00     0.245 C 
ATOM      5  O   UNL A   1      30.757  23.705  27.175  1.00  0.00    -0.272 OA
ATOM      6  H   UNL A   1      30.704  26.024  27.155  1.00  0.00     0.163 HD
BRANCH   4   7
ATOM      7  C   UNL A   1      32.797  23.669  25.841  1.00  0.00     0.116 C 
ATOM      8  C   UNL A   1      32.359  22.336  25.203  1.00  0.00     0.045 C 
BRANCH   7   9
ATOM      9  C   UNL A   1      33.911  23.350  26.891  1.00  0.00     0.035 C 
ATOM     10  C   UNL A   1      34.815  22.163  26.562  1.00  0.00     0.007 C 
ENDBRANCH   7   9
BRANCH   7  11
ATOM     11  N   UNL A   1      33.388  24.529  24.783  1.00  0.00    -0.342 N 
ATOM     12  C   UNL A   1      33.042  24.705  23.472  1.00  0.00     0.225 C 
ATOM     13  H   UNL A   1      34.161  25.063  25.076  1.00  0.00     0.164 HD
ATOM     14  O   UNL A   1      33.947  25.040  22.703  1.00  0.00    -0.275 OA
BRANCH  12  15
ATOM     15  C   UNL A   1      31.604  24.629  22.984  1.00  0.00     0.135 C 
BRANCH  15  16
ATOM     16  C   UNL A   1      30.791  25.889  23.085  1.00  0.00    -0.036 A 
ATOM     17  C   UNL A   1      29.574  25.879  23.791  1.00  0.00     0.004 A 
ATOM     18  C   UNL A   1      31.220  27.085  22.496  1.00  0.00     0.043 A 
ATOM     19  C   UNL A   1      28.766  27.015  23.840  1.00  0.00     0.003 A 
ATOM     20  C   UNL A   1      30.407  28.214  22.558  1.00  0.00     0.123 A 
ATOM     21  C   UNL A   1      29.180  28.185  23.213  1.00  0.00     0.039 A 
ATOM     22  F   UNL A   1      30.803  29.344  21.959  1.00  0.00    -0.207 F 
ENDBRANCH  15  16
ENDBRANCH  12  15
ENDBRANCH   7  11
ENDBRANCH   4   7
ENDBRANCH   2   3
ENDBRANCH   1   2
BRANCH   1  23
ATOM     23  C   UNL A   1      32.715  29.186  25.500  1.00  0.00     0.118 C 
BRANCH  23  24
ATOM     24  N   UNL A   1      32.401  30.545  25.902  1.00  0.00    -0.352 N 
ATOM     25  C   UNL A   1      32.961  31.334  26.878  1.00  0.00     0.251 C 
ATOM     26  H   UNL A   1      31.670  30.967  25.396  1.00  0.00     0.163 HD
ATOM     27  O   UNL A   1      32.400  32.384  27.181  1.00  0.00    -0.269 OA
BRANCH  25  28
ATOM     28  C   UNL A   1      34.204  30.927  27.576  1.00  0.00     0.039 A 
ATOM     29  C   UNL A   1      35.175  31.900  27.831  1.00  0.00     0.014 A 
ATOM     30  C   UNL A   1      34.446  29.597  27.934  1.00  0.00     0.014 A 
ATOM     31  C   UNL A   1      36.357  31.552  28.490  1.00  0.00     0.010 A 
ATOM     32  C   UNL A   1      35.595  29.264  28.653  1.00  0.00     0.010 A 
ATOM     33  C   UNL A   1      36.567  30.237  28.935  1.00  0.00    -0.014 A 
BRANCH  33  34
ATOM     34  C   UNL A   1      37.800  29.867  29.679  1.00  0.00     0.031 A 
ATOM     35  C   UNL A   1      38.041  30.404  31.065  1.00  0.00     0.074 A 
ATOM     36  C   UNL A   1      38.719  29.069  29.098  1.00  0.00     0.049 A 
ATOM     37  N   UNL A   1      39.082  30.246  31.842  1.00  0.00    -0.248 NA
ATOM     38  C   UNL A   1      36.982  31.243  31.645  1.00  0.00     0.031 C 
ATOM     39  C   UNL A   1      38.613  28.497  27.755  1.00  0.00     0.029 A 
ATOM     40  N   UNL A   1      39.922  28.598  29.564  1.00  0.00    -0.354 N 
ATOM     41  C   UNL A   1      38.811  30.975  32.995  1.00  0.00     0.074 A 
ATOM     42  C   UNL A   1      37.526  31.611  32.796  1.00  0.00     0.031 C 
ATOM     43  C   UNL A   1      39.688  27.728  27.518  1.00  0.00     0.029 A 
ATOM     44  C   UNL A   1      40.581  27.785  28.671  1.00  0.00     0.049 A 
ATOM     45  H   UNL A   1      40.280  28.823  30.454  1.00  0.00     0.167 HD
ATOM     46  C   UNL A   1      39.554  31.086  34.122  1.00  0.00     0.034 A 
ATOM     47  C   UNL A   1      41.774  27.162  28.763  1.00  0.00     0.034 A 
ATOM     48  C   UNL A   1      40.820  30.429  34.325  1.00  0.00     0.049 A 
ATOM     49  C   UNL A   1      42.594  27.324  30.014  1.00  0.00     0.074 A 
ATOM     50  C   UNL A   1      41.625  30.442  35.451  1.00  0.00     0.029 A 
ATOM     51  N   UNL A   1      41.466  29.639  33.384  1.00  0.00    -0.354 N 
ATOM     52  N   UNL A   1      42.321  28.019  31.093  1.00  0.00    -0.248 NA
ATOM     53  C   UNL A   1      43.884  26.622  30.060  1.00  0.00     0.031 C 
ATOM     54  C   UNL A   1      42.781  29.706  35.173  1.00  0.00     0.029 A 
ATOM     55  C   UNL A   1      42.670  29.182  33.895  1.00  0.00     0.049 A 
ATOM     56  H   UNL A   1      41.120  29.435  32.486  1.00  0.00     0.167 HD
ATOM     57  C   UNL A   1      43.395  27.822  31.953  1.00  0.00     0.074 A 
ATOM     58  C   UNL A   1      44.322  26.942  31.271  1.00  0.00     0.031 C 
ATOM     59  C   UNL A   1      43.593  28.319  33.199  1.00  0.00     0.034 A 
BRANCH  46  60
ATOM     60  C   UNL A   1      39.023  31.967  35.224  1.00  0.00     0.023 A 
ATOM     61  C   UNL A   1      38.464  31.424  36.393  1.00  0.00     0.031 A 
ATOM     62  C   UNL A   1      39.098  33.366  35.112  1.00  0.00     0.131 A 
ATOM     63  C   UNL A   1      37.958  32.278  37.385  1.00  0.00     0.055 A 
ATOM     64  C   UNL A   1      38.651  34.209  36.130  1.00  0.00     0.041 A 
ATOM     65  F   UNL A   1      39.609  33.936  34.008  1.00  0.00    -0.206 F 
ATOM     66  C   UNL A   1      38.069  33.666  37.272  1.00  0.00     0.022 A 
BRANCH  63  67
ATOM     67  S   UNL A   1      37.078  31.549  38.792  1.00  0.00     0.124 S 
ATOM     68  O   UNL A   1      35.875  32.375  38.846  1.00  0.00    -0.237 OA
ATOM     69  O   UNL A   1      36.886  30.167  38.367  1.00  0.00    -0.237 OA
ATOM     70  O   UNL A   1      38.004  31.733  39.908  1.00  0.00    -0.744 OA
ENDBRANCH  63  67
ENDBRANCH  46  60
BRANCH  47  71
ATOM     71  C   UNL A   1      42.268  26.337  27.627  1.00  0.00     0.023 A 
ATOM     72  C   UNL A   1      41.921  24.982  27.517  1.00  0.00     0.031 A 
ATOM     73  C   UNL A   1      43.087  26.898  26.632  1.00  0.00     0.131 A 
ATOM     74  C   UNL A   1      42.408  24.224  26.441  1.00  0.00     0.055 A 
ATOM     75  C   UNL A   1      43.541  26.149  25.546  1.00  0.00     0.041 A 
ATOM     76  F   UNL A   1      43.435  28.193  26.692  1.00  0.00    -0.206 F 
ATOM     77  C   UNL A   1      43.206  24.802  25.448  1.00  0.00     0.022 A 
BRANCH  74  78
ATOM     78  S   UNL A   1      41.999  22.459  26.361  1.00  0.00     0.124 S 
ATOM     79  O   UNL A   1      40.550  22.497  26.209  1.00  0.00    -0.237 OA
ATOM     80  O   UNL A   1      42.758  22.022  25.193  1.00  0.00    -0.237 OA
ATOM     81  O   UNL A   1      42.481  21.941  27.640  1.00  0.00    -0.744 OA
ENDBRANCH  74  78
ENDBRANCH  47  71
BRANCH  59  82
ATOM     82  C   UNL A   1      44.845  27.905  33.923  1.00  0.00     0.023 A 
ATOM     83  C   UNL A   1      44.887  26.743  34.711  1.00  0.00     0.031 A 
ATOM     84  C   UNL A   1      46.022  28.659  33.779  1.00  0.00     0.131 A 
ATOM     85  C   UNL A   1      46.084  26.379  35.347  1.00  0.00     0.055 A 
ATOM     86  C   UNL A   1      47.220  28.269  34.380  1.00  0.00     0.041 A 
ATOM     87  F   UNL A   1      46.032  29.775  33.033  1.00  0.00    -0.206 F 
ATOM     88  C   UNL A   1      47.253  27.124  35.172  1.00  0.00     0.022 A 
BRANCH  85  89
ATOM     89  S   UNL A   1      46.092  24.921  36.427  1.00  0.00     0.124 S 
ATOM     90  O   UNL A   1      47.256  25.176  37.270  1.00  0.00    -0.237 OA
ATOM     91  O   UNL A   1      44.795  25.010  37.089  1.00  0.00    -0.237 OA
ATOM     92  O   UNL A   1      46.233  23.805  35.494  1.00  0.00    -0.744 OA
ENDBRANCH  85  89
ENDBRANCH  59  82
ENDBRANCH  33  34
ENDBRANCH  25  28
ENDBRANCH  23  24
ENDBRANCH   1  23
TORSDOF 17
ENDMDL
MODEL 3
REMARK VINA RESULT:     -11.5      6.068     10.916
REMARK SMILES CC[C@](C)(NC(=O)Cc1cccc(F)c1)C(=O)NCCCNC(=O)c1ccc(-c2c3nc(c(-c4cc(S(=O)(=O)[O-])ccc4F)c4ccc([nH]4)c(-c4cc(S(=O)(=O)[O-])ccc4F)c4nc(c(-c5cc(S(=O)(=O)[O-])ccc5F)c5ccc2[nH]5)C=C4)C=C3)cc1
REMARK SMILES IDX 20 1 19 2 18 3 16 4 17 5 3 7 4 8 2 9 1 10 5 11 6 12 7 14
REMARK SMILES IDX 8 15 9 16 10 17 15 18 11 19 13 20 12 21 14 22 21 23 22 24
REMARK SMILES IDX 23 25 24 27 25 28 26 29 87 30 27 31 86 32 28 33 29 34 30 35
REMARK SMILES IDX 80 36 31 37 85 38 79 39 81 40 32 41 84 42 78 43 77 44 33 46
REMARK SMILES IDX 65 47 45 48 64 49 46 50 49 51 63 52 82 53 47 54 48 55 62 57
REMARK SMILES IDX 83 58 50 59 34 60 35 61 43 62 36 63 42 64 44 65 41 66 37 67
REMARK SMILES IDX 38 68 39 69 40 70 66 71 67 72 75 73 68 74 74 75 76 76 73 77
REMARK SMILES IDX 69 78 70 79 71 80 72 81 51 82 52 83 60 84 53 85 59 86 61 87
REMARK SMILES IDX 58 88 54 89 55 90 56 91 57 92
REMARK H PARENT 18 6 5 13 22 26 81 45 49 56
REMARK Flexibility Score: inf
ROOT
ATOM      1  C   UNL A   1      33.259  29.066  23.991  1.00  0.00     0.042 C 
ENDROOT
BRANCH   1   2
ATOM      2  C   UNL A   1      32.238  28.411  23.066  1.00  0.00     0.117 C 
BRANCH   2   3
ATOM      3  N   UNL A   1      32.805  27.632  21.975  1.00  0.00    -0.354 N 
ATOM      4  C   UNL A   1      32.983  26.290  21.793  1.00  0.00     0.245 C 
ATOM      5  O   UNL A   1      33.277  25.937  20.645  1.00  0.00    -0.272 OA
ATOM      6  H   UNL A   1      33.122  28.180  21.220  1.00  0.00     0.163 HD
BRANCH   4   7
ATOM      7  C   UNL A   1      32.682  25.244  22.906  1.00  0.00     0.116 C 
ATOM      8  C   UNL A   1      31.581  25.738  23.866  1.00  0.00     0.045 C 
BRANCH   7   9
ATOM      9  C   UNL A   1      33.986  25.039  23.743  1.00  0.00     0.035 C 
ATOM     10  C   UNL A   1      33.963  25.607  25.162  1.00  0.00     0.007 C 
ENDBRANCH   7   9
BRANCH   7  11
ATOM     11  N   UNL A   1      32.271  23.928  22.353  1.00  0.00    -0.342 N 
ATOM     12  C   UNL A   1      32.017  22.734  22.969  1.00  0.00     0.225 C 
ATOM     13  H   UNL A   1      32.163  23.912  21.374  1.00  0.00     0.164 HD
ATOM     14  O   UNL A   1      32.202  21.715  22.297  1.00  0.00    -0.275 OA
BRANCH  12  15
ATOM     15  C   UNL A   1      31.413  22.640  24.362  1.00  0.00     0.135 C 
BRANCH  15  16
ATOM     16  C   UNL A   1      32.367  22.381  25.494  1.00  0.00    -0.036 A 
ATOM     17  C   UNL A   1      32.008  22.742  26.804  1.00  0.00     0.004 A 
ATOM     18  C   UNL A   1      33.612  21.779  25.276  1.00  0.00     0.043 A 
ATOM     19  C   UNL A   1      32.903  22.578  27.862  1.00  0.00     0.003 A 
ATOM     20  C   UNL A   1      34.494  21.614  26.341  1.00  0.00     0.123 A 
ATOM     21  C   UNL A   1      34.155  22.020  27.628  1.00  0.00     0.039 A 
ATOM     22  F   UNL A   1      35.700  21.074  26.121  1.00  0.00    -0.207 F 
ENDBRANCH  15  16
ENDBRANCH  12  15
ENDBRANCH   7  11
ENDBRANCH   4   7
ENDBRANCH   2   3
ENDBRANCH   1   2
BRANCH   1  23
ATOM     23  C   UNL A   1      32.854  29.150  25.457  1.00  0.00     0.118 C 
BRANCH  23  24
ATOM     24  N   UNL A   1      32.471  30.490  25.858  1.00  0.00    -0.352 N 
ATOM     25  C   UNL A   1      32.952  31.287  26.869  1.00  0.00     0.251 C 
ATOM     26  H   UNL A   1      31.750  30.892  25.321  1.00  0.00     0.163 HD
ATOM     27  O   UNL A   1      32.339  32.312  27.155  1.00  0.00    -0.269 OA
BRANCH  25  28
ATOM     28  C   UNL A   1      34.174  30.917  27.623  1.00  0.00     0.039 A 
ATOM     29  C   UNL A   1      35.107  31.917  27.912  1.00  0.00     0.014 A 
ATOM     30  C   UNL A   1      34.434  29.596  28.001  1.00  0.00     0.014 A 
ATOM     31  C   UNL A   1      36.269  31.604  28.625  1.00  0.00     0.010 A 
ATOM     32  C   UNL A   1      35.560  29.298  28.771  1.00  0.00     0.010 A 
ATOM     33  C   UNL A   1      36.492  30.297  29.088  1.00  0.00    -0.014 A 
BRANCH  33  34
ATOM     34  C   UNL A   1      37.701  29.964  29.887  1.00  0.00     0.031 A 
ATOM     35  C   UNL A   1      38.773  29.077  29.310  1.00  0.00     0.074 A 
ATOM     36  C   UNL A   1      37.824  30.435  31.145  1.00  0.00     0.049 A 
ATOM     37  N   UNL A   1      39.863  28.624  29.875  1.00  0.00    -0.248 NA
ATOM     38  C   UNL A   1      38.585  28.625  27.923  1.00  0.00     0.031 C 
ATOM     39  C   UNL A   1      36.849  31.288  31.826  1.00  0.00     0.029 A 
ATOM     40  N   UNL A   1      38.821  30.266  32.074  1.00  0.00    -0.354 N 
ATOM     41  C   UNL A   1      40.484  27.826  28.921  1.00  0.00     0.074 A 
ATOM     42  C   UNL A   1      39.624  27.820  27.756  1.00  0.00     0.031 C 
ATOM     43  C   UNL A   1      37.311  31.594  33.049  1.00  0.00     0.029 A 
ATOM     44  C   UNL A   1      38.591  30.926  33.259  1.00  0.00     0.049 A 
ATOM     45  H   UNL A   1      39.626  29.722  31.907  1.00  0.00     0.167 HD
ATOM     46  C   UNL A   1      41.669  27.175  29.001  1.00  0.00     0.034 A 
ATOM     47  C   UNL A   1      39.321  30.980  34.391  1.00  0.00     0.034 A 
ATOM     48  C   UNL A   1      42.533  27.205  30.154  1.00  0.00     0.049 A 
ATOM     49  C   UNL A   1      40.621  30.225  34.466  1.00  0.00     0.074 A 
ATOM     50  C   UNL A   1      43.776  26.617  30.313  1.00  0.00     0.029 A 
ATOM     51  N   UNL A   1      42.248  27.860  31.344  1.00  0.00    -0.354 N 
ATOM     52  N   UNL A   1      41.190  29.474  33.554  1.00  0.00    -0.248 NA
ATOM     53  C   UNL A   1      41.376  30.322  35.724  1.00  0.00     0.031 C 
ATOM     54  C   UNL A   1      44.218  26.870  31.615  1.00  0.00     0.029 A 
ATOM     55  C   UNL A   1      43.279  27.669  32.249  1.00  0.00     0.049 A 
ATOM     56  H   UNL A   1      41.432  28.383  31.519  1.00  0.00     0.167 HD
ATOM     57  C   UNL A   1      42.378  29.024  34.119  1.00  0.00     0.074 A 
ATOM     58  C   UNL A   1      42.447  29.589  35.451  1.00  0.00     0.031 C 
ATOM     59  C   UNL A   1      43.329  28.222  33.580  1.00  0.00     0.034 A 
BRANCH  46  60
ATOM     60  C   UNL A   1      42.098  26.357  27.810  1.00  0.00     0.023 A 
ATOM     61  C   UNL A   1      41.738  25.005  27.680  1.00  0.00     0.031 A 
ATOM     62  C   UNL A   1      42.857  26.943  26.783  1.00  0.00     0.131 A 
ATOM     63  C   UNL A   1      42.177  24.271  26.568  1.00  0.00     0.055 A 
ATOM     64  C   UNL A   1      43.237  26.225  25.649  1.00  0.00     0.041 A 
ATOM     65  F   UNL A   1      43.241  28.228  26.866  1.00  0.00    -0.206 F 
ATOM     66  C   UNL A   1      42.904  24.877  25.540  1.00  0.00     0.022 A 
BRANCH  63  67
ATOM     67  S   UNL A   1      41.854  22.488  26.521  1.00  0.00     0.124 S 
ATOM     68  O   UNL A   1      42.358  22.063  27.824  1.00  0.00    -0.237 OA
ATOM     69  O   UNL A   1      40.407  22.431  26.346  1.00  0.00    -0.237 OA
ATOM     70  O   UNL A   1      42.637  22.028  25.376  1.00  0.00    -0.744 OA
ENDBRANCH  63  67
ENDBRANCH  46  60
BRANCH  47  71
ATOM     71  C   UNL A   1      38.830  31.771  35.552  1.00  0.00     0.023 A 
ATOM     72  C   UNL A   1      38.183  31.146  36.628  1.00  0.00     0.031 A 
ATOM     73  C   UNL A   1      39.010  33.165  35.601  1.00  0.00     0.131 A 
ATOM     74  C   UNL A   1      37.722  31.918  37.706  1.00  0.00     0.055 A 
ATOM     75  C   UNL A   1      38.580  33.923  36.691  1.00  0.00     0.041 A 
ATOM     76  F   UNL A   1      39.633  33.803  34.599  1.00  0.00    -0.206 F 
ATOM     77  C   UNL A   1      37.926  33.300  37.750  1.00  0.00     0.022 A 
BRANCH  74  78
ATOM     78  S   UNL A   1      36.829  31.091  39.052  1.00  0.00     0.124 S 
ATOM     79  O   UNL A   1      36.633  29.756  38.501  1.00  0.00    -0.237 OA
ATOM     80  O   UNL A   1      37.775  31.199  40.158  1.00  0.00    -0.237 OA
ATOM     81  O   UNL A   1      35.616  31.893  39.197  1.00  0.00    -0.744 OA
ENDBRANCH  74  78
ENDBRANCH  47  71
BRANCH  59  82
ATOM     82  C   UNL A   1      44.544  27.925  34.416  1.00  0.00     0.023 A 
ATOM     83  C   UNL A   1      44.606  26.794  35.246  1.00  0.00     0.031 A 
ATOM     84  C   UNL A   1      45.671  28.763  34.341  1.00  0.00     0.131 A 
ATOM     85  C   UNL A   1      45.769  26.541  35.989  1.00  0.00     0.055 A 
ATOM     86  C   UNL A   1      46.840  28.482  35.050  1.00  0.00     0.041 A 
ATOM     87  F   UNL A   1      45.660  29.854  33.559  1.00  0.00    -0.206 F 
ATOM     88  C   UNL A   1      46.891  27.367  35.882  1.00  0.00     0.022 A 
BRANCH  85  89
ATOM     89  S   UNL A   1      45.795  25.120  37.117  1.00  0.00     0.124 S 
ATOM     90  O   UNL A   1      45.983  24.005  36.194  1.00  0.00    -0.237 OA
ATOM     91  O   UNL A   1      46.926  25.425  37.985  1.00  0.00    -0.237 OA
ATOM     92  O   UNL A   1      44.486  25.175  37.766  1.00  0.00    -0.744 OA
ENDBRANCH  85  89
ENDBRANCH  59  82
ENDBRANCH  33  34
ENDBRANCH  25  28
ENDBRANCH  23  24
ENDBRANCH   1  23
TORSDOF 17
ENDMDL
