MODEL 1
REMARK VINA RESULT:     -12.2      0.000      0.000
REMARK SMILES N#C[C@H]1CN(c2cc(C(=O)NCCCNC(=O)c3ccc(-c4c5nc(c(-c6cc(S(=O)(=O)[O-])ccc6F)c6ccc([nH]6)c(-c6cc(S(=O)(=O)[O-])ccc6F)c6nc(c(-c7cc(S(=O)(=O)[O-])ccc7F)c7ccc4[nH]7)C=C6)C=C5)cc3)c(N)cc2F)CCO1
REMARK SMILES IDX 13 1 12 2 11 3 9 4 10 5 8 7 6 8 7 9 84 10 83 11 85 12 81 13
REMARK SMILES IDX 5 14 3 15 4 16 88 17 87 18 86 19 2 20 1 21 82 22 14 25 15 26
REMARK SMILES IDX 16 27 17 29 18 30 19 31 80 32 20 33 79 34 21 35 22 36 23 37
REMARK SMILES IDX 73 38 24 39 78 40 72 41 74 42 25 43 77 44 71 45 70 46 26 48
REMARK SMILES IDX 58 49 38 50 57 51 39 52 42 53 56 54 75 55 40 56 41 57 55 59
REMARK SMILES IDX 76 60 43 61 27 62 28 63 36 64 29 65 35 66 37 67 34 68 30 69
REMARK SMILES IDX 31 70 32 71 33 72 59 73 60 74 68 75 61 76 67 77 69 78 66 79
REMARK SMILES IDX 62 80 63 81 64 82 65 83 44 84 45 85 53 86 46 87 52 88 54 89
REMARK SMILES IDX 51 90 47 91 48 92 49 93 50 94
REMARK H PARENT 11 6 82 23 82 24 15 28 74 47 42 58
REMARK Flexibility Score: inf
ROOT
ATOM      1  C   UNL A   1      31.923  31.546  26.815  1.00  0.00     0.042 C 
ENDROOT
BRANCH   1   2
ATOM      2  C   UNL A   1      32.263  30.103  26.512  1.00  0.00     0.118 C 
BRANCH   2   3
ATOM      3  N   UNL A   1      33.134  29.878  25.373  1.00  0.00    -0.352 N 
ATOM      4  C   UNL A   1      32.885  29.251  24.171  1.00  0.00     0.253 C 
ATOM      5  O   UNL A   1      33.788  29.256  23.332  1.00  0.00    -0.269 OA
ATOM      6  H   UNL A   1      34.047  30.231  25.475  1.00  0.00     0.163 HD
BRANCH   4   7
ATOM      7  C   UNL A   1      31.622  28.502  23.874  1.00  0.00     0.065 A 
ATOM      8  C   UNL A   1      30.372  26.442  24.349  1.00  0.00     0.074 A 
ATOM      9  C   UNL A   1      31.492  27.258  24.538  1.00  0.00     0.045 A 
ATOM     10  C   UNL A   1      29.299  26.992  23.638  1.00  0.00     0.148 A 
ATOM     11  C   UNL A   1      29.408  28.201  22.970  1.00  0.00     0.067 A 
ATOM     12  F   UNL A   1      28.150  26.306  23.523  1.00  0.00    -0.205 F 
ATOM     13  C   UNL A   1      30.615  28.901  22.974  1.00  0.00     0.047 A 
BRANCH   8  14
ATOM     14  N   UNL A   1      30.381  25.122  24.741  1.00  0.00    -0.363 N 
ATOM     15  C   UNL A   1      31.916  23.235  24.357  1.00  0.00     0.240 C 
ATOM     16  C   UNL A   1      30.672  24.004  23.839  1.00  0.00     0.164 C 
ATOM     17  O   UNL A   1      31.764  22.864  25.753  1.00  0.00    -0.360 OA
ATOM     18  C   UNL A   1      31.582  24.030  26.575  1.00  0.00     0.183 C 
ATOM     19  C   UNL A   1      30.319  24.794  26.170  1.00  0.00     0.145 C 
BRANCH  15  20
ATOM     20  C   UNL A   1      32.125  22.020  23.546  1.00  0.00     0.096 C 
ATOM     21  N   UNL A   1      32.280  21.066  22.908  1.00  0.00    -0.195 NA
ENDBRANCH  15  20
ENDBRANCH   8  14
BRANCH  13  22
ATOM     22  N   UNL A   1      30.767  29.886  22.007  1.00  0.00    -0.398 N 
ATOM     23  H   UNL A   1      30.254  29.837  21.170  1.00  0.00     0.156 HD
ATOM     24  H   UNL A   1      31.389  30.634  22.161  1.00  0.00     0.156 HD
ENDBRANCH  13  22
ENDBRANCH   4   7
ENDBRANCH   2   3
ENDBRANCH   1   2
BRANCH   1  25
ATOM     25  C   UNL A   1      33.098  32.424  27.202  1.00  0.00     0.118 C 
BRANCH  25  26
ATOM     26  N   UNL A   1      32.723  33.772  27.611  1.00  0.00    -0.352 N 
ATOM     27  C   UNL A   1      33.191  34.581  28.623  1.00  0.00     0.251 C 
ATOM     28  H   UNL A   1      32.008  34.178  27.067  1.00  0.00     0.163 HD
ATOM     29  O   UNL A   1      32.611  35.640  28.855  1.00  0.00    -0.269 OA
BRANCH  27  30
ATOM     30  C   UNL A   1      34.342  34.168  29.462  1.00  0.00     0.039 A 
ATOM     31  C   UNL A   1      34.105  33.445  30.634  1.00  0.00     0.014 A 
ATOM     32  C   UNL A   1      35.654  34.472  29.099  1.00  0.00     0.014 A 
ATOM     33  C   UNL A   1      35.183  32.945  31.371  1.00  0.00     0.010 A 
ATOM     34  C   UNL A   1      36.717  33.855  29.748  1.00  0.00     0.010 A 
ATOM     35  C   UNL A   1      36.498  33.089  30.899  1.00  0.00    -0.014 A 
BRANCH  35  36
ATOM     36  C   UNL A   1      37.648  32.451  31.597  1.00  0.00     0.031 A 
ATOM     37  C   UNL A   1      38.395  31.312  30.950  1.00  0.00     0.074 A 
ATOM     38  C   UNL A   1      37.989  32.866  32.834  1.00  0.00     0.049 A 
ATOM     39  N   UNL A   1      39.397  30.612  31.415  1.00  0.00    -0.248 NA
ATOM     40  C   UNL A   1      37.933  30.882  29.620  1.00  0.00     0.031 C 
ATOM     41  C   UNL A   1      37.307  33.922  33.589  1.00  0.00     0.029 A 
ATOM     42  N   UNL A   1      38.992  32.458  33.678  1.00  0.00    -0.354 N 
ATOM     43  C   UNL A   1      39.680  29.659  30.442  1.00  0.00     0.074 A 
ATOM     44  C   UNL A   1      38.692  29.820  29.399  1.00  0.00     0.031 C 
ATOM     45  C   UNL A   1      37.943  34.114  34.753  1.00  0.00     0.029 A 
ATOM     46  C   UNL A   1      39.037  33.155  34.864  1.00  0.00     0.049 A 
ATOM     47  H   UNL A   1      39.622  31.735  33.455  1.00  0.00     0.167 HD
ATOM     48  C   UNL A   1      40.689  28.754  30.407  1.00  0.00     0.034 A 
ATOM     49  C   UNL A   1      39.858  33.031  35.927  1.00  0.00     0.034 A 
ATOM     50  C   UNL A   1      41.670  28.610  31.454  1.00  0.00     0.049 A 
ATOM     51  C   UNL A   1      40.946  31.989  35.881  1.00  0.00     0.074 A 
ATOM     52  C   UNL A   1      42.764  27.765  31.497  1.00  0.00     0.029 A 
ATOM     53  N   UNL A   1      41.669  29.318  32.650  1.00  0.00    -0.354 N 
ATOM     54  N   UNL A   1      41.238  31.140  34.921  1.00  0.00    -0.248 NA
ATOM     55  C   UNL A   1      41.821  31.895  37.055  1.00  0.00     0.031 C 
ATOM     56  C   UNL A   1      43.367  27.893  32.751  1.00  0.00     0.029 A 
ATOM     57  C   UNL A   1      42.715  28.893  33.454  1.00  0.00     0.049 A 
ATOM     58  H   UNL A   1      41.019  30.017  32.891  1.00  0.00     0.167 HD
ATOM     59  C   UNL A   1      42.351  30.432  35.368  1.00  0.00     0.074 A 
ATOM     60  C   UNL A   1      42.689  30.973  36.668  1.00  0.00     0.031 C 
ATOM     61  C   UNL A   1      43.034  29.428  34.758  1.00  0.00     0.034 A 
BRANCH  48  62
ATOM     62  C   UNL A   1      40.762  27.834  29.208  1.00  0.00     0.023 A 
ATOM     63  C   UNL A   1      41.698  28.033  28.177  1.00  0.00     0.031 A 
ATOM     64  C   UNL A   1      39.872  26.753  29.085  1.00  0.00     0.131 A 
ATOM     65  C   UNL A   1      41.672  27.214  27.038  1.00  0.00     0.055 A 
ATOM     66  C   UNL A   1      39.913  25.885  27.991  1.00  0.00     0.041 A 
ATOM     67  F   UNL A   1      38.937  26.526  30.021  1.00  0.00    -0.206 F 
ATOM     68  C   UNL A   1      40.806  26.122  26.952  1.00  0.00     0.022 A 
BRANCH  65  69
ATOM     69  S   UNL A   1      42.675  27.694  25.605  1.00  0.00     0.124 S 
ATOM     70  O   UNL A   1      43.948  28.033  26.237  1.00  0.00    -0.237 OA
ATOM     71  O   UNL A   1      42.667  26.482  24.794  1.00  0.00    -0.237 OA
ATOM     72  O   UNL A   1      41.947  28.829  25.042  1.00  0.00    -0.744 OA
ENDBRANCH  65  69
ENDBRANCH  48  62
BRANCH  49  73
ATOM     73  C   UNL A   1      39.680  33.899  37.129  1.00  0.00     0.023 A 
ATOM     74  C   UNL A   1      39.050  33.416  38.287  1.00  0.00     0.031 A 
ATOM     75  C   UNL A   1      40.092  35.244  37.119  1.00  0.00     0.131 A 
ATOM     76  C   UNL A   1      38.801  34.285  39.363  1.00  0.00     0.055 A 
ATOM     77  C   UNL A   1      39.904  36.085  38.217  1.00  0.00     0.041 A 
ATOM     78  F   UNL A   1      40.698  35.761  36.038  1.00  0.00    -0.206 F 
ATOM     79  C   UNL A   1      39.241  35.610  39.343  1.00  0.00     0.022 A 
BRANCH  76  80
ATOM     80  S   UNL A   1      37.794  33.685  40.748  1.00  0.00     0.124 S 
ATOM     81  O   UNL A   1      36.687  33.042  40.051  1.00  0.00    -0.237 OA
ATOM     82  O   UNL A   1      38.724  32.796  41.436  1.00  0.00    -0.237 OA
ATOM     83  O   UNL A   1      37.451  34.907  41.472  1.00  0.00    -0.744 OA
ENDBRANCH  76  80
ENDBRANCH  49  73
BRANCH  61  84
ATOM     84  C   UNL A   1      44.242  28.881  35.480  1.00  0.00     0.023 A 
ATOM     85  C   UNL A   1      44.138  27.829  36.406  1.00  0.00     0.031 A 
ATOM     86  C   UNL A   1      45.515  29.435  35.254  1.00  0.00     0.131 A 
ATOM     87  C   UNL A   1      45.269  27.415  37.124  1.00  0.00     0.055 A 
ATOM     88  C   UNL A   1      46.652  28.963  35.911  1.00  0.00     0.041 A 
ATOM     89  F   UNL A   1      45.676  30.447  34.386  1.00  0.00    -0.206 F 
ATOM     90  C   UNL A   1      46.530  27.959  36.866  1.00  0.00     0.022 A 
BRANCH  87  91
ATOM     91  S   UNL A   1      45.047  26.248  38.495  1.00  0.00     0.124 S 
ATOM     92  O   UNL A   1      45.294  24.966  37.843  1.00  0.00    -0.237 OA
ATOM     93  O   UNL A   1      46.063  26.687  39.446  1.00  0.00    -0.237 OA
ATOM     94  O   UNL A   1      43.665  26.474  38.916  1.00  0.00    -0.744 OA
ENDBRANCH  87  91
ENDBRANCH  61  84
ENDBRANCH  35  36
ENDBRANCH  27  30
ENDBRANCH  25  26
ENDBRANCH   1  25
TORSDOF 16
ENDMDL
MODEL 2
REMARK VINA RESULT:     -12.0      1.303      1.616
REMARK SMILES N#C[C@H]1CN(c2cc(C(=O)NCCCNC(=O)c3ccc(-c4c5nc(c(-c6cc(S(=O)(=O)[O-])ccc6F)c6ccc([nH]6)c(-c6cc(S(=O)(=O)[O-])ccc6F)c6nc(c(-c7cc(S(=O)(=O)[O-])ccc7F)c7ccc4[nH]7)C=C6)C=C5)cc3)c(N)cc2F)CCO1
REMARK SMILES IDX 13 1 12 2 11 3 9 4 10 5 8 7 6 8 7 9 84 10 83 11 85 12 81 13
REMARK SMILES IDX 5 14 3 15 4 16 88 17 87 18 86 19 2 20 1 21 82 22 14 25 15 26
REMARK SMILES IDX 16 27 17 29 18 30 19 31 80 32 20 33 79 34 21 35 22 36 23 37
REMARK SMILES IDX 73 38 24 39 78 40 72 41 74 42 25 43 77 44 71 45 70 46 26 48
REMARK SMILES IDX 58 49 38 50 57 51 39 52 42 53 56 54 75 55 40 56 41 57 55 59
REMARK SMILES IDX 76 60 43 61 27 62 28 63 36 64 29 65 35 66 37 67 34 68 30 69
REMARK SMILES IDX 31 70 32 71 33 72 59 73 60 74 68 75 61 76 67 77 69 78 66 79
REMARK SMILES IDX 62 80 63 81 64 82 65 83 44 84 45 85 53 86 46 87 52 88 54 89
REMARK SMILES IDX 51 90 47 91 48 92 49 93 50 94
REMARK H PARENT 11 6 82 23 82 24 15 28 74 47 42 58
REMARK Flexibility Score: inf
ROOT
ATOM      1  C   UNL A   1      31.994  31.591  26.687  1.00  0.00     0.042 C 
ENDROOT
BRANCH   1   2
ATOM      2  C   UNL A   1      32.301  30.146  26.360  1.00  0.00     0.118 C 
BRANCH   2   3
ATOM      3  N   UNL A   1      33.139  29.919  25.197  1.00  0.00    -0.352 N 
ATOM      4  C   UNL A   1      32.857  29.285  24.006  1.00  0.00     0.253 C 
ATOM      5  O   UNL A   1      33.735  29.290  23.140  1.00  0.00    -0.269 OA
ATOM      6  H   UNL A   1      34.053  30.276  25.270  1.00  0.00     0.163 HD
BRANCH   4   7
ATOM      7  C   UNL A   1      31.589  28.530  23.750  1.00  0.00     0.065 A 
ATOM      8  C   UNL A   1      30.353  26.477  24.290  1.00  0.00     0.074 A 
ATOM      9  C   UNL A   1      31.475  27.298  24.439  1.00  0.00     0.045 A 
ATOM     10  C   UNL A   1      29.264  27.013  23.593  1.00  0.00     0.148 A 
ATOM     11  C   UNL A   1      29.356  28.210  22.900  1.00  0.00     0.067 A 
ATOM     12  F   UNL A   1      28.114  26.324  23.515  1.00  0.00    -0.205 F 
ATOM     13  C   UNL A   1      30.562  28.912  22.865  1.00  0.00     0.047 A 
BRANCH   8  14
ATOM     14  N   UNL A   1      30.372  25.164  24.704  1.00  0.00    -0.363 N 
ATOM     15  C   UNL A   1      31.910  23.277  24.335  1.00  0.00     0.240 C 
ATOM     16  C   UNL A   1      30.656  24.031  23.819  1.00  0.00     0.164 C 
ATOM     17  O   UNL A   1      31.777  22.931  25.740  1.00  0.00    -0.360 OA
ATOM     18  C   UNL A   1      31.601  24.110  26.543  1.00  0.00     0.183 C 
ATOM     19  C   UNL A   1      30.329  24.862  26.140  1.00  0.00     0.145 C 
BRANCH  15  20
ATOM     20  C   UNL A   1      32.113  22.049  23.544  1.00  0.00     0.096 C 
ATOM     21  N   UNL A   1      32.267  21.080  22.926  1.00  0.00    -0.195 NA
ENDBRANCH  15  20
ENDBRANCH   8  14
BRANCH  13  22
ATOM     22  N   UNL A   1      30.691  29.879  21.878  1.00  0.00    -0.398 N 
ATOM     23  H   UNL A   1      31.545  29.983  21.401  1.00  0.00     0.156 HD
ATOM     24  H   UNL A   1      29.929  30.461  21.656  1.00  0.00     0.156 HD
ENDBRANCH  13  22
ENDBRANCH   4   7
ENDBRANCH   2   3
ENDBRANCH   1   2
BRANCH   1  25
ATOM     25  C   UNL A   1      33.149  32.388  27.263  1.00  0.00     0.118 C 
BRANCH  25  26
ATOM     26  N   UNL A   1      32.792  33.742  27.671  1.00  0.00    -0.352 N 
ATOM     27  C   UNL A   1      33.270  34.544  28.684  1.00  0.00     0.251 C 
ATOM     28  H   UNL A   1      32.084  34.157  27.126  1.00  0.00     0.163 HD
ATOM     29  O   UNL A   1      32.704  35.611  28.914  1.00  0.00    -0.269 OA
BRANCH  27  30
ATOM     30  C   UNL A   1      34.414  34.115  29.524  1.00  0.00     0.039 A 
ATOM     31  C   UNL A   1      34.167  33.366  30.678  1.00  0.00     0.014 A 
ATOM     32  C   UNL A   1      35.728  34.430  29.181  1.00  0.00     0.014 A 
ATOM     33  C   UNL A   1      35.239  32.853  31.414  1.00  0.00     0.010 A 
ATOM     34  C   UNL A   1      36.786  33.802  29.827  1.00  0.00     0.010 A 
ATOM     35  C   UNL A   1      36.559  33.010  30.959  1.00  0.00    -0.014 A 
BRANCH  35  36
ATOM     36  C   UNL A   1      37.703  32.359  31.653  1.00  0.00     0.031 A 
ATOM     37  C   UNL A   1      38.448  31.225  30.996  1.00  0.00     0.074 A 
ATOM     38  C   UNL A   1      38.040  32.758  32.897  1.00  0.00     0.049 A 
ATOM     39  N   UNL A   1      39.446  30.517  31.457  1.00  0.00    -0.248 NA
ATOM     40  C   UNL A   1      37.991  30.814  29.659  1.00  0.00     0.031 C 
ATOM     41  C   UNL A   1      37.359  33.807  33.662  1.00  0.00     0.029 A 
ATOM     42  N   UNL A   1      39.038  32.336  33.740  1.00  0.00    -0.354 N 
ATOM     43  C   UNL A   1      39.730  29.574  30.473  1.00  0.00     0.074 A 
ATOM     44  C   UNL A   1      38.747  29.751  29.428  1.00  0.00     0.031 C 
ATOM     45  C   UNL A   1      37.990  33.983  34.831  1.00  0.00     0.029 A 
ATOM     46  C   UNL A   1      39.080  33.019  34.935  1.00  0.00     0.049 A 
ATOM     47  H   UNL A   1      39.666  31.614  33.511  1.00  0.00     0.167 HD
ATOM     48  C   UNL A   1      40.736  28.666  30.431  1.00  0.00     0.034 A 
ATOM     49  C   UNL A   1      39.896  32.879  36.000  1.00  0.00     0.034 A 
ATOM     50  C   UNL A   1      41.712  28.506  31.481  1.00  0.00     0.049 A 
ATOM     51  C   UNL A   1      40.980  31.833  35.945  1.00  0.00     0.074 A 
ATOM     52  C   UNL A   1      42.803  27.656  31.518  1.00  0.00     0.029 A 
ATOM     53  N   UNL A   1      41.708  29.200  32.685  1.00  0.00    -0.354 N 
ATOM     54  N   UNL A   1      41.273  30.995  34.977  1.00  0.00    -0.248 NA
ATOM     55  C   UNL A   1      41.850  31.721  37.122  1.00  0.00     0.031 C 
ATOM     56  C   UNL A   1      43.401  27.767  32.776  1.00  0.00     0.029 A 
ATOM     57  C   UNL A   1      42.750  28.761  33.488  1.00  0.00     0.049 A 
ATOM     58  H   UNL A   1      41.060  29.898  32.932  1.00  0.00     0.167 HD
ATOM     59  C   UNL A   1      42.382  30.278  35.419  1.00  0.00     0.074 A 
ATOM     60  C   UNL A   1      42.717  30.802  36.728  1.00  0.00     0.031 C 
ATOM     61  C   UNL A   1      43.064  29.279  34.800  1.00  0.00     0.034 A 
BRANCH  48  62
ATOM     62  C   UNL A   1      40.811  27.761  29.222  1.00  0.00     0.023 A 
ATOM     63  C   UNL A   1      41.746  27.975  28.193  1.00  0.00     0.031 A 
ATOM     64  C   UNL A   1      39.924  26.679  29.086  1.00  0.00     0.131 A 
ATOM     65  C   UNL A   1      41.722  27.169  27.044  1.00  0.00     0.055 A 
ATOM     66  C   UNL A   1      39.966  25.824  27.982  1.00  0.00     0.041 A 
ATOM     67  F   UNL A   1      38.990  26.439  30.020  1.00  0.00    -0.206 F 
ATOM     68  C   UNL A   1      40.859  26.076  26.945  1.00  0.00     0.022 A 
BRANCH  65  69
ATOM     69  S   UNL A   1      42.723  27.669  25.617  1.00  0.00     0.124 S 
ATOM     70  O   UNL A   1      42.349  26.661  24.627  1.00  0.00    -0.237 OA
ATOM     71  O   UNL A   1      42.250  29.024  25.359  1.00  0.00    -0.237 OA
ATOM     72  O   UNL A   1      44.095  27.568  26.108  1.00  0.00    -0.744 OA
ENDBRANCH  65  69
ENDBRANCH  48  62
BRANCH  49  73
ATOM     73  C   UNL A   1      39.716  33.732  37.212  1.00  0.00     0.023 A 
ATOM     74  C   UNL A   1      40.536  34.848  37.442  1.00  0.00     0.031 A 
ATOM     75  C   UNL A   1      38.754  33.413  38.187  1.00  0.00     0.131 A 
ATOM     76  C   UNL A   1      40.416  35.570  38.641  1.00  0.00     0.055 A 
ATOM     77  C   UNL A   1      38.592  34.174  39.345  1.00  0.00     0.041 A 
ATOM     78  F   UNL A   1      37.943  32.355  38.021  1.00  0.00    -0.206 F 
ATOM     79  C   UNL A   1      39.437  35.252  39.585  1.00  0.00     0.022 A 
BRANCH  76  80
ATOM     80  S   UNL A   1      41.634  36.866  39.001  1.00  0.00     0.124 S 
ATOM     81  O   UNL A   1      42.277  37.035  37.703  1.00  0.00    -0.237 OA
ATOM     82  O   UNL A   1      40.785  37.965  39.446  1.00  0.00    -0.237 OA
ATOM     83  O   UNL A   1      42.470  36.267  40.039  1.00  0.00    -0.744 OA
ENDBRANCH  76  80
ENDBRANCH  49  73
BRANCH  61  84
ATOM     84  C   UNL A   1      44.267  28.718  35.521  1.00  0.00     0.023 A 
ATOM     85  C   UNL A   1      44.154  27.662  36.440  1.00  0.00     0.031 A 
ATOM     86  C   UNL A   1      45.545  29.264  35.299  1.00  0.00     0.131 A 
ATOM     87  C   UNL A   1      45.282  27.235  37.158  1.00  0.00     0.055 A 
ATOM     88  C   UNL A   1      46.677  28.781  35.955  1.00  0.00     0.041 A 
ATOM     89  F   UNL A   1      45.715  30.280  34.437  1.00  0.00    -0.206 F 
ATOM     90  C   UNL A   1      46.546  27.772  36.905  1.00  0.00     0.022 A 
BRANCH  87  91
ATOM     91  S   UNL A   1      45.049  26.062  38.521  1.00  0.00     0.124 S 
ATOM     92  O   UNL A   1      46.211  26.339  39.359  1.00  0.00    -0.237 OA
ATOM     93  O   UNL A   1      43.757  26.470  39.066  1.00  0.00    -0.237 OA
ATOM     94  O   UNL A   1      45.058  24.760  37.858  1.00  0.00    -0.744 OA
ENDBRANCH  87  91
ENDBRANCH  61  84
ENDBRANCH  35  36
ENDBRANCH  27  30
ENDBRANCH  25  26
ENDBRANCH   1  25
TORSDOF 16
ENDMDL
MODEL 3
REMARK VINA RESULT:     -12.0      5.885     11.786
REMARK SMILES N#C[C@H]1CN(c2cc(C(=O)NCCCNC(=O)c3ccc(-c4c5nc(c(-c6cc(S(=O)(=O)[O-])ccc6F)c6ccc([nH]6)c(-c6cc(S(=O)(=O)[O-])ccc6F)c6nc(c(-c7cc(S(=O)(=O)[O-])ccc7F)c7ccc4[nH]7)C=C6)C=C5)cc3)c(N)cc2F)CCO1
REMARK SMILES IDX 13 1 12 2 11 3 9 4 10 5 8 7 6 8 7 9 84 10 83 11 85 12 81 13
REMARK SMILES IDX 5 14 3 15 4 16 88 17 87 18 86 19 2 20 1 21 82 22 14 25 15 26
REMARK SMILES IDX 16 27 17 29 18 30 19 31 80 32 20 33 79 34 21 35 22 36 23 37
REMARK SMILES IDX 73 38 24 39 78 40 72 41 74 42 25 43 77 44 71 45 70 46 26 48
REMARK SMILES IDX 58 49 38 50 57 51 39 52 42 53 56 54 75 55 40 56 41 57 55 59
REMARK SMILES IDX 76 60 43 61 27 62 28 63 36 64 29 65 35 66 37 67 34 68 30 69
REMARK SMILES IDX 31 70 32 71 33 72 59 73 60 74 68 75 61 76 67 77 69 78 66 79
REMARK SMILES IDX 62 80 63 81 64 82 65 83 44 84 45 85 53 86 46 87 52 88 54 89
REMARK SMILES IDX 51 90 47 91 48 92 49 93 50 94
REMARK H PARENT 11 6 82 23 82 24 15 28 74 47 42 58
REMARK Flexibility Score: inf
ROOT
ATOM      1  C   UNL A   1      37.882  20.568  25.172  1.00  0.00     0.042 C 
ENDROOT
BRANCH   1   2
ATOM      2  C   UNL A   1      36.831  21.656  25.191  1.00  0.00     0.118 C 
BRANCH   2   3
ATOM      3  N   UNL A   1      35.987  21.708  26.370  1.00  0.00    -0.352 N 
ATOM      4  C   UNL A   1      34.641  21.447  26.515  1.00  0.00     0.253 C 
ATOM      5  O   UNL A   1      34.174  21.496  27.655  1.00  0.00    -0.269 OA
ATOM      6  H   UNL A   1      36.449  21.969  27.198  1.00  0.00     0.163 HD
BRANCH   4   7
ATOM      7  C   UNL A   1      33.718  21.195  25.362  1.00  0.00     0.065 A 
ATOM      8  C   UNL A   1      32.594  22.245  23.447  1.00  0.00     0.074 A 
ATOM      9  C   UNL A   1      33.448  22.324  24.552  1.00  0.00     0.045 A 
ATOM     10  C   UNL A   1      32.179  20.966  23.058  1.00  0.00     0.148 A 
ATOM     11  C   UNL A   1      32.421  19.848  23.841  1.00  0.00     0.067 A 
ATOM     12  F   UNL A   1      31.456  20.809  21.937  1.00  0.00    -0.205 F 
ATOM     13  C   UNL A   1      33.078  19.976  25.065  1.00  0.00     0.047 A 
BRANCH   8  14
ATOM     14  N   UNL A   1      32.094  23.382  22.853  1.00  0.00    -0.363 N 
ATOM     15  C   UNL A   1      30.988  25.411  23.703  1.00  0.00     0.240 C 
ATOM     16  C   UNL A   1      30.788  23.965  23.174  1.00  0.00     0.164 C 
ATOM     17  O   UNL A   1      31.797  26.200  22.791  1.00  0.00    -0.360 OA
ATOM     18  C   UNL A   1      33.093  25.605  22.612  1.00  0.00     0.183 C 
ATOM     19  C   UNL A   1      32.974  24.201  22.011  1.00  0.00     0.145 C 
BRANCH  15  20
ATOM     20  C   UNL A   1      29.675  26.060  23.883  1.00  0.00     0.096 C 
ATOM     21  N   UNL A   1      28.648  26.576  24.030  1.00  0.00    -0.195 NA
ENDBRANCH  15  20
ENDBRANCH   8  14
BRANCH  13  22
ATOM     22  N   UNL A   1      32.961  18.911  25.948  1.00  0.00    -0.398 N 
ATOM     23  H   UNL A   1      32.542  19.046  26.828  1.00  0.00     0.156 HD
ATOM     24  H   UNL A   1      33.299  18.022  25.694  1.00  0.00     0.156 HD
ENDBRANCH  13  22
ENDBRANCH   4   7
ENDBRANCH   2   3
ENDBRANCH   1   2
BRANCH   1  25
ATOM     25  C   UNL A   1      39.069  20.794  26.089  1.00  0.00     0.118 C 
BRANCH  25  26
ATOM     26  N   UNL A   1      40.064  19.728  26.047  1.00  0.00    -0.352 N 
ATOM     27  C   UNL A   1      41.439  19.762  26.121  1.00  0.00     0.251 C 
ATOM     28  H   UNL A   1      39.686  18.824  25.949  1.00  0.00     0.163 HD
ATOM     29  O   UNL A   1      42.071  18.726  25.922  1.00  0.00    -0.269 OA
BRANCH  27  30
ATOM     30  C   UNL A   1      42.160  21.031  26.383  1.00  0.00     0.039 A 
ATOM     31  C   UNL A   1      42.468  21.873  25.311  1.00  0.00     0.014 A 
ATOM     32  C   UNL A   1      42.524  21.408  27.675  1.00  0.00     0.014 A 
ATOM     33  C   UNL A   1      43.039  23.126  25.554  1.00  0.00     0.010 A 
ATOM     34  C   UNL A   1      42.955  22.705  27.927  1.00  0.00     0.010 A 
ATOM     35  C   UNL A   1      43.227  23.581  26.870  1.00  0.00    -0.014 A 
BRANCH  35  36
ATOM     36  C   UNL A   1      43.707  24.961  27.152  1.00  0.00     0.031 A 
ATOM     37  C   UNL A   1      42.760  26.002  27.694  1.00  0.00     0.074 A 
ATOM     38  C   UNL A   1      44.986  25.290  26.876  1.00  0.00     0.049 A 
ATOM     39  N   UNL A   1      42.987  27.260  27.971  1.00  0.00    -0.248 NA
ATOM     40  C   UNL A   1      41.369  25.582  27.924  1.00  0.00     0.031 C 
ATOM     41  C   UNL A   1      45.985  24.386  26.297  1.00  0.00     0.029 A 
ATOM     42  N   UNL A   1      45.672  26.468  27.045  1.00  0.00    -0.354 N 
ATOM     43  C   UNL A   1      41.770  27.781  28.398  1.00  0.00     0.074 A 
ATOM     44  C   UNL A   1      40.793  26.723  28.267  1.00  0.00     0.031 C 
ATOM     45  C   UNL A   1      47.161  25.023  26.211  1.00  0.00     0.029 A 
ATOM     46  C   UNL A   1      46.993  26.400  26.665  1.00  0.00     0.049 A 
ATOM     47  H   UNL A   1      45.257  27.285  27.405  1.00  0.00     0.167 HD
ATOM     48  C   UNL A   1      41.499  29.017  28.885  1.00  0.00     0.034 A 
ATOM     49  C   UNL A   1      47.959  27.340  26.669  1.00  0.00     0.034 A 
ATOM     50  C   UNL A   1      42.487  30.060  29.014  1.00  0.00     0.049 A 
ATOM     51  C   UNL A   1      47.621  28.719  27.176  1.00  0.00     0.074 A 
ATOM     52  C   UNL A   1      42.334  31.329  29.543  1.00  0.00     0.029 A 
ATOM     53  N   UNL A   1      43.809  29.960  28.597  1.00  0.00    -0.354 N 
ATOM     54  N   UNL A   1      46.478  29.174  27.638  1.00  0.00    -0.248 NA
ATOM     55  C   UNL A   1      48.705  29.709  27.171  1.00  0.00     0.031 C 
ATOM     56  C   UNL A   1      43.531  32.026  29.361  1.00  0.00     0.029 A 
ATOM     57  C   UNL A   1      44.466  31.162  28.815  1.00  0.00     0.049 A 
ATOM     58  H   UNL A   1      44.217  29.156  28.204  1.00  0.00     0.167 HD
ATOM     59  C   UNL A   1      46.717  30.495  28.007  1.00  0.00     0.074 A 
ATOM     60  C   UNL A   1      48.117  30.752  27.737  1.00  0.00     0.031 C 
ATOM     61  C   UNL A   1      45.860  31.413  28.525  1.00  0.00     0.034 A 
BRANCH  48  62
ATOM     62  C   UNL A   1      40.071  29.313  29.287  1.00  0.00     0.023 A 
ATOM     63  C   UNL A   1      39.676  29.366  30.636  1.00  0.00     0.031 A 
ATOM     64  C   UNL A   1      39.085  29.527  28.307  1.00  0.00     0.131 A 
ATOM     65  C   UNL A   1      38.325  29.550  30.965  1.00  0.00     0.055 A 
ATOM     66  C   UNL A   1      37.757  29.801  28.644  1.00  0.00     0.041 A 
ATOM     67  F   UNL A   1      39.392  29.461  27.002  1.00  0.00    -0.206 F 
ATOM     68  C   UNL A   1      37.367  29.799  29.980  1.00  0.00     0.022 A 
BRANCH  65  69
ATOM     69  S   UNL A   1      37.813  29.300  32.687  1.00  0.00     0.124 S 
ATOM     70  O   UNL A   1      36.562  30.054  32.735  1.00  0.00    -0.237 OA
ATOM     71  O   UNL A   1      37.688  27.850  32.771  1.00  0.00    -0.237 OA
ATOM     72  O   UNL A   1      38.910  29.880  33.458  1.00  0.00    -0.744 OA
ENDBRANCH  65  69
ENDBRANCH  48  62
BRANCH  49  73
ATOM     73  C   UNL A   1      49.330  27.024  26.168  1.00  0.00     0.023 A 
ATOM     74  C   UNL A   1      49.730  27.384  24.871  1.00  0.00     0.031 A 
ATOM     75  C   UNL A   1      50.245  26.309  26.962  1.00  0.00     0.131 A 
ATOM     76  C   UNL A   1      50.986  26.980  24.388  1.00  0.00     0.055 A 
ATOM     77  C   UNL A   1      51.518  25.970  26.502  1.00  0.00     0.041 A 
ATOM     78  F   UNL A   1      49.916  25.937  28.210  1.00  0.00    -0.206 F 
ATOM     79  C   UNL A   1      51.890  26.293  25.202  1.00  0.00     0.022 A 
BRANCH  76  80
ATOM     80  S   UNL A   1      51.380  27.272  22.641  1.00  0.00     0.124 S 
ATOM     81  O   UNL A   1      50.130  26.897  21.991  1.00  0.00    -0.237 OA
ATOM     82  O   UNL A   1      51.707  28.693  22.638  1.00  0.00    -0.237 OA
ATOM     83  O   UNL A   1      52.506  26.374  22.393  1.00  0.00    -0.744 OA
ENDBRANCH  76  80
ENDBRANCH  49  73
BRANCH  61  84
ATOM     84  C   UNL A   1      46.429  32.768  28.870  1.00  0.00     0.023 A 
ATOM     85  C   UNL A   1      46.375  33.845  27.969  1.00  0.00     0.031 A 
ATOM     86  C   UNL A   1      47.054  32.980  30.112  1.00  0.00     0.131 A 
ATOM     87  C   UNL A   1      46.999  35.059  28.291  1.00  0.00     0.055 A 
ATOM     88  C   UNL A   1      47.602  34.215  30.461  1.00  0.00     0.041 A 
ATOM     89  F   UNL A   1      47.143  31.987  31.012  1.00  0.00    -0.206 F 
ATOM     90  C   UNL A   1      47.593  35.258  29.541  1.00  0.00     0.022 A 
BRANCH  87  91
ATOM     91  S   UNL A   1      47.142  36.330  27.005  1.00  0.00     0.124 S 
ATOM     92  O   UNL A   1      48.533  36.748  27.147  1.00  0.00    -0.237 OA
ATOM     93  O   UNL A   1      46.821  35.583  25.792  1.00  0.00    -0.237 OA
ATOM     94  O   UNL A   1      46.150  37.328  27.398  1.00  0.00    -0.744 OA
ENDBRANCH  87  91
ENDBRANCH  61  84
ENDBRANCH  35  36
ENDBRANCH  27  30
ENDBRANCH  25  26
ENDBRANCH   1  25
TORSDOF 16
ENDMDL
