MODEL 1
REMARK VINA RESULT:     -12.4      0.000      0.000
REMARK SMILES Cc1ccc(CNc2ccc(C(=O)NCCCNC(=O)c3ccc(-c4c5nc(c(-c6cc(S(=O)(=O)[O-])ccc6F)c6ccc([nH]6)c(-c6cc(S(=O)(=O)[O-])ccc6F)c6nc(c(-c7cc(S(=O)(=O)[O-])ccc7F)c7ccc4[nH]7)C=C6)C=C5)cc3)cc2Br)cc1
REMARK SMILES IDX 16 1 15 2 14 3 12 4 13 5 11 7 8 8 9 9 85 10 10 11 84 12
REMARK SMILES IDX 86 13 7 14 6 16 5 17 1 18 2 19 3 20 88 21 4 22 87 23 17 24
REMARK SMILES IDX 18 25 19 26 20 28 21 29 22 30 83 31 23 32 82 33 24 34 25 35
REMARK SMILES IDX 26 36 76 37 27 38 81 39 75 40 77 41 28 42 80 43 74 44 73 45
REMARK SMILES IDX 29 47 61 48 41 49 60 50 42 51 45 52 59 53 78 54 43 55 44 56
REMARK SMILES IDX 58 58 79 59 46 60 30 61 31 62 39 63 32 64 38 65 40 66 37 67
REMARK SMILES IDX 33 68 34 69 35 70 36 71 62 72 63 73 71 74 64 75 70 76 72 77
REMARK SMILES IDX 69 78 65 79 66 80 67 81 68 82 47 83 48 84 56 85 49 86 55 87
REMARK SMILES IDX 57 88 54 89 50 90 51 91 52 92 53 93
REMARK H PARENT 14 6 7 15 18 27 77 46 45 57
REMARK Flexibility Score: inf
ROOT
ATOM      1  C   UNL A   1      33.338  30.854  27.209  1.00  0.00     0.042 C 
ENDROOT
BRANCH   1   2
ATOM      2  C   UNL A   1      32.135  29.929  27.179  1.00  0.00     0.118 C 
BRANCH   2   3
ATOM      3  N   UNL A   1      31.450  29.932  25.888  1.00  0.00    -0.352 N 
ATOM      4  C   UNL A   1      31.458  29.021  24.857  1.00  0.00     0.251 C 
ATOM      5  O   UNL A   1      30.981  29.292  23.758  1.00  0.00    -0.269 OA
ATOM      6  H   UNL A   1      30.885  30.722  25.729  1.00  0.00     0.163 HD
BRANCH   4   7
ATOM      7  C   UNL A   1      32.069  27.684  25.046  1.00  0.00     0.041 A 
ATOM      8  C   UNL A   1      33.174  25.084  25.199  1.00  0.00     0.049 A 
ATOM      9  C   UNL A   1      33.952  26.182  24.823  1.00  0.00     0.028 A 
ATOM     10  C   UNL A   1      31.845  25.347  25.601  1.00  0.00     0.041 A 
ATOM     11  C   UNL A   1      33.424  27.472  24.809  1.00  0.00     0.016 A 
ATOM     12  C   UNL A   1      31.288  26.628  25.516  1.00  0.00     0.031 A 
ATOM     13  Br  UNL A   1      30.751  23.951  26.299  1.00  0.00    -0.049 Br
BRANCH   8  14
ATOM     14  N   UNL A   1      33.656  23.787  25.156  1.00  0.00    -0.380 N 
ATOM     15  H   UNL A   1      33.389  23.190  25.892  1.00  0.00     0.160 HD
BRANCH  14  16
ATOM     16  C   UNL A   1      34.511  23.219  24.134  1.00  0.00     0.148 C 
BRANCH  16  17
ATOM     17  C   UNL A   1      35.842  22.818  24.724  1.00  0.00    -0.029 A 
ATOM     18  C   UNL A   1      39.629  21.648  26.430  1.00  0.00     0.044 C 
ATOM     19  C   UNL A   1      38.325  22.050  25.812  1.00  0.00    -0.051 A 
ATOM     20  C   UNL A   1      37.884  23.372  25.921  1.00  0.00     0.004 A 
ATOM     21  C   UNL A   1      37.528  21.120  25.137  1.00  0.00     0.004 A 
ATOM     22  C   UNL A   1      36.660  23.755  25.373  1.00  0.00     0.006 A 
ATOM     23  C   UNL A   1      36.300  21.501  24.592  1.00  0.00     0.006 A 
ENDBRANCH  16  17
ENDBRANCH  14  16
ENDBRANCH   8  14
ENDBRANCH   4   7
ENDBRANCH   2   3
ENDBRANCH   1   2
BRANCH   1  24
ATOM     24  C   UNL A   1      34.566  30.196  27.817  1.00  0.00     0.118 C 
BRANCH  24  25
ATOM     25  N   UNL A   1      35.318  31.084  28.714  1.00  0.00    -0.352 N 
ATOM     26  C   UNL A   1      36.577  30.885  29.265  1.00  0.00     0.251 C 
ATOM     27  H   UNL A   1      34.872  31.929  28.955  1.00  0.00     0.163 HD
ATOM     28  O   UNL A   1      37.126  31.716  29.965  1.00  0.00    -0.269 OA
BRANCH  26  29
ATOM     29  C   UNL A   1      37.288  29.646  28.881  1.00  0.00     0.039 A 
ATOM     30  C   UNL A   1      37.578  28.735  29.898  1.00  0.00     0.014 A 
ATOM     31  C   UNL A   1      37.955  29.607  27.660  1.00  0.00     0.014 A 
ATOM     32  C   UNL A   1      38.723  27.954  29.790  1.00  0.00     0.010 A 
ATOM     33  C   UNL A   1      39.154  28.924  27.607  1.00  0.00     0.010 A 
ATOM     34  C   UNL A   1      39.573  28.151  28.698  1.00  0.00    -0.014 A 
BRANCH  34  35
ATOM     35  C   UNL A   1      40.967  27.715  28.710  1.00  0.00     0.031 A 
ATOM     36  C   UNL A   1      41.339  26.373  28.222  1.00  0.00     0.074 A 
ATOM     37  C   UNL A   1      41.940  28.516  29.202  1.00  0.00     0.049 A 
ATOM     38  N   UNL A   1      42.279  25.656  28.742  1.00  0.00    -0.248 NA
ATOM     39  C   UNL A   1      40.641  25.710  27.125  1.00  0.00     0.031 C 
ATOM     40  C   UNL A   1      43.382  28.287  29.148  1.00  0.00     0.029 A 
ATOM     41  N   UNL A   1      41.793  29.594  30.077  1.00  0.00    -0.354 N 
ATOM     42  C   UNL A   1      42.487  24.587  27.906  1.00  0.00     0.074 A 
ATOM     43  C   UNL A   1      41.403  24.628  26.950  1.00  0.00     0.031 C 
ATOM     44  C   UNL A   1      43.969  28.989  30.129  1.00  0.00     0.029 A 
ATOM     45  C   UNL A   1      42.920  29.606  30.918  1.00  0.00     0.049 A 
ATOM     46  H   UNL A   1      41.040  30.227  30.100  1.00  0.00     0.167 HD
ATOM     47  C   UNL A   1      43.621  23.843  27.995  1.00  0.00     0.034 A 
ATOM     48  C   UNL A   1      42.796  29.536  32.275  1.00  0.00     0.034 A 
ATOM     49  C   UNL A   1      44.534  24.339  29.014  1.00  0.00     0.049 A 
ATOM     50  C   UNL A   1      43.467  28.324  32.880  1.00  0.00     0.074 A 
ATOM     51  C   UNL A   1      45.649  25.159  28.951  1.00  0.00     0.029 A 
ATOM     52  N   UNL A   1      44.185  24.252  30.357  1.00  0.00    -0.354 N 
ATOM     53  N   UNL A   1      43.910  27.312  32.186  1.00  0.00    -0.248 NA
ATOM     54  C   UNL A   1      43.661  28.137  34.316  1.00  0.00     0.031 C 
ATOM     55  C   UNL A   1      45.926  25.624  30.262  1.00  0.00     0.029 A 
ATOM     56  C   UNL A   1      45.007  25.055  31.125  1.00  0.00     0.049 A 
ATOM     57  H   UNL A   1      43.453  23.697  30.711  1.00  0.00     0.167 HD
ATOM     58  C   UNL A   1      44.383  26.341  33.034  1.00  0.00     0.074 A 
ATOM     59  C   UNL A   1      44.240  26.924  34.356  1.00  0.00     0.031 C 
ATOM     60  C   UNL A   1      44.828  25.135  32.569  1.00  0.00     0.034 A 
BRANCH  47  61
ATOM     61  C   UNL A   1      43.997  22.877  26.907  1.00  0.00     0.023 A 
ATOM     62  C   UNL A   1      43.390  21.610  26.847  1.00  0.00     0.031 A 
ATOM     63  C   UNL A   1      44.988  23.142  25.943  1.00  0.00     0.131 A 
ATOM     64  C   UNL A   1      43.836  20.638  25.934  1.00  0.00     0.055 A 
ATOM     65  C   UNL A   1      45.472  22.158  25.073  1.00  0.00     0.041 A 
ATOM     66  F   UNL A   1      45.525  24.368  25.821  1.00  0.00    -0.206 F 
ATOM     67  C   UNL A   1      44.904  20.891  25.075  1.00  0.00     0.022 A 
BRANCH  64  68
ATOM     68  S   UNL A   1      42.997  19.030  25.884  1.00  0.00     0.124 S 
ATOM     69  O   UNL A   1      42.835  18.718  27.300  1.00  0.00    -0.237 OA
ATOM     70  O   UNL A   1      41.777  19.344  25.149  1.00  0.00    -0.237 OA
ATOM     71  O   UNL A   1      43.944  18.176  25.168  1.00  0.00    -0.744 OA
ENDBRANCH  64  68
ENDBRANCH  47  61
BRANCH  48  72
ATOM     72  C   UNL A   1      41.566  30.205  32.785  1.00  0.00     0.023 A 
ATOM     73  C   UNL A   1      41.573  31.616  32.813  1.00  0.00     0.031 A 
ATOM     74  C   UNL A   1      40.328  29.555  32.846  1.00  0.00     0.131 A 
ATOM     75  C   UNL A   1      40.372  32.332  32.717  1.00  0.00     0.055 A 
ATOM     76  C   UNL A   1      39.128  30.277  32.831  1.00  0.00     0.041 A 
ATOM     77  F   UNL A   1      40.254  28.217  32.787  1.00  0.00    -0.206 F 
ATOM     78  C   UNL A   1      39.144  31.669  32.719  1.00  0.00     0.022 A 
BRANCH  75  79
ATOM     79  S   UNL A   1      40.460  34.092  32.276  1.00  0.00     0.124 S 
ATOM     80  O   UNL A   1      39.095  34.375  31.853  1.00  0.00    -0.237 OA
ATOM     81  O   UNL A   1      40.889  34.709  33.531  1.00  0.00    -0.237 OA
ATOM     82  O   UNL A   1      41.471  34.139  31.221  1.00  0.00    -0.744 OA
ENDBRANCH  75  79
ENDBRANCH  48  72
BRANCH  60  83
ATOM     83  C   UNL A   1      45.211  23.942  33.420  1.00  0.00     0.023 A 
ATOM     84  C   UNL A   1      46.469  23.786  34.018  1.00  0.00     0.031 A 
ATOM     85  C   UNL A   1      44.258  22.937  33.725  1.00  0.00     0.131 A 
ATOM     86  C   UNL A   1      46.769  22.652  34.797  1.00  0.00     0.055 A 
ATOM     87  C   UNL A   1      44.532  21.855  34.567  1.00  0.00     0.041 A 
ATOM     88  F   UNL A   1      43.015  22.965  33.219  1.00  0.00    -0.206 F 
ATOM     89  C   UNL A   1      45.801  21.697  35.098  1.00  0.00     0.022 A 
BRANCH  86  90
ATOM     90  S   UNL A   1      48.476  22.419  35.359  1.00  0.00     0.124 S 
ATOM     91  O   UNL A   1      49.237  22.852  34.190  1.00  0.00    -0.237 OA
ATOM     92  O   UNL A   1      48.547  23.297  36.523  1.00  0.00    -0.237 OA
ATOM     93  O   UNL A   1      48.551  20.990  35.652  1.00  0.00    -0.744 OA
ENDBRANCH  86  90
ENDBRANCH  60  83
ENDBRANCH  34  35
ENDBRANCH  26  29
ENDBRANCH  24  25
ENDBRANCH   1  24
TORSDOF 16
ENDMDL
MODEL 2
REMARK VINA RESULT:     -12.0      2.413      2.881
REMARK SMILES Cc1ccc(CNc2ccc(C(=O)NCCCNC(=O)c3ccc(-c4c5nc(c(-c6cc(S(=O)(=O)[O-])ccc6F)c6ccc([nH]6)c(-c6cc(S(=O)(=O)[O-])ccc6F)c6nc(c(-c7cc(S(=O)(=O)[O-])ccc7F)c7ccc4[nH]7)C=C6)C=C5)cc3)cc2Br)cc1
REMARK SMILES IDX 16 1 15 2 14 3 12 4 13 5 11 7 8 8 9 9 85 10 10 11 84 12
REMARK SMILES IDX 86 13 7 14 6 16 5 17 1 18 2 19 3 20 88 21 4 22 87 23 17 24
REMARK SMILES IDX 18 25 19 26 20 28 21 29 22 30 83 31 23 32 82 33 24 34 25 35
REMARK SMILES IDX 26 36 76 37 27 38 81 39 75 40 77 41 28 42 80 43 74 44 73 45
REMARK SMILES IDX 29 47 61 48 41 49 60 50 42 51 45 52 59 53 78 54 43 55 44 56
REMARK SMILES IDX 58 58 79 59 46 60 30 61 31 62 39 63 32 64 38 65 40 66 37 67
REMARK SMILES IDX 33 68 34 69 35 70 36 71 62 72 63 73 71 74 64 75 70 76 72 77
REMARK SMILES IDX 69 78 65 79 66 80 67 81 68 82 47 83 48 84 56 85 49 86 55 87
REMARK SMILES IDX 57 88 54 89 50 90 51 91 52 92 53 93
REMARK H PARENT 14 6 7 15 18 27 77 46 45 57
REMARK Flexibility Score: inf
ROOT
ATOM      1  C   UNL A   1      32.387  30.418  26.419  1.00  0.00     0.042 C 
ENDROOT
BRANCH   1   2
ATOM      2  C   UNL A   1      32.423  29.676  25.096  1.00  0.00     0.118 C 
BRANCH   2   3
ATOM      3  N   UNL A   1      31.143  29.710  24.392  1.00  0.00    -0.352 N 
ATOM      4  C   UNL A   1      30.485  28.748  23.663  1.00  0.00     0.251 C 
ATOM      5  O   UNL A   1      29.509  29.024  22.968  1.00  0.00    -0.269 OA
ATOM      6  H   UNL A   1      30.669  30.571  24.452  1.00  0.00     0.163 HD
BRANCH   4   7
ATOM      7  C   UNL A   1      30.956  27.343  23.682  1.00  0.00     0.041 A 
ATOM      8  C   UNL A   1      31.662  24.603  23.628  1.00  0.00     0.049 A 
ATOM      9  C   UNL A   1      32.005  25.462  22.580  1.00  0.00     0.028 A 
ATOM     10  C   UNL A   1      31.044  25.185  24.758  1.00  0.00     0.041 A 
ATOM     11  C   UNL A   1      31.714  26.824  22.635  1.00  0.00     0.016 A 
ATOM     12  C   UNL A   1      30.681  26.537  24.786  1.00  0.00     0.031 A 
ATOM     13  Br  UNL A   1      30.693  24.142  26.314  1.00  0.00    -0.049 Br
BRANCH   8  14
ATOM     14  N   UNL A   1      31.880  23.238  23.567  1.00  0.00    -0.380 N 
ATOM     15  H   UNL A   1      31.170  22.659  23.928  1.00  0.00     0.160 HD
BRANCH  14  16
ATOM     16  C   UNL A   1      33.048  22.576  23.025  1.00  0.00     0.148 C 
BRANCH  16  17
ATOM     17  C   UNL A   1      34.271  22.906  23.846  1.00  0.00    -0.029 A 
ATOM     18  C   UNL A   1      37.751  23.881  26.206  1.00  0.00     0.044 C 
ATOM     19  C   UNL A   1      36.542  23.517  25.399  1.00  0.00    -0.051 A 
ATOM     20  C   UNL A   1      36.651  23.379  24.012  1.00  0.00     0.004 A 
ATOM     21  C   UNL A   1      35.297  23.326  26.007  1.00  0.00     0.004 A 
ATOM     22  C   UNL A   1      35.528  23.066  23.245  1.00  0.00     0.006 A 
ATOM     23  C   UNL A   1      34.173  23.017  25.239  1.00  0.00     0.006 A 
ENDBRANCH  16  17
ENDBRANCH  14  16
ENDBRANCH   8  14
ENDBRANCH   4   7
ENDBRANCH   2   3
ENDBRANCH   1   2
BRANCH   1  24
ATOM     24  C   UNL A   1      33.523  30.018  27.346  1.00  0.00     0.118 C 
BRANCH  24  25
ATOM     25  N   UNL A   1      34.016  31.126  28.176  1.00  0.00    -0.352 N 
ATOM     26  C   UNL A   1      35.239  31.238  28.822  1.00  0.00     0.251 C 
ATOM     27  H   UNL A   1      33.399  31.885  28.288  1.00  0.00     0.163 HD
ATOM     28  O   UNL A   1      35.560  32.230  29.452  1.00  0.00    -0.269 OA
BRANCH  26  29
ATOM     29  C   UNL A   1      36.203  30.132  28.631  1.00  0.00     0.039 A 
ATOM     30  C   UNL A   1      36.502  29.347  29.745  1.00  0.00     0.014 A 
ATOM     31  C   UNL A   1      37.031  30.151  27.513  1.00  0.00     0.014 A 
ATOM     32  C   UNL A   1      37.770  28.786  29.846  1.00  0.00     0.010 A 
ATOM     33  C   UNL A   1      38.327  29.698  27.666  1.00  0.00     0.010 A 
ATOM     34  C   UNL A   1      38.717  29.076  28.859  1.00  0.00    -0.014 A 
BRANCH  34  35
ATOM     35  C   UNL A   1      40.151  28.905  29.084  1.00  0.00     0.031 A 
ATOM     36  C   UNL A   1      40.861  27.732  28.540  1.00  0.00     0.074 A 
ATOM     37  C   UNL A   1      40.847  29.797  29.826  1.00  0.00     0.049 A 
ATOM     38  N   UNL A   1      41.832  27.136  29.149  1.00  0.00    -0.248 NA
ATOM     39  C   UNL A   1      40.500  27.107  27.272  1.00  0.00     0.031 C 
ATOM     40  C   UNL A   1      42.295  29.845  30.015  1.00  0.00     0.029 A 
ATOM     41  N   UNL A   1      40.345  30.701  30.762  1.00  0.00    -0.354 N 
ATOM     42  C   UNL A   1      42.385  26.246  28.262  1.00  0.00     0.074 A 
ATOM     43  C   UNL A   1      41.484  26.216  27.132  1.00  0.00     0.031 C 
ATOM     44  C   UNL A   1      42.562  30.503  31.153  1.00  0.00     0.029 A 
ATOM     45  C   UNL A   1      41.296  30.806  31.794  1.00  0.00     0.049 A 
ATOM     46  H   UNL A   1      39.485  31.177  30.710  1.00  0.00     0.167 HD
ATOM     47  C   UNL A   1      43.618  25.718  28.483  1.00  0.00     0.034 A 
ATOM     48  C   UNL A   1      40.971  30.531  33.090  1.00  0.00     0.034 A 
ATOM     49  C   UNL A   1      44.234  26.229  29.697  1.00  0.00     0.049 A 
ATOM     50  C   UNL A   1      41.770  29.393  33.683  1.00  0.00     0.074 A 
ATOM     51  C   UNL A   1      45.154  27.241  29.924  1.00  0.00     0.029 A 
ATOM     52  N   UNL A   1      43.699  25.900  30.937  1.00  0.00    -0.354 N 
ATOM     53  N   UNL A   1      42.516  28.582  32.984  1.00  0.00    -0.248 NA
ATOM     54  C   UNL A   1      41.764  29.053  35.104  1.00  0.00     0.031 C 
ATOM     55  C   UNL A   1      45.115  27.567  31.303  1.00  0.00     0.029 A 
ATOM     56  C   UNL A   1      44.205  26.728  31.921  1.00  0.00     0.049 A 
ATOM     57  H   UNL A   1      43.049  25.177  31.093  1.00  0.00     0.167 HD
ATOM     58  C   UNL A   1      43.034  27.609  33.802  1.00  0.00     0.074 A 
ATOM     59  C   UNL A   1      42.564  27.971  35.127  1.00  0.00     0.031 C 
ATOM     60  C   UNL A   1      43.785  26.578  33.308  1.00  0.00     0.034 A 
BRANCH  47  61
ATOM     61  C   UNL A   1      44.353  24.993  27.391  1.00  0.00     0.023 A 
ATOM     62  C   UNL A   1      45.379  25.639  26.679  1.00  0.00     0.031 A 
ATOM     63  C   UNL A   1      44.038  23.683  26.982  1.00  0.00     0.131 A 
ATOM     64  C   UNL A   1      45.971  25.035  25.557  1.00  0.00     0.055 A 
ATOM     65  C   UNL A   1      44.586  23.103  25.831  1.00  0.00     0.041 A 
ATOM     66  F   UNL A   1      43.179  22.926  27.684  1.00  0.00    -0.206 F 
ATOM     67  C   UNL A   1      45.549  23.786  25.103  1.00  0.00     0.022 A 
BRANCH  64  68
ATOM     68  S   UNL A   1      47.308  25.906  24.694  1.00  0.00     0.124 S 
ATOM     69  O   UNL A   1      46.622  27.074  24.152  1.00  0.00    -0.237 OA
ATOM     70  O   UNL A   1      48.256  26.159  25.774  1.00  0.00    -0.237 OA
ATOM     71  O   UNL A   1      47.757  24.936  23.696  1.00  0.00    -0.744 OA
ENDBRANCH  64  68
ENDBRANCH  47  61
BRANCH  48  72
ATOM     72  C   UNL A   1      39.566  30.889  33.430  1.00  0.00     0.023 A 
ATOM     73  C   UNL A   1      39.283  32.259  33.614  1.00  0.00     0.031 A 
ATOM     74  C   UNL A   1      38.491  30.026  33.185  1.00  0.00     0.131 A 
ATOM     75  C   UNL A   1      37.994  32.755  33.373  1.00  0.00     0.055 A 
ATOM     76  C   UNL A   1      37.189  30.516  33.024  1.00  0.00     0.041 A 
ATOM     77  F   UNL A   1      38.700  28.719  32.967  1.00  0.00    -0.206 F 
ATOM     78  C   UNL A   1      36.942  31.890  33.070  1.00  0.00     0.022 A 
BRANCH  75  79
ATOM     79  S   UNL A   1      37.796  34.547  33.152  1.00  0.00     0.124 S 
ATOM     80  O   UNL A   1      38.716  35.086  34.145  1.00  0.00    -0.237 OA
ATOM     81  O   UNL A   1      38.174  34.735  31.752  1.00  0.00    -0.237 OA
ATOM     82  O   UNL A   1      36.377  34.779  33.416  1.00  0.00    -0.744 OA
ENDBRANCH  75  79
ENDBRANCH  48  72
BRANCH  60  83
ATOM     83  C   UNL A   1      44.260  25.372  34.089  1.00  0.00     0.023 A 
ATOM     84  C   UNL A   1      45.612  25.038  34.255  1.00  0.00     0.031 A 
ATOM     85  C   UNL A   1      43.335  24.546  34.777  1.00  0.00     0.131 A 
ATOM     86  C   UNL A   1      45.995  23.901  34.992  1.00  0.00     0.055 A 
ATOM     87  C   UNL A   1      43.723  23.466  35.576  1.00  0.00     0.041 A 
ATOM     88  F   UNL A   1      42.012  24.754  34.704  1.00  0.00    -0.206 F 
ATOM     89  C   UNL A   1      45.061  23.126  35.675  1.00  0.00     0.022 A 
BRANCH  86  90
ATOM     90  S   UNL A   1      47.741  23.417  34.984  1.00  0.00     0.124 S 
ATOM     91  O   UNL A   1      47.654  21.987  34.703  1.00  0.00    -0.237 OA
ATOM     92  O   UNL A   1      48.291  24.242  33.913  1.00  0.00    -0.237 OA
ATOM     93  O   UNL A   1      48.200  23.757  36.329  1.00  0.00    -0.744 OA
ENDBRANCH  86  90
ENDBRANCH  60  83
ENDBRANCH  34  35
ENDBRANCH  26  29
ENDBRANCH  24  25
ENDBRANCH   1  24
TORSDOF 16
ENDMDL
MODEL 3
REMARK VINA RESULT:     -12.0      4.129     10.804
REMARK SMILES Cc1ccc(CNc2ccc(C(=O)NCCCNC(=O)c3ccc(-c4c5nc(c(-c6cc(S(=O)(=O)[O-])ccc6F)c6ccc([nH]6)c(-c6cc(S(=O)(=O)[O-])ccc6F)c6nc(c(-c7cc(S(=O)(=O)[O-])ccc7F)c7ccc4[nH]7)C=C6)C=C5)cc3)cc2Br)cc1
REMARK SMILES IDX 16 1 15 2 14 3 12 4 13 5 11 7 8 8 9 9 85 10 10 11 84 12
REMARK SMILES IDX 86 13 7 14 6 16 5 17 1 18 2 19 3 20 88 21 4 22 87 23 17 24
REMARK SMILES IDX 18 25 19 26 20 28 21 29 22 30 83 31 23 32 82 33 24 34 25 35
REMARK SMILES IDX 26 36 76 37 27 38 81 39 75 40 77 41 28 42 80 43 74 44 73 45
REMARK SMILES IDX 29 47 61 48 41 49 60 50 42 51 45 52 59 53 78 54 43 55 44 56
REMARK SMILES IDX 58 58 79 59 46 60 30 61 31 62 39 63 32 64 38 65 40 66 37 67
REMARK SMILES IDX 33 68 34 69 35 70 36 71 62 72 63 73 71 74 64 75 70 76 72 77
REMARK SMILES IDX 69 78 65 79 66 80 67 81 68 82 47 83 48 84 56 85 49 86 55 87
REMARK SMILES IDX 57 88 54 89 50 90 51 91 52 92 53 93
REMARK H PARENT 14 6 7 15 18 27 77 46 45 57
REMARK Flexibility Score: inf
ROOT
ATOM      1  C   UNL A   1      38.925  21.703  25.936  1.00  0.00     0.042 C 
ENDROOT
BRANCH   1   2
ATOM      2  C   UNL A   1      37.529  22.003  25.423  1.00  0.00     0.118 C 
BRANCH   2   3
ATOM      3  N   UNL A   1      36.799  20.800  25.028  1.00  0.00    -0.352 N 
ATOM      4  C   UNL A   1      35.450  20.552  24.928  1.00  0.00     0.251 C 
ATOM      5  O   UNL A   1      35.016  19.412  24.778  1.00  0.00    -0.269 OA
ATOM      6  H   UNL A   1      37.372  20.036  24.794  1.00  0.00     0.163 HD
BRANCH   4   7
ATOM      7  C   UNL A   1      34.476  21.665  25.021  1.00  0.00     0.041 A 
ATOM      8  C   UNL A   1      32.475  23.665  25.083  1.00  0.00     0.049 A 
ATOM      9  C   UNL A   1      32.608  22.739  26.121  1.00  0.00     0.028 A 
ATOM     10  C   UNL A   1      33.448  23.624  24.058  1.00  0.00     0.041 A 
ATOM     11  C   UNL A   1      33.633  21.794  26.121  1.00  0.00     0.016 A 
ATOM     12  C   UNL A   1      34.432  22.631  24.015  1.00  0.00     0.031 A 
ATOM     13  Br  UNL A   1      33.466  24.949  22.688  1.00  0.00    -0.049 Br
BRANCH   8  14
ATOM     14  N   UNL A   1      31.427  24.568  25.026  1.00  0.00    -0.380 N 
ATOM     15  H   UNL A   1      30.999  24.696  24.149  1.00  0.00     0.160 HD
BRANCH  14  16
ATOM     16  C   UNL A   1      30.896  25.340  26.129  1.00  0.00     0.148 C 
BRANCH  16  17
ATOM     17  C   UNL A   1      31.765  26.546  26.396  1.00  0.00    -0.029 A 
ATOM     18  C   UNL A   1      34.226  30.014  27.135  1.00  0.00     0.044 C 
ATOM     19  C   UNL A   1      33.370  28.805  26.906  1.00  0.00    -0.051 A 
ATOM     20  C   UNL A   1      33.909  27.686  26.264  1.00  0.00     0.004 A 
ATOM     21  C   UNL A   1      32.032  28.780  27.311  1.00  0.00     0.004 A 
ATOM     22  C   UNL A   1      33.116  26.564  26.021  1.00  0.00     0.006 A 
ATOM     23  C   UNL A   1      31.237  27.659  27.064  1.00  0.00     0.006 A 
ENDBRANCH  16  17
ENDBRANCH  14  16
ENDBRANCH   8  14
ENDBRANCH   4   7
ENDBRANCH   2   3
ENDBRANCH   1   2
BRANCH   1  24
ATOM     24  C   UNL A   1      39.496  22.833  26.776  1.00  0.00     0.118 C 
BRANCH  24  25
ATOM     25  N   UNL A   1      40.880  23.177  26.426  1.00  0.00    -0.352 N 
ATOM     26  C   UNL A   1      41.454  24.437  26.323  1.00  0.00     0.251 C 
ATOM     27  H   UNL A   1      41.478  22.416  26.241  1.00  0.00     0.163 HD
ATOM     28  O   UNL A   1      42.633  24.603  26.067  1.00  0.00    -0.269 OA
BRANCH  26  29
ATOM     29  C   UNL A   1      40.590  25.595  26.642  1.00  0.00     0.039 A 
ATOM     30  C   UNL A   1      40.940  26.825  26.082  1.00  0.00     0.014 A 
ATOM     31  C   UNL A   1      39.737  25.513  27.738  1.00  0.00     0.014 A 
ATOM     32  C   UNL A   1      40.647  27.987  26.787  1.00  0.00     0.010 A 
ATOM     33  C   UNL A   1      39.555  26.654  28.495  1.00  0.00     0.010 A 
ATOM     34  C   UNL A   1      40.068  27.880  28.054  1.00  0.00    -0.014 A 
BRANCH  34  35
ATOM     35  C   UNL A   1      40.120  28.969  29.027  1.00  0.00     0.031 A 
ATOM     36  C   UNL A   1      39.039  29.972  29.089  1.00  0.00     0.074 A 
ATOM     37  C   UNL A   1      41.175  29.103  29.863  1.00  0.00     0.049 A 
ATOM     38  N   UNL A   1      39.233  31.221  29.356  1.00  0.00    -0.248 NA
ATOM     39  C   UNL A   1      37.644  29.648  28.809  1.00  0.00     0.031 C 
ATOM     40  C   UNL A   1      41.303  30.040  30.977  1.00  0.00     0.029 A 
ATOM     41  N   UNL A   1      42.456  28.571  29.708  1.00  0.00    -0.354 N 
ATOM     42  C   UNL A   1      38.001  31.794  29.545  1.00  0.00     0.074 A 
ATOM     43  C   UNL A   1      37.042  30.795  29.131  1.00  0.00     0.031 C 
ATOM     44  C   UNL A   1      42.605  30.229  31.236  1.00  0.00     0.029 A 
ATOM     45  C   UNL A   1      43.364  29.511  30.230  1.00  0.00     0.049 A 
ATOM     46  H   UNL A   1      42.681  27.701  29.308  1.00  0.00     0.167 HD
ATOM     47  C   UNL A   1      37.880  32.999  30.163  1.00  0.00     0.034 A 
ATOM     48  C   UNL A   1      44.368  30.029  29.466  1.00  0.00     0.034 A 
ATOM     49  C   UNL A   1      39.162  33.534  30.596  1.00  0.00     0.049 A 
ATOM     50  C   UNL A   1      44.288  31.530  29.303  1.00  0.00     0.074 A 
ATOM     51  C   UNL A   1      39.820  33.513  31.815  1.00  0.00     0.029 A 
ATOM     52  N   UNL A   1      40.099  33.936  29.651  1.00  0.00    -0.354 N 
ATOM     53  N   UNL A   1      43.250  32.246  29.635  1.00  0.00    -0.248 NA
ATOM     54  C   UNL A   1      45.355  32.339  28.719  1.00  0.00     0.031 C 
ATOM     55  C   UNL A   1      41.181  33.837  31.585  1.00  0.00     0.029 A 
ATOM     56  C   UNL A   1      41.342  34.095  30.236  1.00  0.00     0.049 A 
ATOM     57  H   UNL A   1      39.905  34.086  28.698  1.00  0.00     0.167 HD
ATOM     58  C   UNL A   1      43.459  33.556  29.281  1.00  0.00     0.074 A 
ATOM     59  C   UNL A   1      44.808  33.568  28.746  1.00  0.00     0.031 C 
ATOM     60  C   UNL A   1      42.490  34.508  29.439  1.00  0.00     0.034 A 
BRANCH  47  61
ATOM     61  C   UNL A   1      36.544  33.490  30.642  1.00  0.00     0.023 A 
ATOM     62  C   UNL A   1      35.668  34.138  29.753  1.00  0.00     0.031 A 
ATOM     63  C   UNL A   1      36.115  33.390  31.980  1.00  0.00     0.131 A 
ATOM     64  C   UNL A   1      34.483  34.739  30.214  1.00  0.00     0.055 A 
ATOM     65  C   UNL A   1      34.965  34.036  32.451  1.00  0.00     0.041 A 
ATOM     66  F   UNL A   1      36.805  32.665  32.876  1.00  0.00    -0.206 F 
ATOM     67  C   UNL A   1      34.149  34.728  31.567  1.00  0.00     0.022 A 
BRANCH  64  68
ATOM     68  S   UNL A   1      33.380  35.537  29.016  1.00  0.00     0.124 S 
ATOM     69  O   UNL A   1      32.591  36.426  29.862  1.00  0.00    -0.237 OA
ATOM     70  O   UNL A   1      34.326  36.180  28.109  1.00  0.00    -0.237 OA
ATOM     71  O   UNL A   1      32.639  34.417  28.438  1.00  0.00    -0.744 OA
ENDBRANCH  64  68
ENDBRANCH  47  61
BRANCH  48  72
ATOM     72  C   UNL A   1      44.899  29.064  28.463  1.00  0.00     0.023 A 
ATOM     73  C   UNL A   1      45.723  28.026  28.949  1.00  0.00     0.031 A 
ATOM     74  C   UNL A   1      44.320  28.901  27.198  1.00  0.00     0.131 A 
ATOM     75  C   UNL A   1      45.803  26.805  28.266  1.00  0.00     0.055 A 
ATOM     76  C   UNL A   1      44.469  27.707  26.481  1.00  0.00     0.041 A 
ATOM     77  F   UNL A   1      43.499  29.835  26.697  1.00  0.00    -0.206 F 
ATOM     78  C   UNL A   1      45.173  26.635  27.034  1.00  0.00     0.022 A 
BRANCH  75  79
ATOM     79  S   UNL A   1      46.469  25.370  29.158  1.00  0.00     0.124 S 
ATOM     80  O   UNL A   1      47.876  25.394  28.780  1.00  0.00    -0.237 OA
ATOM     81  O   UNL A   1      46.170  25.700  30.552  1.00  0.00    -0.237 OA
ATOM     82  O   UNL A   1      45.695  24.244  28.640  1.00  0.00    -0.744 OA
ENDBRANCH  75  79
ENDBRANCH  48  72
BRANCH  60  83
ATOM     83  C   UNL A   1      42.554  35.933  28.933  1.00  0.00     0.023 A 
ATOM     84  C   UNL A   1      43.283  36.950  29.565  1.00  0.00     0.031 A 
ATOM     85  C   UNL A   1      41.925  36.296  27.714  1.00  0.00     0.131 A 
ATOM     86  C   UNL A   1      43.304  38.259  29.048  1.00  0.00     0.055 A 
ATOM     87  C   UNL A   1      42.015  37.576  27.160  1.00  0.00     0.041 A 
ATOM     88  F   UNL A   1      41.196  35.419  27.008  1.00  0.00    -0.206 F 
ATOM     89  C   UNL A   1      42.696  38.575  27.836  1.00  0.00     0.022 A 
BRANCH  86  90
ATOM     90  S   UNL A   1      44.091  39.562  30.032  1.00  0.00     0.124 S 
ATOM     91  O   UNL A   1      43.755  39.153  31.393  1.00  0.00    -0.237 OA
ATOM     92  O   UNL A   1      45.496  39.432  29.659  1.00  0.00    -0.237 OA
ATOM     93  O   UNL A   1      43.437  40.785  29.573  1.00  0.00    -0.744 OA
ENDBRANCH  86  90
ENDBRANCH  60  83
ENDBRANCH  34  35
ENDBRANCH  26  29
ENDBRANCH  24  25
ENDBRANCH   1  24
TORSDOF 16
ENDMDL
