MODEL 1
REMARK VINA RESULT:     -12.8      0.000      0.000
REMARK SMILES O=C(NCCCNC(=O)[C@@H]1CN(c2nc(-c3ccccc3)no2)CC[NH2+]1)c1ccc(-c2c3nc(c(-c4cc(S(=O)(=O)[O-])ccc4F)c4ccc([nH]4)c(-c4cc(S(=O)(=O)[O-])ccc4F)c4nc(c(-c5cc(S(=O)(=O)[O-])ccc5F)c5ccc2[nH]5)C=C4)C=C3)cc1
REMARK SMILES IDX 4 1 3 2 1 3 2 4 27 6 28 7 89 8 29 9 88 10 30 11 31 12 32 13
REMARK SMILES IDX 82 14 33 15 87 16 81 17 83 18 34 19 86 20 80 21 79 22 35 24
REMARK SMILES IDX 67 25 47 26 66 27 48 28 51 29 65 30 84 31 49 32 50 33 64 35
REMARK SMILES IDX 85 36 52 37 36 38 37 39 45 40 38 41 44 42 46 43 43 44 39 45
REMARK SMILES IDX 40 46 41 47 42 48 68 49 69 50 77 51 70 52 76 53 78 54 75 55
REMARK SMILES IDX 71 56 72 57 73 58 74 59 53 60 54 61 62 62 55 63 61 64 63 65
REMARK SMILES IDX 60 66 56 67 57 68 58 69 59 70 5 71 6 72 7 73 8 74 9 76 10 77
REMARK SMILES IDX 11 78 26 79 12 80 25 81 24 84 13 85 14 86 23 87 15 88 22 89
REMARK SMILES IDX 16 90 17 91 21 92 18 93 20 94 19 95
REMARK H PARENT 3 5 83 23 51 34 7 75 26 82 26 83
REMARK Flexibility Score: inf
ROOT
ATOM      1  C   UNL A   1      33.554  28.971  25.191  1.00  0.00     0.118 C 
ENDROOT
BRANCH   1   2
ATOM      2  N   UNL A   1      32.924  30.183  25.708  1.00  0.00    -0.352 N 
ATOM      3  O   UNL A   1      32.433  31.779  27.213  1.00  0.00    -0.269 OA
ATOM      4  C   UNL A   1      33.226  30.930  26.824  1.00  0.00     0.251 C 
ATOM      5  H   UNL A   1      32.166  30.516  25.176  1.00  0.00     0.163 HD
BRANCH   4   6
ATOM      6  C   UNL A   1      34.500  30.711  27.548  1.00  0.00     0.039 A 
ATOM      7  C   UNL A   1      34.815  29.451  28.056  1.00  0.00     0.014 A 
ATOM      8  C   UNL A   1      35.414  31.763  27.677  1.00  0.00     0.014 A 
ATOM      9  C   UNL A   1      35.963  29.280  28.818  1.00  0.00     0.010 A 
ATOM     10  C   UNL A   1      36.624  31.560  28.356  1.00  0.00     0.010 A 
ATOM     11  C   UNL A   1      36.899  30.320  28.950  1.00  0.00    -0.014 A 
BRANCH  11  12
ATOM     12  C   UNL A   1      38.181  30.026  29.644  1.00  0.00     0.031 A 
ATOM     13  C   UNL A   1      38.466  30.550  31.024  1.00  0.00     0.074 A 
ATOM     14  C   UNL A   1      39.055  29.201  29.033  1.00  0.00     0.049 A 
ATOM     15  N   UNL A   1      39.496  30.312  31.796  1.00  0.00    -0.248 NA
ATOM     16  C   UNL A   1      37.477  31.466  31.611  1.00  0.00     0.031 C 
ATOM     17  C   UNL A   1      38.881  28.651  27.683  1.00  0.00     0.029 A 
ATOM     18  N   UNL A   1      40.227  28.640  29.466  1.00  0.00    -0.354 N 
ATOM     19  C   UNL A   1      39.285  31.048  32.957  1.00  0.00     0.074 A 
ATOM     20  C   UNL A   1      38.045  31.773  32.769  1.00  0.00     0.031 C 
ATOM     21  C   UNL A   1      39.866  27.779  27.432  1.00  0.00     0.029 A 
ATOM     22  C   UNL A   1      40.785  27.763  28.563  1.00  0.00     0.049 A 
ATOM     23  H   UNL A   1      40.634  28.846  30.339  1.00  0.00     0.167 HD
ATOM     24  C   UNL A   1      40.051  31.103  34.075  1.00  0.00     0.034 A 
ATOM     25  C   UNL A   1      41.916  27.036  28.627  1.00  0.00     0.034 A 
ATOM     26  C   UNL A   1      41.289  30.373  34.238  1.00  0.00     0.049 A 
ATOM     27  C   UNL A   1      42.750  27.127  29.876  1.00  0.00     0.074 A 
ATOM     28  C   UNL A   1      42.148  30.360  35.324  1.00  0.00     0.029 A 
ATOM     29  N   UNL A   1      41.846  29.527  33.286  1.00  0.00    -0.354 N 
ATOM     30  N   UNL A   1      42.531  27.830  30.965  1.00  0.00    -0.248 NA
ATOM     31  C   UNL A   1      43.978  26.327  29.909  1.00  0.00     0.031 C 
ATOM     32  C   UNL A   1      43.249  29.554  35.008  1.00  0.00     0.029 A 
ATOM     33  C   UNL A   1      43.045  29.005  33.752  1.00  0.00     0.049 A 
ATOM     34  H   UNL A   1      41.448  29.326  32.408  1.00  0.00     0.167 HD
ATOM     35  C   UNL A   1      43.597  27.554  31.812  1.00  0.00     0.074 A 
ATOM     36  C   UNL A   1      44.429  26.583  31.127  1.00  0.00     0.031 C 
ATOM     37  C   UNL A   1      43.876  28.063  33.039  1.00  0.00     0.034 A 
BRANCH  24  38
ATOM     38  C   UNL A   1      39.593  32.011  35.193  1.00  0.00     0.023 A 
ATOM     39  C   UNL A   1      38.852  31.525  36.286  1.00  0.00     0.031 A 
ATOM     40  C   UNL A   1      39.901  33.383  35.166  1.00  0.00     0.131 A 
ATOM     41  C   UNL A   1      38.400  32.411  37.276  1.00  0.00     0.055 A 
ATOM     42  C   UNL A   1      39.509  34.248  36.190  1.00  0.00     0.041 A 
ATOM     43  F   UNL A   1      40.588  33.909  34.139  1.00  0.00    -0.206 F 
ATOM     44  C   UNL A   1      38.744  33.765  37.248  1.00  0.00     0.022 A 
BRANCH  41  45
ATOM     45  S   UNL A   1      37.260  31.793  38.544  1.00  0.00     0.124 S 
ATOM     46  O   UNL A   1      36.125  32.700  38.388  1.00  0.00    -0.237 OA
ATOM     47  O   UNL A   1      37.038  30.414  38.125  1.00  0.00    -0.237 OA
ATOM     48  O   UNL A   1      38.010  31.955  39.789  1.00  0.00    -0.744 OA
ENDBRANCH  41  45
ENDBRANCH  24  38
BRANCH  25  49
ATOM     49  C   UNL A   1      42.346  26.202  27.469  1.00  0.00     0.023 A 
ATOM     50  C   UNL A   1      41.945  24.864  27.340  1.00  0.00     0.031 A 
ATOM     51  C   UNL A   1      43.205  26.728  26.485  1.00  0.00     0.131 A 
ATOM     52  C   UNL A   1      42.439  24.085  26.281  1.00  0.00     0.055 A 
ATOM     53  C   UNL A   1      43.642  25.970  25.400  1.00  0.00     0.041 A 
ATOM     54  F   UNL A   1      43.620  28.004  26.558  1.00  0.00    -0.206 F 
ATOM     55  C   UNL A   1      43.271  24.633  25.302  1.00  0.00     0.022 A 
BRANCH  52  56
ATOM     56  S   UNL A   1      42.063  22.310  26.258  1.00  0.00     0.124 S 
ATOM     57  O   UNL A   1      40.609  22.313  26.144  1.00  0.00    -0.237 OA
ATOM     58  O   UNL A   1      42.798  21.862  25.080  1.00  0.00    -0.237 OA
ATOM     59  O   UNL A   1      42.588  21.835  27.536  1.00  0.00    -0.744 OA
ENDBRANCH  52  56
ENDBRANCH  25  49
BRANCH  37  60
ATOM     60  C   UNL A   1      45.131  27.555  33.703  1.00  0.00     0.023 A 
ATOM     61  C   UNL A   1      45.113  26.414  34.526  1.00  0.00     0.031 A 
ATOM     62  C   UNL A   1      46.344  28.250  33.561  1.00  0.00     0.131 A 
ATOM     63  C   UNL A   1      46.263  26.047  35.237  1.00  0.00     0.055 A 
ATOM     64  C   UNL A   1      47.504  27.841  34.220  1.00  0.00     0.041 A 
ATOM     65  F   UNL A   1      46.418  29.346  32.790  1.00  0.00    -0.206 F 
ATOM     66  C   UNL A   1      47.463  26.746  35.080  1.00  0.00     0.022 A 
BRANCH  63  67
ATOM     67  S   UNL A   1      46.135  24.722  36.469  1.00  0.00     0.124 S 
ATOM     68  O   UNL A   1      45.038  25.192  37.309  1.00  0.00    -0.237 OA
ATOM     69  O   UNL A   1      45.850  23.554  35.642  1.00  0.00    -0.237 OA
ATOM     70  O   UNL A   1      47.450  24.722  37.110  1.00  0.00    -0.744 OA
ENDBRANCH  63  67
ENDBRANCH  37  60
ENDBRANCH  11  12
ENDBRANCH   4   6
ENDBRANCH   1   2
BRANCH   1  71
ATOM     71  C   UNL A   1      33.336  28.808  23.688  1.00  0.00     0.042 C 
BRANCH  71  72
ATOM     72  C   UNL A   1      32.241  27.796  23.356  1.00  0.00     0.118 C 
BRANCH  72  73
ATOM     73  N   UNL A   1      32.504  27.133  22.091  1.00  0.00    -0.351 N 
ATOM     74  C   UNL A   1      33.149  25.979  21.760  1.00  0.00     0.280 C 
ATOM     75  H   UNL A   1      32.144  27.617  21.313  1.00  0.00     0.163 HD
ATOM     76  O   UNL A   1      33.269  25.764  20.548  1.00  0.00    -0.268 OA
BRANCH  74  77
ATOM     77  C   UNL A   1      33.560  24.893  22.774  1.00  0.00     0.292 C 
ATOM     78  C   UNL A   1      32.316  24.006  23.017  1.00  0.00     0.197 C 
ATOM     79  N   UNL A   1      34.240  25.425  23.990  1.00  0.00    -0.333 N 
ATOM     80  N   UNL A   1      32.499  23.069  24.127  1.00  0.00    -0.312 N 
ATOM     81  C   UNL A   1      34.437  24.329  24.962  1.00  0.00     0.283 C 
ATOM     82  H   UNL A   1      33.664  26.153  24.411  1.00  0.00     0.347 HD
ATOM     83  H   UNL A   1      35.146  25.816  23.730  1.00  0.00     0.347 HD
ATOM     84  C   UNL A   1      33.117  23.612  25.334  1.00  0.00     0.183 C 
BRANCH  80  85
ATOM     85  C   UNL A   1      32.594  21.742  23.900  1.00  0.00     0.324 A 
ATOM     86  N   UNL A   1      33.215  20.806  24.574  1.00  0.00    -0.171 NA
ATOM     87  O   UNL A   1      31.941  21.258  22.798  1.00  0.00    -0.315 OA
ATOM     88  C   UNL A   1      32.889  19.666  23.871  1.00  0.00     0.204 A 
ATOM     89  N   UNL A   1      32.166  19.884  22.763  1.00  0.00    -0.055 NA
BRANCH  88  90
ATOM     90  C   UNL A   1      33.194  18.328  24.341  1.00  0.00     0.023 A 
ATOM     91  C   UNL A   1      32.336  17.668  25.231  1.00  0.00     0.012 A 
ATOM     92  C   UNL A   1      34.401  17.719  23.971  1.00  0.00     0.012 A 
ATOM     93  C   UNL A   1      32.686  16.417  25.749  1.00  0.00     0.001 A 
ATOM     94  C   UNL A   1      34.755  16.478  24.502  1.00  0.00     0.001 A 
ATOM     95  C   UNL A   1      33.898  15.829  25.390  1.00  0.00     0.000 A 
ENDBRANCH  88  90
ENDBRANCH  80  85
ENDBRANCH  74  77
ENDBRANCH  72  73
ENDBRANCH  71  72
ENDBRANCH   1  71
TORSDOF 15
ENDMDL
MODEL 2
REMARK VINA RESULT:     -12.7      1.752      2.371
REMARK SMILES O=C(NCCCNC(=O)[C@@H]1CN(c2nc(-c3ccccc3)no2)CC[NH2+]1)c1ccc(-c2c3nc(c(-c4cc(S(=O)(=O)[O-])ccc4F)c4ccc([nH]4)c(-c4cc(S(=O)(=O)[O-])ccc4F)c4nc(c(-c5cc(S(=O)(=O)[O-])ccc5F)c5ccc2[nH]5)C=C4)C=C3)cc1
REMARK SMILES IDX 4 1 3 2 1 3 2 4 27 6 28 7 89 8 29 9 88 10 30 11 31 12 32 13
REMARK SMILES IDX 82 14 33 15 87 16 81 17 83 18 34 19 86 20 80 21 79 22 35 24
REMARK SMILES IDX 67 25 47 26 66 27 48 28 51 29 65 30 84 31 49 32 50 33 64 35
REMARK SMILES IDX 85 36 52 37 36 38 37 39 45 40 38 41 44 42 46 43 43 44 39 45
REMARK SMILES IDX 40 46 41 47 42 48 68 49 69 50 77 51 70 52 76 53 78 54 75 55
REMARK SMILES IDX 71 56 72 57 73 58 74 59 53 60 54 61 62 62 55 63 61 64 63 65
REMARK SMILES IDX 60 66 56 67 57 68 58 69 59 70 5 71 6 72 7 73 8 74 9 76 10 77
REMARK SMILES IDX 11 78 26 79 12 80 25 81 24 84 13 85 14 86 23 87 15 88 22 89
REMARK SMILES IDX 16 90 17 91 21 92 18 93 20 94 19 95
REMARK H PARENT 3 5 83 23 51 34 7 75 26 82 26 83
REMARK Flexibility Score: inf
ROOT
ATOM      1  C   UNL A   1      33.739  28.994  24.906  1.00  0.00     0.118 C 
ENDROOT
BRANCH   1   2
ATOM      2  N   UNL A   1      32.989  30.112  25.471  1.00  0.00    -0.352 N 
ATOM      3  O   UNL A   1      32.309  31.561  27.049  1.00  0.00    -0.269 OA
ATOM      4  C   UNL A   1      33.186  30.809  26.641  1.00  0.00     0.251 C 
ATOM      5  H   UNL A   1      32.223  30.414  24.930  1.00  0.00     0.163 HD
BRANCH   4   6
ATOM      6  C   UNL A   1      34.449  30.653  27.401  1.00  0.00     0.039 A 
ATOM      7  C   UNL A   1      34.823  29.405  27.897  1.00  0.00     0.014 A 
ATOM      8  C   UNL A   1      35.295  31.755  27.575  1.00  0.00     0.014 A 
ATOM      9  C   UNL A   1      35.957  29.288  28.691  1.00  0.00     0.010 A 
ATOM     10  C   UNL A   1      36.493  31.611  28.286  1.00  0.00     0.010 A 
ATOM     11  C   UNL A   1      36.824  30.379  28.869  1.00  0.00    -0.014 A 
BRANCH  11  12
ATOM     12  C   UNL A   1      38.100  30.149  29.597  1.00  0.00     0.031 A 
ATOM     13  C   UNL A   1      38.305  30.648  31.000  1.00  0.00     0.074 A 
ATOM     14  C   UNL A   1      39.047  29.403  28.992  1.00  0.00     0.049 A 
ATOM     15  N   UNL A   1      39.324  30.454  31.799  1.00  0.00    -0.248 NA
ATOM     16  C   UNL A   1      37.240  31.478  31.580  1.00  0.00     0.031 C 
ATOM     17  C   UNL A   1      38.954  28.885  27.622  1.00  0.00     0.029 A 
ATOM     18  N   UNL A   1      40.240  28.908  29.448  1.00  0.00    -0.354 N 
ATOM     19  C   UNL A   1      39.028  31.138  32.973  1.00  0.00     0.074 A 
ATOM     20  C   UNL A   1      37.749  31.785  32.765  1.00  0.00     0.031 C 
ATOM     21  C   UNL A   1      40.002  28.088  27.378  1.00  0.00     0.029 A 
ATOM     22  C   UNL A   1      40.883  28.098  28.539  1.00  0.00     0.049 A 
ATOM     23  H   UNL A   1      40.603  29.113  30.340  1.00  0.00     0.167 HD
ATOM     24  C   UNL A   1      39.753  31.208  34.118  1.00  0.00     0.034 A 
ATOM     25  C   UNL A   1      42.058  27.446  28.621  1.00  0.00     0.034 A 
ATOM     26  C   UNL A   1      41.031  30.557  34.301  1.00  0.00     0.049 A 
ATOM     27  C   UNL A   1      42.844  27.553  29.899  1.00  0.00     0.074 A 
ATOM     28  C   UNL A   1      41.854  30.567  35.414  1.00  0.00     0.029 A 
ATOM     29  N   UNL A   1      41.673  29.780  33.344  1.00  0.00    -0.354 N 
ATOM     30  N   UNL A   1      42.544  28.206  30.999  1.00  0.00    -0.248 NA
ATOM     31  C   UNL A   1      44.122  26.835  29.950  1.00  0.00     0.031 C 
ATOM     32  C   UNL A   1      43.016  29.846  35.112  1.00  0.00     0.029 A 
ATOM     33  C   UNL A   1      42.889  29.324  33.836  1.00  0.00     0.049 A 
ATOM     34  H   UNL A   1      41.317  29.581  32.448  1.00  0.00     0.167 HD
ATOM     35  C   UNL A   1      43.599  27.974  31.874  1.00  0.00     0.074 A 
ATOM     36  C   UNL A   1      44.515  27.082  31.189  1.00  0.00     0.031 C 
ATOM     37  C   UNL A   1      43.803  28.462  33.124  1.00  0.00     0.034 A 
BRANCH  24  38
ATOM     38  C   UNL A   1      39.200  32.049  35.245  1.00  0.00     0.023 A 
ATOM     39  C   UNL A   1      38.608  31.467  36.381  1.00  0.00     0.031 A 
ATOM     40  C   UNL A   1      39.264  33.453  35.184  1.00  0.00     0.131 A 
ATOM     41  C   UNL A   1      38.058  32.284  37.381  1.00  0.00     0.055 A 
ATOM     42  C   UNL A   1      38.778  34.259  36.215  1.00  0.00     0.041 A 
ATOM     43  F   UNL A   1      39.799  34.066  34.116  1.00  0.00    -0.206 F 
ATOM     44  C   UNL A   1      38.161  33.676  37.318  1.00  0.00     0.022 A 
BRANCH  41  45
ATOM     45  S   UNL A   1      37.105  31.507  38.715  1.00  0.00     0.124 S 
ATOM     46  O   UNL A   1      35.913  32.353  38.757  1.00  0.00    -0.237 OA
ATOM     47  O   UNL A   1      36.909  30.152  38.217  1.00  0.00    -0.237 OA
ATOM     48  O   UNL A   1      37.983  31.624  39.878  1.00  0.00    -0.744 OA
ENDBRANCH  41  45
ENDBRANCH  24  38
BRANCH  25  49
ATOM     49  C   UNL A   1      42.579  26.678  27.453  1.00  0.00     0.023 A 
ATOM     50  C   UNL A   1      42.560  25.276  27.429  1.00  0.00     0.031 A 
ATOM     51  C   UNL A   1      43.147  27.346  26.351  1.00  0.00     0.131 A 
ATOM     52  C   UNL A   1      43.137  24.586  26.351  1.00  0.00     0.055 A 
ATOM     53  C   UNL A   1      43.661  26.659  25.253  1.00  0.00     0.041 A 
ATOM     54  F   UNL A   1      43.192  28.689  26.320  1.00  0.00    -0.206 F 
ATOM     55  C   UNL A   1      43.673  25.268  25.256  1.00  0.00     0.022 A 
BRANCH  52  56
ATOM     56  S   UNL A   1      43.275  22.780  26.447  1.00  0.00     0.124 S 
ATOM     57  O   UNL A   1      42.585  22.362  25.231  1.00  0.00    -0.237 OA
ATOM     58  O   UNL A   1      44.721  22.589  26.462  1.00  0.00    -0.237 OA
ATOM     59  O   UNL A   1      42.591  22.453  27.697  1.00  0.00    -0.744 OA
ENDBRANCH  52  56
ENDBRANCH  25  49
BRANCH  37  60
ATOM     60  C   UNL A   1      45.069  28.017  33.815  1.00  0.00     0.023 A 
ATOM     61  C   UNL A   1      45.096  26.862  34.617  1.00  0.00     0.031 A 
ATOM     62  C   UNL A   1      46.241  28.786  33.720  1.00  0.00     0.131 A 
ATOM     63  C   UNL A   1      46.246  26.551  35.355  1.00  0.00     0.055 A 
ATOM     64  C   UNL A   1      47.404  28.435  34.405  1.00  0.00     0.041 A 
ATOM     65  F   UNL A   1      46.270  29.900  32.971  1.00  0.00    -0.206 F 
ATOM     66  C   UNL A   1      47.406  27.323  35.244  1.00  0.00     0.022 A 
BRANCH  63  67
ATOM     67  S   UNL A   1      46.165  25.198  36.559  1.00  0.00     0.124 S 
ATOM     68  O   UNL A   1      44.740  24.880  36.564  1.00  0.00    -0.237 OA
ATOM     69  O   UNL A   1      47.040  24.195  35.961  1.00  0.00    -0.237 OA
ATOM     70  O   UNL A   1      46.669  25.804  37.791  1.00  0.00    -0.744 OA
ENDBRANCH  63  67
ENDBRANCH  37  60
ENDBRANCH  11  12
ENDBRANCH   4   6
ENDBRANCH   1   2
BRANCH   1  71
ATOM     71  C   UNL A   1      33.413  28.772  23.430  1.00  0.00     0.042 C 
BRANCH  71  72
ATOM     72  C   UNL A   1      31.930  28.499  23.186  1.00  0.00     0.118 C 
BRANCH  72  73
ATOM     73  N   UNL A   1      31.735  27.665  22.014  1.00  0.00    -0.351 N 
ATOM     74  C   UNL A   1      31.870  26.328  21.788  1.00  0.00     0.280 C 
ATOM     75  H   UNL A   1      31.448  28.169  21.219  1.00  0.00     0.163 HD
ATOM     76  O   UNL A   1      31.709  25.966  20.616  1.00  0.00    -0.268 OA
BRANCH  74  77
ATOM     77  C   UNL A   1      32.031  25.272  22.900  1.00  0.00     0.292 C 
ATOM     78  C   UNL A   1      32.834  24.096  22.295  1.00  0.00     0.197 C 
ATOM     79  N   UNL A   1      30.756  24.917  23.588  1.00  0.00    -0.333 N 
ATOM     80  N   UNL A   1      32.868  22.924  23.173  1.00  0.00    -0.312 N 
ATOM     81  C   UNL A   1      30.993  23.786  24.509  1.00  0.00     0.283 C 
ATOM     82  H   UNL A   1      30.058  24.650  22.894  1.00  0.00     0.347 HD
ATOM     83  H   UNL A   1      30.419  25.722  24.117  1.00  0.00     0.347 HD
ATOM     84  C   UNL A   1      31.602  22.552  23.800  1.00  0.00     0.183 C 
BRANCH  80  85
ATOM     85  C   UNL A   1      34.016  22.547  23.773  1.00  0.00     0.324 A 
ATOM     86  N   UNL A   1      35.113  23.223  24.011  1.00  0.00    -0.171 NA
ATOM     87  O   UNL A   1      34.078  21.257  24.228  1.00  0.00    -0.315 OA
ATOM     88  C   UNL A   1      35.884  22.307  24.694  1.00  0.00     0.204 A 
ATOM     89  N   UNL A   1      35.333  21.091  24.809  1.00  0.00    -0.055 NA
BRANCH  88  90
ATOM     90  C   UNL A   1      37.136  22.649  25.343  1.00  0.00     0.023 A 
ATOM     91  C   UNL A   1      38.122  21.677  25.557  1.00  0.00     0.012 A 
ATOM     92  C   UNL A   1      37.330  23.945  25.839  1.00  0.00     0.012 A 
ATOM     93  C   UNL A   1      39.285  21.998  26.264  1.00  0.00     0.001 A 
ATOM     94  C   UNL A   1      38.485  24.259  26.559  1.00  0.00     0.001 A 
ATOM     95  C   UNL A   1      39.460  23.285  26.772  1.00  0.00     0.000 A 
ENDBRANCH  88  90
ENDBRANCH  80  85
ENDBRANCH  74  77
ENDBRANCH  72  73
ENDBRANCH  71  72
ENDBRANCH   1  71
TORSDOF 15
ENDMDL
MODEL 3
REMARK VINA RESULT:     -12.7      1.700      1.966
REMARK SMILES O=C(NCCCNC(=O)[C@@H]1CN(c2nc(-c3ccccc3)no2)CC[NH2+]1)c1ccc(-c2c3nc(c(-c4cc(S(=O)(=O)[O-])ccc4F)c4ccc([nH]4)c(-c4cc(S(=O)(=O)[O-])ccc4F)c4nc(c(-c5cc(S(=O)(=O)[O-])ccc5F)c5ccc2[nH]5)C=C4)C=C3)cc1
REMARK SMILES IDX 4 1 3 2 1 3 2 4 27 6 28 7 89 8 29 9 88 10 30 11 31 12 32 13
REMARK SMILES IDX 82 14 33 15 87 16 81 17 83 18 34 19 86 20 80 21 79 22 35 24
REMARK SMILES IDX 67 25 47 26 66 27 48 28 51 29 65 30 84 31 49 32 50 33 64 35
REMARK SMILES IDX 85 36 52 37 36 38 37 39 45 40 38 41 44 42 46 43 43 44 39 45
REMARK SMILES IDX 40 46 41 47 42 48 68 49 69 50 77 51 70 52 76 53 78 54 75 55
REMARK SMILES IDX 71 56 72 57 73 58 74 59 53 60 54 61 62 62 55 63 61 64 63 65
REMARK SMILES IDX 60 66 56 67 57 68 58 69 59 70 5 71 6 72 7 73 8 74 9 76 10 77
REMARK SMILES IDX 11 78 26 79 12 80 25 81 24 84 13 85 14 86 23 87 15 88 22 89
REMARK SMILES IDX 16 90 17 91 21 92 18 93 20 94 19 95
REMARK H PARENT 3 5 83 23 51 34 7 75 26 82 26 83
REMARK Flexibility Score: inf
ROOT
ATOM      1  C   UNL A   1      33.435  29.245  25.278  1.00  0.00     0.118 C 
ENDROOT
BRANCH   1   2
ATOM      2  N   UNL A   1      32.847  30.487  25.772  1.00  0.00    -0.352 N 
ATOM      3  O   UNL A   1      32.403  32.121  27.250  1.00  0.00    -0.269 OA
ATOM      4  C   UNL A   1      33.166  31.236  26.881  1.00  0.00     0.251 C 
ATOM      5  H   UNL A   1      32.109  30.843  25.227  1.00  0.00     0.163 HD
BRANCH   4   6
ATOM      6  C   UNL A   1      34.423  30.978  27.623  1.00  0.00     0.039 A 
ATOM      7  C   UNL A   1      34.658  29.729  28.197  1.00  0.00     0.014 A 
ATOM      8  C   UNL A   1      35.400  31.977  27.702  1.00  0.00     0.014 A 
ATOM      9  C   UNL A   1      35.792  29.527  28.973  1.00  0.00     0.010 A 
ATOM     10  C   UNL A   1      36.593  31.735  28.397  1.00  0.00     0.010 A 
ATOM     11  C   UNL A   1      36.790  30.513  29.056  1.00  0.00    -0.014 A 
BRANCH  11  12
ATOM     12  C   UNL A   1      38.050  30.177  29.771  1.00  0.00     0.031 A 
ATOM     13  C   UNL A   1      38.310  30.656  31.172  1.00  0.00     0.074 A 
ATOM     14  C   UNL A   1      38.924  29.355  29.157  1.00  0.00     0.049 A 
ATOM     15  N   UNL A   1      39.317  30.378  31.961  1.00  0.00    -0.248 NA
ATOM     16  C   UNL A   1      37.323  31.571  31.762  1.00  0.00     0.031 C 
ATOM     17  C   UNL A   1      38.775  28.848  27.788  1.00  0.00     0.029 A 
ATOM     18  N   UNL A   1      40.077  28.763  29.601  1.00  0.00    -0.354 N 
ATOM     19  C   UNL A   1      39.090  31.083  33.138  1.00  0.00     0.074 A 
ATOM     20  C   UNL A   1      37.867  31.835  32.943  1.00  0.00     0.031 C 
ATOM     21  C   UNL A   1      39.751  27.967  27.534  1.00  0.00     0.029 A 
ATOM     22  C   UNL A   1      40.642  27.903  28.685  1.00  0.00     0.049 A 
ATOM     23  H   UNL A   1      40.465  28.936  30.489  1.00  0.00     0.167 HD
ATOM     24  C   UNL A   1      39.830  31.092  34.275  1.00  0.00     0.034 A 
ATOM     25  C   UNL A   1      41.759  27.155  28.755  1.00  0.00     0.034 A 
ATOM     26  C   UNL A   1      41.051  30.337  34.445  1.00  0.00     0.049 A 
ATOM     27  C   UNL A   1      42.564  27.196  30.026  1.00  0.00     0.074 A 
ATOM     28  C   UNL A   1      41.884  30.278  35.551  1.00  0.00     0.029 A 
ATOM     29  N   UNL A   1      41.617  29.510  33.482  1.00  0.00    -0.354 N 
ATOM     30  N   UNL A   1      42.330  27.870  31.129  1.00  0.00    -0.248 NA
ATOM     31  C   UNL A   1      43.778  26.373  30.064  1.00  0.00     0.031 C 
ATOM     32  C   UNL A   1      42.978  29.463  35.237  1.00  0.00     0.029 A 
ATOM     33  C   UNL A   1      42.796  28.954  33.962  1.00  0.00     0.049 A 
ATOM     34  H   UNL A   1      41.237  29.342  32.590  1.00  0.00     0.167 HD
ATOM     35  C   UNL A   1      43.371  27.551  31.993  1.00  0.00     0.074 A 
ATOM     36  C   UNL A   1      44.203  26.587  31.299  1.00  0.00     0.031 C 
ATOM     37  C   UNL A   1      43.628  28.019  33.241  1.00  0.00     0.034 A 
BRANCH  24  38
ATOM     38  C   UNL A   1      39.360  31.975  35.408  1.00  0.00     0.023 A 
ATOM     39  C   UNL A   1      39.812  33.299  35.552  1.00  0.00     0.031 A 
ATOM     40  C   UNL A   1      38.447  31.485  36.360  1.00  0.00     0.131 A 
ATOM     41  C   UNL A   1      39.392  34.068  36.649  1.00  0.00     0.055 A 
ATOM     42  C   UNL A   1      37.979  32.278  37.410  1.00  0.00     0.041 A 
ATOM     43  F   UNL A   1      37.996  30.222  36.287  1.00  0.00    -0.206 F 
ATOM     44  C   UNL A   1      38.459  33.575  37.565  1.00  0.00     0.022 A 
BRANCH  41  45
ATOM     45  S   UNL A   1      40.166  35.685  36.927  1.00  0.00     0.124 S 
ATOM     46  O   UNL A   1      39.652  36.456  35.796  1.00  0.00    -0.237 OA
ATOM     47  O   UNL A   1      39.655  36.059  38.240  1.00  0.00    -0.237 OA
ATOM     48  O   UNL A   1      41.598  35.395  36.873  1.00  0.00    -0.744 OA
ENDBRANCH  41  45
ENDBRANCH  24  38
BRANCH  25  49
ATOM     49  C   UNL A   1      42.203  26.348  27.583  1.00  0.00     0.023 A 
ATOM     50  C   UNL A   1      41.847  24.998  27.445  1.00  0.00     0.031 A 
ATOM     51  C   UNL A   1      43.031  26.913  26.595  1.00  0.00     0.131 A 
ATOM     52  C   UNL A   1      42.354  24.247  26.372  1.00  0.00     0.055 A 
ATOM     53  C   UNL A   1      43.481  26.181  25.497  1.00  0.00     0.041 A 
ATOM     54  F   UNL A   1      43.403  28.202  26.676  1.00  0.00    -0.206 F 
ATOM     55  C   UNL A   1      43.155  24.833  25.389  1.00  0.00     0.022 A 
BRANCH  52  56
ATOM     56  S   UNL A   1      42.040  22.461  26.335  1.00  0.00     0.124 S 
ATOM     57  O   UNL A   1      40.586  22.415  26.221  1.00  0.00    -0.237 OA
ATOM     58  O   UNL A   1      42.790  22.047  25.154  1.00  0.00    -0.237 OA
ATOM     59  O   UNL A   1      42.581  21.994  27.610  1.00  0.00    -0.744 OA
ENDBRANCH  52  56
ENDBRANCH  25  49
BRANCH  37  60
ATOM     60  C   UNL A   1      44.859  27.471  33.919  1.00  0.00     0.023 A 
ATOM     61  C   UNL A   1      44.806  26.295  34.690  1.00  0.00     0.031 A 
ATOM     62  C   UNL A   1      46.081  28.159  33.843  1.00  0.00     0.131 A 
ATOM     63  C   UNL A   1      45.931  25.887  35.419  1.00  0.00     0.055 A 
ATOM     64  C   UNL A   1      47.217  27.711  34.519  1.00  0.00     0.041 A 
ATOM     65  F   UNL A   1      46.188  29.288  33.124  1.00  0.00    -0.206 F 
ATOM     66  C   UNL A   1      47.142  26.580  35.327  1.00  0.00     0.022 A 
BRANCH  63  67
ATOM     67  S   UNL A   1      45.755  24.511  36.587  1.00  0.00     0.124 S 
ATOM     68  O   UNL A   1      46.070  25.151  37.860  1.00  0.00    -0.237 OA
ATOM     69  O   UNL A   1      44.363  24.118  36.398  1.00  0.00    -0.237 OA
ATOM     70  O   UNL A   1      46.743  23.538  36.122  1.00  0.00    -0.744 OA
ENDBRANCH  63  67
ENDBRANCH  37  60
ENDBRANCH  11  12
ENDBRANCH   4   6
ENDBRANCH   1   2
BRANCH   1  71
ATOM     71  C   UNL A   1      33.015  28.944  23.840  1.00  0.00     0.042 C 
BRANCH  71  72
ATOM     72  C   UNL A   1      32.001  27.806  23.746  1.00  0.00     0.118 C 
BRANCH  72  73
ATOM     73  N   UNL A   1      31.514  27.426  25.061  1.00  0.00    -0.351 N 
ATOM     74  C   UNL A   1      31.654  26.300  25.816  1.00  0.00     0.280 C 
ATOM     75  H   UNL A   1      30.970  28.123  25.493  1.00  0.00     0.163 HD
ATOM     76  O   UNL A   1      31.010  26.283  26.873  1.00  0.00    -0.268 OA
BRANCH  74  77
ATOM     77  C   UNL A   1      32.666  25.176  25.521  1.00  0.00     0.292 C 
ATOM     78  C   UNL A   1      32.325  23.999  26.465  1.00  0.00     0.197 C 
ATOM     79  N   UNL A   1      34.088  25.627  25.514  1.00  0.00    -0.333 N 
ATOM     80  N   UNL A   1      33.344  22.948  26.449  1.00  0.00    -0.312 N 
ATOM     81  C   UNL A   1      34.976  24.452  25.390  1.00  0.00     0.283 C 
ATOM     82  H   UNL A   1      34.293  26.118  26.384  1.00  0.00     0.347 HD
ATOM     83  H   UNL A   1      34.242  26.255  24.724  1.00  0.00     0.347 HD
ATOM     84  C   UNL A   1      34.734  23.397  26.496  1.00  0.00     0.183 C 
BRANCH  80  85
ATOM     85  C   UNL A   1      33.079  21.740  25.909  1.00  0.00     0.324 A 
ATOM     86  N   UNL A   1      33.826  20.667  25.815  1.00  0.00    -0.171 NA
ATOM     87  O   UNL A   1      31.833  21.567  25.369  1.00  0.00    -0.315 OA
ATOM     88  C   UNL A   1      32.974  19.762  25.220  1.00  0.00     0.204 A 
ATOM     89  N   UNL A   1      31.778  20.263  24.882  1.00  0.00    -0.055 NA
BRANCH  88  90
ATOM     90  C   UNL A   1      33.288  18.353  25.074  1.00  0.00     0.023 A 
ATOM     91  C   UNL A   1      34.287  17.929  24.187  1.00  0.00     0.012 A 
ATOM     92  C   UNL A   1      32.528  17.397  25.760  1.00  0.00     0.012 A 
ATOM     93  C   UNL A   1      34.518  16.565  23.986  1.00  0.00     0.001 A 
ATOM     94  C   UNL A   1      32.749  16.035  25.546  1.00  0.00     0.001 A 
ATOM     95  C   UNL A   1      33.743  15.621  24.659  1.00  0.00     0.000 A 
ENDBRANCH  88  90
ENDBRANCH  80  85
ENDBRANCH  74  77
ENDBRANCH  72  73
ENDBRANCH  71  72
ENDBRANCH   1  71
TORSDOF 15
ENDMDL
