MODEL 1
REMARK VINA RESULT:     -12.2      0.000      0.000
REMARK SMILES Nc1c(CC(=O)NCCCNC(=O)c2ccc(-c3c4nc(c(-c5cc(S(=O)(=O)[O-])ccc5F)c5ccc([nH]5)c(-c5cc(S(=O)(=O)[O-])ccc5F)c5nc(c(-c6cc(S(=O)(=O)[O-])ccc6F)c6ccc3[nH]6)C=C5)C=C4)cc2)cccc1C(=O)c1ccc(Br)cc1
REMARK SMILES IDX 9 1 8 2 7 3 5 4 6 5 4 7 3 8 2 9 80 10 77 11 79 12 78 13 1 14
REMARK SMILES IDX 81 17 82 18 83 19 84 20 89 21 85 22 88 23 86 24 87 25 10 26
REMARK SMILES IDX 11 27 12 28 13 30 14 31 15 32 76 33 16 34 75 35 17 36 18 37
REMARK SMILES IDX 19 38 69 39 20 40 74 41 68 42 70 43 21 44 73 45 67 46 66 47
REMARK SMILES IDX 22 49 54 50 34 51 53 52 35 53 38 54 52 55 71 56 36 57 37 58
REMARK SMILES IDX 51 60 72 61 39 62 23 63 24 64 32 65 25 66 31 67 33 68 30 69
REMARK SMILES IDX 26 70 27 71 28 72 29 73 55 74 56 75 64 76 57 77 63 78 65 79
REMARK SMILES IDX 62 80 58 81 59 82 60 83 61 84 40 85 41 86 49 87 42 88 48 89
REMARK SMILES IDX 50 90 47 91 43 92 44 93 45 94 46 95
REMARK H PARENT 7 6 1 15 1 16 11 29 70 48 38 59
REMARK Flexibility Score: inf
ROOT
ATOM      1  C   UNL A   1      31.544  31.921  26.541  1.00  0.00     0.042 C 
ENDROOT
BRANCH   1   2
ATOM      2  C   UNL A   1      31.699  30.463  26.116  1.00  0.00     0.117 C 
BRANCH   2   3
ATOM      3  N   UNL A   1      31.731  29.557  27.249  1.00  0.00    -0.356 N 
ATOM      4  C   UNL A   1      31.521  28.209  27.279  1.00  0.00     0.224 C 
ATOM      5  O   UNL A   1      31.561  27.635  28.369  1.00  0.00    -0.275 OA
ATOM      6  H   UNL A   1      31.934  29.974  28.117  1.00  0.00     0.163 HD
BRANCH   4   7
ATOM      7  C   UNL A   1      31.312  27.431  25.990  1.00  0.00     0.137 C 
BRANCH   7   8
ATOM      8  C   UNL A   1      32.335  26.337  25.738  1.00  0.00    -0.015 A 
ATOM      9  C   UNL A   1      32.202  25.019  26.257  1.00  0.00     0.046 A 
ATOM     10  C   UNL A   1      33.245  24.084  26.022  1.00  0.00     0.046 A 
ATOM     11  C   UNL A   1      33.473  26.687  24.987  1.00  0.00     0.006 A 
ATOM     12  C   UNL A   1      34.377  24.482  25.283  1.00  0.00     0.014 A 
ATOM     13  C   UNL A   1      34.490  25.769  24.767  1.00  0.00     0.001 A 
BRANCH   9  14
ATOM     14  N   UNL A   1      31.075  24.712  27.011  1.00  0.00    -0.398 N 
ATOM     15  H   UNL A   1      30.842  25.262  27.793  1.00  0.00     0.156 HD
ATOM     16  H   UNL A   1      30.511  23.945  26.761  1.00  0.00     0.156 HD
ENDBRANCH   9  14
BRANCH  10  17
ATOM     17  C   UNL A   1      33.292  22.662  26.514  1.00  0.00     0.195 C 
ATOM     18  O   UNL A   1      33.285  22.416  27.719  1.00  0.00    -0.289 OA
BRANCH  17  19
ATOM     19  C   UNL A   1      33.301  21.494  25.618  1.00  0.00     0.023 A 
ATOM     20  C   UNL A   1      34.414  20.645  25.652  1.00  0.00     0.013 A 
ATOM     21  C   UNL A   1      32.219  21.217  24.777  1.00  0.00     0.013 A 
ATOM     22  C   UNL A   1      34.413  19.474  24.895  1.00  0.00     0.016 A 
ATOM     23  C   UNL A   1      32.217  20.037  24.029  1.00  0.00     0.016 A 
ATOM     24  C   UNL A   1      33.308  19.167  24.101  1.00  0.00     0.018 A 
ATOM     25  Br  UNL A   1      33.275  17.546  23.129  1.00  0.00    -0.051 Br
ENDBRANCH  17  19
ENDBRANCH  10  17
ENDBRANCH   7   8
ENDBRANCH   4   7
ENDBRANCH   2   3
ENDBRANCH   1   2
BRANCH   1  26
ATOM     26  C   UNL A   1      32.770  32.481  27.258  1.00  0.00     0.118 C 
BRANCH  26  27
ATOM     27  N   UNL A   1      32.596  33.879  27.633  1.00  0.00    -0.352 N 
ATOM     28  C   UNL A   1      33.196  34.614  28.620  1.00  0.00     0.251 C 
ATOM     29  H   UNL A   1      31.944  34.373  27.088  1.00  0.00     0.163 HD
ATOM     30  O   UNL A   1      32.731  35.726  28.891  1.00  0.00    -0.269 OA
BRANCH  28  31
ATOM     31  C   UNL A   1      34.363  34.097  29.366  1.00  0.00     0.039 A 
ATOM     32  C   UNL A   1      34.138  33.320  30.506  1.00  0.00     0.014 A 
ATOM     33  C   UNL A   1      35.671  34.403  28.980  1.00  0.00     0.014 A 
ATOM     34  C   UNL A   1      35.220  32.806  31.223  1.00  0.00     0.010 A 
ATOM     35  C   UNL A   1      36.749  33.826  29.651  1.00  0.00     0.010 A 
ATOM     36  C   UNL A   1      36.534  33.024  30.782  1.00  0.00    -0.014 A 
BRANCH  36  37
ATOM     37  C   UNL A   1      37.685  32.401  31.485  1.00  0.00     0.031 A 
ATOM     38  C   UNL A   1      38.435  31.254  30.865  1.00  0.00     0.074 A 
ATOM     39  C   UNL A   1      38.015  32.835  32.717  1.00  0.00     0.049 A 
ATOM     40  N   UNL A   1      39.439  30.566  31.344  1.00  0.00    -0.248 NA
ATOM     41  C   UNL A   1      37.967  30.801  29.549  1.00  0.00     0.031 C 
ATOM     42  C   UNL A   1      37.317  33.894  33.450  1.00  0.00     0.029 A 
ATOM     43  N   UNL A   1      39.006  32.433  33.576  1.00  0.00    -0.354 N 
ATOM     44  C   UNL A   1      39.720  29.590  30.393  1.00  0.00     0.074 A 
ATOM     45  C   UNL A   1      38.729  29.737  29.346  1.00  0.00     0.031 C 
ATOM     46  C   UNL A   1      37.913  34.070  34.639  1.00  0.00     0.029 A 
ATOM     47  C   UNL A   1      39.006  33.112  34.772  1.00  0.00     0.049 A 
ATOM     48  H   UNL A   1      39.656  31.726  33.357  1.00  0.00     0.167 HD
ATOM     49  C   UNL A   1      40.722  28.674  30.382  1.00  0.00     0.034 A 
ATOM     50  C   UNL A   1      39.785  32.970  35.862  1.00  0.00     0.034 A 
ATOM     51  C   UNL A   1      41.695  28.543  31.443  1.00  0.00     0.049 A 
ATOM     52  C   UNL A   1      40.887  31.947  35.839  1.00  0.00     0.074 A 
ATOM     53  C   UNL A   1      42.796  27.706  31.508  1.00  0.00     0.029 A 
ATOM     54  N   UNL A   1      41.673  29.254  32.639  1.00  0.00    -0.354 N 
ATOM     55  N   UNL A   1      41.197  31.087  34.895  1.00  0.00    -0.248 NA
ATOM     56  C   UNL A   1      41.755  31.887  37.020  1.00  0.00     0.031 C 
ATOM     57  C   UNL A   1      43.388  27.852  32.769  1.00  0.00     0.029 A 
ATOM     58  C   UNL A   1      42.712  28.843  33.463  1.00  0.00     0.049 A 
ATOM     59  H   UNL A   1      41.014  29.949  32.868  1.00  0.00     0.167 HD
ATOM     60  C   UNL A   1      42.306  30.390  35.366  1.00  0.00     0.074 A 
ATOM     61  C   UNL A   1      42.624  30.951  36.665  1.00  0.00     0.031 C 
ATOM     62  C   UNL A   1      42.999  29.381  34.776  1.00  0.00     0.034 A 
BRANCH  49  63
ATOM     63  C   UNL A   1      40.780  27.727  29.203  1.00  0.00     0.023 A 
ATOM     64  C   UNL A   1      41.717  27.894  28.166  1.00  0.00     0.031 A 
ATOM     65  C   UNL A   1      39.850  26.681  29.077  1.00  0.00     0.131 A 
ATOM     66  C   UNL A   1      41.631  27.108  27.006  1.00  0.00     0.055 A 
ATOM     67  C   UNL A   1      39.834  25.836  27.964  1.00  0.00     0.041 A 
ATOM     68  F   UNL A   1      38.918  26.475  30.022  1.00  0.00    -0.206 F 
ATOM     69  C   UNL A   1      40.712  26.061  26.909  1.00  0.00     0.022 A 
BRANCH  66  70
ATOM     70  S   UNL A   1      42.603  27.601  25.555  1.00  0.00     0.124 S 
ATOM     71  O   UNL A   1      43.914  27.854  26.149  1.00  0.00    -0.237 OA
ATOM     72  O   UNL A   1      42.505  26.428  24.696  1.00  0.00    -0.237 OA
ATOM     73  O   UNL A   1      41.910  28.793  25.069  1.00  0.00    -0.744 OA
ENDBRANCH  66  70
ENDBRANCH  49  63
BRANCH  50  74
ATOM     74  C   UNL A   1      39.529  33.810  37.065  1.00  0.00     0.023 A 
ATOM     75  C   UNL A   1      38.844  33.303  38.179  1.00  0.00     0.031 A 
ATOM     76  C   UNL A   1      39.990  35.138  37.120  1.00  0.00     0.131 A 
ATOM     77  C   UNL A   1      38.617  34.126  39.293  1.00  0.00     0.055 A 
ATOM     78  C   UNL A   1      39.803  35.938  38.248  1.00  0.00     0.041 A 
ATOM     79  F   UNL A   1      40.660  35.667  36.083  1.00  0.00    -0.206 F 
ATOM     80  C   UNL A   1      39.106  35.435  39.341  1.00  0.00     0.022 A 
BRANCH  77  81
ATOM     81  S   UNL A   1      37.638  33.475  40.674  1.00  0.00     0.124 S 
ATOM     82  O   UNL A   1      37.277  34.696  41.386  1.00  0.00    -0.237 OA
ATOM     83  O   UNL A   1      36.551  32.792  39.981  1.00  0.00    -0.237 OA
ATOM     84  O   UNL A   1      38.575  32.599  41.374  1.00  0.00    -0.744 OA
ENDBRANCH  77  81
ENDBRANCH  50  74
BRANCH  62  85
ATOM     85  C   UNL A   1      44.183  28.832  35.537  1.00  0.00     0.023 A 
ATOM     86  C   UNL A   1      44.052  27.748  36.425  1.00  0.00     0.031 A 
ATOM     87  C   UNL A   1      45.453  29.420  35.399  1.00  0.00     0.131 A 
ATOM     88  C   UNL A   1      45.155  27.330  37.186  1.00  0.00     0.055 A 
ATOM     89  C   UNL A   1      46.561  28.955  36.107  1.00  0.00     0.041 A 
ATOM     90  F   UNL A   1      45.637  30.462  34.572  1.00  0.00    -0.206 F 
ATOM     91  C   UNL A   1      46.412  27.914  37.019  1.00  0.00     0.022 A 
BRANCH  88  92
ATOM     92  S   UNL A   1      44.897  26.088  38.484  1.00  0.00     0.124 S 
ATOM     93  O   UNL A   1      44.462  24.930  37.710  1.00  0.00    -0.237 OA
ATOM     94  O   UNL A   1      46.222  25.991  39.089  1.00  0.00    -0.237 OA
ATOM     95  O   UNL A   1      43.870  26.688  39.333  1.00  0.00    -0.744 OA
ENDBRANCH  88  92
ENDBRANCH  62  85
ENDBRANCH  36  37
ENDBRANCH  28  31
ENDBRANCH  26  27
ENDBRANCH   1  26
TORSDOF 17
ENDMDL
MODEL 2
REMARK VINA RESULT:     -12.2      5.301      8.606
REMARK SMILES Nc1c(CC(=O)NCCCNC(=O)c2ccc(-c3c4nc(c(-c5cc(S(=O)(=O)[O-])ccc5F)c5ccc([nH]5)c(-c5cc(S(=O)(=O)[O-])ccc5F)c5nc(c(-c6cc(S(=O)(=O)[O-])ccc6F)c6ccc3[nH]6)C=C5)C=C4)cc2)cccc1C(=O)c1ccc(Br)cc1
REMARK SMILES IDX 9 1 8 2 7 3 5 4 6 5 4 7 3 8 2 9 80 10 77 11 79 12 78 13 1 14
REMARK SMILES IDX 81 17 82 18 83 19 84 20 89 21 85 22 88 23 86 24 87 25 10 26
REMARK SMILES IDX 11 27 12 28 13 30 14 31 15 32 76 33 16 34 75 35 17 36 18 37
REMARK SMILES IDX 19 38 69 39 20 40 74 41 68 42 70 43 21 44 73 45 67 46 66 47
REMARK SMILES IDX 22 49 54 50 34 51 53 52 35 53 38 54 52 55 71 56 36 57 37 58
REMARK SMILES IDX 51 60 72 61 39 62 23 63 24 64 32 65 25 66 31 67 33 68 30 69
REMARK SMILES IDX 26 70 27 71 28 72 29 73 55 74 56 75 64 76 57 77 63 78 65 79
REMARK SMILES IDX 62 80 58 81 59 82 60 83 61 84 40 85 41 86 49 87 42 88 48 89
REMARK SMILES IDX 50 90 47 91 43 92 44 93 45 94 46 95
REMARK H PARENT 7 6 1 15 1 16 11 29 70 48 38 59
REMARK Flexibility Score: inf
ROOT
ATOM      1  C   UNL A   1      35.604  22.711  25.119  1.00  0.00     0.042 C 
ENDROOT
BRANCH   1   2
ATOM      2  C   UNL A   1      35.424  21.447  25.957  1.00  0.00     0.117 C 
BRANCH   2   3
ATOM      3  N   UNL A   1      35.228  20.265  25.140  1.00  0.00    -0.356 N 
ATOM      4  C   UNL A   1      34.087  19.549  24.924  1.00  0.00     0.224 C 
ATOM      5  O   UNL A   1      34.152  18.544  24.212  1.00  0.00    -0.275 OA
ATOM      6  H   UNL A   1      36.030  19.934  24.677  1.00  0.00     0.163 HD
BRANCH   4   7
ATOM      7  C   UNL A   1      32.758  20.022  25.491  1.00  0.00     0.137 C 
BRANCH   7   8
ATOM      8  C   UNL A   1      32.303  21.382  24.989  1.00  0.00    -0.015 A 
ATOM      9  C   UNL A   1      31.929  22.443  25.859  1.00  0.00     0.046 A 
ATOM     10  C   UNL A   1      31.454  23.656  25.294  1.00  0.00     0.046 A 
ATOM     11  C   UNL A   1      32.222  21.554  23.594  1.00  0.00     0.006 A 
ATOM     12  C   UNL A   1      31.369  23.779  23.892  1.00  0.00     0.014 A 
ATOM     13  C   UNL A   1      31.752  22.741  23.050  1.00  0.00     0.001 A 
BRANCH   9  14
ATOM     14  N   UNL A   1      32.002  22.233  27.232  1.00  0.00    -0.398 N 
ATOM     15  H   UNL A   1      32.619  21.557  27.594  1.00  0.00     0.156 HD
ATOM     16  H   UNL A   1      31.436  22.761  27.841  1.00  0.00     0.156 HD
ENDBRANCH   9  14
BRANCH  10  17
ATOM     17  C   UNL A   1      30.989  24.869  26.054  1.00  0.00     0.195 C 
ATOM     18  O   UNL A   1      29.881  24.887  26.586  1.00  0.00    -0.289 OA
BRANCH  17  19
ATOM     19  C   UNL A   1      31.818  26.069  26.251  1.00  0.00     0.023 A 
ATOM     20  C   UNL A   1      31.230  27.184  26.860  1.00  0.00     0.013 A 
ATOM     21  C   UNL A   1      33.163  26.092  25.871  1.00  0.00     0.013 A 
ATOM     22  C   UNL A   1      32.011  28.301  27.158  1.00  0.00     0.016 A 
ATOM     23  C   UNL A   1      33.945  27.207  26.181  1.00  0.00     0.016 A 
ATOM     24  C   UNL A   1      33.367  28.300  26.833  1.00  0.00     0.018 A 
ATOM     25  Br  UNL A   1      34.443  29.784  27.297  1.00  0.00    -0.051 Br
ENDBRANCH  17  19
ENDBRANCH  10  17
ENDBRANCH   7   8
ENDBRANCH   4   7
ENDBRANCH   2   3
ENDBRANCH   1   2
BRANCH   1  26
ATOM     26  C   UNL A   1      37.004  23.313  25.216  1.00  0.00     0.118 C 
BRANCH  26  27
ATOM     27  N   UNL A   1      37.951  22.403  25.848  1.00  0.00    -0.352 N 
ATOM     28  C   UNL A   1      39.119  22.660  26.514  1.00  0.00     0.251 C 
ATOM     29  H   UNL A   1      37.711  21.451  25.787  1.00  0.00     0.163 HD
ATOM     30  O   UNL A   1      39.868  21.714  26.776  1.00  0.00    -0.269 OA
BRANCH  28  31
ATOM     31  C   UNL A   1      39.500  24.035  26.902  1.00  0.00     0.039 A 
ATOM     32  C   UNL A   1      39.268  24.448  28.217  1.00  0.00     0.014 A 
ATOM     33  C   UNL A   1      40.040  24.933  25.977  1.00  0.00     0.014 A 
ATOM     34  C   UNL A   1      39.629  25.736  28.617  1.00  0.00     0.010 A 
ATOM     35  C   UNL A   1      40.471  26.191  26.396  1.00  0.00     0.010 A 
ATOM     36  C   UNL A   1      40.266  26.607  27.720  1.00  0.00    -0.014 A 
BRANCH  36  37
ATOM     37  C   UNL A   1      40.739  27.944  28.164  1.00  0.00     0.031 A 
ATOM     38  C   UNL A   1      42.205  28.279  28.164  1.00  0.00     0.074 A 
ATOM     39  C   UNL A   1      39.843  28.836  28.629  1.00  0.00     0.049 A 
ATOM     40  N   UNL A   1      42.803  29.378  28.547  1.00  0.00    -0.248 NA
ATOM     41  C   UNL A   1      43.119  27.225  27.704  1.00  0.00     0.031 C 
ATOM     42  C   UNL A   1      38.402  28.599  28.742  1.00  0.00     0.029 A 
ATOM     43  N   UNL A   1      40.009  30.112  29.104  1.00  0.00    -0.354 N 
ATOM     44  C   UNL A   1      44.166  29.146  28.386  1.00  0.00     0.074 A 
ATOM     45  C   UNL A   1      44.301  27.774  27.937  1.00  0.00     0.031 C 
ATOM     46  C   UNL A   1      37.815  29.699  29.236  1.00  0.00     0.029 A 
ATOM     47  C   UNL A   1      38.836  30.703  29.514  1.00  0.00     0.049 A 
ATOM     48  H   UNL A   1      40.884  30.562  29.146  1.00  0.00     0.167 HD
ATOM     49  C   UNL A   1      45.203  30.002  28.571  1.00  0.00     0.034 A 
ATOM     50  C   UNL A   1      38.609  31.909  30.068  1.00  0.00     0.034 A 
ATOM     51  C   UNL A   1      45.043  31.364  29.026  1.00  0.00     0.049 A 
ATOM     52  C   UNL A   1      39.769  32.845  30.274  1.00  0.00     0.074 A 
ATOM     53  C   UNL A   1      46.009  32.344  29.178  1.00  0.00     0.029 A 
ATOM     54  N   UNL A   1      43.838  31.936  29.425  1.00  0.00    -0.354 N 
ATOM     55  N   UNL A   1      41.045  32.644  30.035  1.00  0.00    -0.248 NA
ATOM     56  C   UNL A   1      39.456  34.174  30.807  1.00  0.00     0.031 C 
ATOM     57  C   UNL A   1      45.405  33.475  29.742  1.00  0.00     0.029 A 
ATOM     58  C   UNL A   1      44.045  33.237  29.864  1.00  0.00     0.049 A 
ATOM     59  H   UNL A   1      42.965  31.483  29.399  1.00  0.00     0.167 HD
ATOM     60  C   UNL A   1      41.687  33.830  30.379  1.00  0.00     0.074 A 
ATOM     61  C   UNL A   1      40.651  34.746  30.816  1.00  0.00     0.031 C 
ATOM     62  C   UNL A   1      43.011  34.133  30.336  1.00  0.00     0.034 A 
BRANCH  49  63
ATOM     63  C   UNL A   1      46.595  29.465  28.316  1.00  0.00     0.023 A 
ATOM     64  C   UNL A   1      47.358  28.874  29.340  1.00  0.00     0.031 A 
ATOM     65  C   UNL A   1      47.196  29.602  27.053  1.00  0.00     0.131 A 
ATOM     66  C   UNL A   1      48.705  28.547  29.115  1.00  0.00     0.055 A 
ATOM     67  C   UNL A   1      48.507  29.182  26.808  1.00  0.00     0.041 A 
ATOM     68  F   UNL A   1      46.531  30.173  26.036  1.00  0.00    -0.206 F 
ATOM     69  C   UNL A   1      49.277  28.672  27.849  1.00  0.00     0.022 A 
BRANCH  66  70
ATOM     70  S   UNL A   1      49.746  28.145  30.547  1.00  0.00     0.124 S 
ATOM     71  O   UNL A   1      48.752  28.035  31.613  1.00  0.00    -0.237 OA
ATOM     72  O   UNL A   1      50.382  26.900  30.135  1.00  0.00    -0.237 OA
ATOM     73  O   UNL A   1      50.638  29.297  30.657  1.00  0.00    -0.744 OA
ENDBRANCH  66  70
ENDBRANCH  49  63
BRANCH  50  74
ATOM     74  C   UNL A   1      37.227  32.283  30.479  1.00  0.00     0.023 A 
ATOM     75  C   UNL A   1      36.351  32.930  29.595  1.00  0.00     0.031 A 
ATOM     76  C   UNL A   1      36.758  31.976  31.769  1.00  0.00     0.131 A 
ATOM     77  C   UNL A   1      35.057  33.272  30.020  1.00  0.00     0.055 A 
ATOM     78  C   UNL A   1      35.456  32.276  32.172  1.00  0.00     0.041 A 
ATOM     79  F   UNL A   1      37.556  31.348  32.649  1.00  0.00    -0.206 F 
ATOM     80  C   UNL A   1      34.600  32.935  31.297  1.00  0.00     0.022 A 
BRANCH  77  81
ATOM     81  S   UNL A   1      33.985  34.201  28.890  1.00  0.00     0.124 S 
ATOM     82  O   UNL A   1      32.980  34.734  29.803  1.00  0.00    -0.237 OA
ATOM     83  O   UNL A   1      34.912  35.171  28.319  1.00  0.00    -0.237 OA
ATOM     84  O   UNL A   1      33.504  33.181  27.960  1.00  0.00    -0.744 OA
ENDBRANCH  77  81
ENDBRANCH  50  74
BRANCH  62  85
ATOM     85  C   UNL A   1      43.404  35.528  30.762  1.00  0.00     0.023 A 
ATOM     86  C   UNL A   1      43.598  35.859  32.116  1.00  0.00     0.031 A 
ATOM     87  C   UNL A   1      43.557  36.548  29.806  1.00  0.00     0.131 A 
ATOM     88  C   UNL A   1      43.867  37.187  32.480  1.00  0.00     0.055 A 
ATOM     89  C   UNL A   1      43.895  37.852  30.169  1.00  0.00     0.041 A 
ATOM     90  F   UNL A   1      43.379  36.293  28.500  1.00  0.00    -0.206 F 
ATOM     91  C   UNL A   1      44.036  38.182  31.514  1.00  0.00     0.022 A 
BRANCH  88  92
ATOM     92  S   UNL A   1      43.881  37.623  34.241  1.00  0.00     0.124 S 
ATOM     93  O   UNL A   1      42.469  37.887  34.498  1.00  0.00    -0.237 OA
ATOM     94  O   UNL A   1      44.427  36.418  34.856  1.00  0.00    -0.237 OA
ATOM     95  O   UNL A   1      44.751  38.796  34.298  1.00  0.00    -0.744 OA
ENDBRANCH  88  92
ENDBRANCH  62  85
ENDBRANCH  36  37
ENDBRANCH  28  31
ENDBRANCH  26  27
ENDBRANCH   1  26
TORSDOF 17
ENDMDL
MODEL 3
REMARK VINA RESULT:     -12.2      5.311      8.330
REMARK SMILES Nc1c(CC(=O)NCCCNC(=O)c2ccc(-c3c4nc(c(-c5cc(S(=O)(=O)[O-])ccc5F)c5ccc([nH]5)c(-c5cc(S(=O)(=O)[O-])ccc5F)c5nc(c(-c6cc(S(=O)(=O)[O-])ccc6F)c6ccc3[nH]6)C=C5)C=C4)cc2)cccc1C(=O)c1ccc(Br)cc1
REMARK SMILES IDX 9 1 8 2 7 3 5 4 6 5 4 7 3 8 2 9 80 10 77 11 79 12 78 13 1 14
REMARK SMILES IDX 81 17 82 18 83 19 84 20 89 21 85 22 88 23 86 24 87 25 10 26
REMARK SMILES IDX 11 27 12 28 13 30 14 31 15 32 76 33 16 34 75 35 17 36 18 37
REMARK SMILES IDX 19 38 69 39 20 40 74 41 68 42 70 43 21 44 73 45 67 46 66 47
REMARK SMILES IDX 22 49 54 50 34 51 53 52 35 53 38 54 52 55 71 56 36 57 37 58
REMARK SMILES IDX 51 60 72 61 39 62 23 63 24 64 32 65 25 66 31 67 33 68 30 69
REMARK SMILES IDX 26 70 27 71 28 72 29 73 55 74 56 75 64 76 57 77 63 78 65 79
REMARK SMILES IDX 62 80 58 81 59 82 60 83 61 84 40 85 41 86 49 87 42 88 48 89
REMARK SMILES IDX 50 90 47 91 43 92 44 93 45 94 46 95
REMARK H PARENT 7 6 1 15 1 16 11 29 70 48 38 59
REMARK Flexibility Score: inf
ROOT
ATOM      1  C   UNL A   1      35.755  22.731  25.162  1.00  0.00     0.042 C 
ENDROOT
BRANCH   1   2
ATOM      2  C   UNL A   1      35.552  21.456  25.976  1.00  0.00     0.117 C 
BRANCH   2   3
ATOM      3  N   UNL A   1      35.312  20.297  25.137  1.00  0.00    -0.356 N 
ATOM      4  C   UNL A   1      34.152  19.607  24.935  1.00  0.00     0.224 C 
ATOM      5  O   UNL A   1      34.180  18.618  24.199  1.00  0.00    -0.275 OA
ATOM      6  H   UNL A   1      36.095  19.963  24.645  1.00  0.00     0.163 HD
BRANCH   4   7
ATOM      7  C   UNL A   1      32.848  20.091  25.548  1.00  0.00     0.137 C 
BRANCH   7   8
ATOM      8  C   UNL A   1      32.352  21.423  25.012  1.00  0.00    -0.015 A 
ATOM      9  C   UNL A   1      31.973  22.504  25.855  1.00  0.00     0.046 A 
ATOM     10  C   UNL A   1      31.458  23.687  25.261  1.00  0.00     0.046 A 
ATOM     11  C   UNL A   1      32.236  21.546  23.614  1.00  0.00     0.006 A 
ATOM     12  C   UNL A   1      31.339  23.760  23.858  1.00  0.00     0.014 A 
ATOM     13  C   UNL A   1      31.727  22.703  23.042  1.00  0.00     0.001 A 
BRANCH   9  14
ATOM     14  N   UNL A   1      32.081  22.342  27.232  1.00  0.00    -0.398 N 
ATOM     15  H   UNL A   1      32.463  21.514  27.601  1.00  0.00     0.156 HD
ATOM     16  H   UNL A   1      31.775  23.057  27.836  1.00  0.00     0.156 HD
ENDBRANCH   9  14
BRANCH  10  17
ATOM     17  C   UNL A   1      30.983  24.914  25.991  1.00  0.00     0.195 C 
ATOM     18  O   UNL A   1      29.853  24.957  26.474  1.00  0.00    -0.289 OA
BRANCH  17  19
ATOM     19  C   UNL A   1      31.824  26.102  26.214  1.00  0.00     0.023 A 
ATOM     20  C   UNL A   1      31.255  27.200  26.870  1.00  0.00     0.013 A 
ATOM     21  C   UNL A   1      33.163  26.128  25.811  1.00  0.00     0.013 A 
ATOM     22  C   UNL A   1      32.049  28.300  27.192  1.00  0.00     0.016 A 
ATOM     23  C   UNL A   1      33.958  27.227  26.145  1.00  0.00     0.016 A 
ATOM     24  C   UNL A   1      33.400  28.301  26.843  1.00  0.00     0.018 A 
ATOM     25  Br  UNL A   1      34.495  29.761  27.339  1.00  0.00    -0.051 Br
ENDBRANCH  17  19
ENDBRANCH  10  17
ENDBRANCH   7   8
ENDBRANCH   4   7
ENDBRANCH   2   3
ENDBRANCH   1   2
BRANCH   1  26
ATOM     26  C   UNL A   1      37.145  23.343  25.323  1.00  0.00     0.118 C 
BRANCH  26  27
ATOM     27  N   UNL A   1      38.064  22.446  26.012  1.00  0.00    -0.352 N 
ATOM     28  C   UNL A   1      39.208  22.715  26.714  1.00  0.00     0.251 C 
ATOM     29  H   UNL A   1      37.822  21.493  25.966  1.00  0.00     0.163 HD
ATOM     30  O   UNL A   1      39.942  21.773  27.028  1.00  0.00    -0.269 OA
BRANCH  28  31
ATOM     31  C   UNL A   1      39.580  24.098  27.082  1.00  0.00     0.039 A 
ATOM     32  C   UNL A   1      39.438  24.498  28.414  1.00  0.00     0.014 A 
ATOM     33  C   UNL A   1      40.024  25.015  26.125  1.00  0.00     0.014 A 
ATOM     34  C   UNL A   1      39.794  25.793  28.794  1.00  0.00     0.010 A 
ATOM     35  C   UNL A   1      40.451  26.282  26.518  1.00  0.00     0.010 A 
ATOM     36  C   UNL A   1      40.338  26.686  27.857  1.00  0.00    -0.014 A 
BRANCH  36  37
ATOM     37  C   UNL A   1      40.807  28.032  28.273  1.00  0.00     0.031 A 
ATOM     38  C   UNL A   1      42.276  28.329  28.400  1.00  0.00     0.074 A 
ATOM     39  C   UNL A   1      39.899  28.973  28.598  1.00  0.00     0.049 A 
ATOM     40  N   UNL A   1      42.869  29.432  28.781  1.00  0.00    -0.248 NA
ATOM     41  C   UNL A   1      43.196  27.226  28.090  1.00  0.00     0.031 C 
ATOM     42  C   UNL A   1      38.447  28.780  28.581  1.00  0.00     0.029 A 
ATOM     43  N   UNL A   1      40.058  30.269  29.018  1.00  0.00    -0.354 N 
ATOM     44  C   UNL A   1      44.232  29.155  28.768  1.00  0.00     0.074 A 
ATOM     45  C   UNL A   1      44.367  27.757  28.409  1.00  0.00     0.031 C 
ATOM     46  C   UNL A   1      37.849  29.922  28.955  1.00  0.00     0.029 A 
ATOM     47  C   UNL A   1      38.871  30.912  29.278  1.00  0.00     0.049 A 
ATOM     48  H   UNL A   1      40.939  30.697  29.123  1.00  0.00     0.167 HD
ATOM     49  C   UNL A   1      45.274  29.992  29.008  1.00  0.00     0.034 A 
ATOM     50  C   UNL A   1      38.629  32.154  29.741  1.00  0.00     0.034 A 
ATOM     51  C   UNL A   1      45.113  31.382  29.371  1.00  0.00     0.049 A 
ATOM     52  C   UNL A   1      39.792  33.069  30.010  1.00  0.00     0.074 A 
ATOM     53  C   UNL A   1      46.090  32.343  29.565  1.00  0.00     0.029 A 
ATOM     54  N   UNL A   1      43.894  32.007  29.618  1.00  0.00    -0.354 N 
ATOM     55  N   UNL A   1      41.079  32.821  29.910  1.00  0.00    -0.248 NA
ATOM     56  C   UNL A   1      39.471  34.435  30.438  1.00  0.00     0.031 C 
ATOM     57  C   UNL A   1      45.471  33.520  30.005  1.00  0.00     0.029 A 
ATOM     58  C   UNL A   1      44.098  33.324  30.004  1.00  0.00     0.049 A 
ATOM     59  H   UNL A   1      43.014  31.576  29.530  1.00  0.00     0.167 HD
ATOM     60  C   UNL A   1      41.721  34.008  30.252  1.00  0.00     0.074 A 
ATOM     61  C   UNL A   1      40.678  34.974  30.533  1.00  0.00     0.031 C 
ATOM     62  C   UNL A   1      43.052  34.273  30.323  1.00  0.00     0.034 A 
BRANCH  49  63
ATOM     63  C   UNL A   1      46.666  29.406  28.922  1.00  0.00     0.023 A 
ATOM     64  C   UNL A   1      47.340  29.278  27.693  1.00  0.00     0.031 A 
ATOM     65  C   UNL A   1      47.307  28.908  30.070  1.00  0.00     0.131 A 
ATOM     66  C   UNL A   1      48.552  28.573  27.624  1.00  0.00     0.055 A 
ATOM     67  C   UNL A   1      48.562  28.295  30.009  1.00  0.00     0.041 A 
ATOM     68  F   UNL A   1      46.713  28.981  31.272  1.00  0.00    -0.206 F 
ATOM     69  C   UNL A   1      49.181  28.104  28.778  1.00  0.00     0.022 A 
BRANCH  66  70
ATOM     70  S   UNL A   1      49.189  28.110  25.989  1.00  0.00     0.124 S 
ATOM     71  O   UNL A   1      50.279  29.068  25.814  1.00  0.00    -0.237 OA
ATOM     72  O   UNL A   1      49.583  26.721  26.186  1.00  0.00    -0.237 OA
ATOM     73  O   UNL A   1      48.044  28.317  25.104  1.00  0.00    -0.744 OA
ENDBRANCH  66  70
ENDBRANCH  49  63
BRANCH  50  74
ATOM     74  C   UNL A   1      37.226  32.587  29.992  1.00  0.00     0.023 A 
ATOM     75  C   UNL A   1      36.747  32.795  31.294  1.00  0.00     0.031 A 
ATOM     76  C   UNL A   1      36.346  32.816  28.919  1.00  0.00     0.131 A 
ATOM     77  C   UNL A   1      35.417  33.198  31.493  1.00  0.00     0.055 A 
ATOM     78  C   UNL A   1      35.039  33.261  29.119  1.00  0.00     0.041 A 
ATOM     79  F   UNL A   1      36.760  32.641  27.653  1.00  0.00    -0.206 F 
ATOM     80  C   UNL A   1      34.565  33.447  30.413  1.00  0.00     0.022 A 
BRANCH  77  81
ATOM     81  S   UNL A   1      34.798  33.357  33.190  1.00  0.00     0.124 S 
ATOM     82  O   UNL A   1      35.021  34.774  33.457  1.00  0.00    -0.237 OA
ATOM     83  O   UNL A   1      33.406  32.944  33.047  1.00  0.00    -0.237 OA
ATOM     84  O   UNL A   1      35.643  32.439  33.949  1.00  0.00    -0.744 OA
ENDBRANCH  77  81
ENDBRANCH  50  74
BRANCH  62  85
ATOM     85  C   UNL A   1      43.446  35.679  30.710  1.00  0.00     0.023 A 
ATOM     86  C   UNL A   1      43.542  36.074  32.057  1.00  0.00     0.031 A 
ATOM     87  C   UNL A   1      43.699  36.646  29.721  1.00  0.00     0.131 A 
ATOM     88  C   UNL A   1      43.816  37.413  32.376  1.00  0.00     0.055 A 
ATOM     89  C   UNL A   1      44.040  37.959  30.045  1.00  0.00     0.041 A 
ATOM     90  F   UNL A   1      43.616  36.329  28.419  1.00  0.00    -0.206 F 
ATOM     91  C   UNL A   1      44.084  38.354  31.379  1.00  0.00     0.022 A 
BRANCH  88  92
ATOM     92  S   UNL A   1      43.703  37.937  34.110  1.00  0.00     0.124 S 
ATOM     93  O   UNL A   1      45.096  38.235  34.426  1.00  0.00    -0.237 OA
ATOM     94  O   UNL A   1      42.807  39.086  34.030  1.00  0.00    -0.237 OA
ATOM     95  O   UNL A   1      43.151  36.766  34.787  1.00  0.00    -0.744 OA
ENDBRANCH  88  92
ENDBRANCH  62  85
ENDBRANCH  36  37
ENDBRANCH  28  31
ENDBRANCH  26  27
ENDBRANCH   1  26
TORSDOF 17
ENDMDL
