MODEL 1
REMARK VINA RESULT:     -12.3      0.000      0.000
REMARK SMILES O=C(NCCCNC(=O)c1cccc(Br)c1O[C@@H]1CCOC2(CCC2)C1)c1ccc(-c2c3nc(c(-c4cc(S(=O)(=O)[O-])ccc4F)c4ccc([nH]4)c(-c4cc(S(=O)(=O)[O-])ccc4F)c4nc(c(-c5cc(S(=O)(=O)[O-])ccc5F)c5ccc2[nH]5)C=C4)C=C3)cc1
REMARK SMILES IDX 4 1 3 2 1 3 2 4 27 6 28 7 89 8 29 9 88 10 30 11 31 12 32 13
REMARK SMILES IDX 82 14 33 15 87 16 81 17 83 18 34 19 86 20 80 21 79 22 35 24
REMARK SMILES IDX 67 25 47 26 66 27 48 28 51 29 65 30 84 31 49 32 50 33 64 35
REMARK SMILES IDX 85 36 52 37 36 38 37 39 45 40 38 41 44 42 46 43 43 44 39 45
REMARK SMILES IDX 40 46 41 47 42 48 68 49 69 50 77 51 70 52 76 53 78 54 75 55
REMARK SMILES IDX 71 56 72 57 73 58 74 59 53 60 54 61 62 62 55 63 61 64 63 65
REMARK SMILES IDX 60 66 56 67 57 68 58 69 59 70 5 71 6 72 7 73 8 74 9 76 10 77
REMARK SMILES IDX 11 78 16 79 12 80 14 81 13 82 15 83 17 84 18 85 19 86 26 87
REMARK SMILES IDX 20 88 22 89 21 90 23 91 25 92 24 93
REMARK H PARENT 3 5 83 23 51 34 7 75
REMARK Flexibility Score: inf
ROOT
ATOM      1  C   UNL A   1      32.077  30.548  26.832  1.00  0.00     0.118 C 
ENDROOT
BRANCH   1   2
ATOM      2  N   UNL A   1      32.079  32.005  26.894  1.00  0.00    -0.352 N 
ATOM      3  O   UNL A   1      32.754  34.061  27.525  1.00  0.00    -0.269 OA
ATOM      4  C   UNL A   1      32.991  32.858  27.476  1.00  0.00     0.251 C 
ATOM      5  H   UNL A   1      31.316  32.444  26.453  1.00  0.00     0.163 HD
BRANCH   4   6
ATOM      6  C   UNL A   1      34.234  32.315  28.066  1.00  0.00     0.039 A 
ATOM      7  C   UNL A   1      34.300  30.983  28.474  1.00  0.00     0.014 A 
ATOM      8  C   UNL A   1      35.340  33.152  28.236  1.00  0.00     0.014 A 
ATOM      9  C   UNL A   1      35.383  30.544  29.223  1.00  0.00     0.010 A 
ATOM     10  C   UNL A   1      36.485  32.669  28.880  1.00  0.00     0.010 A 
ATOM     11  C   UNL A   1      36.502  31.370  29.413  1.00  0.00    -0.014 A 
BRANCH  11  12
ATOM     12  C   UNL A   1      37.693  30.818  30.111  1.00  0.00     0.031 A 
ATOM     13  C   UNL A   1      37.969  31.127  31.557  1.00  0.00     0.074 A 
ATOM     14  C   UNL A   1      38.508  29.990  29.427  1.00  0.00     0.049 A 
ATOM     15  N   UNL A   1      38.955  30.715  32.312  1.00  0.00    -0.248 NA
ATOM     16  C   UNL A   1      37.023  32.020  32.241  1.00  0.00     0.031 C 
ATOM     17  C   UNL A   1      38.337  29.618  28.018  1.00  0.00     0.029 A 
ATOM     18  N   UNL A   1      39.623  29.295  29.816  1.00  0.00    -0.354 N 
ATOM     19  C   UNL A   1      38.761  31.306  33.557  1.00  0.00     0.074 A 
ATOM     20  C   UNL A   1      37.581  32.137  33.439  1.00  0.00     0.031 C 
ATOM     21  C   UNL A   1      39.273  28.721  27.682  1.00  0.00     0.029 A 
ATOM     22  C   UNL A   1      40.167  28.525  28.814  1.00  0.00     0.049 A 
ATOM     23  H   UNL A   1      39.999  29.342  30.724  1.00  0.00     0.167 HD
ATOM     24  C   UNL A   1      39.496  31.160  34.688  1.00  0.00     0.034 A 
ATOM     25  C   UNL A   1      41.281  27.768  28.793  1.00  0.00     0.034 A 
ATOM     26  C   UNL A   1      40.674  30.328  34.779  1.00  0.00     0.049 A 
ATOM     27  C   UNL A   1      42.112  27.676  30.042  1.00  0.00     0.074 A 
ATOM     28  C   UNL A   1      41.477  30.089  35.882  1.00  0.00     0.029 A 
ATOM     29  N   UNL A   1      41.230  29.608  33.727  1.00  0.00    -0.354 N 
ATOM     30  N   UNL A   1      41.905  28.231  31.214  1.00  0.00    -0.248 NA
ATOM     31  C   UNL A   1      43.325  26.855  29.967  1.00  0.00     0.031 C 
ATOM     32  C   UNL A   1      42.560  29.300  35.478  1.00  0.00     0.029 A 
ATOM     33  C   UNL A   1      42.384  28.961  34.147  1.00  0.00     0.049 A 
ATOM     34  H   UNL A   1      40.859  29.564  32.816  1.00  0.00     0.167 HD
ATOM     35  C   UNL A   1      42.951  27.801  32.025  1.00  0.00     0.074 A 
ATOM     36  C   UNL A   1      43.770  26.925  31.213  1.00  0.00     0.031 C 
ATOM     37  C   UNL A   1      43.206  28.101  33.324  1.00  0.00     0.034 A 
BRANCH  24  38
ATOM     38  C   UNL A   1      39.078  31.955  35.905  1.00  0.00     0.023 A 
ATOM     39  C   UNL A   1      38.353  31.375  36.960  1.00  0.00     0.031 A 
ATOM     40  C   UNL A   1      39.403  33.320  36.007  1.00  0.00     0.131 A 
ATOM     41  C   UNL A   1      37.919  32.168  38.034  1.00  0.00     0.055 A 
ATOM     42  C   UNL A   1      39.042  34.085  37.119  1.00  0.00     0.041 A 
ATOM     43  F   UNL A   1      40.073  33.939  35.023  1.00  0.00    -0.206 F 
ATOM     44  C   UNL A   1      38.282  33.513  38.134  1.00  0.00     0.022 A 
BRANCH  41  45
ATOM     45  S   UNL A   1      36.749  31.455  39.222  1.00  0.00     0.124 S 
ATOM     46  O   UNL A   1      35.699  32.470  39.252  1.00  0.00    -0.237 OA
ATOM     47  O   UNL A   1      36.393  30.188  38.594  1.00  0.00    -0.237 OA
ATOM     48  O   UNL A   1      37.532  31.345  40.452  1.00  0.00    -0.744 OA
ENDBRANCH  41  45
ENDBRANCH  24  38
BRANCH  25  49
ATOM     49  C   UNL A   1      41.695  27.077  27.538  1.00  0.00     0.023 A 
ATOM     50  C   UNL A   1      41.593  25.684  27.409  1.00  0.00     0.031 A 
ATOM     51  C   UNL A   1      42.232  27.801  26.458  1.00  0.00     0.131 A 
ATOM     52  C   UNL A   1      42.070  25.054  26.249  1.00  0.00     0.055 A 
ATOM     53  C   UNL A   1      42.641  27.177  25.279  1.00  0.00     0.041 A 
ATOM     54  F   UNL A   1      42.351  29.137  26.527  1.00  0.00    -0.206 F 
ATOM     55  C   UNL A   1      42.574  25.793  25.176  1.00  0.00     0.022 A 
BRANCH  52  56
ATOM     56  S   UNL A   1      42.115  23.243  26.204  1.00  0.00     0.124 S 
ATOM     57  O   UNL A   1      42.962  22.939  27.352  1.00  0.00    -0.237 OA
ATOM     58  O   UNL A   1      40.703  22.901  26.340  1.00  0.00    -0.237 OA
ATOM     59  O   UNL A   1      42.703  22.949  24.899  1.00  0.00    -0.744 OA
ENDBRANCH  52  56
ENDBRANCH  25  49
BRANCH  37  60
ATOM     60  C   UNL A   1      44.403  27.430  33.956  1.00  0.00     0.023 A 
ATOM     61  C   UNL A   1      44.285  26.232  34.685  1.00  0.00     0.031 A 
ATOM     62  C   UNL A   1      45.678  28.013  33.850  1.00  0.00     0.131 A 
ATOM     63  C   UNL A   1      45.406  25.697  35.336  1.00  0.00     0.055 A 
ATOM     64  C   UNL A   1      46.804  27.435  34.436  1.00  0.00     0.041 A 
ATOM     65  F   UNL A   1      45.852  29.160  33.173  1.00  0.00    -0.206 F 
ATOM     66  C   UNL A   1      46.669  26.278  35.198  1.00  0.00     0.022 A 
BRANCH  63  67
ATOM     67  S   UNL A   1      45.171  24.293  36.460  1.00  0.00     0.124 S 
ATOM     68  O   UNL A   1      46.539  24.019  36.891  1.00  0.00    -0.237 OA
ATOM     69  O   UNL A   1      44.283  24.850  37.475  1.00  0.00    -0.237 OA
ATOM     70  O   UNL A   1      44.572  23.267  35.608  1.00  0.00    -0.744 OA
ENDBRANCH  63  67
ENDBRANCH  37  60
ENDBRANCH  11  12
ENDBRANCH   4   6
ENDBRANCH   1   2
BRANCH   1  71
ATOM     71  C   UNL A   1      32.400  29.998  25.455  1.00  0.00     0.042 C 
BRANCH  71  72
ATOM     72  C   UNL A   1      33.503  28.955  25.441  1.00  0.00     0.118 C 
BRANCH  72  73
ATOM     73  N   UNL A   1      33.994  28.646  24.100  1.00  0.00    -0.352 N 
ATOM     74  C   UNL A   1      33.375  28.000  23.051  1.00  0.00     0.255 C 
ATOM     75  H   UNL A   1      34.913  28.946  23.916  1.00  0.00     0.163 HD
ATOM     76  O   UNL A   1      33.967  27.834  21.991  1.00  0.00    -0.269 OA
BRANCH  74  77
ATOM     77  C   UNL A   1      31.971  27.573  23.217  1.00  0.00     0.083 A 
ATOM     78  C   UNL A   1      31.023  28.213  22.421  1.00  0.00     0.018 A 
ATOM     79  C   UNL A   1      31.595  26.605  24.178  1.00  0.00     0.146 A 
ATOM     80  C   UNL A   1      29.689  28.010  22.668  1.00  0.00     0.002 A 
ATOM     81  C   UNL A   1      30.211  26.363  24.588  1.00  0.00     0.060 A 
ATOM     82  C   UNL A   1      29.296  27.161  23.716  1.00  0.00     0.019 A 
ATOM     83  Br  UNL A   1      29.602  24.689  26.474  1.00  0.00    -0.047 Br
BRANCH  79  84
ATOM     84  O   UNL A   1      32.592  25.837  24.696  1.00  0.00    -0.488 OA
BRANCH  84  85
ATOM     85  C   UNL A   1      32.709  25.040  23.563  1.00  0.00     0.178 C 
ATOM     86  C   UNL A   1      31.537  23.524  23.900  1.00  0.00     0.074 C 
ATOM     87  C   UNL A   1      34.627  24.826  23.495  1.00  0.00     0.080 C 
ATOM     88  C   UNL A   1      32.359  21.806  24.196  1.00  0.00     0.165 C 
ATOM     89  C   UNL A   1      35.324  23.121  23.962  1.00  0.00     0.072 C 
ATOM     90  O   UNL A   1      34.199  21.699  24.134  1.00  0.00    -0.375 OA
ATOM     91  C   UNL A   1      36.590  22.677  23.121  1.00  0.00     0.036 C 
ATOM     92  C   UNL A   1      36.387  23.395  25.103  1.00  0.00     0.036 C 
ATOM     93  C   UNL A   1      37.273  22.336  24.460  1.00  0.00     0.006 C 
ENDBRANCH  84  85
ENDBRANCH  79  84
ENDBRANCH  74  77
ENDBRANCH  72  73
ENDBRANCH  71  72
ENDBRANCH   1  71
TORSDOF 15
ENDMDL
MODEL 2
REMARK VINA RESULT:     -12.3      5.130     10.635
REMARK SMILES O=C(NCCCNC(=O)c1cccc(Br)c1O[C@@H]1CCOC2(CCC2)C1)c1ccc(-c2c3nc(c(-c4cc(S(=O)(=O)[O-])ccc4F)c4ccc([nH]4)c(-c4cc(S(=O)(=O)[O-])ccc4F)c4nc(c(-c5cc(S(=O)(=O)[O-])ccc5F)c5ccc2[nH]5)C=C4)C=C3)cc1
REMARK SMILES IDX 4 1 3 2 1 3 2 4 27 6 28 7 89 8 29 9 88 10 30 11 31 12 32 13
REMARK SMILES IDX 82 14 33 15 87 16 81 17 83 18 34 19 86 20 80 21 79 22 35 24
REMARK SMILES IDX 67 25 47 26 66 27 48 28 51 29 65 30 84 31 49 32 50 33 64 35
REMARK SMILES IDX 85 36 52 37 36 38 37 39 45 40 38 41 44 42 46 43 43 44 39 45
REMARK SMILES IDX 40 46 41 47 42 48 68 49 69 50 77 51 70 52 76 53 78 54 75 55
REMARK SMILES IDX 71 56 72 57 73 58 74 59 53 60 54 61 62 62 55 63 61 64 63 65
REMARK SMILES IDX 60 66 56 67 57 68 58 69 59 70 5 71 6 72 7 73 8 74 9 76 10 77
REMARK SMILES IDX 11 78 16 79 12 80 14 81 13 82 15 83 17 84 18 85 19 86 26 87
REMARK SMILES IDX 20 88 22 89 21 90 23 91 25 92 24 93
REMARK H PARENT 3 5 83 23 51 34 7 75
REMARK Flexibility Score: inf
ROOT
ATOM      1  C   UNL A   1      37.577  21.370  24.972  1.00  0.00     0.118 C 
ENDROOT
BRANCH   1   2
ATOM      2  N   UNL A   1      38.482  20.342  25.472  1.00  0.00    -0.352 N 
ATOM      3  O   UNL A   1      40.356  19.482  26.384  1.00  0.00    -0.269 OA
ATOM      4  C   UNL A   1      39.674  20.475  26.149  1.00  0.00     0.251 C 
ATOM      5  H   UNL A   1      38.199  19.415  25.300  1.00  0.00     0.163 HD
BRANCH   4   6
ATOM      6  C   UNL A   1      40.141  21.817  26.562  1.00  0.00     0.039 A 
ATOM      7  C   UNL A   1      39.646  22.961  25.935  1.00  0.00     0.014 A 
ATOM      8  C   UNL A   1      41.100  21.934  27.571  1.00  0.00     0.014 A 
ATOM      9  C   UNL A   1      40.246  24.190  26.171  1.00  0.00     0.010 A 
ATOM     10  C   UNL A   1      41.613  23.195  27.899  1.00  0.00     0.010 A 
ATOM     11  C   UNL A   1      41.217  24.330  27.175  1.00  0.00    -0.014 A 
BRANCH  11  12
ATOM     12  C   UNL A   1      41.742  25.686  27.483  1.00  0.00     0.031 A 
ATOM     13  C   UNL A   1      43.077  26.148  26.968  1.00  0.00     0.074 A 
ATOM     14  C   UNL A   1      40.969  26.522  28.207  1.00  0.00     0.049 A 
ATOM     15  N   UNL A   1      43.670  27.303  27.137  1.00  0.00    -0.248 NA
ATOM     16  C   UNL A   1      43.852  25.189  26.168  1.00  0.00     0.031 C 
ATOM     17  C   UNL A   1      39.652  26.181  28.757  1.00  0.00     0.029 A 
ATOM     18  N   UNL A   1      41.156  27.825  28.587  1.00  0.00    -0.354 N 
ATOM     19  C   UNL A   1      44.893  27.209  26.480  1.00  0.00     0.074 A 
ATOM     20  C   UNL A   1      44.970  25.866  25.942  1.00  0.00     0.031 C 
ATOM     21  C   UNL A   1      39.129  27.262  29.350  1.00  0.00     0.029 A 
ATOM     22  C   UNL A   1      40.105  28.343  29.308  1.00  0.00     0.049 A 
ATOM     23  H   UNL A   1      41.965  28.341  28.366  1.00  0.00     0.167 HD
ATOM     24  C   UNL A   1      45.852  28.157  26.335  1.00  0.00     0.034 A 
ATOM     25  C   UNL A   1      39.951  29.542  29.900  1.00  0.00     0.034 A 
ATOM     26  C   UNL A   1      45.754  29.490  26.887  1.00  0.00     0.049 A 
ATOM     27  C   UNL A   1      41.059  30.552  29.779  1.00  0.00     0.074 A 
ATOM     28  C   UNL A   1      46.656  30.536  26.779  1.00  0.00     0.029 A 
ATOM     29  N   UNL A   1      44.700  29.961  27.663  1.00  0.00    -0.354 N 
ATOM     30  N   UNL A   1      42.202  30.450  29.141  1.00  0.00    -0.248 NA
ATOM     31  C   UNL A   1      40.856  31.837  30.456  1.00  0.00     0.031 C 
ATOM     32  C   UNL A   1      46.191  31.602  27.556  1.00  0.00     0.029 A 
ATOM     33  C   UNL A   1      44.951  31.264  28.071  1.00  0.00     0.049 A 
ATOM     34  H   UNL A   1      43.894  29.444  27.890  1.00  0.00     0.167 HD
ATOM     35  C   UNL A   1      42.842  31.673  29.317  1.00  0.00     0.074 A 
ATOM     36  C   UNL A   1      41.946  32.499  30.101  1.00  0.00     0.031 C 
ATOM     37  C   UNL A   1      44.058  32.076  28.868  1.00  0.00     0.034 A 
BRANCH  24  38
ATOM     38  C   UNL A   1      47.113  27.774  25.595  1.00  0.00     0.023 A 
ATOM     39  C   UNL A   1      47.272  28.017  24.219  1.00  0.00     0.031 A 
ATOM     40  C   UNL A   1      48.173  27.145  26.274  1.00  0.00     0.131 A 
ATOM     41  C   UNL A   1      48.427  27.575  23.556  1.00  0.00     0.055 A 
ATOM     42  C   UNL A   1      49.357  26.784  25.626  1.00  0.00     0.041 A 
ATOM     43  F   UNL A   1      48.075  26.864  27.583  1.00  0.00    -0.206 F 
ATOM     44  C   UNL A   1      49.482  26.985  24.255  1.00  0.00     0.022 A 
BRANCH  41  45
ATOM     45  S   UNL A   1      48.469  27.647  21.744  1.00  0.00     0.124 S 
ATOM     46  O   UNL A   1      47.153  28.203  21.438  1.00  0.00    -0.237 OA
ATOM     47  O   UNL A   1      49.606  28.524  21.489  1.00  0.00    -0.237 OA
ATOM     48  O   UNL A   1      48.654  26.252  21.348  1.00  0.00    -0.744 OA
ENDBRANCH  41  45
ENDBRANCH  24  38
BRANCH  25  49
ATOM     49  C   UNL A   1      38.724  29.835  30.695  1.00  0.00     0.023 A 
ATOM     50  C   UNL A   1      37.717  30.673  30.193  1.00  0.00     0.031 A 
ATOM     51  C   UNL A   1      38.556  29.305  31.988  1.00  0.00     0.131 A 
ATOM     52  C   UNL A   1      36.614  30.997  30.998  1.00  0.00     0.055 A 
ATOM     53  C   UNL A   1      37.425  29.575  32.758  1.00  0.00     0.041 A 
ATOM     54  F   UNL A   1      39.489  28.496  32.517  1.00  0.00    -0.206 F 
ATOM     55  C   UNL A   1      36.452  30.439  32.268  1.00  0.00     0.022 A 
BRANCH  52  56
ATOM     56  S   UNL A   1      35.443  32.244  30.399  1.00  0.00     0.124 S 
ATOM     57  O   UNL A   1      34.505  32.328  31.512  1.00  0.00    -0.237 OA
ATOM     58  O   UNL A   1      36.308  33.402  30.199  1.00  0.00    -0.237 OA
ATOM     59  O   UNL A   1      34.909  31.649  29.176  1.00  0.00    -0.744 OA
ENDBRANCH  52  56
ENDBRANCH  25  49
BRANCH  37  60
ATOM     60  C   UNL A   1      44.463  33.497  29.178  1.00  0.00     0.023 A 
ATOM     61  C   UNL A   1      44.205  34.555  28.287  1.00  0.00     0.031 A 
ATOM     62  C   UNL A   1      45.142  33.794  30.373  1.00  0.00     0.131 A 
ATOM     63  C   UNL A   1      44.685  35.842  28.573  1.00  0.00     0.055 A 
ATOM     64  C   UNL A   1      45.550  35.090  30.687  1.00  0.00     0.041 A 
ATOM     65  F   UNL A   1      45.422  32.824  31.259  1.00  0.00    -0.206 F 
ATOM     66  C   UNL A   1      45.336  36.121  29.777  1.00  0.00     0.022 A 
BRANCH  63  67
ATOM     67  S   UNL A   1      44.547  37.125  27.297  1.00  0.00     0.124 S 
ATOM     68  O   UNL A   1      44.707  38.347  28.080  1.00  0.00    -0.237 OA
ATOM     69  O   UNL A   1      45.650  36.794  26.400  1.00  0.00    -0.237 OA
ATOM     70  O   UNL A   1      43.212  36.914  26.742  1.00  0.00    -0.744 OA
ENDBRANCH  63  67
ENDBRANCH  37  60
ENDBRANCH  11  12
ENDBRANCH   4   6
ENDBRANCH   1   2
BRANCH   1  71
ATOM     71  C   UNL A   1      36.278  21.466  25.752  1.00  0.00     0.042 C 
BRANCH  71  72
ATOM     72  C   UNL A   1      35.864  22.884  26.103  1.00  0.00     0.118 C 
BRANCH  72  73
ATOM     73  N   UNL A   1      34.768  22.947  27.068  1.00  0.00    -0.352 N 
ATOM     74  C   UNL A   1      33.421  22.705  26.902  1.00  0.00     0.255 C 
ATOM     75  H   UNL A   1      35.034  23.204  27.980  1.00  0.00     0.163 HD
ATOM     76  O   UNL A   1      32.652  22.817  27.850  1.00  0.00    -0.269 OA
BRANCH  74  77
ATOM     77  C   UNL A   1      32.943  22.251  25.581  1.00  0.00     0.083 A 
ATOM     78  C   UNL A   1      32.424  20.960  25.512  1.00  0.00     0.018 A 
ATOM     79  C   UNL A   1      33.062  23.062  24.427  1.00  0.00     0.146 A 
ATOM     80  C   UNL A   1      32.153  20.408  24.285  1.00  0.00     0.002 A 
ATOM     81  C   UNL A   1      32.885  22.563  23.063  1.00  0.00     0.060 A 
ATOM     82  C   UNL A   1      32.402  21.149  23.118  1.00  0.00     0.019 A 
ATOM     83  Br  UNL A   1      33.278  24.061  20.982  1.00  0.00    -0.047 Br
BRANCH  79  84
ATOM     84  O   UNL A   1      33.305  24.385  24.631  1.00  0.00    -0.488 OA
BRANCH  84  85
ATOM     85  C   UNL A   1      32.003  24.671  25.024  1.00  0.00     0.178 C 
ATOM     86  C   UNL A   1      31.123  25.298  23.406  1.00  0.00     0.074 C 
ATOM     87  C   UNL A   1      32.348  25.864  26.502  1.00  0.00     0.080 C 
ATOM     88  C   UNL A   1      30.636  27.161  23.317  1.00  0.00     0.165 C 
ATOM     89  C   UNL A   1      31.971  27.707  26.231  1.00  0.00     0.072 C 
ATOM     90  O   UNL A   1      31.025  28.232  24.767  1.00  0.00    -0.375 OA
ATOM     91  C   UNL A   1      31.402  28.454  27.507  1.00  0.00     0.036 C 
ATOM     92  C   UNL A   1      33.311  28.471  26.589  1.00  0.00     0.036 C 
ATOM     93  C   UNL A   1      32.460  29.547  27.252  1.00  0.00     0.006 C 
ENDBRANCH  84  85
ENDBRANCH  79  84
ENDBRANCH  74  77
ENDBRANCH  72  73
ENDBRANCH  71  72
ENDBRANCH   1  71
TORSDOF 15
ENDMDL
MODEL 3
REMARK VINA RESULT:     -12.2      5.229      8.396
REMARK SMILES O=C(NCCCNC(=O)c1cccc(Br)c1O[C@@H]1CCOC2(CCC2)C1)c1ccc(-c2c3nc(c(-c4cc(S(=O)(=O)[O-])ccc4F)c4ccc([nH]4)c(-c4cc(S(=O)(=O)[O-])ccc4F)c4nc(c(-c5cc(S(=O)(=O)[O-])ccc5F)c5ccc2[nH]5)C=C4)C=C3)cc1
REMARK SMILES IDX 4 1 3 2 1 3 2 4 27 6 28 7 89 8 29 9 88 10 30 11 31 12 32 13
REMARK SMILES IDX 82 14 33 15 87 16 81 17 83 18 34 19 86 20 80 21 79 22 35 24
REMARK SMILES IDX 67 25 47 26 66 27 48 28 51 29 65 30 84 31 49 32 50 33 64 35
REMARK SMILES IDX 85 36 52 37 36 38 37 39 45 40 38 41 44 42 46 43 43 44 39 45
REMARK SMILES IDX 40 46 41 47 42 48 68 49 69 50 77 51 70 52 76 53 78 54 75 55
REMARK SMILES IDX 71 56 72 57 73 58 74 59 53 60 54 61 62 62 55 63 61 64 63 65
REMARK SMILES IDX 60 66 56 67 57 68 58 69 59 70 5 71 6 72 7 73 8 74 9 76 10 77
REMARK SMILES IDX 11 78 16 79 12 80 14 81 13 82 15 83 17 84 18 85 19 86 26 87
REMARK SMILES IDX 20 88 22 89 21 90 23 91 25 92 24 93
REMARK H PARENT 3 5 83 23 51 34 7 75
REMARK Flexibility Score: inf
ROOT
ATOM      1  C   UNL A   1      37.801  21.069  24.860  1.00  0.00     0.118 C 
ENDROOT
BRANCH   1   2
ATOM      2  N   UNL A   1      38.655  20.064  25.483  1.00  0.00    -0.352 N 
ATOM      3  O   UNL A   1      40.448  19.242  26.575  1.00  0.00    -0.269 OA
ATOM      4  C   UNL A   1      39.798  20.227  26.234  1.00  0.00     0.251 C 
ATOM      5  H   UNL A   1      38.372  19.132  25.347  1.00  0.00     0.163 HD
BRANCH   4   6
ATOM      6  C   UNL A   1      40.253  21.586  26.598  1.00  0.00     0.039 A 
ATOM      7  C   UNL A   1      39.759  22.702  25.923  1.00  0.00     0.014 A 
ATOM      8  C   UNL A   1      41.203  21.748  27.612  1.00  0.00     0.014 A 
ATOM      9  C   UNL A   1      40.349  23.943  26.117  1.00  0.00     0.010 A 
ATOM     10  C   UNL A   1      41.705  23.023  27.895  1.00  0.00     0.010 A 
ATOM     11  C   UNL A   1      41.310  24.127  27.124  1.00  0.00    -0.014 A 
BRANCH  11  12
ATOM     12  C   UNL A   1      41.824  25.498  27.384  1.00  0.00     0.031 A 
ATOM     13  C   UNL A   1      41.034  26.494  28.188  1.00  0.00     0.074 A 
ATOM     14  C   UNL A   1      43.046  25.822  26.916  1.00  0.00     0.049 A 
ATOM     15  N   UNL A   1      41.347  27.722  28.513  1.00  0.00    -0.248 NA
ATOM     16  C   UNL A   1      39.719  26.060  28.682  1.00  0.00     0.031 C 
ATOM     17  C   UNL A   1      43.905  24.933  26.125  1.00  0.00     0.029 A 
ATOM     18  N   UNL A   1      43.792  26.964  27.050  1.00  0.00    -0.354 N 
ATOM     19  C   UNL A   1      40.267  28.217  29.237  1.00  0.00     0.074 A 
ATOM     20  C   UNL A   1      39.274  27.164  29.268  1.00  0.00     0.031 C 
ATOM     21  C   UNL A   1      45.077  25.540  25.896  1.00  0.00     0.029 A 
ATOM     22  C   UNL A   1      45.022  26.891  26.438  1.00  0.00     0.049 A 
ATOM     23  H   UNL A   1      43.478  27.760  27.536  1.00  0.00     0.167 HD
ATOM     24  C   UNL A   1      40.126  29.432  29.825  1.00  0.00     0.034 A 
ATOM     25  C   UNL A   1      45.990  27.816  26.296  1.00  0.00     0.034 A 
ATOM     26  C   UNL A   1      41.131  30.470  29.775  1.00  0.00     0.049 A 
ATOM     27  C   UNL A   1      45.779  29.177  26.902  1.00  0.00     0.074 A 
ATOM     28  C   UNL A   1      41.100  31.727  30.356  1.00  0.00     0.029 A 
ATOM     29  N   UNL A   1      42.341  30.383  29.095  1.00  0.00    -0.354 N 
ATOM     30  N   UNL A   1      44.757  29.622  27.596  1.00  0.00    -0.248 NA
ATOM     31  C   UNL A   1      46.852  30.158  26.707  1.00  0.00     0.031 C 
ATOM     32  C   UNL A   1      42.246  32.425  29.959  1.00  0.00     0.029 A 
ATOM     33  C   UNL A   1      43.042  31.575  29.211  1.00  0.00     0.049 A 
ATOM     34  H   UNL A   1      42.654  29.589  28.603  1.00  0.00     0.167 HD
ATOM     35  C   UNL A   1      45.079  30.930  27.945  1.00  0.00     0.074 A 
ATOM     36  C   UNL A   1      46.398  31.189  27.404  1.00  0.00     0.031 C 
ATOM     37  C   UNL A   1      44.351  31.831  28.652  1.00  0.00     0.034 A 
BRANCH  24  38
ATOM     38  C   UNL A   1      38.820  29.725  30.528  1.00  0.00     0.023 A 
ATOM     39  C   UNL A   1      37.805  30.489  29.925  1.00  0.00     0.031 A 
ATOM     40  C   UNL A   1      38.588  29.239  31.828  1.00  0.00     0.131 A 
ATOM     41  C   UNL A   1      36.640  30.802  30.644  1.00  0.00     0.055 A 
ATOM     42  C   UNL A   1      37.391  29.482  32.506  1.00  0.00     0.041 A 
ATOM     43  F   UNL A   1      39.526  28.523  32.467  1.00  0.00    -0.206 F 
ATOM     44  C   UNL A   1      36.414  30.280  31.920  1.00  0.00     0.022 A 
BRANCH  41  45
ATOM     45  S   UNL A   1      35.491  32.020  29.947  1.00  0.00     0.124 S 
ATOM     46  O   UNL A   1      36.399  33.099  29.564  1.00  0.00    -0.237 OA
ATOM     47  O   UNL A   1      34.879  31.284  28.848  1.00  0.00    -0.237 OA
ATOM     48  O   UNL A   1      34.601  32.332  31.063  1.00  0.00    -0.744 OA
ENDBRANCH  41  45
ENDBRANCH  24  38
BRANCH  25  49
ATOM     49  C   UNL A   1      47.221  27.502  25.515  1.00  0.00     0.023 A 
ATOM     50  C   UNL A   1      47.312  27.812  24.150  1.00  0.00     0.031 A 
ATOM     51  C   UNL A   1      48.314  26.853  26.118  1.00  0.00     0.131 A 
ATOM     52  C   UNL A   1      48.449  27.428  23.423  1.00  0.00     0.055 A 
ATOM     53  C   UNL A   1      49.470  26.534  25.407  1.00  0.00     0.041 A 
ATOM     54  F   UNL A   1      48.279  26.534  27.423  1.00  0.00    -0.206 F 
ATOM     55  C   UNL A   1      49.536  26.809  24.045  1.00  0.00     0.022 A 
BRANCH  52  56
ATOM     56  S   UNL A   1      48.444  27.657  21.625  1.00  0.00     0.124 S 
ATOM     57  O   UNL A   1      49.551  28.587  21.441  1.00  0.00    -0.237 OA
ATOM     58  O   UNL A   1      48.662  26.296  21.145  1.00  0.00    -0.237 OA
ATOM     59  O   UNL A   1      47.116  28.204  21.356  1.00  0.00    -0.744 OA
ENDBRANCH  52  56
ENDBRANCH  25  49
BRANCH  37  60
ATOM     60  C   UNL A   1      44.998  33.170  28.919  1.00  0.00     0.023 A 
ATOM     61  C   UNL A   1      44.912  34.233  28.002  1.00  0.00     0.031 A 
ATOM     62  C   UNL A   1      45.734  33.376  30.099  1.00  0.00     0.131 A 
ATOM     63  C   UNL A   1      45.609  35.426  28.247  1.00  0.00     0.055 A 
ATOM     64  C   UNL A   1      46.363  34.591  30.373  1.00  0.00     0.041 A 
ATOM     65  F   UNL A   1      45.857  32.396  31.009  1.00  0.00    -0.206 F 
ATOM     66  C   UNL A   1      46.315  35.620  29.437  1.00  0.00     0.022 A 
BRANCH  63  67
ATOM     67  S   UNL A   1      45.675  36.680  26.939  1.00  0.00     0.124 S 
ATOM     68  O   UNL A   1      46.136  35.900  25.795  1.00  0.00    -0.237 OA
ATOM     69  O   UNL A   1      44.292  37.143  26.879  1.00  0.00    -0.237 OA
ATOM     70  O   UNL A   1      46.633  37.658  27.449  1.00  0.00    -0.744 OA
ENDBRANCH  63  67
ENDBRANCH  37  60
ENDBRANCH  11  12
ENDBRANCH   4   6
ENDBRANCH   1   2
BRANCH   1  71
ATOM     71  C   UNL A   1      36.435  21.191  25.510  1.00  0.00     0.042 C 
BRANCH  71  72
ATOM     72  C   UNL A   1      36.052  22.608  25.898  1.00  0.00     0.118 C 
BRANCH  72  73
ATOM     73  N   UNL A   1      35.030  22.669  26.941  1.00  0.00    -0.352 N 
ATOM     74  C   UNL A   1      33.673  22.432  26.874  1.00  0.00     0.255 C 
ATOM     75  H   UNL A   1      35.363  22.920  27.833  1.00  0.00     0.163 HD
ATOM     76  O   UNL A   1      32.977  22.541  27.876  1.00  0.00    -0.269 OA
BRANCH  74  77
ATOM     77  C   UNL A   1      33.099  21.986  25.589  1.00  0.00     0.083 A 
ATOM     78  C   UNL A   1      32.611  20.682  25.540  1.00  0.00     0.018 A 
ATOM     79  C   UNL A   1      33.097  22.819  24.445  1.00  0.00     0.146 A 
ATOM     80  C   UNL A   1      32.252  20.142  24.330  1.00  0.00     0.002 A 
ATOM     81  C   UNL A   1      32.819  22.337  23.091  1.00  0.00     0.060 A 
ATOM     82  C   UNL A   1      32.382  20.909  23.160  1.00  0.00     0.019 A 
ATOM     83  Br  UNL A   1      32.994  23.880  21.013  1.00  0.00    -0.047 Br
BRANCH  79  84
ATOM     84  O   UNL A   1      33.320  24.145  24.652  1.00  0.00    -0.488 OA
BRANCH  84  85
ATOM     85  C   UNL A   1      32.023  24.403  25.082  1.00  0.00     0.178 C 
ATOM     86  C   UNL A   1      31.081  24.992  23.486  1.00  0.00     0.074 C 
ATOM     87  C   UNL A   1      32.383  25.618  26.538  1.00  0.00     0.080 C 
ATOM     88  C   UNL A   1      30.546  26.842  23.394  1.00  0.00     0.165 C 
ATOM     89  C   UNL A   1      31.953  27.449  26.262  1.00  0.00     0.072 C 
ATOM     90  O   UNL A   1      30.951  27.936  24.822  1.00  0.00    -0.375 OA
ATOM     91  C   UNL A   1      31.405  28.194  27.547  1.00  0.00     0.036 C 
ATOM     92  C   UNL A   1      33.284  28.249  26.572  1.00  0.00     0.036 C 
ATOM     93  C   UNL A   1      32.427  29.309  27.251  1.00  0.00     0.006 C 
ENDBRANCH  84  85
ENDBRANCH  79  84
ENDBRANCH  74  77
ENDBRANCH  72  73
ENDBRANCH  71  72
ENDBRANCH   1  71
TORSDOF 15
ENDMDL
