MODEL 1
REMARK VINA RESULT:     -12.4      0.000      0.000
REMARK SMILES Cc1cc(C)n(CC(=O)N[C@H]2C=C[C@@H](C(=O)NCCCNC(=O)c3ccc(-c4c5nc(c(-c6cc(S(=O)(=O)[O-])ccc6F)c6ccc([nH]6)c(-c6cc(S(=O)(=O)[O-])ccc6F)c6nc(c(-c7cc(S(=O)(=O)[O-])ccc7F)c7ccc4[nH]7)C=C6)C=C5)cc3)C2)n1
REMARK SMILES IDX 19 1 18 2 17 3 15 4 16 5 14 7 11 8 12 9 87 10 13 11 10 12
REMARK SMILES IDX 8 13 9 14 7 16 6 17 1 18 2 19 3 20 88 21 4 22 5 23 20 24
REMARK SMILES IDX 21 25 22 26 23 28 24 29 25 30 86 31 26 32 85 33 27 34 28 35
REMARK SMILES IDX 29 36 79 37 30 38 84 39 78 40 80 41 31 42 83 43 77 44 76 45
REMARK SMILES IDX 32 47 64 48 44 49 63 50 45 51 48 52 62 53 81 54 46 55 47 56
REMARK SMILES IDX 61 58 82 59 49 60 33 61 34 62 42 63 35 64 41 65 43 66 40 67
REMARK SMILES IDX 36 68 37 69 38 70 39 71 65 72 66 73 74 74 67 75 73 76 75 77
REMARK SMILES IDX 72 78 68 79 69 80 70 81 71 82 50 83 51 84 59 85 52 86 58 87
REMARK SMILES IDX 60 88 57 89 53 90 54 91 55 92 56 93
REMARK H PARENT 17 6 10 15 21 27 80 46 48 57
REMARK Flexibility Score: inf
ROOT
ATOM      1  C   UNL A   1      31.312  31.554  25.959  1.00  0.00     0.042 C 
ENDROOT
BRANCH   1   2
ATOM      2  C   UNL A   1      31.447  30.081  25.572  1.00  0.00     0.117 C 
BRANCH   2   3
ATOM      3  N   UNL A   1      32.442  29.828  24.531  1.00  0.00    -0.356 N 
ATOM      4  C   UNL A   1      32.589  28.912  23.529  1.00  0.00     0.227 C 
ATOM      5  O   UNL A   1      33.546  29.108  22.763  1.00  0.00    -0.274 OA
ATOM      6  H   UNL A   1      33.185  30.473  24.560  1.00  0.00     0.163 HD
BRANCH   4   7
ATOM      7  C   UNL A   1      31.641  27.724  23.209  1.00  0.00     0.103 C 
ATOM      8  C   UNL A   1      30.828  25.666  24.336  1.00  0.00     0.106 C 
ATOM      9  C   UNL A   1      29.782  26.724  24.265  1.00  0.00    -0.006 C 
ATOM     10  C   UNL A   1      32.042  26.286  23.632  1.00  0.00     0.047 C 
ATOM     11  C   UNL A   1      30.211  27.817  23.623  1.00  0.00    -0.016 C 
BRANCH   8  12
ATOM     12  N   UNL A   1      30.951  25.102  25.674  1.00  0.00    -0.348 N 
ATOM     13  C   UNL A   1      31.429  23.941  26.204  1.00  0.00     0.242 C 
ATOM     14  O   UNL A   1      31.400  23.823  27.433  1.00  0.00    -0.273 OA
ATOM     15  H   UNL A   1      30.604  25.710  26.366  1.00  0.00     0.164 HD
BRANCH  13  16
ATOM     16  C   UNL A   1      32.066  22.894  25.355  1.00  0.00     0.244 C 
BRANCH  16  17
ATOM     17  N   UNL A   1      33.387  23.223  24.839  1.00  0.00    -0.260 N 
ATOM     18  C   UNL A   1      36.751  23.824  25.766  1.00  0.00     0.069 C 
ATOM     19  C   UNL A   1      35.487  23.552  25.038  1.00  0.00     0.060 A 
ATOM     20  C   UNL A   1      35.227  23.454  23.660  1.00  0.00     0.048 A 
ATOM     21  N   UNL A   1      34.380  23.313  25.733  1.00  0.00    -0.178 NA
ATOM     22  C   UNL A   1      33.879  23.159  23.558  1.00  0.00     0.036 A 
ATOM     23  C   UNL A   1      33.065  22.803  22.377  1.00  0.00     0.066 C 
ENDBRANCH  16  17
ENDBRANCH  13  16
ENDBRANCH   8  12
ENDBRANCH   4   7
ENDBRANCH   2   3
ENDBRANCH   1   2
BRANCH   1  24
ATOM     24  C   UNL A   1      32.086  32.009  27.167  1.00  0.00     0.118 C 
BRANCH  24  25
ATOM     25  N   UNL A   1      32.117  33.458  27.345  1.00  0.00    -0.352 N 
ATOM     26  C   UNL A   1      32.959  34.222  28.150  1.00  0.00     0.251 C 
ATOM     27  H   UNL A   1      31.452  33.965  26.826  1.00  0.00     0.163 HD
ATOM     28  O   UNL A   1      32.662  35.379  28.406  1.00  0.00    -0.269 OA
BRANCH  26  29
ATOM     29  C   UNL A   1      34.208  33.620  28.691  1.00  0.00     0.039 A 
ATOM     30  C   UNL A   1      34.325  33.144  30.003  1.00  0.00     0.014 A 
ATOM     31  C   UNL A   1      35.300  33.524  27.844  1.00  0.00     0.014 A 
ATOM     32  C   UNL A   1      35.562  32.641  30.422  1.00  0.00     0.010 A 
ATOM     33  C   UNL A   1      36.334  32.699  28.141  1.00  0.00     0.010 A 
ATOM     34  C   UNL A   1      36.578  32.470  29.473  1.00  0.00    -0.014 A 
BRANCH  34  35
ATOM     35  C   UNL A   1      37.911  31.960  29.740  1.00  0.00     0.031 A 
ATOM     36  C   UNL A   1      38.059  30.562  29.300  1.00  0.00     0.074 A 
ATOM     37  C   UNL A   1      38.964  32.770  30.018  1.00  0.00     0.049 A 
ATOM     38  N   UNL A   1      37.991  29.506  30.037  1.00  0.00    -0.248 NA
ATOM     39  C   UNL A   1      37.993  30.282  27.853  1.00  0.00     0.031 C 
ATOM     40  C   UNL A   1      38.993  34.239  30.108  1.00  0.00     0.029 A 
ATOM     41  N   UNL A   1      40.279  32.454  30.172  1.00  0.00    -0.354 N 
ATOM     42  C   UNL A   1      38.228  28.455  29.163  1.00  0.00     0.074 A 
ATOM     43  C   UNL A   1      37.870  28.954  27.867  1.00  0.00     0.031 C 
ATOM     44  C   UNL A   1      40.273  34.678  30.085  1.00  0.00     0.029 A 
ATOM     45  C   UNL A   1      41.166  33.533  30.128  1.00  0.00     0.049 A 
ATOM     46  H   UNL A   1      40.583  31.528  30.304  1.00  0.00     0.167 HD
ATOM     47  C   UNL A   1      39.049  27.431  29.526  1.00  0.00     0.034 A 
ATOM     48  C   UNL A   1      42.532  33.481  30.107  1.00  0.00     0.034 A 
ATOM     49  C   UNL A   1      39.318  27.483  30.956  1.00  0.00     0.049 A 
ATOM     50  C   UNL A   1      42.902  32.139  30.633  1.00  0.00     0.074 A 
ATOM     51  C   UNL A   1      38.525  27.520  32.088  1.00  0.00     0.029 A 
ATOM     52  N   UNL A   1      40.554  27.946  31.360  1.00  0.00    -0.354 N 
ATOM     53  N   UNL A   1      42.657  31.762  31.858  1.00  0.00    -0.248 NA
ATOM     54  C   UNL A   1      43.044  31.054  29.671  1.00  0.00     0.031 C 
ATOM     55  C   UNL A   1      39.160  28.462  32.953  1.00  0.00     0.029 A 
ATOM     56  C   UNL A   1      40.363  28.862  32.366  1.00  0.00     0.049 A 
ATOM     57  H   UNL A   1      41.424  27.668  30.991  1.00  0.00     0.167 HD
ATOM     58  C   UNL A   1      42.168  30.468  31.744  1.00  0.00     0.074 A 
ATOM     59  C   UNL A   1      42.520  30.052  30.386  1.00  0.00     0.031 C 
ATOM     60  C   UNL A   1      41.257  29.976  32.639  1.00  0.00     0.034 A 
BRANCH  47  61
ATOM     61  C   UNL A   1      39.950  26.665  28.576  1.00  0.00     0.023 A 
ATOM     62  C   UNL A   1      40.991  27.401  27.984  1.00  0.00     0.031 A 
ATOM     63  C   UNL A   1      39.712  25.390  28.009  1.00  0.00     0.131 A 
ATOM     64  C   UNL A   1      41.625  26.952  26.815  1.00  0.00     0.055 A 
ATOM     65  C   UNL A   1      40.393  24.917  26.884  1.00  0.00     0.041 A 
ATOM     66  F   UNL A   1      38.768  24.552  28.444  1.00  0.00    -0.206 F 
ATOM     67  C   UNL A   1      41.329  25.715  26.255  1.00  0.00     0.022 A 
BRANCH  64  68
ATOM     68  S   UNL A   1      42.705  28.108  25.944  1.00  0.00     0.124 S 
ATOM     69  O   UNL A   1      44.002  27.787  26.532  1.00  0.00    -0.237 OA
ATOM     70  O   UNL A   1      42.510  27.708  24.554  1.00  0.00    -0.237 OA
ATOM     71  O   UNL A   1      42.159  29.415  26.301  1.00  0.00    -0.744 OA
ENDBRANCH  64  68
ENDBRANCH  47  61
BRANCH  48  72
ATOM     72  C   UNL A   1      43.492  34.363  29.369  1.00  0.00     0.023 A 
ATOM     73  C   UNL A   1      44.096  34.012  28.136  1.00  0.00     0.031 A 
ATOM     74  C   UNL A   1      43.627  35.714  29.763  1.00  0.00     0.131 A 
ATOM     75  C   UNL A   1      44.787  34.986  27.366  1.00  0.00     0.055 A 
ATOM     76  C   UNL A   1      44.304  36.670  28.999  1.00  0.00     0.041 A 
ATOM     77  F   UNL A   1      43.026  36.175  30.871  1.00  0.00    -0.206 F 
ATOM     78  C   UNL A   1      44.879  36.312  27.791  1.00  0.00     0.022 A 
BRANCH  75  79
ATOM     79  S   UNL A   1      45.516  34.569  25.741  1.00  0.00     0.124 S 
ATOM     80  O   UNL A   1      46.373  35.719  25.478  1.00  0.00    -0.237 OA
ATOM     81  O   UNL A   1      46.189  33.304  26.011  1.00  0.00    -0.237 OA
ATOM     82  O   UNL A   1      44.351  34.462  24.859  1.00  0.00    -0.744 OA
ENDBRANCH  75  79
ENDBRANCH  48  72
BRANCH  60  83
ATOM     83  C   UNL A   1      41.028  30.739  33.933  1.00  0.00     0.023 A 
ATOM     84  C   UNL A   1      39.948  31.617  34.195  1.00  0.00     0.031 A 
ATOM     85  C   UNL A   1      41.905  30.458  34.995  1.00  0.00     0.131 A 
ATOM     86  C   UNL A   1      39.791  32.179  35.481  1.00  0.00     0.055 A 
ATOM     87  C   UNL A   1      41.734  30.996  36.269  1.00  0.00     0.041 A 
ATOM     88  F   UNL A   1      42.938  29.615  34.820  1.00  0.00    -0.206 F 
ATOM     89  C   UNL A   1      40.678  31.864  36.515  1.00  0.00     0.022 A 
BRANCH  86  90
ATOM     90  S   UNL A   1      38.441  33.354  35.835  1.00  0.00     0.124 S 
ATOM     91  O   UNL A   1      37.235  32.589  35.543  1.00  0.00    -0.237 OA
ATOM     92  O   UNL A   1      38.666  33.681  37.241  1.00  0.00    -0.237 OA
ATOM     93  O   UNL A   1      38.700  34.460  34.909  1.00  0.00    -0.744 OA
ENDBRANCH  86  90
ENDBRANCH  60  83
ENDBRANCH  34  35
ENDBRANCH  26  29
ENDBRANCH  24  25
ENDBRANCH   1  24
TORSDOF 16
ENDMDL
MODEL 2
REMARK VINA RESULT:     -12.2      4.373      9.736
REMARK SMILES Cc1cc(C)n(CC(=O)N[C@H]2C=C[C@@H](C(=O)NCCCNC(=O)c3ccc(-c4c5nc(c(-c6cc(S(=O)(=O)[O-])ccc6F)c6ccc([nH]6)c(-c6cc(S(=O)(=O)[O-])ccc6F)c6nc(c(-c7cc(S(=O)(=O)[O-])ccc7F)c7ccc4[nH]7)C=C6)C=C5)cc3)C2)n1
REMARK SMILES IDX 19 1 18 2 17 3 15 4 16 5 14 7 11 8 12 9 87 10 13 11 10 12
REMARK SMILES IDX 8 13 9 14 7 16 6 17 1 18 2 19 3 20 88 21 4 22 5 23 20 24
REMARK SMILES IDX 21 25 22 26 23 28 24 29 25 30 86 31 26 32 85 33 27 34 28 35
REMARK SMILES IDX 29 36 79 37 30 38 84 39 78 40 80 41 31 42 83 43 77 44 76 45
REMARK SMILES IDX 32 47 64 48 44 49 63 50 45 51 48 52 62 53 81 54 46 55 47 56
REMARK SMILES IDX 61 58 82 59 49 60 33 61 34 62 42 63 35 64 41 65 43 66 40 67
REMARK SMILES IDX 36 68 37 69 38 70 39 71 65 72 66 73 74 74 67 75 73 76 75 77
REMARK SMILES IDX 72 78 68 79 69 80 70 81 71 82 50 83 51 84 59 85 52 86 58 87
REMARK SMILES IDX 60 88 57 89 53 90 54 91 55 92 56 93
REMARK H PARENT 17 6 10 15 21 27 80 46 48 57
REMARK Flexibility Score: inf
ROOT
ATOM      1  C   UNL A   1      37.614  19.326  25.061  1.00  0.00     0.042 C 
ENDROOT
BRANCH   1   2
ATOM      2  C   UNL A   1      36.444  20.222  24.653  1.00  0.00     0.117 C 
BRANCH   2   3
ATOM      3  N   UNL A   1      35.700  20.780  25.781  1.00  0.00    -0.356 N 
ATOM      4  C   UNL A   1      35.115  21.982  26.059  1.00  0.00     0.227 C 
ATOM      5  O   UNL A   1      34.461  22.025  27.114  1.00  0.00    -0.274 OA
ATOM      6  H   UNL A   1      35.595  20.134  26.516  1.00  0.00     0.163 HD
BRANCH   4   7
ATOM      7  C   UNL A   1      35.115  23.247  25.159  1.00  0.00     0.103 C 
ATOM      8  C   UNL A   1      33.452  24.652  23.964  1.00  0.00     0.106 C 
ATOM      9  C   UNL A   1      33.992  25.324  25.178  1.00  0.00    -0.006 C 
ATOM     10  C   UNL A   1      34.186  23.306  23.917  1.00  0.00     0.047 C 
ATOM     11  C   UNL A   1      34.916  24.581  25.798  1.00  0.00    -0.016 C 
BRANCH   8  12
ATOM     12  N   UNL A   1      31.997  24.707  23.905  1.00  0.00    -0.348 N 
ATOM     13  C   UNL A   1      31.070  25.628  23.517  1.00  0.00     0.242 C 
ATOM     14  O   UNL A   1      29.881  25.298  23.578  1.00  0.00    -0.273 OA
ATOM     15  H   UNL A   1      31.581  23.875  24.224  1.00  0.00     0.164 HD
BRANCH  13  16
ATOM     16  C   UNL A   1      31.465  26.943  22.936  1.00  0.00     0.244 C 
BRANCH  16  17
ATOM     17  N   UNL A   1      31.987  27.916  23.885  1.00  0.00    -0.260 N 
ATOM     18  C   UNL A   1      31.727  29.090  27.214  1.00  0.00     0.069 C 
ATOM     19  C   UNL A   1      32.146  28.802  25.820  1.00  0.00     0.060 A 
ATOM     20  C   UNL A   1      33.206  29.321  25.057  1.00  0.00     0.048 A 
ATOM     21  N   UNL A   1      31.482  27.884  25.124  1.00  0.00    -0.178 NA
ATOM     22  C   UNL A   1      33.133  28.672  23.836  1.00  0.00     0.036 A 
ATOM     23  C   UNL A   1      34.060  28.697  22.684  1.00  0.00     0.066 C 
ENDBRANCH  16  17
ENDBRANCH  13  16
ENDBRANCH   8  12
ENDBRANCH   4   7
ENDBRANCH   2   3
ENDBRANCH   1   2
BRANCH   1  24
ATOM     24  C   UNL A   1      38.908  20.017  25.396  1.00  0.00     0.118 C 
BRANCH  24  25
ATOM     25  N   UNL A   1      40.002  19.108  25.728  1.00  0.00    -0.352 N 
ATOM     26  C   UNL A   1      41.312  19.412  26.092  1.00  0.00     0.251 C 
ATOM     27  H   UNL A   1      39.784  18.149  25.689  1.00  0.00     0.163 HD
ATOM     28  O   UNL A   1      42.167  18.541  26.047  1.00  0.00    -0.269 OA
BRANCH  26  29
ATOM     29  C   UNL A   1      41.655  20.793  26.525  1.00  0.00     0.039 A 
ATOM     30  C   UNL A   1      42.230  21.745  25.674  1.00  0.00     0.014 A 
ATOM     31  C   UNL A   1      41.380  21.147  27.837  1.00  0.00     0.014 A 
ATOM     32  C   UNL A   1      42.556  23.000  26.200  1.00  0.00     0.010 A 
ATOM     33  C   UNL A   1      41.343  22.451  28.207  1.00  0.00     0.010 A 
ATOM     34  C   UNL A   1      42.139  23.317  27.500  1.00  0.00    -0.014 A 
BRANCH  34  35
ATOM     35  C   UNL A   1      42.392  24.569  28.190  1.00  0.00     0.031 A 
ATOM     36  C   UNL A   1      41.267  25.510  28.043  1.00  0.00     0.074 A 
ATOM     37  C   UNL A   1      43.360  24.706  29.131  1.00  0.00     0.049 A 
ATOM     38  N   UNL A   1      41.186  26.497  27.217  1.00  0.00    -0.248 NA
ATOM     39  C   UNL A   1      39.982  25.155  28.675  1.00  0.00     0.031 C 
ATOM     40  C   UNL A   1      44.307  23.693  29.627  1.00  0.00     0.029 A 
ATOM     41  N   UNL A   1      43.636  25.766  29.938  1.00  0.00    -0.354 N 
ATOM     42  C   UNL A   1      39.960  27.084  27.496  1.00  0.00     0.074 A 
ATOM     43  C   UNL A   1      39.174  26.047  28.101  1.00  0.00     0.031 C 
ATOM     44  C   UNL A   1      44.886  24.125  30.772  1.00  0.00     0.029 A 
ATOM     45  C   UNL A   1      44.476  25.496  31.022  1.00  0.00     0.049 A 
ATOM     46  H   UNL A   1      43.269  26.663  29.769  1.00  0.00     0.167 HD
ATOM     47  C   UNL A   1      39.846  28.440  27.561  1.00  0.00     0.034 A 
ATOM     48  C   UNL A   1      44.788  26.333  32.056  1.00  0.00     0.034 A 
ATOM     49  C   UNL A   1      41.037  29.072  27.012  1.00  0.00     0.049 A 
ATOM     50  C   UNL A   1      44.491  27.709  31.576  1.00  0.00     0.074 A 
ATOM     51  C   UNL A   1      41.712  28.982  25.809  1.00  0.00     0.029 A 
ATOM     52  N   UNL A   1      41.944  29.613  27.901  1.00  0.00    -0.354 N 
ATOM     53  N   UNL A   1      45.137  28.276  30.593  1.00  0.00    -0.248 NA
ATOM     54  C   UNL A   1      43.154  28.234  31.818  1.00  0.00     0.031 C 
ATOM     55  C   UNL A   1      43.095  28.986  26.161  1.00  0.00     0.029 A 
ATOM     56  C   UNL A   1      43.202  29.198  27.538  1.00  0.00     0.049 A 
ATOM     57  H   UNL A   1      41.727  30.195  28.664  1.00  0.00     0.167 HD
ATOM     58  C   UNL A   1      44.155  28.881  29.821  1.00  0.00     0.074 A 
ATOM     59  C   UNL A   1      42.967  28.904  30.676  1.00  0.00     0.031 C 
ATOM     60  C   UNL A   1      44.305  29.019  28.468  1.00  0.00     0.034 A 
BRANCH  47  61
ATOM     61  C   UNL A   1      38.906  29.186  28.489  1.00  0.00     0.023 A 
ATOM     62  C   UNL A   1      39.215  29.126  29.859  1.00  0.00     0.031 A 
ATOM     63  C   UNL A   1      37.624  29.698  28.179  1.00  0.00     0.131 A 
ATOM     64  C   UNL A   1      38.246  29.407  30.835  1.00  0.00     0.055 A 
ATOM     65  C   UNL A   1      36.684  30.042  29.155  1.00  0.00     0.041 A 
ATOM     66  F   UNL A   1      37.162  29.832  26.933  1.00  0.00    -0.206 F 
ATOM     67  C   UNL A   1      36.976  29.860  30.493  1.00  0.00     0.022 A 
BRANCH  64  68
ATOM     68  S   UNL A   1      38.626  28.983  32.549  1.00  0.00     0.124 S 
ATOM     69  O   UNL A   1      37.402  28.300  32.953  1.00  0.00    -0.237 OA
ATOM     70  O   UNL A   1      39.812  28.147  32.393  1.00  0.00    -0.237 OA
ATOM     71  O   UNL A   1      38.856  30.283  33.174  1.00  0.00    -0.744 OA
ENDBRANCH  64  68
ENDBRANCH  47  61
BRANCH  48  72
ATOM     72  C   UNL A   1      45.002  25.998  33.501  1.00  0.00     0.023 A 
ATOM     73  C   UNL A   1      44.005  26.144  34.498  1.00  0.00     0.031 A 
ATOM     74  C   UNL A   1      46.152  25.267  33.875  1.00  0.00     0.131 A 
ATOM     75  C   UNL A   1      44.184  25.572  35.787  1.00  0.00     0.055 A 
ATOM     76  C   UNL A   1      46.321  24.703  35.144  1.00  0.00     0.041 A 
ATOM     77  F   UNL A   1      47.121  24.999  32.986  1.00  0.00    -0.206 F 
ATOM     78  C   UNL A   1      45.332  24.844  36.103  1.00  0.00     0.022 A 
BRANCH  75  79
ATOM     79  S   UNL A   1      42.882  25.690  37.066  1.00  0.00     0.124 S 
ATOM     80  O   UNL A   1      41.844  24.812  36.538  1.00  0.00    -0.237 OA
ATOM     81  O   UNL A   1      43.574  25.232  38.265  1.00  0.00    -0.237 OA
ATOM     82  O   UNL A   1      42.533  27.113  37.072  1.00  0.00    -0.744 OA
ENDBRANCH  75  79
ENDBRANCH  48  72
BRANCH  60  83
ATOM     83  C   UNL A   1      45.682  28.794  27.866  1.00  0.00     0.023 A 
ATOM     84  C   UNL A   1      46.195  27.554  27.414  1.00  0.00     0.031 A 
ATOM     85  C   UNL A   1      46.465  29.940  27.638  1.00  0.00     0.131 A 
ATOM     86  C   UNL A   1      47.451  27.502  26.771  1.00  0.00     0.055 A 
ATOM     87  C   UNL A   1      47.694  29.888  26.982  1.00  0.00     0.041 A 
ATOM     88  F   UNL A   1      46.027  31.151  28.022  1.00  0.00    -0.206 F 
ATOM     89  C   UNL A   1      48.194  28.666  26.551  1.00  0.00     0.022 A 
BRANCH  86  90
ATOM     90  S   UNL A   1      48.163  25.913  26.225  1.00  0.00     0.124 S 
ATOM     91  O   UNL A   1      47.730  24.972  27.251  1.00  0.00    -0.237 OA
ATOM     92  O   UNL A   1      47.567  25.736  24.903  1.00  0.00    -0.237 OA
ATOM     93  O   UNL A   1      49.605  26.174  26.207  1.00  0.00    -0.744 OA
ENDBRANCH  86  90
ENDBRANCH  60  83
ENDBRANCH  34  35
ENDBRANCH  26  29
ENDBRANCH  24  25
ENDBRANCH   1  24
TORSDOF 16
ENDMDL
MODEL 3
REMARK VINA RESULT:     -12.0      3.007      7.702
REMARK SMILES Cc1cc(C)n(CC(=O)N[C@H]2C=C[C@@H](C(=O)NCCCNC(=O)c3ccc(-c4c5nc(c(-c6cc(S(=O)(=O)[O-])ccc6F)c6ccc([nH]6)c(-c6cc(S(=O)(=O)[O-])ccc6F)c6nc(c(-c7cc(S(=O)(=O)[O-])ccc7F)c7ccc4[nH]7)C=C6)C=C5)cc3)C2)n1
REMARK SMILES IDX 19 1 18 2 17 3 15 4 16 5 14 7 11 8 12 9 87 10 13 11 10 12
REMARK SMILES IDX 8 13 9 14 7 16 6 17 1 18 2 19 3 20 88 21 4 22 5 23 20 24
REMARK SMILES IDX 21 25 22 26 23 28 24 29 25 30 86 31 26 32 85 33 27 34 28 35
REMARK SMILES IDX 29 36 79 37 30 38 84 39 78 40 80 41 31 42 83 43 77 44 76 45
REMARK SMILES IDX 32 47 64 48 44 49 63 50 45 51 48 52 62 53 81 54 46 55 47 56
REMARK SMILES IDX 61 58 82 59 49 60 33 61 34 62 42 63 35 64 41 65 43 66 40 67
REMARK SMILES IDX 36 68 37 69 38 70 39 71 65 72 66 73 74 74 67 75 73 76 75 77
REMARK SMILES IDX 72 78 68 79 69 80 70 81 71 82 50 83 51 84 59 85 52 86 58 87
REMARK SMILES IDX 60 88 57 89 53 90 54 91 55 92 56 93
REMARK H PARENT 17 6 10 15 21 27 80 46 48 57
REMARK Flexibility Score: inf
ROOT
ATOM      1  C   UNL A   1      36.988  23.401  25.934  1.00  0.00     0.042 C 
ENDROOT
BRANCH   1   2
ATOM      2  C   UNL A   1      36.734  22.160  25.078  1.00  0.00     0.117 C 
BRANCH   2   3
ATOM      3  N   UNL A   1      35.977  22.425  23.856  1.00  0.00    -0.356 N 
ATOM      4  C   UNL A   1      34.844  23.121  23.546  1.00  0.00     0.227 C 
ATOM      5  O   UNL A   1      34.581  23.200  22.336  1.00  0.00    -0.274 OA
ATOM      6  H   UNL A   1      36.381  21.998  23.066  1.00  0.00     0.163 HD
BRANCH   4   7
ATOM      7  C   UNL A   1      33.920  23.882  24.535  1.00  0.00     0.103 C 
ATOM      8  C   UNL A   1      32.845  26.115  24.697  1.00  0.00     0.106 C 
ATOM      9  C   UNL A   1      31.869  25.039  24.369  1.00  0.00    -0.006 C 
ATOM     10  C   UNL A   1      34.186  25.382  24.835  1.00  0.00     0.047 C 
ATOM     11  C   UNL A   1      32.445  23.832  24.321  1.00  0.00    -0.016 C 
BRANCH   8  12
ATOM     12  N   UNL A   1      32.714  27.266  23.814  1.00  0.00    -0.348 N 
ATOM     13  C   UNL A   1      32.149  28.503  23.900  1.00  0.00     0.242 C 
ATOM     14  O   UNL A   1      32.270  29.252  22.925  1.00  0.00    -0.273 OA
ATOM     15  H   UNL A   1      33.139  27.113  22.940  1.00  0.00     0.164 HD
BRANCH  13  16
ATOM     16  C   UNL A   1      31.502  28.986  25.153  1.00  0.00     0.244 C 
BRANCH  16  17
ATOM     17  N   UNL A   1      32.394  29.618  26.115  1.00  0.00    -0.260 N 
ATOM     18  C   UNL A   1      35.606  29.427  27.592  1.00  0.00     0.069 C 
ATOM     19  C   UNL A   1      34.259  29.843  27.129  1.00  0.00     0.060 A 
ATOM     20  C   UNL A   1      33.506  30.993  27.420  1.00  0.00     0.048 A 
ATOM     21  N   UNL A   1      33.608  29.073  26.262  1.00  0.00    -0.178 NA
ATOM     22  C   UNL A   1      32.338  30.864  26.689  1.00  0.00     0.036 A 
ATOM     23  C   UNL A   1      31.231  31.822  26.480  1.00  0.00     0.066 C 
ENDBRANCH  16  17
ENDBRANCH  13  16
ENDBRANCH   8  12
ENDBRANCH   4   7
ENDBRANCH   2   3
ENDBRANCH   1   2
BRANCH   1  24
ATOM     24  C   UNL A   1      38.425  23.805  26.129  1.00  0.00     0.118 C 
BRANCH  24  25
ATOM     25  N   UNL A   1      39.219  22.839  26.884  1.00  0.00    -0.352 N 
ATOM     26  C   UNL A   1      40.343  23.061  27.677  1.00  0.00     0.251 C 
ATOM     27  H   UNL A   1      38.920  21.903  26.825  1.00  0.00     0.163 HD
ATOM     28  O   UNL A   1      41.052  22.119  27.993  1.00  0.00    -0.269 OA
BRANCH  26  29
ATOM     29  C   UNL A   1      40.668  24.442  28.124  1.00  0.00     0.039 A 
ATOM     30  C   UNL A   1      41.971  24.872  28.405  1.00  0.00     0.014 A 
ATOM     31  C   UNL A   1      39.623  25.342  28.261  1.00  0.00     0.014 A 
ATOM     32  C   UNL A   1      42.158  26.180  28.865  1.00  0.00     0.010 A 
ATOM     33  C   UNL A   1      39.863  26.674  28.328  1.00  0.00     0.010 A 
ATOM     34  C   UNL A   1      41.067  27.059  28.863  1.00  0.00    -0.014 A 
BRANCH  34  35
ATOM     35  C   UNL A   1      41.092  28.442  29.304  1.00  0.00     0.031 A 
ATOM     36  C   UNL A   1      42.131  29.219  28.606  1.00  0.00     0.074 A 
ATOM     37  C   UNL A   1      40.068  29.013  29.987  1.00  0.00     0.049 A 
ATOM     38  N   UNL A   1      43.303  29.522  29.053  1.00  0.00    -0.248 NA
ATOM     39  C   UNL A   1      41.970  29.443  27.157  1.00  0.00     0.031 C 
ATOM     40  C   UNL A   1      38.795  28.404  30.410  1.00  0.00     0.029 A 
ATOM     41  N   UNL A   1      39.895  30.310  30.361  1.00  0.00    -0.354 N 
ATOM     42  C   UNL A   1      43.874  30.281  28.042  1.00  0.00     0.074 A 
ATOM     43  C   UNL A   1      43.186  29.895  26.844  1.00  0.00     0.031 C 
ATOM     44  C   UNL A   1      37.921  29.371  30.777  1.00  0.00     0.029 A 
ATOM     45  C   UNL A   1      38.601  30.654  30.762  1.00  0.00     0.049 A 
ATOM     46  H   UNL A   1      40.632  30.962  30.347  1.00  0.00     0.167 HD
ATOM     47  C   UNL A   1      44.572  31.412  28.342  1.00  0.00     0.034 A 
ATOM     48  C   UNL A   1      38.126  31.905  31.041  1.00  0.00     0.034 A 
ATOM     49  C   UNL A   1      44.851  31.468  29.770  1.00  0.00     0.049 A 
ATOM     50  C   UNL A   1      39.320  32.747  31.321  1.00  0.00     0.074 A 
ATOM     51  C   UNL A   1      45.454  30.611  30.671  1.00  0.00     0.029 A 
ATOM     52  N   UNL A   1      44.099  32.336  30.537  1.00  0.00    -0.354 N 
ATOM     53  N   UNL A   1      40.109  32.547  32.342  1.00  0.00    -0.248 NA
ATOM     54  C   UNL A   1      39.932  33.445  30.199  1.00  0.00     0.031 C 
ATOM     55  C   UNL A   1      44.646  30.683  31.846  1.00  0.00     0.029 A 
ATOM     56  C   UNL A   1      43.668  31.660  31.653  1.00  0.00     0.049 A 
ATOM     57  H   UNL A   1      43.905  33.277  30.321  1.00  0.00     0.167 HD
ATOM     58  C   UNL A   1      41.394  32.670  31.833  1.00  0.00     0.074 A 
ATOM     59  C   UNL A   1      41.221  33.318  30.533  1.00  0.00     0.031 C 
ATOM     60  C   UNL A   1      42.435  31.959  32.364  1.00  0.00     0.034 A 
BRANCH  47  61
ATOM     61  C   UNL A   1      44.621  32.655  27.474  1.00  0.00     0.023 A 
ATOM     62  C   UNL A   1      43.956  33.787  27.978  1.00  0.00     0.031 A 
ATOM     63  C   UNL A   1      45.012  32.737  26.117  1.00  0.00     0.131 A 
ATOM     64  C   UNL A   1      43.577  34.842  27.134  1.00  0.00     0.055 A 
ATOM     65  C   UNL A   1      44.691  33.822  25.295  1.00  0.00     0.041 A 
ATOM     66  F   UNL A   1      45.657  31.761  25.472  1.00  0.00    -0.206 F 
ATOM     67  C   UNL A   1      43.934  34.866  25.791  1.00  0.00     0.022 A 
BRANCH  64  68
ATOM     68  S   UNL A   1      42.444  36.085  27.794  1.00  0.00     0.124 S 
ATOM     69  O   UNL A   1      42.789  37.246  26.981  1.00  0.00    -0.237 OA
ATOM     70  O   UNL A   1      41.146  35.474  27.531  1.00  0.00    -0.237 OA
ATOM     71  O   UNL A   1      42.821  36.170  29.203  1.00  0.00    -0.744 OA
ENDBRANCH  64  68
ENDBRANCH  47  61
BRANCH  48  72
ATOM     72  C   UNL A   1      36.771  32.477  30.756  1.00  0.00     0.023 A 
ATOM     73  C   UNL A   1      35.905  32.986  31.757  1.00  0.00     0.031 A 
ATOM     74  C   UNL A   1      36.413  32.767  29.420  1.00  0.00     0.131 A 
ATOM     75  C   UNL A   1      34.756  33.742  31.401  1.00  0.00     0.055 A 
ATOM     76  C   UNL A   1      35.283  33.516  29.076  1.00  0.00     0.041 A 
ATOM     77  F   UNL A   1      37.204  32.406  28.398  1.00  0.00    -0.206 F 
ATOM     78  C   UNL A   1      34.455  34.017  30.066  1.00  0.00     0.022 A 
BRANCH  75  79
ATOM     79  S   UNL A   1      33.663  34.465  32.678  1.00  0.00     0.124 S 
ATOM     80  O   UNL A   1      32.714  35.231  31.880  1.00  0.00    -0.237 OA
ATOM     81  O   UNL A   1      33.141  33.283  33.353  1.00  0.00    -0.237 OA
ATOM     82  O   UNL A   1      34.573  35.276  33.490  1.00  0.00    -0.744 OA
ENDBRANCH  75  79
ENDBRANCH  48  72
BRANCH  60  83
ATOM     83  C   UNL A   1      42.237  31.281  33.710  1.00  0.00     0.023 A 
ATOM     84  C   UNL A   1      42.063  29.892  33.918  1.00  0.00     0.031 A 
ATOM     85  C   UNL A   1      42.351  32.097  34.850  1.00  0.00     0.131 A 
ATOM     86  C   UNL A   1      42.000  29.377  35.232  1.00  0.00     0.055 A 
ATOM     87  C   UNL A   1      42.313  31.582  36.144  1.00  0.00     0.041 A 
ATOM     88  F   UNL A   1      42.541  33.421  34.723  1.00  0.00    -0.206 F 
ATOM     89  C   UNL A   1      42.131  30.219  36.340  1.00  0.00     0.022 A 
BRANCH  86  90
ATOM     90  S   UNL A   1      41.722  27.599  35.533  1.00  0.00     0.124 S 
ATOM     91  O   UNL A   1      43.067  27.036  35.529  1.00  0.00    -0.237 OA
ATOM     92  O   UNL A   1      41.033  27.598  36.821  1.00  0.00    -0.237 OA
ATOM     93  O   UNL A   1      40.888  27.187  34.401  1.00  0.00    -0.744 OA
ENDBRANCH  86  90
ENDBRANCH  60  83
ENDBRANCH  34  35
ENDBRANCH  26  29
ENDBRANCH  24  25
ENDBRANCH   1  24
TORSDOF 16
ENDMDL
