MODEL 1
REMARK VINA RESULT:     -12.6      0.000      0.000
REMARK SMILES Cc1ccc([C@@H]2[C@H](C(=O)NCCCNC(=O)c3ccc(-c4c5nc(c(-c6cc(S(=O)(=O)[O-])ccc6F)c6ccc([nH]6)c(-c6cc(S(=O)(=O)[O-])ccc6F)c6nc(c(-c7cc(S(=O)(=O)[O-])ccc7F)c7ccc4[nH]7)C=C6)C=C5)cc3)c3ccccc3C(=O)N2c2ccccc2)cc1
REMARK SMILES IDX 13 1 12 2 11 3 10 4 8 5 9 6 7 8 6 9 88 10 80 11 86 12 81 13
REMARK SMILES IDX 85 14 87 15 82 16 84 17 83 18 5 19 1 20 2 21 3 22 96 23 4 24
REMARK SMILES IDX 95 25 89 26 90 27 94 28 91 29 93 30 92 31 14 32 15 33 16 35
REMARK SMILES IDX 17 36 18 37 79 38 19 39 78 40 20 41 21 42 22 43 72 44 23 45
REMARK SMILES IDX 77 46 71 47 73 48 24 49 76 50 70 51 69 52 25 54 57 55 37 56
REMARK SMILES IDX 56 57 38 58 41 59 55 60 74 61 39 62 40 63 54 65 75 66 42 67
REMARK SMILES IDX 26 68 27 69 35 70 28 71 34 72 36 73 33 74 29 75 30 76 31 77
REMARK SMILES IDX 32 78 58 79 59 80 67 81 60 82 66 83 68 84 65 85 61 86 62 87
REMARK SMILES IDX 63 88 64 89 43 90 44 91 52 92 45 93 51 94 53 95 50 96 46 97
REMARK SMILES IDX 47 98 48 99 49 100
REMARK H PARENT 10 7 14 34 73 53 41 64
REMARK Flexibility Score: inf
ROOT
ATOM      1  C   UNL A   1      39.271  22.545  26.584  1.00  0.00     0.118 C 
ENDROOT
BRANCH   1   2
ATOM      2  C   UNL A   1      38.355  22.788  25.388  1.00  0.00     0.042 C 
BRANCH   2   3
ATOM      3  C   UNL A   1      37.378  23.937  25.583  1.00  0.00     0.117 C 
BRANCH   3   4
ATOM      4  N   UNL A   1      36.267  23.879  24.645  1.00  0.00    -0.355 N 
ATOM      5  C   UNL A   1      35.132  24.617  24.835  1.00  0.00     0.230 C 
ATOM      6  O   UNL A   1      35.020  25.676  24.210  1.00  0.00    -0.274 OA
ATOM      7  H   UNL A   1      36.333  23.295  23.856  1.00  0.00     0.163 HD
BRANCH   5   8
ATOM      8  C   UNL A   1      33.991  24.139  25.743  1.00  0.00     0.137 C 
ATOM      9  C   UNL A   1      32.728  25.051  25.522  1.00  0.00     0.138 C 
ATOM     10  N   UNL A   1      31.950  24.552  24.371  1.00  0.00    -0.300 N 
ATOM     11  C   UNL A   1      33.541  22.674  25.697  1.00  0.00    -0.020 A 
ATOM     12  C   UNL A   1      31.304  23.353  24.705  1.00  0.00     0.259 C 
ATOM     13  C   UNL A   1      34.362  21.655  26.199  1.00  0.00     0.005 A 
ATOM     14  C   UNL A   1      32.248  22.317  25.241  1.00  0.00     0.044 A 
ATOM     15  O   UNL A   1      30.118  23.109  24.518  1.00  0.00    -0.269 OA
ATOM     16  C   UNL A   1      33.952  20.318  26.151  1.00  0.00     0.000 A 
ATOM     17  C   UNL A   1      31.828  20.981  25.231  1.00  0.00     0.014 A 
ATOM     18  C   UNL A   1      32.692  19.980  25.665  1.00  0.00     0.001 A 
BRANCH   9  19
ATOM     19  C   UNL A   1      32.826  26.543  25.839  1.00  0.00    -0.024 A 
ATOM     20  C   UNL A   1      32.557  30.651  27.170  1.00  0.00     0.044 C 
ATOM     21  C   UNL A   1      32.718  29.277  26.593  1.00  0.00    -0.051 A 
ATOM     22  C   UNL A   1      33.845  28.498  26.874  1.00  0.00     0.004 A 
ATOM     23  C   UNL A   1      31.688  28.715  25.842  1.00  0.00     0.004 A 
ATOM     24  C   UNL A   1      33.917  27.160  26.458  1.00  0.00     0.006 A 
ATOM     25  C   UNL A   1      31.744  27.372  25.470  1.00  0.00     0.006 A 
ENDBRANCH   9  19
BRANCH  10  26
ATOM     26  C   UNL A   1      32.380  24.665  22.988  1.00  0.00     0.045 A 
ATOM     27  C   UNL A   1      32.101  25.847  22.266  1.00  0.00     0.026 A 
ATOM     28  C   UNL A   1      32.968  23.621  22.270  1.00  0.00     0.026 A 
ATOM     29  C   UNL A   1      32.312  25.943  20.886  1.00  0.00     0.002 A 
ATOM     30  C   UNL A   1      33.207  23.722  20.892  1.00  0.00     0.002 A 
ATOM     31  C   UNL A   1      32.860  24.873  20.196  1.00  0.00     0.000 A 
ENDBRANCH  10  26
ENDBRANCH   5   8
ENDBRANCH   3   4
ENDBRANCH   2   3
ENDBRANCH   1   2
BRANCH   1  32
ATOM     32  N   UNL A   1      40.661  22.916  26.304  1.00  0.00    -0.352 N 
ATOM     33  C   UNL A   1      41.279  24.151  26.375  1.00  0.00     0.251 C 
ATOM     34  H   UNL A   1      41.243  22.173  26.023  1.00  0.00     0.163 HD
ATOM     35  O   UNL A   1      42.468  24.286  26.129  1.00  0.00    -0.269 OA
BRANCH  33  36
ATOM     36  C   UNL A   1      40.497  25.303  26.877  1.00  0.00     0.039 A 
ATOM     37  C   UNL A   1      40.694  26.538  26.250  1.00  0.00     0.014 A 
ATOM     38  C   UNL A   1      39.776  25.213  28.062  1.00  0.00     0.014 A 
ATOM     39  C   UNL A   1      40.377  27.706  26.938  1.00  0.00     0.010 A 
ATOM     40  C   UNL A   1      39.537  26.370  28.783  1.00  0.00     0.010 A 
ATOM     41  C   UNL A   1      39.903  27.610  28.249  1.00  0.00    -0.014 A 
BRANCH  41  42
ATOM     42  C   UNL A   1      39.933  28.741  29.169  1.00  0.00     0.031 A 
ATOM     43  C   UNL A   1      38.861  29.752  29.179  1.00  0.00     0.074 A 
ATOM     44  C   UNL A   1      40.991  28.920  29.991  1.00  0.00     0.049 A 
ATOM     45  N   UNL A   1      39.069  31.013  29.369  1.00  0.00    -0.248 NA
ATOM     46  C   UNL A   1      37.461  29.419  28.944  1.00  0.00     0.031 C 
ATOM     47  C   UNL A   1      41.124  29.905  31.060  1.00  0.00     0.029 A 
ATOM     48  N   UNL A   1      42.265  28.395  29.857  1.00  0.00    -0.354 N 
ATOM     49  C   UNL A   1      37.844  31.600  29.569  1.00  0.00     0.074 A 
ATOM     50  C   UNL A   1      36.872  30.589  29.211  1.00  0.00     0.031 C 
ATOM     51  C   UNL A   1      42.428  30.096  31.313  1.00  0.00     0.029 A 
ATOM     52  C   UNL A   1      43.183  29.333  30.337  1.00  0.00     0.049 A 
ATOM     53  H   UNL A   1      42.487  27.511  29.485  1.00  0.00     0.167 HD
ATOM     54  C   UNL A   1      37.751  32.820  30.167  1.00  0.00     0.034 A 
ATOM     55  C   UNL A   1      44.182  29.823  29.546  1.00  0.00     0.034 A 
ATOM     56  C   UNL A   1      39.047  33.342  30.582  1.00  0.00     0.049 A 
ATOM     57  C   UNL A   1      44.124  31.322  29.361  1.00  0.00     0.074 A 
ATOM     58  C   UNL A   1      39.694  33.358  31.808  1.00  0.00     0.029 A 
ATOM     59  N   UNL A   1      39.994  33.706  29.633  1.00  0.00    -0.354 N 
ATOM     60  N   UNL A   1      43.081  32.055  29.633  1.00  0.00    -0.248 NA
ATOM     61  C   UNL A   1      45.232  32.108  28.828  1.00  0.00     0.031 C 
ATOM     62  C   UNL A   1      41.049  33.704  31.587  1.00  0.00     0.029 A 
ATOM     63  C   UNL A   1      41.222  33.923  30.231  1.00  0.00     0.049 A 
ATOM     64  H   UNL A   1      39.816  33.797  28.669  1.00  0.00     0.167 HD
ATOM     65  C   UNL A   1      43.335  33.365  29.304  1.00  0.00     0.074 A 
ATOM     66  C   UNL A   1      44.708  33.346  28.829  1.00  0.00     0.031 C 
ATOM     67  C   UNL A   1      42.380  34.335  29.447  1.00  0.00     0.034 A 
BRANCH  54  68
ATOM     68  C   UNL A   1      36.434  33.355  30.664  1.00  0.00     0.023 A 
ATOM     69  C   UNL A   1      35.577  34.046  29.784  1.00  0.00     0.031 A 
ATOM     70  C   UNL A   1      35.994  33.246  31.996  1.00  0.00     0.131 A 
ATOM     71  C   UNL A   1      34.409  34.675  30.250  1.00  0.00     0.055 A 
ATOM     72  C   UNL A   1      34.858  33.913  32.472  1.00  0.00     0.041 A 
ATOM     73  F   UNL A   1      36.653  32.480  32.882  1.00  0.00    -0.206 F 
ATOM     74  C   UNL A   1      34.067  34.648  31.599  1.00  0.00     0.022 A 
BRANCH  71  75
ATOM     75  S   UNL A   1      33.346  35.539  29.059  1.00  0.00     0.124 S 
ATOM     76  O   UNL A   1      32.608  34.439  28.445  1.00  0.00    -0.237 OA
ATOM     77  O   UNL A   1      32.579  36.430  29.922  1.00  0.00    -0.237 OA
ATOM     78  O   UNL A   1      34.302  36.207  28.176  1.00  0.00    -0.744 OA
ENDBRANCH  71  75
ENDBRANCH  54  68
BRANCH  55  79
ATOM     79  C   UNL A   1      44.669  28.846  28.530  1.00  0.00     0.023 A 
ATOM     80  C   UNL A   1      45.513  27.812  28.987  1.00  0.00     0.031 A 
ATOM     81  C   UNL A   1      44.040  28.681  27.289  1.00  0.00     0.131 A 
ATOM     82  C   UNL A   1      45.568  26.591  28.302  1.00  0.00     0.055 A 
ATOM     83  C   UNL A   1      44.163  27.486  26.568  1.00  0.00     0.041 A 
ATOM     84  F   UNL A   1      43.201  29.613  26.817  1.00  0.00    -0.206 F 
ATOM     85  C   UNL A   1      44.893  26.418  27.094  1.00  0.00     0.022 A 
BRANCH  82  86
ATOM     86  S   UNL A   1      46.293  25.165  29.162  1.00  0.00     0.124 S 
ATOM     87  O   UNL A   1      45.822  25.359  30.527  1.00  0.00    -0.237 OA
ATOM     88  O   UNL A   1      45.718  24.033  28.436  1.00  0.00    -0.237 OA
ATOM     89  O   UNL A   1      47.732  25.326  28.961  1.00  0.00    -0.744 OA
ENDBRANCH  82  86
ENDBRANCH  55  79
BRANCH  67  90
ATOM     90  C   UNL A   1      42.461  35.776  28.969  1.00  0.00     0.023 A 
ATOM     91  C   UNL A   1      43.185  36.781  29.626  1.00  0.00     0.031 A 
ATOM     92  C   UNL A   1      41.830  36.181  27.762  1.00  0.00     0.131 A 
ATOM     93  C   UNL A   1      43.203  38.107  29.149  1.00  0.00     0.055 A 
ATOM     94  C   UNL A   1      41.908  37.482  27.251  1.00  0.00     0.041 A 
ATOM     95  F   UNL A   1      41.116  35.328  27.013  1.00  0.00    -0.206 F 
ATOM     96  C   UNL A   1      42.586  38.462  27.955  1.00  0.00     0.022 A 
BRANCH  93  97
ATOM     97  S   UNL A   1      44.012  39.374  30.163  1.00  0.00     0.124 S 
ATOM     98  O   UNL A   1      43.876  38.815  31.505  1.00  0.00    -0.237 OA
ATOM     99  O   UNL A   1      45.367  39.391  29.620  1.00  0.00    -0.237 OA
ATOM    100  O   UNL A   1      43.224  40.577  29.908  1.00  0.00    -0.744 OA
ENDBRANCH  93  97
ENDBRANCH  67  90
ENDBRANCH  41  42
ENDBRANCH  33  36
ENDBRANCH   1  32
TORSDOF 15
ENDMDL
MODEL 2
REMARK VINA RESULT:     -12.2      5.053     10.652
REMARK SMILES Cc1ccc([C@@H]2[C@H](C(=O)NCCCNC(=O)c3ccc(-c4c5nc(c(-c6cc(S(=O)(=O)[O-])ccc6F)c6ccc([nH]6)c(-c6cc(S(=O)(=O)[O-])ccc6F)c6nc(c(-c7cc(S(=O)(=O)[O-])ccc7F)c7ccc4[nH]7)C=C6)C=C5)cc3)c3ccccc3C(=O)N2c2ccccc2)cc1
REMARK SMILES IDX 13 1 12 2 11 3 10 4 8 5 9 6 7 8 6 9 88 10 80 11 86 12 81 13
REMARK SMILES IDX 85 14 87 15 82 16 84 17 83 18 5 19 1 20 2 21 3 22 96 23 4 24
REMARK SMILES IDX 95 25 89 26 90 27 94 28 91 29 93 30 92 31 14 32 15 33 16 35
REMARK SMILES IDX 17 36 18 37 79 38 19 39 78 40 20 41 21 42 22 43 72 44 23 45
REMARK SMILES IDX 77 46 71 47 73 48 24 49 76 50 70 51 69 52 25 54 57 55 37 56
REMARK SMILES IDX 56 57 38 58 41 59 55 60 74 61 39 62 40 63 54 65 75 66 42 67
REMARK SMILES IDX 26 68 27 69 35 70 28 71 34 72 36 73 33 74 29 75 30 76 31 77
REMARK SMILES IDX 32 78 58 79 59 80 67 81 60 82 66 83 68 84 65 85 61 86 62 87
REMARK SMILES IDX 63 88 64 89 43 90 44 91 52 92 45 93 51 94 53 95 50 96 46 97
REMARK SMILES IDX 47 98 48 99 49 100
REMARK H PARENT 10 7 14 34 73 53 41 64
REMARK Flexibility Score: inf
ROOT
ATOM      1  C   UNL A   1      39.851  32.918  34.092  1.00  0.00     0.118 C 
ENDROOT
BRANCH   1   2
ATOM      2  C   UNL A   1      39.261  31.768  33.282  1.00  0.00     0.042 C 
BRANCH   2   3
ATOM      3  C   UNL A   1      37.741  31.746  33.258  1.00  0.00     0.117 C 
BRANCH   3   4
ATOM      4  N   UNL A   1      37.208  31.928  31.915  1.00  0.00    -0.355 N 
ATOM      5  C   UNL A   1      36.357  31.017  31.355  1.00  0.00     0.230 C 
ATOM      6  O   UNL A   1      35.147  31.263  31.384  1.00  0.00    -0.274 OA
ATOM      7  H   UNL A   1      37.468  32.724  31.399  1.00  0.00     0.163 HD
BRANCH   5   8
ATOM      8  C   UNL A   1      36.863  29.751  30.652  1.00  0.00     0.137 C 
ATOM      9  C   UNL A   1      36.964  30.016  29.105  1.00  0.00     0.138 C 
ATOM     10  N   UNL A   1      38.263  30.644  28.792  1.00  0.00    -0.300 N 
ATOM     11  C   UNL A   1      38.168  29.090  31.114  1.00  0.00    -0.020 A 
ATOM     12  C   UNL A   1      39.300  29.710  28.927  1.00  0.00     0.259 C 
ATOM     13  C   UNL A   1      38.240  28.430  32.348  1.00  0.00     0.005 A 
ATOM     14  C   UNL A   1      39.305  29.041  30.270  1.00  0.00     0.044 A 
ATOM     15  O   UNL A   1      40.175  29.495  28.097  1.00  0.00    -0.269 OA
ATOM     16  C   UNL A   1      39.433  27.832  32.771  1.00  0.00     0.000 A 
ATOM     17  C   UNL A   1      40.484  28.408  30.683  1.00  0.00     0.014 A 
ATOM     18  C   UNL A   1      40.553  27.825  31.944  1.00  0.00     0.001 A 
BRANCH   9  19
ATOM     19  C   UNL A   1      35.695  30.363  28.327  1.00  0.00    -0.024 A 
ATOM     20  C   UNL A   1      31.777  30.918  26.581  1.00  0.00     0.044 C 
ATOM     21  C   UNL A   1      33.188  30.768  27.060  1.00  0.00    -0.051 A 
ATOM     22  C   UNL A   1      33.868  31.830  27.665  1.00  0.00     0.004 A 
ATOM     23  C   UNL A   1      33.814  29.524  26.998  1.00  0.00     0.004 A 
ATOM     24  C   UNL A   1      35.129  31.639  28.249  1.00  0.00     0.006 A 
ATOM     25  C   UNL A   1      35.047  29.328  27.619  1.00  0.00     0.006 A 
ENDBRANCH   9  19
BRANCH  10  26
ATOM     26  C   UNL A   1      38.608  32.013  29.135  1.00  0.00     0.045 A 
ATOM     27  C   UNL A   1      39.790  32.273  29.864  1.00  0.00     0.026 A 
ATOM     28  C   UNL A   1      37.777  33.108  28.883  1.00  0.00     0.026 A 
ATOM     29  C   UNL A   1      40.076  33.538  30.390  1.00  0.00     0.002 A 
ATOM     30  C   UNL A   1      38.074  34.384  29.385  1.00  0.00     0.002 A 
ATOM     31  C   UNL A   1      39.210  34.595  30.155  1.00  0.00     0.000 A 
ENDBRANCH  10  26
ENDBRANCH   5   8
ENDBRANCH   3   4
ENDBRANCH   2   3
ENDBRANCH   1   2
BRANCH   1  32
ATOM     32  N   UNL A   1      39.540  32.808  35.520  1.00  0.00    -0.352 N 
ATOM     33  C   UNL A   1      40.109  32.004  36.491  1.00  0.00     0.251 C 
ATOM     34  H   UNL A   1      38.817  33.397  35.837  1.00  0.00     0.163 HD
ATOM     35  O   UNL A   1      39.745  32.054  37.655  1.00  0.00    -0.269 OA
BRANCH  33  36
ATOM     36  C   UNL A   1      41.263  31.156  36.117  1.00  0.00     0.039 A 
ATOM     37  C   UNL A   1      42.526  31.755  36.108  1.00  0.00     0.014 A 
ATOM     38  C   UNL A   1      41.071  29.888  35.578  1.00  0.00     0.014 A 
ATOM     39  C   UNL A   1      43.540  31.187  35.342  1.00  0.00     0.010 A 
ATOM     40  C   UNL A   1      42.048  29.365  34.750  1.00  0.00     0.010 A 
ATOM     41  C   UNL A   1      43.255  30.051  34.578  1.00  0.00    -0.014 A 
BRANCH  41  42
ATOM     42  C   UNL A   1      44.097  29.636  33.462  1.00  0.00     0.031 A 
ATOM     43  C   UNL A   1      43.905  30.188  32.109  1.00  0.00     0.074 A 
ATOM     44  C   UNL A   1      45.033  28.678  33.637  1.00  0.00     0.049 A 
ATOM     45  N   UNL A   1      44.040  29.493  31.028  1.00  0.00    -0.248 NA
ATOM     46  C   UNL A   1      43.517  31.573  31.870  1.00  0.00     0.031 C 
ATOM     47  C   UNL A   1      46.046  28.244  32.679  1.00  0.00     0.029 A 
ATOM     48  N   UNL A   1      45.096  27.730  34.644  1.00  0.00    -0.354 N 
ATOM     49  C   UNL A   1      44.044  30.376  29.976  1.00  0.00     0.074 A 
ATOM     50  C   UNL A   1      43.631  31.644  30.540  1.00  0.00     0.031 C 
ATOM     51  C   UNL A   1      46.450  27.006  33.006  1.00  0.00     0.029 A 
ATOM     52  C   UNL A   1      45.628  26.552  34.113  1.00  0.00     0.049 A 
ATOM     53  H   UNL A   1      44.813  27.863  35.578  1.00  0.00     0.167 HD
ATOM     54  C   UNL A   1      44.546  30.008  28.766  1.00  0.00     0.034 A 
ATOM     55  C   UNL A   1      44.941  25.374  34.160  1.00  0.00     0.034 A 
ATOM     56  C   UNL A   1      45.089  28.655  28.771  1.00  0.00     0.049 A 
ATOM     57  C   UNL A   1      44.654  24.787  32.797  1.00  0.00     0.074 A 
ATOM     58  C   UNL A   1      46.383  28.172  28.883  1.00  0.00     0.029 A 
ATOM     59  N   UNL A   1      44.246  27.561  28.929  1.00  0.00    -0.354 N 
ATOM     60  N   UNL A   1      44.744  25.452  31.678  1.00  0.00    -0.248 NA
ATOM     61  C   UNL A   1      44.217  23.410  32.591  1.00  0.00     0.031 C 
ATOM     62  C   UNL A   1      46.314  26.782  29.142  1.00  0.00     0.029 A 
ATOM     63  C   UNL A   1      44.980  26.413  29.164  1.00  0.00     0.049 A 
ATOM     64  H   UNL A   1      43.263  27.599  28.881  1.00  0.00     0.167 HD
ATOM     65  C   UNL A   1      44.366  24.649  30.629  1.00  0.00     0.074 A 
ATOM     66  C   UNL A   1      44.072  23.371  31.255  1.00  0.00     0.031 C 
ATOM     67  C   UNL A   1      44.325  25.124  29.345  1.00  0.00     0.034 A 
BRANCH  54  68
ATOM     68  C   UNL A   1      44.836  31.023  27.691  1.00  0.00     0.023 A 
ATOM     69  C   UNL A   1      46.097  31.649  27.634  1.00  0.00     0.031 A 
ATOM     70  C   UNL A   1      43.898  31.433  26.725  1.00  0.00     0.131 A 
ATOM     71  C   UNL A   1      46.349  32.696  26.731  1.00  0.00     0.055 A 
ATOM     72  C   UNL A   1      44.130  32.509  25.859  1.00  0.00     0.041 A 
ATOM     73  F   UNL A   1      42.723  30.796  26.588  1.00  0.00    -0.206 F 
ATOM     74  C   UNL A   1      45.357  33.158  25.870  1.00  0.00     0.022 A 
BRANCH  71  75
ATOM     75  S   UNL A   1      47.999  33.453  26.707  1.00  0.00     0.124 S 
ATOM     76  O   UNL A   1      47.904  34.370  25.576  1.00  0.00    -0.237 OA
ATOM     77  O   UNL A   1      48.077  34.064  28.029  1.00  0.00    -0.237 OA
ATOM     78  O   UNL A   1      48.891  32.312  26.502  1.00  0.00    -0.744 OA
ENDBRANCH  71  75
ENDBRANCH  54  68
BRANCH  55  79
ATOM     79  C   UNL A   1      44.059  25.247  35.356  1.00  0.00     0.023 A 
ATOM     80  C   UNL A   1      44.691  25.022  36.597  1.00  0.00     0.031 A 
ATOM     81  C   UNL A   1      42.740  25.719  35.366  1.00  0.00     0.131 A 
ATOM     82  C   UNL A   1      44.075  25.429  37.788  1.00  0.00     0.055 A 
ATOM     83  C   UNL A   1      42.098  26.050  36.567  1.00  0.00     0.041 A 
ATOM     84  F   UNL A   1      42.098  25.984  34.220  1.00  0.00    -0.206 F 
ATOM     85  C   UNL A   1      42.780  25.949  37.782  1.00  0.00     0.022 A 
BRANCH  82  86
ATOM     86  S   UNL A   1      45.099  25.535  39.283  1.00  0.00     0.124 S 
ATOM     87  O   UNL A   1      44.263  26.331  40.172  1.00  0.00    -0.237 OA
ATOM     88  O   UNL A   1      45.272  24.128  39.648  1.00  0.00    -0.237 OA
ATOM     89  O   UNL A   1      46.328  26.181  38.825  1.00  0.00    -0.744 OA
ENDBRANCH  82  86
ENDBRANCH  55  79
BRANCH  67  90
ATOM     90  C   UNL A   1      43.770  24.409  28.124  1.00  0.00     0.023 A 
ATOM     91  C   UNL A   1      44.563  23.765  27.163  1.00  0.00     0.031 A 
ATOM     92  C   UNL A   1      42.368  24.308  27.912  1.00  0.00     0.131 A 
ATOM     93  C   UNL A   1      43.993  23.140  26.037  1.00  0.00     0.055 A 
ATOM     94  C   UNL A   1      41.801  23.625  26.830  1.00  0.00     0.041 A 
ATOM     95  F   UNL A   1      41.481  24.858  28.754  1.00  0.00    -0.206 F 
ATOM     96  C   UNL A   1      42.615  23.048  25.872  1.00  0.00     0.022 A 
BRANCH  93  97
ATOM     97  S   UNL A   1      45.105  22.496  24.758  1.00  0.00     0.124 S 
ATOM     98  O   UNL A   1      46.027  21.682  25.545  1.00  0.00    -0.237 OA
ATOM     99  O   UNL A   1      44.191  21.758  23.891  1.00  0.00    -0.237 OA
ATOM    100  O   UNL A   1      45.687  23.699  24.168  1.00  0.00    -0.744 OA
ENDBRANCH  93  97
ENDBRANCH  67  90
ENDBRANCH  41  42
ENDBRANCH  33  36
ENDBRANCH   1  32
TORSDOF 15
ENDMDL
MODEL 3
REMARK VINA RESULT:     -11.9      5.790     11.196
REMARK SMILES Cc1ccc([C@@H]2[C@H](C(=O)NCCCNC(=O)c3ccc(-c4c5nc(c(-c6cc(S(=O)(=O)[O-])ccc6F)c6ccc([nH]6)c(-c6cc(S(=O)(=O)[O-])ccc6F)c6nc(c(-c7cc(S(=O)(=O)[O-])ccc7F)c7ccc4[nH]7)C=C6)C=C5)cc3)c3ccccc3C(=O)N2c2ccccc2)cc1
REMARK SMILES IDX 13 1 12 2 11 3 10 4 8 5 9 6 7 8 6 9 88 10 80 11 86 12 81 13
REMARK SMILES IDX 85 14 87 15 82 16 84 17 83 18 5 19 1 20 2 21 3 22 96 23 4 24
REMARK SMILES IDX 95 25 89 26 90 27 94 28 91 29 93 30 92 31 14 32 15 33 16 35
REMARK SMILES IDX 17 36 18 37 79 38 19 39 78 40 20 41 21 42 22 43 72 44 23 45
REMARK SMILES IDX 77 46 71 47 73 48 24 49 76 50 70 51 69 52 25 54 57 55 37 56
REMARK SMILES IDX 56 57 38 58 41 59 55 60 74 61 39 62 40 63 54 65 75 66 42 67
REMARK SMILES IDX 26 68 27 69 35 70 28 71 34 72 36 73 33 74 29 75 30 76 31 77
REMARK SMILES IDX 32 78 58 79 59 80 67 81 60 82 66 83 68 84 65 85 61 86 62 87
REMARK SMILES IDX 63 88 64 89 43 90 44 91 52 92 45 93 51 94 53 95 50 96 46 97
REMARK SMILES IDX 47 98 48 99 49 100
REMARK H PARENT 10 7 14 34 73 53 41 64
REMARK Flexibility Score: inf
ROOT
ATOM      1  C   UNL A   1      41.819  30.285  34.840  1.00  0.00     0.118 C 
ENDROOT
BRANCH   1   2
ATOM      2  C   UNL A   1      40.356  29.855  34.908  1.00  0.00     0.042 C 
BRANCH   2   3
ATOM      3  C   UNL A   1      39.371  31.012  34.870  1.00  0.00     0.117 C 
BRANCH   3   4
ATOM      4  N   UNL A   1      39.269  31.605  33.544  1.00  0.00    -0.355 N 
ATOM      5  C   UNL A   1      38.061  31.951  33.007  1.00  0.00     0.230 C 
ATOM      6  O   UNL A   1      37.717  33.135  33.072  1.00  0.00    -0.274 OA
ATOM      7  H   UNL A   1      40.089  31.759  33.022  1.00  0.00     0.163 HD
BRANCH   5   8
ATOM      8  C   UNL A   1      37.167  30.934  32.284  1.00  0.00     0.137 C 
ATOM      9  C   UNL A   1      36.386  31.652  31.124  1.00  0.00     0.138 C 
ATOM     10  N   UNL A   1      37.226  31.694  29.911  1.00  0.00    -0.300 N 
ATOM     11  C   UNL A   1      37.777  29.641  31.727  1.00  0.00    -0.020 A 
ATOM     12  C   UNL A   1      37.332  30.414  29.350  1.00  0.00     0.259 C 
ATOM     13  C   UNL A   1      38.228  28.631  32.587  1.00  0.00     0.005 A 
ATOM     14  C   UNL A   1      37.812  29.388  30.333  1.00  0.00     0.044 A 
ATOM     15  O   UNL A   1      37.144  30.138  28.170  1.00  0.00    -0.269 OA
ATOM     16  C   UNL A   1      38.789  27.455  32.077  1.00  0.00     0.000 A 
ATOM     17  C   UNL A   1      38.340  28.193  29.829  1.00  0.00     0.014 A 
ATOM     18  C   UNL A   1      38.850  27.237  30.703  1.00  0.00     0.001 A 
BRANCH   9  19
ATOM     19  C   UNL A   1      35.418  32.784  31.471  1.00  0.00    -0.024 A 
ATOM     20  C   UNL A   1      33.150  36.159  32.948  1.00  0.00     0.044 C 
ATOM     21  C   UNL A   1      33.813  34.939  32.384  1.00  0.00    -0.051 A 
ATOM     22  C   UNL A   1      34.328  34.926  31.083  1.00  0.00     0.004 A 
ATOM     23  C   UNL A   1      34.015  33.822  33.193  1.00  0.00     0.004 A 
ATOM     24  C   UNL A   1      35.081  33.838  30.618  1.00  0.00     0.006 A 
ATOM     25  C   UNL A   1      34.802  32.762  32.741  1.00  0.00     0.006 A 
ENDBRANCH   9  19
BRANCH  10  26
ATOM     26  C   UNL A   1      38.397  32.541  29.762  1.00  0.00     0.045 A 
ATOM     27  C   UNL A   1      39.685  31.990  29.949  1.00  0.00     0.026 A 
ATOM     28  C   UNL A   1      38.335  33.920  29.547  1.00  0.00     0.026 A 
ATOM     29  C   UNL A   1      40.833  32.787  30.011  1.00  0.00     0.002 A 
ATOM     30  C   UNL A   1      39.486  34.720  29.581  1.00  0.00     0.002 A 
ATOM     31  C   UNL A   1      40.731  34.159  29.834  1.00  0.00     0.000 A 
ENDBRANCH  10  26
ENDBRANCH   5   8
ENDBRANCH   3   4
ENDBRANCH   2   3
ENDBRANCH   1   2
BRANCH   1  32
ATOM     32  N   UNL A   1      42.579  29.855  36.016  1.00  0.00    -0.352 N 
ATOM     33  C   UNL A   1      43.373  28.737  36.197  1.00  0.00     0.251 C 
ATOM     34  H   UNL A   1      42.515  30.452  36.797  1.00  0.00     0.163 HD
ATOM     35  O   UNL A   1      43.966  28.537  37.246  1.00  0.00    -0.269 OA
BRANCH  33  36
ATOM     36  C   UNL A   1      43.595  27.836  35.045  1.00  0.00     0.039 A 
ATOM     37  C   UNL A   1      44.790  27.981  34.333  1.00  0.00     0.014 A 
ATOM     38  C   UNL A   1      42.566  27.040  34.553  1.00  0.00     0.014 A 
ATOM     39  C   UNL A   1      44.856  27.527  33.019  1.00  0.00     0.010 A 
ATOM     40  C   UNL A   1      42.596  26.663  33.223  1.00  0.00     0.010 A 
ATOM     41  C   UNL A   1      43.714  26.969  32.439  1.00  0.00    -0.014 A 
BRANCH  41  42
ATOM     42  C   UNL A   1      43.559  26.847  30.993  1.00  0.00     0.031 A 
ATOM     43  C   UNL A   1      43.871  25.590  30.291  1.00  0.00     0.074 A 
ATOM     44  C   UNL A   1      43.187  27.917  30.257  1.00  0.00     0.049 A 
ATOM     45  N   UNL A   1      44.422  25.541  29.123  1.00  0.00    -0.248 NA
ATOM     46  C   UNL A   1      43.608  24.278  30.870  1.00  0.00     0.031 C 
ATOM     47  C   UNL A   1      42.852  27.941  28.836  1.00  0.00     0.029 A 
ATOM     48  N   UNL A   1      43.275  29.255  30.604  1.00  0.00    -0.354 N 
ATOM     49  C   UNL A   1      44.323  24.244  28.683  1.00  0.00     0.074 A 
ATOM     50  C   UNL A   1      43.889  23.480  29.833  1.00  0.00     0.031 C 
ATOM     51  C   UNL A   1      43.005  29.193  28.376  1.00  0.00     0.029 A 
ATOM     52  C   UNL A   1      43.558  29.994  29.452  1.00  0.00     0.049 A 
ATOM     53  H   UNL A   1      43.158  29.623  31.509  1.00  0.00     0.167 HD
ATOM     54  C   UNL A   1      44.455  23.951  27.360  1.00  0.00     0.034 A 
ATOM     55  C   UNL A   1      44.669  30.782  29.365  1.00  0.00     0.034 A 
ATOM     56  C   UNL A   1      44.648  25.139  26.539  1.00  0.00     0.049 A 
ATOM     57  C   UNL A   1      45.603  30.386  28.244  1.00  0.00     0.074 A 
ATOM     58  C   UNL A   1      43.775  25.885  25.762  1.00  0.00     0.029 A 
ATOM     59  N   UNL A   1      45.813  25.889  26.650  1.00  0.00    -0.354 N 
ATOM     60  N   UNL A   1      45.558  29.243  27.621  1.00  0.00    -0.248 NA
ATOM     61  C   UNL A   1      46.680  31.242  27.757  1.00  0.00     0.031 C 
ATOM     62  C   UNL A   1      44.412  27.106  25.432  1.00  0.00     0.029 A 
ATOM     63  C   UNL A   1      45.680  27.094  25.985  1.00  0.00     0.049 A 
ATOM     64  H   UNL A   1      46.621  25.601  27.134  1.00  0.00     0.167 HD
ATOM     65  C   UNL A   1      46.572  29.176  26.697  1.00  0.00     0.074 A 
ATOM     66  C   UNL A   1      47.229  30.468  26.805  1.00  0.00     0.031 C 
ATOM     67  C   UNL A   1      46.776  28.054  25.939  1.00  0.00     0.034 A 
BRANCH  54  68
ATOM     68  C   UNL A   1      44.066  22.605  26.808  1.00  0.00     0.023 A 
ATOM     69  C   UNL A   1      45.033  21.792  26.184  1.00  0.00     0.031 A 
ATOM     70  C   UNL A   1      42.754  22.095  26.837  1.00  0.00     0.131 A 
ATOM     71  C   UNL A   1      44.671  20.596  25.539  1.00  0.00     0.055 A 
ATOM     72  C   UNL A   1      42.384  20.930  26.153  1.00  0.00     0.041 A 
ATOM     73  F   UNL A   1      41.788  22.710  27.538  1.00  0.00    -0.206 F 
ATOM     74  C   UNL A   1      43.344  20.181  25.484  1.00  0.00     0.022 A 
BRANCH  71  75
ATOM     75  S   UNL A   1      45.971  19.594  24.763  1.00  0.00     0.124 S 
ATOM     76  O   UNL A   1      46.335  18.673  25.835  1.00  0.00    -0.237 OA
ATOM     77  O   UNL A   1      45.271  19.013  23.623  1.00  0.00    -0.237 OA
ATOM     78  O   UNL A   1      46.998  20.578  24.421  1.00  0.00    -0.744 OA
ENDBRANCH  71  75
ENDBRANCH  54  68
BRANCH  55  79
ATOM     79  C   UNL A   1      45.089  31.364  30.673  1.00  0.00     0.023 A 
ATOM     80  C   UNL A   1      44.362  32.480  31.140  1.00  0.00     0.031 A 
ATOM     81  C   UNL A   1      45.862  30.650  31.596  1.00  0.00     0.131 A 
ATOM     82  C   UNL A   1      44.281  32.745  32.513  1.00  0.00     0.055 A 
ATOM     83  C   UNL A   1      45.841  30.969  32.960  1.00  0.00     0.041 A 
ATOM     84  F   UNL A   1      46.548  29.561  31.219  1.00  0.00    -0.206 F 
ATOM     85  C   UNL A   1      45.014  31.992  33.431  1.00  0.00     0.022 A 
BRANCH  82  86
ATOM     86  S   UNL A   1      42.991  33.888  33.085  1.00  0.00     0.124 S 
ATOM     87  O   UNL A   1      43.088  34.969  32.112  1.00  0.00    -0.237 OA
ATOM     88  O   UNL A   1      41.785  33.064  33.015  1.00  0.00    -0.237 OA
ATOM     89  O   UNL A   1      43.397  34.226  34.448  1.00  0.00    -0.744 OA
ENDBRANCH  82  86
ENDBRANCH  55  79
BRANCH  67  90
ATOM     90  C   UNL A   1      47.949  27.778  25.011  1.00  0.00     0.023 A 
ATOM     91  C   UNL A   1      47.852  27.745  23.613  1.00  0.00     0.031 A 
ATOM     92  C   UNL A   1      49.258  27.584  25.528  1.00  0.00     0.131 A 
ATOM     93  C   UNL A   1      48.970  27.458  22.805  1.00  0.00     0.055 A 
ATOM     94  C   UNL A   1      50.381  27.370  24.721  1.00  0.00     0.041 A 
ATOM     95  F   UNL A   1      49.512  27.605  26.845  1.00  0.00    -0.206 F 
ATOM     96  C   UNL A   1      50.239  27.289  23.347  1.00  0.00     0.022 A 
BRANCH  93  97
ATOM     97  S   UNL A   1      48.711  27.256  21.021  1.00  0.00     0.124 S 
ATOM     98  O   UNL A   1      47.356  27.773  20.855  1.00  0.00    -0.237 OA
ATOM     99  O   UNL A   1      49.776  28.078  20.455  1.00  0.00    -0.237 OA
ATOM    100  O   UNL A   1      48.857  25.818  20.811  1.00  0.00    -0.744 OA
ENDBRANCH  93  97
ENDBRANCH  67  90
ENDBRANCH  41  42
ENDBRANCH  33  36
ENDBRANCH   1  32
TORSDOF 15
ENDMDL
