MODEL 1
REMARK VINA RESULT:     -12.2      0.000      0.000
REMARK SMILES COC(=O)c1sc(SCC(=O)NCCCNC(=O)c2ccc(-c3c4nc(c(-c5cc(S(=O)(=O)[O-])ccc5F)c5ccc([nH]5)c(-c5cc(S(=O)(=O)[O-])ccc5F)c5nc(c(-c6cc(S(=O)(=O)[O-])ccc6F)c6ccc3[nH]6)C=C5)C=C4)cc2)c(NC(=O)c2ccccc2)c1O
REMARK SMILES IDX 13 1 12 2 10 3 11 4 9 6 8 7 7 8 5 9 6 10 92 11 82 12 3 13
REMARK SMILES IDX 4 14 2 15 1 16 93 17 83 19 84 20 85 22 86 23 87 24 91 25
REMARK SMILES IDX 88 26 90 27 89 28 14 29 15 30 16 31 17 32 18 34 19 35 20 36
REMARK SMILES IDX 81 37 21 38 80 39 22 40 23 41 24 42 74 43 25 44 79 45 73 46
REMARK SMILES IDX 75 47 26 48 78 49 72 50 71 51 27 53 59 54 39 55 58 56 40 57
REMARK SMILES IDX 43 58 57 59 76 60 41 61 42 62 56 64 77 65 44 66 28 67 29 68
REMARK SMILES IDX 37 69 30 70 36 71 38 72 35 73 31 74 32 75 33 76 34 77 60 78
REMARK SMILES IDX 61 79 69 80 62 81 68 82 70 83 67 84 63 85 64 86 65 87 66 88
REMARK SMILES IDX 45 89 46 90 54 91 47 92 53 93 55 94 52 95 48 96 49 97 50 98
REMARK SMILES IDX 51 99
REMARK H PARENT 12 5 93 18 83 21 16 33 75 52 43 63
REMARK Flexibility Score: inf
ROOT
ATOM      1  C   UNL A   1      35.072  31.932  29.777  1.00  0.00     0.117 C 
ENDROOT
BRANCH   1   2
ATOM      2  N   UNL A   1      34.049  32.241  28.792  1.00  0.00    -0.355 N 
ATOM      3  C   UNL A   1      33.607  31.557  27.686  1.00  0.00     0.230 C 
ATOM      4  O   UNL A   1      32.509  31.923  27.253  1.00  0.00    -0.274 OA
ATOM      5  H   UNL A   1      33.589  33.097  28.946  1.00  0.00     0.163 HD
BRANCH   3   6
ATOM      6  C   UNL A   1      34.487  30.184  27.067  1.00  0.00     0.175 C 
BRANCH   6   7
ATOM      7  S   UNL A   1      33.668  27.778  26.572  1.00  0.00    -0.103 SA
BRANCH   7   8
ATOM      8  C   UNL A   1      32.129  27.539  25.576  1.00  0.00     0.089 A 
ATOM      9  C   UNL A   1      30.349  27.858  23.844  1.00  0.00     0.157 A 
ATOM     10  S   UNL A   1      31.880  28.553  24.194  1.00  0.00    -0.116 S 
ATOM     11  C   UNL A   1      30.083  26.822  24.711  1.00  0.00     0.166 A 
ATOM     12  C   UNL A   1      31.087  26.620  25.699  1.00  0.00     0.109 A 
BRANCH   9  13
ATOM     13  C   UNL A   1      29.544  28.381  22.755  1.00  0.00     0.352 C 
ATOM     14  O   UNL A   1      29.948  28.788  21.673  1.00  0.00    -0.245 OA
BRANCH  13  15
ATOM     15  O   UNL A   1      28.226  28.346  23.125  1.00  0.00    -0.465 OA
ATOM     16  C   UNL A   1      27.445  29.502  22.801  1.00  0.00     0.282 C 
ENDBRANCH  13  15
ENDBRANCH   9  13
BRANCH  11  17
ATOM     17  O   UNL A   1      28.953  26.078  24.686  1.00  0.00    -0.504 OA
ATOM     18  H   UNL A   1      28.515  25.864  25.486  1.00  0.00     0.293 HD
ENDBRANCH  11  17
BRANCH  12  19
ATOM     19  N   UNL A   1      30.910  25.630  26.662  1.00  0.00    -0.317 N 
ATOM     20  C   UNL A   1      31.407  24.362  26.612  1.00  0.00     0.255 C 
ATOM     21  H   UNL A   1      30.377  25.869  27.454  1.00  0.00     0.170 HD
ATOM     22  O   UNL A   1      30.988  23.437  27.293  1.00  0.00    -0.269 OA
BRANCH  20  23
ATOM     23  C   UNL A   1      32.447  24.152  25.606  1.00  0.00     0.040 A 
ATOM     24  C   UNL A   1      34.129  24.096  26.221  1.00  0.00     0.014 A 
ATOM     25  C   UNL A   1      32.038  23.439  23.959  1.00  0.00     0.014 A 
ATOM     26  C   UNL A   1      35.406  23.330  25.218  1.00  0.00     0.001 A 
ATOM     27  C   UNL A   1      33.342  22.645  23.000  1.00  0.00     0.001 A 
ATOM     28  C   UNL A   1      35.020  22.589  23.640  1.00  0.00     0.000 A 
ENDBRANCH  20  23
ENDBRANCH  12  19
ENDBRANCH   7   8
ENDBRANCH   6   7
ENDBRANCH   3   6
ENDBRANCH   1   2
BRANCH   1  29
ATOM     29  C   UNL A   1      35.031  32.822  31.017  1.00  0.00     0.042 C 
BRANCH  29  30
ATOM     30  C   UNL A   1      36.375  33.402  31.389  1.00  0.00     0.118 C 
BRANCH  30  31
ATOM     31  N   UNL A   1      37.026  34.115  30.298  1.00  0.00    -0.352 N 
ATOM     32  C   UNL A   1      38.282  33.865  29.776  1.00  0.00     0.251 C 
ATOM     33  H   UNL A   1      36.518  34.852  29.889  1.00  0.00     0.163 HD
ATOM     34  O   UNL A   1      38.851  34.717  29.104  1.00  0.00    -0.269 OA
BRANCH  32  35
ATOM     35  C   UNL A   1      38.924  32.572  30.087  1.00  0.00     0.039 A 
ATOM     36  C   UNL A   1      38.596  31.415  29.383  1.00  0.00     0.014 A 
ATOM     37  C   UNL A   1      39.931  32.550  31.051  1.00  0.00     0.014 A 
ATOM     38  C   UNL A   1      39.355  30.267  29.597  1.00  0.00     0.010 A 
ATOM     39  C   UNL A   1      40.791  31.484  31.121  1.00  0.00     0.010 A 
ATOM     40  C   UNL A   1      40.481  30.316  30.442  1.00  0.00    -0.014 A 
BRANCH  40  41
ATOM     41  C   UNL A   1      41.384  29.174  30.553  1.00  0.00     0.031 A 
ATOM     42  C   UNL A   1      41.649  28.731  31.943  1.00  0.00     0.074 A 
ATOM     43  C   UNL A   1      41.874  28.471  29.509  1.00  0.00     0.049 A 
ATOM     44  N   UNL A   1      42.702  28.998  32.639  1.00  0.00    -0.248 NA
ATOM     45  C   UNL A   1      40.579  28.083  32.713  1.00  0.00     0.031 C 
ATOM     46  C   UNL A   1      41.550  28.585  28.083  1.00  0.00     0.029 A 
ATOM     47  N   UNL A   1      42.745  27.425  29.532  1.00  0.00    -0.354 N 
ATOM     48  C   UNL A   1      42.543  28.347  33.853  1.00  0.00     0.074 A 
ATOM     49  C   UNL A   1      41.152  27.979  33.916  1.00  0.00     0.031 C 
ATOM     50  C   UNL A   1      42.042  27.519  27.415  1.00  0.00     0.029 A 
ATOM     51  C   UNL A   1      42.872  26.750  28.323  1.00  0.00     0.049 A 
ATOM     52  H   UNL A   1      43.247  27.168  30.340  1.00  0.00     0.167 HD
ATOM     53  C   UNL A   1      43.628  27.984  34.591  1.00  0.00     0.034 A 
ATOM     54  C   UNL A   1      43.626  25.648  28.069  1.00  0.00     0.034 A 
ATOM     55  C   UNL A   1      44.828  28.623  34.090  1.00  0.00     0.049 A 
ATOM     56  C   UNL A   1      44.723  25.650  29.066  1.00  0.00     0.074 A 
ATOM     57  C   UNL A   1      45.224  29.937  33.921  1.00  0.00     0.029 A 
ATOM     58  N   UNL A   1      45.662  27.880  33.282  1.00  0.00    -0.354 N 
ATOM     59  N   UNL A   1      45.649  26.569  29.098  1.00  0.00    -0.248 NA
ATOM     60  C   UNL A   1      44.520  24.942  30.321  1.00  0.00     0.031 C 
ATOM     61  C   UNL A   1      45.901  29.956  32.665  1.00  0.00     0.029 A 
ATOM     62  C   UNL A   1      45.965  28.646  32.181  1.00  0.00     0.049 A 
ATOM     63  H   UNL A   1      45.983  26.967  33.461  1.00  0.00     0.167 HD
ATOM     64  C   UNL A   1      45.814  26.867  30.441  1.00  0.00     0.074 A 
ATOM     65  C   UNL A   1      45.177  25.760  31.151  1.00  0.00     0.031 C 
ATOM     66  C   UNL A   1      46.204  28.113  30.850  1.00  0.00     0.034 A 
BRANCH  53  67
ATOM     67  C   UNL A   1      43.697  26.803  35.528  1.00  0.00     0.023 A 
ATOM     68  C   UNL A   1      44.121  27.052  36.847  1.00  0.00     0.031 A 
ATOM     69  C   UNL A   1      43.654  25.446  35.140  1.00  0.00     0.131 A 
ATOM     70  C   UNL A   1      44.572  26.007  37.671  1.00  0.00     0.055 A 
ATOM     71  C   UNL A   1      44.037  24.403  35.989  1.00  0.00     0.041 A 
ATOM     72  F   UNL A   1      43.340  25.057  33.899  1.00  0.00    -0.206 F 
ATOM     73  C   UNL A   1      44.531  24.681  37.251  1.00  0.00     0.022 A 
BRANCH  70  74
ATOM     74  S   UNL A   1      45.386  26.437  39.231  1.00  0.00     0.124 S 
ATOM     75  O   UNL A   1      44.881  27.785  39.465  1.00  0.00    -0.237 OA
ATOM     76  O   UNL A   1      44.889  25.396  40.124  1.00  0.00    -0.237 OA
ATOM     77  O   UNL A   1      46.808  26.350  38.904  1.00  0.00    -0.744 OA
ENDBRANCH  70  74
ENDBRANCH  53  67
BRANCH  54  78
ATOM     78  C   UNL A   1      43.257  24.482  27.222  1.00  0.00     0.023 A 
ATOM     79  C   UNL A   1      44.142  23.900  26.290  1.00  0.00     0.031 A 
ATOM     80  C   UNL A   1      42.078  23.756  27.515  1.00  0.00     0.131 A 
ATOM     81  C   UNL A   1      43.837  22.647  25.706  1.00  0.00     0.055 A 
ATOM     82  C   UNL A   1      41.783  22.523  26.933  1.00  0.00     0.041 A 
ATOM     83  F   UNL A   1      41.214  24.182  28.451  1.00  0.00    -0.206 F 
ATOM     84  C   UNL A   1      42.669  21.956  26.033  1.00  0.00     0.022 A 
BRANCH  81  85
ATOM     85  S   UNL A   1      45.022  21.839  24.578  1.00  0.00     0.124 S 
ATOM     86  O   UNL A   1      46.189  21.656  25.433  1.00  0.00    -0.237 OA
ATOM     87  O   UNL A   1      44.306  20.631  24.186  1.00  0.00    -0.237 OA
ATOM     88  O   UNL A   1      45.194  22.820  23.505  1.00  0.00    -0.744 OA
ENDBRANCH  81  85
ENDBRANCH  54  78
BRANCH  66  89
ATOM     89  C   UNL A   1      46.739  29.081  29.808  1.00  0.00     0.023 A 
ATOM     90  C   UNL A   1      45.945  29.843  28.920  1.00  0.00     0.031 A 
ATOM     91  C   UNL A   1      48.125  29.316  29.803  1.00  0.00     0.131 A 
ATOM     92  C   UNL A   1      46.549  30.787  28.063  1.00  0.00     0.055 A 
ATOM     93  C   UNL A   1      48.717  30.269  28.973  1.00  0.00     0.041 A 
ATOM     94  F   UNL A   1      48.934  28.643  30.637  1.00  0.00    -0.206 F 
ATOM     95  C   UNL A   1      47.931  31.003  28.094  1.00  0.00     0.022 A 
BRANCH  92  96
ATOM     96  S   UNL A   1      45.550  31.741  26.874  1.00  0.00     0.124 S 
ATOM     97  O   UNL A   1      45.958  33.121  27.114  1.00  0.00    -0.237 OA
ATOM     98  O   UNL A   1      45.952  31.170  25.592  1.00  0.00    -0.237 OA
ATOM     99  O   UNL A   1      44.172  31.438  27.268  1.00  0.00    -0.744 OA
ENDBRANCH  92  96
ENDBRANCH  66  89
ENDBRANCH  40  41
ENDBRANCH  32  35
ENDBRANCH  30  31
ENDBRANCH  29  30
ENDBRANCH   1  29
TORSDOF 20
ENDMDL
MODEL 2
REMARK VINA RESULT:     -11.2      3.548      9.402
REMARK SMILES COC(=O)c1sc(SCC(=O)NCCCNC(=O)c2ccc(-c3c4nc(c(-c5cc(S(=O)(=O)[O-])ccc5F)c5ccc([nH]5)c(-c5cc(S(=O)(=O)[O-])ccc5F)c5nc(c(-c6cc(S(=O)(=O)[O-])ccc6F)c6ccc3[nH]6)C=C5)C=C4)cc2)c(NC(=O)c2ccccc2)c1O
REMARK SMILES IDX 13 1 12 2 10 3 11 4 9 6 8 7 7 8 5 9 6 10 92 11 82 12 3 13
REMARK SMILES IDX 4 14 2 15 1 16 93 17 83 19 84 20 85 22 86 23 87 24 91 25
REMARK SMILES IDX 88 26 90 27 89 28 14 29 15 30 16 31 17 32 18 34 19 35 20 36
REMARK SMILES IDX 81 37 21 38 80 39 22 40 23 41 24 42 74 43 25 44 79 45 73 46
REMARK SMILES IDX 75 47 26 48 78 49 72 50 71 51 27 53 59 54 39 55 58 56 40 57
REMARK SMILES IDX 43 58 57 59 76 60 41 61 42 62 56 64 77 65 44 66 28 67 29 68
REMARK SMILES IDX 37 69 30 70 36 71 38 72 35 73 31 74 32 75 33 76 34 77 60 78
REMARK SMILES IDX 61 79 69 80 62 81 68 82 70 83 67 84 63 85 64 86 65 87 66 88
REMARK SMILES IDX 45 89 46 90 54 91 47 92 53 93 55 94 52 95 48 96 49 97 50 98
REMARK SMILES IDX 51 99
REMARK H PARENT 12 5 93 18 83 21 16 33 75 52 43 63
REMARK Flexibility Score: inf
ROOT
ATOM      1  C   UNL A   1      39.742  22.370  26.301  1.00  0.00     0.117 C 
ENDROOT
BRANCH   1   2
ATOM      2  N   UNL A   1      38.726  21.828  25.416  1.00  0.00    -0.355 N 
ATOM      3  C   UNL A   1      37.527  22.336  24.977  1.00  0.00     0.230 C 
ATOM      4  O   UNL A   1      37.059  21.776  23.980  1.00  0.00    -0.274 OA
ATOM      5  H   UNL A   1      38.934  20.931  25.067  1.00  0.00     0.163 HD
BRANCH   3   6
ATOM      6  C   UNL A   1      36.834  23.759  25.708  1.00  0.00     0.175 C 
BRANCH   6   7
ATOM      7  S   UNL A   1      34.389  24.231  26.421  1.00  0.00    -0.103 SA
BRANCH   7   8
ATOM      8  C   UNL A   1      33.161  24.742  25.138  1.00  0.00     0.089 A 
ATOM      9  C   UNL A   1      32.155  25.788  23.097  1.00  0.00     0.157 A 
ATOM     10  S   UNL A   1      33.732  25.612  23.754  1.00  0.00    -0.116 S 
ATOM     11  C   UNL A   1      31.235  25.122  23.875  1.00  0.00     0.166 A 
ATOM     12  C   UNL A   1      31.788  24.514  25.037  1.00  0.00     0.109 A 
BRANCH   9  13
ATOM     13  C   UNL A   1      31.954  26.556  21.882  1.00  0.00     0.352 C 
ATOM     14  O   UNL A   1      31.040  27.336  21.647  1.00  0.00    -0.245 OA
BRANCH  13  15
ATOM     15  O   UNL A   1      32.971  26.273  21.009  1.00  0.00    -0.465 OA
ATOM     16  C   UNL A   1      32.671  25.343  19.963  1.00  0.00     0.282 C 
ENDBRANCH  13  15
ENDBRANCH   9  13
BRANCH  11  17
ATOM     17  O   UNL A   1      29.908  25.076  23.614  1.00  0.00    -0.504 OA
ATOM     18  H   UNL A   1      29.459  24.254  23.615  1.00  0.00     0.293 HD
ENDBRANCH  11  17
BRANCH  12  19
ATOM     19  N   UNL A   1      30.949  23.849  25.927  1.00  0.00    -0.317 N 
ATOM     20  C   UNL A   1      30.704  22.509  25.951  1.00  0.00     0.255 C 
ATOM     21  H   UNL A   1      30.491  24.399  26.603  1.00  0.00     0.170 HD
ATOM     22  O   UNL A   1      29.747  22.000  26.519  1.00  0.00    -0.269 OA
BRANCH  20  23
ATOM     23  C   UNL A   1      31.636  21.702  25.166  1.00  0.00     0.040 A 
ATOM     24  C   UNL A   1      32.613  20.518  26.090  1.00  0.00     0.014 A 
ATOM     25  C   UNL A   1      31.418  21.508  23.348  1.00  0.00     0.014 A 
ATOM     26  C   UNL A   1      33.369  19.138  25.225  1.00  0.00     0.001 A 
ATOM     27  C   UNL A   1      32.163  20.087  22.524  1.00  0.00     0.001 A 
ATOM     28  C   UNL A   1      33.129  18.905  23.471  1.00  0.00     0.000 A 
ENDBRANCH  20  23
ENDBRANCH  12  19
ENDBRANCH   7   8
ENDBRANCH   6   7
ENDBRANCH   3   6
ENDBRANCH   1   2
BRANCH   1  29
ATOM     29  C   UNL A   1      40.481  21.315  27.121  1.00  0.00     0.042 C 
BRANCH  29  30
ATOM     30  C   UNL A   1      41.371  21.897  28.193  1.00  0.00     0.118 C 
BRANCH  30  31
ATOM     31  N   UNL A   1      42.772  21.990  27.803  1.00  0.00    -0.352 N 
ATOM     32  C   UNL A   1      43.509  23.148  27.632  1.00  0.00     0.251 C 
ATOM     33  H   UNL A   1      43.242  21.140  27.644  1.00  0.00     0.163 HD
ATOM     34  O   UNL A   1      44.555  23.123  26.993  1.00  0.00    -0.269 OA
BRANCH  32  35
ATOM     35  C   UNL A   1      42.982  24.404  28.200  1.00  0.00     0.039 A 
ATOM     36  C   UNL A   1      43.531  24.961  29.354  1.00  0.00     0.014 A 
ATOM     37  C   UNL A   1      41.971  25.068  27.508  1.00  0.00     0.014 A 
ATOM     38  C   UNL A   1      43.113  26.232  29.743  1.00  0.00     0.010 A 
ATOM     39  C   UNL A   1      41.702  26.385  27.781  1.00  0.00     0.010 A 
ATOM     40  C   UNL A   1      42.223  26.959  28.930  1.00  0.00    -0.014 A 
BRANCH  40  41
ATOM     41  C   UNL A   1      41.900  28.351  29.232  1.00  0.00     0.031 A 
ATOM     42  C   UNL A   1      42.822  29.343  28.628  1.00  0.00     0.074 A 
ATOM     43  C   UNL A   1      40.803  28.762  29.903  1.00  0.00     0.049 A 
ATOM     44  N   UNL A   1      43.784  29.954  29.231  1.00  0.00    -0.248 NA
ATOM     45  C   UNL A   1      42.807  29.553  27.174  1.00  0.00     0.031 C 
ATOM     46  C   UNL A   1      39.655  27.977  30.369  1.00  0.00     0.029 A 
ATOM     47  N   UNL A   1      40.455  30.031  30.254  1.00  0.00    -0.354 N 
ATOM     48  C   UNL A   1      44.345  30.814  28.299  1.00  0.00     0.074 A 
ATOM     49  C   UNL A   1      43.845  30.381  27.021  1.00  0.00     0.031 C 
ATOM     50  C   UNL A   1      38.654  28.805  30.740  1.00  0.00     0.029 A 
ATOM     51  C   UNL A   1      39.153  30.167  30.721  1.00  0.00     0.049 A 
ATOM     52  H   UNL A   1      41.078  30.792  30.184  1.00  0.00     0.167 HD
ATOM     53  C   UNL A   1      44.998  31.940  28.702  1.00  0.00     0.034 A 
ATOM     54  C   UNL A   1      38.525  31.314  31.091  1.00  0.00     0.034 A 
ATOM     55  C   UNL A   1      45.254  31.905  30.127  1.00  0.00     0.049 A 
ATOM     56  C   UNL A   1      39.590  32.263  31.497  1.00  0.00     0.074 A 
ATOM     57  C   UNL A   1      45.949  31.050  30.963  1.00  0.00     0.029 A 
ATOM     58  N   UNL A   1      44.406  32.616  30.950  1.00  0.00    -0.354 N 
ATOM     59  N   UNL A   1      40.356  32.065  32.535  1.00  0.00    -0.248 NA
ATOM     60  C   UNL A   1      40.141  33.159  30.492  1.00  0.00     0.031 C 
ATOM     61  C   UNL A   1      45.131  30.931  32.126  1.00  0.00     0.029 A 
ATOM     62  C   UNL A   1      44.035  31.786  31.981  1.00  0.00     0.049 A 
ATOM     63  H   UNL A   1      44.120  33.549  30.823  1.00  0.00     0.167 HD
ATOM     64  C   UNL A   1      41.628  32.421  32.116  1.00  0.00     0.074 A 
ATOM     65  C   UNL A   1      41.417  33.190  30.891  1.00  0.00     0.031 C 
ATOM     66  C   UNL A   1      42.742  31.828  32.644  1.00  0.00     0.034 A 
BRANCH  53  67
ATOM     67  C   UNL A   1      45.101  33.224  27.915  1.00  0.00     0.023 A 
ATOM     68  C   UNL A   1      44.194  34.251  28.237  1.00  0.00     0.031 A 
ATOM     69  C   UNL A   1      45.819  33.390  26.710  1.00  0.00     0.131 A 
ATOM     70  C   UNL A   1      43.956  35.311  27.347  1.00  0.00     0.055 A 
ATOM     71  C   UNL A   1      45.629  34.485  25.861  1.00  0.00     0.041 A 
ATOM     72  F   UNL A   1      46.663  32.467  26.236  1.00  0.00    -0.206 F 
ATOM     73  C   UNL A   1      44.671  35.437  26.159  1.00  0.00     0.022 A 
BRANCH  70  74
ATOM     74  S   UNL A   1      42.563  36.418  27.686  1.00  0.00     0.124 S 
ATOM     75  O   UNL A   1      42.930  36.963  28.988  1.00  0.00    -0.237 OA
ATOM     76  O   UNL A   1      42.632  37.340  26.557  1.00  0.00    -0.237 OA
ATOM     77  O   UNL A   1      41.411  35.519  27.687  1.00  0.00    -0.744 OA
ENDBRANCH  70  74
ENDBRANCH  53  67
BRANCH  54  78
ATOM     78  C   UNL A   1      37.113  31.696  30.819  1.00  0.00     0.023 A 
ATOM     79  C   UNL A   1      36.316  32.398  31.746  1.00  0.00     0.031 A 
ATOM     80  C   UNL A   1      36.606  31.584  29.503  1.00  0.00     0.131 A 
ATOM     81  C   UNL A   1      35.081  32.959  31.342  1.00  0.00     0.055 A 
ATOM     82  C   UNL A   1      35.385  32.137  29.111  1.00  0.00     0.041 A 
ATOM     83  F   UNL A   1      37.327  31.010  28.526  1.00  0.00    -0.206 F 
ATOM     84  C   UNL A   1      34.622  32.839  30.028  1.00  0.00     0.022 A 
BRANCH  81  85
ATOM     85  S   UNL A   1      34.091  33.956  32.506  1.00  0.00     0.124 S 
ATOM     86  O   UNL A   1      33.396  34.876  31.615  1.00  0.00    -0.237 OA
ATOM     87  O   UNL A   1      33.273  32.944  33.166  1.00  0.00    -0.237 OA
ATOM     88  O   UNL A   1      35.101  34.577  33.365  1.00  0.00    -0.744 OA
ENDBRANCH  81  85
ENDBRANCH  54  78
BRANCH  66  89
ATOM     89  C   UNL A   1      42.587  30.989  33.902  1.00  0.00     0.023 A 
ATOM     90  C   UNL A   1      42.221  29.623  33.930  1.00  0.00     0.031 A 
ATOM     91  C   UNL A   1      42.940  31.591  35.123  1.00  0.00     0.131 A 
ATOM     92  C   UNL A   1      42.209  28.920  35.153  1.00  0.00     0.055 A 
ATOM     93  C   UNL A   1      42.952  30.886  36.326  1.00  0.00     0.041 A 
ATOM     94  F   UNL A   1      43.319  32.879  35.163  1.00  0.00    -0.206 F 
ATOM     95  C   UNL A   1      42.578  29.548  36.346  1.00  0.00     0.022 A 
BRANCH  92  96
ATOM     96  S   UNL A   1      41.689  27.174  35.219  1.00  0.00     0.124 S 
ATOM     97  O   UNL A   1      41.144  27.029  36.564  1.00  0.00    -0.237 OA
ATOM     98  O   UNL A   1      40.725  27.088  34.126  1.00  0.00    -0.237 OA
ATOM     99  O   UNL A   1      42.935  26.439  34.987  1.00  0.00    -0.744 OA
ENDBRANCH  92  96
ENDBRANCH  66  89
ENDBRANCH  40  41
ENDBRANCH  32  35
ENDBRANCH  30  31
ENDBRANCH  29  30
ENDBRANCH   1  29
TORSDOF 20
ENDMDL
MODEL 3
REMARK VINA RESULT:     -11.2      1.907      2.653
REMARK SMILES COC(=O)c1sc(SCC(=O)NCCCNC(=O)c2ccc(-c3c4nc(c(-c5cc(S(=O)(=O)[O-])ccc5F)c5ccc([nH]5)c(-c5cc(S(=O)(=O)[O-])ccc5F)c5nc(c(-c6cc(S(=O)(=O)[O-])ccc6F)c6ccc3[nH]6)C=C5)C=C4)cc2)c(NC(=O)c2ccccc2)c1O
REMARK SMILES IDX 13 1 12 2 10 3 11 4 9 6 8 7 7 8 5 9 6 10 92 11 82 12 3 13
REMARK SMILES IDX 4 14 2 15 1 16 93 17 83 19 84 20 85 22 86 23 87 24 91 25
REMARK SMILES IDX 88 26 90 27 89 28 14 29 15 30 16 31 17 32 18 34 19 35 20 36
REMARK SMILES IDX 81 37 21 38 80 39 22 40 23 41 24 42 74 43 25 44 79 45 73 46
REMARK SMILES IDX 75 47 26 48 78 49 72 50 71 51 27 53 59 54 39 55 58 56 40 57
REMARK SMILES IDX 43 58 57 59 76 60 41 61 42 62 56 64 77 65 44 66 28 67 29 68
REMARK SMILES IDX 37 69 30 70 36 71 38 72 35 73 31 74 32 75 33 76 34 77 60 78
REMARK SMILES IDX 61 79 69 80 62 81 68 82 70 83 67 84 63 85 64 86 65 87 66 88
REMARK SMILES IDX 45 89 46 90 54 91 47 92 53 93 55 94 52 95 48 96 49 97 50 98
REMARK SMILES IDX 51 99
REMARK H PARENT 12 5 93 18 83 21 16 33 75 52 43 63
REMARK Flexibility Score: inf
ROOT
ATOM      1  C   UNL A   1      34.588  31.823  28.488  1.00  0.00     0.117 C 
ENDROOT
BRANCH   1   2
ATOM      2  N   UNL A   1      33.328  31.566  27.810  1.00  0.00    -0.355 N 
ATOM      3  C   UNL A   1      32.926  30.549  26.980  1.00  0.00     0.230 C 
ATOM      4  O   UNL A   1      31.703  30.445  26.839  1.00  0.00    -0.274 OA
ATOM      5  H   UNL A   1      32.637  32.247  27.977  1.00  0.00     0.163 HD
BRANCH   3   6
ATOM      6  C   UNL A   1      34.079  29.419  26.319  1.00  0.00     0.175 C 
BRANCH   6   7
ATOM      7  S   UNL A   1      33.792  27.673  24.429  1.00  0.00    -0.103 SA
BRANCH   7   8
ATOM      8  C   UNL A   1      32.478  26.382  24.590  1.00  0.00     0.089 A 
ATOM      9  C   UNL A   1      30.841  24.771  25.590  1.00  0.00     0.157 A 
ATOM     10  S   UNL A   1      31.906  25.986  26.176  1.00  0.00    -0.116 S 
ATOM     11  C   UNL A   1      30.865  24.738  24.214  1.00  0.00     0.166 A 
ATOM     12  C   UNL A   1      31.784  25.651  23.625  1.00  0.00     0.109 A 
BRANCH   9  13
ATOM     13  C   UNL A   1      30.076  23.963  26.521  1.00  0.00     0.352 C 
ATOM     14  O   UNL A   1      29.114  24.322  27.187  1.00  0.00    -0.245 OA
BRANCH  13  15
ATOM     15  O   UNL A   1      30.603  22.699  26.544  1.00  0.00    -0.465 OA
ATOM     16  C   UNL A   1      31.880  22.554  27.173  1.00  0.00     0.282 C 
ENDBRANCH  13  15
ENDBRANCH   9  13
BRANCH  11  17
ATOM     17  O   UNL A   1      30.131  23.886  23.460  1.00  0.00    -0.504 OA
ATOM     18  H   UNL A   1      30.538  23.403  22.768  1.00  0.00     0.293 HD
ENDBRANCH  11  17
BRANCH  12  19
ATOM     19  N   UNL A   1      31.932  25.678  22.241  1.00  0.00    -0.317 N 
ATOM     20  C   UNL A   1      32.817  24.941  21.513  1.00  0.00     0.255 C 
ATOM     21  H   UNL A   1      31.340  26.286  21.742  1.00  0.00     0.170 HD
ATOM     22  O   UNL A   1      33.141  25.205  20.363  1.00  0.00    -0.269 OA
BRANCH  20  23
ATOM     23  C   UNL A   1      33.434  23.833  22.238  1.00  0.00     0.040 A 
ATOM     24  C   UNL A   1      34.786  24.270  23.330  1.00  0.00     0.014 A 
ATOM     25  C   UNL A   1      32.544  22.236  22.457  1.00  0.00     0.014 A 
ATOM     26  C   UNL A   1      35.256  23.139  24.642  1.00  0.00     0.001 A 
ATOM     27  C   UNL A   1      33.023  21.145  23.811  1.00  0.00     0.001 A 
ATOM     28  C   UNL A   1      34.374  21.608  24.902  1.00  0.00     0.000 A 
ENDBRANCH  20  23
ENDBRANCH  12  19
ENDBRANCH   7   8
ENDBRANCH   6   7
ENDBRANCH   3   6
ENDBRANCH   1   2
BRANCH   1  29
ATOM     29  C   UNL A   1      34.460  32.713  29.722  1.00  0.00     0.042 C 
BRANCH  29  30
ATOM     30  C   UNL A   1      35.784  33.034  30.375  1.00  0.00     0.118 C 
BRANCH  30  31
ATOM     31  N   UNL A   1      36.642  33.889  29.565  1.00  0.00    -0.352 N 
ATOM     32  C   UNL A   1      38.007  33.759  29.384  1.00  0.00     0.251 C 
ATOM     33  H   UNL A   1      36.204  34.636  29.098  1.00  0.00     0.163 HD
ATOM     34  O   UNL A   1      38.666  34.704  28.966  1.00  0.00    -0.269 OA
BRANCH  32  35
ATOM     35  C   UNL A   1      38.642  32.476  29.745  1.00  0.00     0.039 A 
ATOM     36  C   UNL A   1      38.299  31.291  29.096  1.00  0.00     0.014 A 
ATOM     37  C   UNL A   1      39.659  32.489  30.699  1.00  0.00     0.014 A 
ATOM     38  C   UNL A   1      39.052  30.149  29.354  1.00  0.00     0.010 A 
ATOM     39  C   UNL A   1      40.512  31.421  30.808  1.00  0.00     0.010 A 
ATOM     40  C   UNL A   1      40.186  30.226  30.185  1.00  0.00    -0.014 A 
BRANCH  40  41
ATOM     41  C   UNL A   1      41.082  29.083  30.337  1.00  0.00     0.031 A 
ATOM     42  C   UNL A   1      41.365  28.706  31.743  1.00  0.00     0.074 A 
ATOM     43  C   UNL A   1      41.551  28.326  29.322  1.00  0.00     0.049 A 
ATOM     44  N   UNL A   1      42.430  28.997  32.410  1.00  0.00    -0.248 NA
ATOM     45  C   UNL A   1      40.302  28.105  32.559  1.00  0.00     0.031 C 
ATOM     46  C   UNL A   1      41.206  28.374  27.897  1.00  0.00     0.029 A 
ATOM     47  N   UNL A   1      42.414  27.275  29.382  1.00  0.00    -0.354 N 
ATOM     48  C   UNL A   1      42.285  28.407  33.656  1.00  0.00     0.074 A 
ATOM     49  C   UNL A   1      40.892  28.054  33.758  1.00  0.00     0.031 C 
ATOM     50  C   UNL A   1      41.679  27.272  27.274  1.00  0.00     0.029 A 
ATOM     51  C   UNL A   1      42.517  26.542  28.206  1.00  0.00     0.049 A 
ATOM     52  H   UNL A   1      42.926  27.053  30.194  1.00  0.00     0.167 HD
ATOM     53  C   UNL A   1      43.378  28.071  34.395  1.00  0.00     0.034 A 
ATOM     54  C   UNL A   1      43.258  25.423  27.994  1.00  0.00     0.034 A 
ATOM     55  C   UNL A   1      44.575  28.674  33.846  1.00  0.00     0.049 A 
ATOM     56  C   UNL A   1      44.370  25.463  28.974  1.00  0.00     0.074 A 
ATOM     57  C   UNL A   1      44.979  29.975  33.607  1.00  0.00     0.029 A 
ATOM     58  N   UNL A   1      45.391  27.886  33.062  1.00  0.00    -0.354 N 
ATOM     59  N   UNL A   1      45.304  26.375  28.947  1.00  0.00    -0.248 NA
ATOM     60  C   UNL A   1      44.181  24.818  30.265  1.00  0.00     0.031 C 
ATOM     61  C   UNL A   1      45.636  29.928  32.341  1.00  0.00     0.029 A 
ATOM     62  C   UNL A   1      45.683  28.595  31.921  1.00  0.00     0.049 A 
ATOM     63  H   UNL A   1      45.707  26.980  33.280  1.00  0.00     0.167 HD
ATOM     64  C   UNL A   1      45.492  26.736  30.272  1.00  0.00     0.074 A 
ATOM     65  C   UNL A   1      44.857  25.670  31.044  1.00  0.00     0.031 C 
ATOM     66  C   UNL A   1      45.897  27.996  30.614  1.00  0.00     0.034 A 
BRANCH  53  67
ATOM     67  C   UNL A   1      43.452  26.936  35.387  1.00  0.00     0.023 A 
ATOM     68  C   UNL A   1      44.252  25.830  35.040  1.00  0.00     0.031 A 
ATOM     69  C   UNL A   1      42.584  26.749  36.485  1.00  0.00     0.131 A 
ATOM     70  C   UNL A   1      44.099  24.595  35.693  1.00  0.00     0.055 A 
ATOM     71  C   UNL A   1      42.487  25.538  37.177  1.00  0.00     0.041 A 
ATOM     72  F   UNL A   1      41.715  27.683  36.887  1.00  0.00    -0.206 F 
ATOM     73  C   UNL A   1      43.222  24.442  36.762  1.00  0.00     0.022 A 
BRANCH  70  74
ATOM     74  S   UNL A   1      44.934  23.148  34.993  1.00  0.00     0.124 S 
ATOM     75  O   UNL A   1      43.814  22.416  34.410  1.00  0.00    -0.237 OA
ATOM     76  O   UNL A   1      45.863  23.764  34.052  1.00  0.00    -0.237 OA
ATOM     77  O   UNL A   1      45.552  22.519  36.158  1.00  0.00    -0.744 OA
ENDBRANCH  70  74
ENDBRANCH  53  67
BRANCH  54  78
ATOM     78  C   UNL A   1      42.868  24.220  27.211  1.00  0.00     0.023 A 
ATOM     79  C   UNL A   1      43.751  23.555  26.335  1.00  0.00     0.031 A 
ATOM     80  C   UNL A   1      41.659  23.552  27.520  1.00  0.00     0.131 A 
ATOM     81  C   UNL A   1      43.416  22.279  25.820  1.00  0.00     0.055 A 
ATOM     82  C   UNL A   1      41.334  22.296  27.006  1.00  0.00     0.041 A 
ATOM     83  F   UNL A   1      40.791  24.061  28.410  1.00  0.00    -0.206 F 
ATOM     84  C   UNL A   1      42.218  21.647  26.162  1.00  0.00     0.022 A 
BRANCH  81  85
ATOM     85  S   UNL A   1      44.596  21.366  24.769  1.00  0.00     0.124 S 
ATOM     86  O   UNL A   1      44.585  22.147  23.539  1.00  0.00    -0.237 OA
ATOM     87  O   UNL A   1      45.820  21.415  25.561  1.00  0.00    -0.237 OA
ATOM     88  O   UNL A   1      43.995  20.036  24.659  1.00  0.00    -0.744 OA
ENDBRANCH  81  85
ENDBRANCH  54  78
BRANCH  66  89
ATOM     89  C   UNL A   1      46.424  28.908  29.518  1.00  0.00     0.023 A 
ATOM     90  C   UNL A   1      45.628  29.742  28.699  1.00  0.00     0.031 A 
ATOM     91  C   UNL A   1      47.820  29.011  29.385  1.00  0.00     0.131 A 
ATOM     92  C   UNL A   1      46.238  30.624  27.782  1.00  0.00     0.055 A 
ATOM     93  C   UNL A   1      48.421  29.902  28.496  1.00  0.00     0.041 A 
ATOM     94  F   UNL A   1      48.635  28.265  30.149  1.00  0.00    -0.206 F 
ATOM     95  C   UNL A   1      47.630  30.708  27.685  1.00  0.00     0.022 A 
BRANCH  92  96
ATOM     96  S   UNL A   1      45.229  31.667  26.679  1.00  0.00     0.124 S 
ATOM     97  O   UNL A   1      46.051  31.792  25.481  1.00  0.00    -0.237 OA
ATOM     98  O   UNL A   1      44.004  30.886  26.536  1.00  0.00    -0.237 OA
ATOM     99  O   UNL A   1      45.071  32.910  27.439  1.00  0.00    -0.744 OA
ENDBRANCH  92  96
ENDBRANCH  66  89
ENDBRANCH  40  41
ENDBRANCH  32  35
ENDBRANCH  30  31
ENDBRANCH  29  30
ENDBRANCH   1  29
TORSDOF 20
ENDMDL
