MODEL 1
REMARK VINA RESULT:     -12.1      0.000      0.000
REMARK SMILES [NH3+][C@]1(C(=O)NCCCNC(=O)c2ccc(-c3c4nc(c(-c5cc(S(=O)(=O)[O-])ccc5F)c5ccc([nH]5)c(-c5cc(S(=O)(=O)[O-])ccc5F)c5nc(c(-c6cc(S(=O)(=O)[O-])ccc6F)c6ccc3[nH]6)C=C5)C=C4)cc2)CC[C@@H](Sc2ccc(Cl)c(Cl)c2)C1
REMARK SMILES IDX 7 1 6 2 5 3 3 4 4 5 2 7 75 8 87 9 76 10 77 11 1 12 78 16
REMARK SMILES IDX 79 17 80 18 86 19 81 20 84 21 82 22 85 23 83 24 8 25 9 26
REMARK SMILES IDX 10 27 11 29 12 30 13 31 74 32 14 33 73 34 15 35 16 36 17 37
REMARK SMILES IDX 67 38 18 39 72 40 66 41 68 42 19 43 71 44 65 45 64 46 20 48
REMARK SMILES IDX 52 49 32 50 51 51 33 52 36 53 50 54 69 55 34 56 35 57 49 59
REMARK SMILES IDX 70 60 37 61 21 62 22 63 30 64 23 65 29 66 31 67 28 68 24 69
REMARK SMILES IDX 25 70 26 71 27 72 53 73 54 74 62 75 55 76 61 77 63 78 60 79
REMARK SMILES IDX 56 80 57 81 58 82 59 83 38 84 39 85 47 86 40 87 46 88 48 89
REMARK SMILES IDX 45 90 41 91 42 92 43 93 44 94
REMARK H PARENT 5 6 1 13 1 14 1 15 9 28 68 47 36 58
REMARK Flexibility Score: inf
ROOT
ATOM      1  C   UNL A   1      31.557  32.041  26.562  1.00  0.00     0.042 C 
ENDROOT
BRANCH   1   2
ATOM      2  C   UNL A   1      31.638  30.537  26.356  1.00  0.00     0.118 C 
BRANCH   2   3
ATOM      3  N   UNL A   1      31.409  30.138  24.980  1.00  0.00    -0.351 N 
ATOM      4  C   UNL A   1      31.913  29.143  24.202  1.00  0.00     0.281 C 
ATOM      5  O   UNL A   1      31.405  29.033  23.080  1.00  0.00    -0.268 OA
ATOM      6  H   UNL A   1      30.753  30.705  24.512  1.00  0.00     0.163 HD
BRANCH   4   7
ATOM      7  C   UNL A   1      33.117  28.256  24.618  1.00  0.00     0.175 C 
ATOM      8  C   UNL A   1      32.739  27.313  25.774  1.00  0.00     0.080 C 
ATOM      9  C   UNL A   1      33.474  27.277  23.481  1.00  0.00     0.094 C 
ATOM     10  C   UNL A   1      33.754  26.181  25.670  1.00  0.00     0.022 C 
ATOM     11  C   UNL A   1      33.943  25.980  24.164  1.00  0.00     0.058 C 
BRANCH   7  12
ATOM     12  N   UNL A   1      34.298  29.006  25.091  1.00  0.00    -0.345 N 
ATOM     13  H   UNL A   1      34.512  29.753  24.432  1.00  0.00     0.345 HD
ATOM     14  H   UNL A   1      35.095  28.375  25.161  1.00  0.00     0.345 HD
ATOM     15  H   UNL A   1      34.100  29.407  26.008  1.00  0.00     0.345 HD
ENDBRANCH   7  12
BRANCH  11  16
ATOM     16  S   UNL A   1      33.156  24.455  23.484  1.00  0.00    -0.122 SA
BRANCH  16  17
ATOM     17  C   UNL A   1      34.302  23.165  23.934  1.00  0.00     0.009 A 
ATOM     18  C   UNL A   1      35.677  23.424  23.924  1.00  0.00     0.017 A 
ATOM     19  C   UNL A   1      33.854  21.875  24.232  1.00  0.00     0.037 A 
ATOM     20  C   UNL A   1      36.591  22.418  24.245  1.00  0.00     0.023 A 
ATOM     21  C   UNL A   1      34.765  20.864  24.558  1.00  0.00     0.060 A 
ATOM     22  C   UNL A   1      36.138  21.137  24.568  1.00  0.00     0.059 A 
ATOM     23  Cl  UNL A   1      34.134  19.296  24.921  1.00  0.00    -0.083 Cl
ATOM     24  Cl  UNL A   1      37.323  19.937  24.947  1.00  0.00    -0.083 Cl
ENDBRANCH  16  17
ENDBRANCH  11  16
ENDBRANCH   4   7
ENDBRANCH   2   3
ENDBRANCH   1   2
BRANCH   1  25
ATOM     25  C   UNL A   1      32.760  32.647  27.270  1.00  0.00     0.118 C 
BRANCH  25  26
ATOM     26  N   UNL A   1      32.560  34.046  27.626  1.00  0.00    -0.352 N 
ATOM     27  C   UNL A   1      33.119  34.804  28.626  1.00  0.00     0.251 C 
ATOM     28  H   UNL A   1      31.919  34.527  27.056  1.00  0.00     0.163 HD
ATOM     29  O   UNL A   1      32.633  35.906  28.879  1.00  0.00    -0.269 OA
BRANCH  27  30
ATOM     30  C   UNL A   1      34.268  34.299  29.411  1.00  0.00     0.039 A 
ATOM     31  C   UNL A   1      34.027  33.536  30.557  1.00  0.00     0.014 A 
ATOM     32  C   UNL A   1      35.581  34.591  29.040  1.00  0.00     0.014 A 
ATOM     33  C   UNL A   1      35.101  33.002  31.276  1.00  0.00     0.010 A 
ATOM     34  C   UNL A   1      36.644  33.973  29.691  1.00  0.00     0.010 A 
ATOM     35  C   UNL A   1      36.418  33.177  30.823  1.00  0.00    -0.014 A 
BRANCH  35  36
ATOM     36  C   UNL A   1      37.572  32.552  31.525  1.00  0.00     0.031 A 
ATOM     37  C   UNL A   1      38.306  31.398  30.893  1.00  0.00     0.074 A 
ATOM     38  C   UNL A   1      37.918  32.983  32.756  1.00  0.00     0.049 A 
ATOM     39  N   UNL A   1      39.277  30.669  31.379  1.00  0.00    -0.248 NA
ATOM     40  C   UNL A   1      37.865  30.991  29.551  1.00  0.00     0.031 C 
ATOM     41  C   UNL A   1      37.259  34.065  33.489  1.00  0.00     0.029 A 
ATOM     42  N   UNL A   1      38.906  32.561  33.611  1.00  0.00    -0.354 N 
ATOM     43  C   UNL A   1      39.555  29.711  30.408  1.00  0.00     0.074 A 
ATOM     44  C   UNL A   1      38.599  29.908  29.341  1.00  0.00     0.031 C 
ATOM     45  C   UNL A   1      37.882  34.245  34.665  1.00  0.00     0.029 A 
ATOM     46  C   UNL A   1      38.947  33.257  34.798  1.00  0.00     0.049 A 
ATOM     47  H   UNL A   1      39.527  31.827  33.395  1.00  0.00     0.167 HD
ATOM     48  C   UNL A   1      40.534  28.773  30.395  1.00  0.00     0.034 A 
ATOM     49  C   UNL A   1      39.742  33.107  35.876  1.00  0.00     0.034 A 
ATOM     50  C   UNL A   1      41.487  28.596  31.464  1.00  0.00     0.049 A 
ATOM     51  C   UNL A   1      40.800  32.031  35.854  1.00  0.00     0.074 A 
ATOM     52  C   UNL A   1      42.547  27.708  31.537  1.00  0.00     0.029 A 
ATOM     53  N   UNL A   1      41.492  29.315  32.654  1.00  0.00    -0.354 N 
ATOM     54  N   UNL A   1      41.078  31.164  34.907  1.00  0.00    -0.248 NA
ATOM     55  C   UNL A   1      41.657  31.922  37.041  1.00  0.00     0.031 C 
ATOM     56  C   UNL A   1      43.142  27.838  32.795  1.00  0.00     0.029 A 
ATOM     57  C   UNL A   1      42.515  28.868  33.476  1.00  0.00     0.049 A 
ATOM     58  H   UNL A   1      40.861  30.037  32.879  1.00  0.00     0.167 HD
ATOM     59  C   UNL A   1      42.168  30.433  35.373  1.00  0.00     0.074 A 
ATOM     60  C   UNL A   1      42.504  30.972  36.673  1.00  0.00     0.031 C 
ATOM     61  C   UNL A   1      42.834  29.410  34.777  1.00  0.00     0.034 A 
BRANCH  48  62
ATOM     62  C   UNL A   1      40.604  27.856  29.196  1.00  0.00     0.023 A 
ATOM     63  C   UNL A   1      41.533  28.064  28.160  1.00  0.00     0.031 A 
ATOM     64  C   UNL A   1      39.717  26.772  29.071  1.00  0.00     0.131 A 
ATOM     65  C   UNL A   1      41.501  27.255  27.015  1.00  0.00     0.055 A 
ATOM     66  C   UNL A   1      39.750  25.915  27.969  1.00  0.00     0.041 A 
ATOM     67  F   UNL A   1      38.792  26.533  30.015  1.00  0.00    -0.206 F 
ATOM     68  C   UNL A   1      40.635  26.163  26.924  1.00  0.00     0.022 A 
BRANCH  65  69
ATOM     69  S   UNL A   1      42.501  27.743  25.583  1.00  0.00     0.124 S 
ATOM     70  O   UNL A   1      43.828  27.875  26.181  1.00  0.00    -0.237 OA
ATOM     71  O   UNL A   1      42.321  26.617  24.674  1.00  0.00    -0.237 OA
ATOM     72  O   UNL A   1      41.893  28.999  25.151  1.00  0.00    -0.744 OA
ENDBRANCH  65  69
ENDBRANCH  48  62
BRANCH  49  73
ATOM     73  C   UNL A   1      39.575  33.985  37.071  1.00  0.00     0.023 A 
ATOM     74  C   UNL A   1      38.992  33.495  38.251  1.00  0.00     0.031 A 
ATOM     75  C   UNL A   1      39.943  35.342  37.034  1.00  0.00     0.131 A 
ATOM     76  C   UNL A   1      38.744  34.365  39.324  1.00  0.00     0.055 A 
ATOM     77  C   UNL A   1      39.751  36.189  38.127  1.00  0.00     0.041 A 
ATOM     78  F   UNL A   1      40.506  35.864  35.933  1.00  0.00    -0.206 F 
ATOM     79  C   UNL A   1      39.133  35.705  39.276  1.00  0.00     0.022 A 
BRANCH  76  80
ATOM     80  S   UNL A   1      37.807  33.743  40.748  1.00  0.00     0.124 S 
ATOM     81  O   UNL A   1      36.695  33.062  40.095  1.00  0.00    -0.237 OA
ATOM     82  O   UNL A   1      38.789  32.887  41.404  1.00  0.00    -0.237 OA
ATOM     83  O   UNL A   1      37.454  34.959  41.479  1.00  0.00    -0.744 OA
ENDBRANCH  76  80
ENDBRANCH  49  73
BRANCH  61  84
ATOM     84  C   UNL A   1      44.030  28.849  35.510  1.00  0.00     0.023 A 
ATOM     85  C   UNL A   1      43.922  27.742  36.369  1.00  0.00     0.031 A 
ATOM     86  C   UNL A   1      45.295  29.443  35.356  1.00  0.00     0.131 A 
ATOM     87  C   UNL A   1      45.044  27.304  37.090  1.00  0.00     0.055 A 
ATOM     88  C   UNL A   1      46.422  28.959  36.021  1.00  0.00     0.041 A 
ATOM     89  F   UNL A   1      45.458  30.507  34.551  1.00  0.00    -0.206 F 
ATOM     90  C   UNL A   1      46.297  27.893  36.906  1.00  0.00     0.022 A 
BRANCH  87  91
ATOM     91  S   UNL A   1      44.819  26.025  38.356  1.00  0.00     0.124 S 
ATOM     92  O   UNL A   1      46.186  25.559  38.563  1.00  0.00    -0.237 OA
ATOM     93  O   UNL A   1      44.228  26.778  39.458  1.00  0.00    -0.237 OA
ATOM     94  O   UNL A   1      43.925  25.062  37.716  1.00  0.00    -0.744 OA
ENDBRANCH  87  91
ENDBRANCH  61  84
ENDBRANCH  35  36
ENDBRANCH  27  30
ENDBRANCH  25  26
ENDBRANCH   1  25
TORSDOF 16
ENDMDL
MODEL 2
REMARK VINA RESULT:     -12.0      2.376      3.283
REMARK SMILES [NH3+][C@]1(C(=O)NCCCNC(=O)c2ccc(-c3c4nc(c(-c5cc(S(=O)(=O)[O-])ccc5F)c5ccc([nH]5)c(-c5cc(S(=O)(=O)[O-])ccc5F)c5nc(c(-c6cc(S(=O)(=O)[O-])ccc6F)c6ccc3[nH]6)C=C5)C=C4)cc2)CC[C@@H](Sc2ccc(Cl)c(Cl)c2)C1
REMARK SMILES IDX 7 1 6 2 5 3 3 4 4 5 2 7 75 8 87 9 76 10 77 11 1 12 78 16
REMARK SMILES IDX 79 17 80 18 86 19 81 20 84 21 82 22 85 23 83 24 8 25 9 26
REMARK SMILES IDX 10 27 11 29 12 30 13 31 74 32 14 33 73 34 15 35 16 36 17 37
REMARK SMILES IDX 67 38 18 39 72 40 66 41 68 42 19 43 71 44 65 45 64 46 20 48
REMARK SMILES IDX 52 49 32 50 51 51 33 52 36 53 50 54 69 55 34 56 35 57 49 59
REMARK SMILES IDX 70 60 37 61 21 62 22 63 30 64 23 65 29 66 31 67 28 68 24 69
REMARK SMILES IDX 25 70 26 71 27 72 53 73 54 74 62 75 55 76 61 77 63 78 60 79
REMARK SMILES IDX 56 80 57 81 58 82 59 83 38 84 39 85 47 86 40 87 46 88 48 89
REMARK SMILES IDX 45 90 41 91 42 92 43 93 44 94
REMARK H PARENT 5 6 1 13 1 14 1 15 9 28 68 47 36 58
REMARK Flexibility Score: inf
ROOT
ATOM      1  C   UNL A   1      32.456  28.014  26.054  1.00  0.00     0.042 C 
ENDROOT
BRANCH   1   2
ATOM      2  C   UNL A   1      31.318  27.286  25.357  1.00  0.00     0.118 C 
BRANCH   2   3
ATOM      3  N   UNL A   1      30.946  27.891  24.092  1.00  0.00    -0.351 N 
ATOM      4  C   UNL A   1      30.980  27.454  22.804  1.00  0.00     0.281 C 
ATOM      5  O   UNL A   1      30.479  28.214  21.968  1.00  0.00    -0.268 OA
ATOM      6  H   UNL A   1      30.596  28.807  24.184  1.00  0.00     0.163 HD
BRANCH   4   7
ATOM      7  C   UNL A   1      31.691  26.147  22.361  1.00  0.00     0.175 C 
ATOM      8  C   UNL A   1      33.143  26.106  22.868  1.00  0.00     0.080 C 
ATOM      9  C   UNL A   1      31.051  24.930  23.061  1.00  0.00     0.094 C 
ATOM     10  C   UNL A   1      33.488  24.622  22.873  1.00  0.00     0.022 C 
ATOM     11  C   UNL A   1      32.196  23.935  23.321  1.00  0.00     0.058 C 
BRANCH   7  12
ATOM     12  N   UNL A   1      31.778  25.960  20.899  1.00  0.00    -0.345 N 
ATOM     13  H   UNL A   1      32.361  26.692  20.497  1.00  0.00     0.345 HD
ATOM     14  H   UNL A   1      30.843  26.009  20.494  1.00  0.00     0.345 HD
ATOM     15  H   UNL A   1      32.189  25.048  20.697  1.00  0.00     0.345 HD
ENDBRANCH   7  12
BRANCH  11  16
ATOM     16  S   UNL A   1      32.229  23.276  25.046  1.00  0.00    -0.122 SA
BRANCH  16  17
ATOM     17  C   UNL A   1      32.971  21.666  24.857  1.00  0.00     0.009 A 
ATOM     18  C   UNL A   1      32.155  20.546  24.655  1.00  0.00     0.017 A 
ATOM     19  C   UNL A   1      34.352  21.490  24.974  1.00  0.00     0.037 A 
ATOM     20  C   UNL A   1      32.716  19.272  24.534  1.00  0.00     0.023 A 
ATOM     21  C   UNL A   1      34.920  20.216  24.850  1.00  0.00     0.060 A 
ATOM     22  C   UNL A   1      34.099  19.104  24.626  1.00  0.00     0.059 A 
ATOM     23  Cl  UNL A   1      36.636  20.080  25.001  1.00  0.00    -0.083 Cl
ATOM     24  Cl  UNL A   1      34.725  17.501  24.476  1.00  0.00    -0.083 Cl
ENDBRANCH  16  17
ENDBRANCH  11  16
ENDBRANCH   4   7
ENDBRANCH   2   3
ENDBRANCH   1   2
BRANCH   1  25
ATOM     25  C   UNL A   1      33.020  29.195  25.276  1.00  0.00     0.118 C 
BRANCH  25  26
ATOM     26  N   UNL A   1      32.571  30.480  25.796  1.00  0.00    -0.352 N 
ATOM     27  C   UNL A   1      33.023  31.223  26.860  1.00  0.00     0.251 C 
ATOM     28  H   UNL A   1      31.819  30.882  25.304  1.00  0.00     0.163 HD
ATOM     29  O   UNL A   1      32.345  32.173  27.252  1.00  0.00    -0.269 OA
BRANCH  27  30
ATOM     30  C   UNL A   1      34.287  30.876  27.547  1.00  0.00     0.039 A 
ATOM     31  C   UNL A   1      35.267  31.859  27.708  1.00  0.00     0.014 A 
ATOM     32  C   UNL A   1      34.523  29.583  28.016  1.00  0.00     0.014 A 
ATOM     33  C   UNL A   1      36.441  31.563  28.407  1.00  0.00     0.010 A 
ATOM     34  C   UNL A   1      35.640  29.319  28.802  1.00  0.00     0.010 A 
ATOM     35  C   UNL A   1      36.618  30.304  29.001  1.00  0.00    -0.014 A 
BRANCH  35  36
ATOM     36  C   UNL A   1      37.822  29.990  29.817  1.00  0.00     0.031 A 
ATOM     37  C   UNL A   1      38.880  29.064  29.277  1.00  0.00     0.074 A 
ATOM     38  C   UNL A   1      37.931  30.487  31.067  1.00  0.00     0.049 A 
ATOM     39  N   UNL A   1      39.955  28.603  29.864  1.00  0.00    -0.248 NA
ATOM     40  C   UNL A   1      38.685  28.565  27.907  1.00  0.00     0.031 C 
ATOM     41  C   UNL A   1      36.952  31.362  31.716  1.00  0.00     0.029 A 
ATOM     42  N   UNL A   1      38.908  30.325  32.017  1.00  0.00    -0.354 N 
ATOM     43  C   UNL A   1      40.556  27.752  28.940  1.00  0.00     0.074 A 
ATOM     44  C   UNL A   1      39.686  27.706  27.786  1.00  0.00     0.031 C 
ATOM     45  C   UNL A   1      37.397  31.687  32.941  1.00  0.00     0.029 A 
ATOM     46  C   UNL A   1      38.660  31.002  33.190  1.00  0.00     0.049 A 
ATOM     47  H   UNL A   1      39.713  29.775  31.872  1.00  0.00     0.167 HD
ATOM     48  C   UNL A   1      41.738  27.094  29.034  1.00  0.00     0.034 A 
ATOM     49  C   UNL A   1      39.363  31.053  34.338  1.00  0.00     0.034 A 
ATOM     50  C   UNL A   1      42.600  27.160  30.190  1.00  0.00     0.049 A 
ATOM     51  C   UNL A   1      40.656  30.282  34.434  1.00  0.00     0.074 A 
ATOM     52  C   UNL A   1      43.840  26.571  30.376  1.00  0.00     0.029 A 
ATOM     53  N   UNL A   1      42.312  27.850  31.361  1.00  0.00    -0.354 N 
ATOM     54  N   UNL A   1      41.233  29.520  33.532  1.00  0.00    -0.248 NA
ATOM     55  C   UNL A   1      41.398  30.388  35.696  1.00  0.00     0.031 C 
ATOM     56  C   UNL A   1      44.262  26.840  31.681  1.00  0.00     0.029 A 
ATOM     57  C   UNL A   1      43.333  27.673  32.282  1.00  0.00     0.049 A 
ATOM     58  H   UNL A   1      41.500  28.386  31.514  1.00  0.00     0.167 HD
ATOM     59  C   UNL A   1      42.424  29.087  34.110  1.00  0.00     0.074 A 
ATOM     60  C   UNL A   1      42.489  29.687  35.426  1.00  0.00     0.031 C 
ATOM     61  C   UNL A   1      43.381  28.272  33.597  1.00  0.00     0.034 A 
BRANCH  48  62
ATOM     62  C   UNL A   1      42.151  26.233  27.864  1.00  0.00     0.023 A 
ATOM     63  C   UNL A   1      41.673  24.919  27.707  1.00  0.00     0.031 A 
ATOM     64  C   UNL A   1      43.053  26.721  26.900  1.00  0.00     0.131 A 
ATOM     65  C   UNL A   1      42.157  24.115  26.664  1.00  0.00     0.055 A 
ATOM     66  C   UNL A   1      43.462  25.944  25.814  1.00  0.00     0.041 A 
ATOM     67  F   UNL A   1      43.563  27.958  27.005  1.00  0.00    -0.206 F 
ATOM     68  C   UNL A   1      43.027  24.628  25.700  1.00  0.00     0.022 A 
BRANCH  65  69
ATOM     69  S   UNL A   1      41.753  22.347  26.677  1.00  0.00     0.124 S 
ATOM     70  O   UNL A   1      42.262  21.919  25.376  1.00  0.00    -0.237 OA
ATOM     71  O   UNL A   1      42.490  21.864  27.840  1.00  0.00    -0.237 OA
ATOM     72  O   UNL A   1      40.299  22.328  26.807  1.00  0.00    -0.744 OA
ENDBRANCH  65  69
ENDBRANCH  48  62
BRANCH  49  73
ATOM     73  C   UNL A   1      38.867  31.853  35.497  1.00  0.00     0.023 A 
ATOM     74  C   UNL A   1      38.316  31.225  36.626  1.00  0.00     0.031 A 
ATOM     75  C   UNL A   1      38.884  33.259  35.471  1.00  0.00     0.131 A 
ATOM     76  C   UNL A   1      37.756  31.997  37.655  1.00  0.00     0.055 A 
ATOM     77  C   UNL A   1      38.382  34.024  36.526  1.00  0.00     0.041 A 
ATOM     78  F   UNL A   1      39.401  33.913  34.418  1.00  0.00    -0.206 F 
ATOM     79  C   UNL A   1      37.798  33.392  37.620  1.00  0.00     0.022 A 
BRANCH  76  80
ATOM     80  S   UNL A   1      36.874  31.150  38.995  1.00  0.00     0.124 S 
ATOM     81  O   UNL A   1      35.642  31.927  39.076  1.00  0.00    -0.237 OA
ATOM     82  O   UNL A   1      36.746  29.797  38.464  1.00  0.00    -0.237 OA
ATOM     83  O   UNL A   1      37.777  31.288  40.136  1.00  0.00    -0.744 OA
ENDBRANCH  76  80
ENDBRANCH  49  73
BRANCH  61  84
ATOM     84  C   UNL A   1      44.606  28.028  34.447  1.00  0.00     0.023 A 
ATOM     85  C   UNL A   1      44.657  26.994  35.397  1.00  0.00     0.031 A 
ATOM     86  C   UNL A   1      45.734  28.858  34.313  1.00  0.00     0.131 A 
ATOM     87  C   UNL A   1      45.786  26.855  36.219  1.00  0.00     0.055 A 
ATOM     88  C   UNL A   1      46.881  28.671  35.084  1.00  0.00     0.041 A 
ATOM     89  F   UNL A   1      45.740  29.865  33.424  1.00  0.00    -0.206 F 
ATOM     90  C   UNL A   1      46.906  27.674  36.055  1.00  0.00     0.022 A 
BRANCH  87  91
ATOM     91  S   UNL A   1      45.728  25.661  37.582  1.00  0.00     0.124 S 
ATOM     92  O   UNL A   1      44.661  24.762  37.154  1.00  0.00    -0.237 OA
ATOM     93  O   UNL A   1      47.077  25.102  37.565  1.00  0.00    -0.237 OA
ATOM     94  O   UNL A   1      45.414  26.486  38.748  1.00  0.00    -0.744 OA
ENDBRANCH  87  91
ENDBRANCH  61  84
ENDBRANCH  35  36
ENDBRANCH  27  30
ENDBRANCH  25  26
ENDBRANCH   1  25
TORSDOF 16
ENDMDL
MODEL 3
REMARK VINA RESULT:     -11.8      3.765      8.945
REMARK SMILES [NH3+][C@]1(C(=O)NCCCNC(=O)c2ccc(-c3c4nc(c(-c5cc(S(=O)(=O)[O-])ccc5F)c5ccc([nH]5)c(-c5cc(S(=O)(=O)[O-])ccc5F)c5nc(c(-c6cc(S(=O)(=O)[O-])ccc6F)c6ccc3[nH]6)C=C5)C=C4)cc2)CC[C@@H](Sc2ccc(Cl)c(Cl)c2)C1
REMARK SMILES IDX 7 1 6 2 5 3 3 4 4 5 2 7 75 8 87 9 76 10 77 11 1 12 78 16
REMARK SMILES IDX 79 17 80 18 86 19 81 20 84 21 82 22 85 23 83 24 8 25 9 26
REMARK SMILES IDX 10 27 11 29 12 30 13 31 74 32 14 33 73 34 15 35 16 36 17 37
REMARK SMILES IDX 67 38 18 39 72 40 66 41 68 42 19 43 71 44 65 45 64 46 20 48
REMARK SMILES IDX 52 49 32 50 51 51 33 52 36 53 50 54 69 55 34 56 35 57 49 59
REMARK SMILES IDX 70 60 37 61 21 62 22 63 30 64 23 65 29 66 31 67 28 68 24 69
REMARK SMILES IDX 25 70 26 71 27 72 53 73 54 74 62 75 55 76 61 77 63 78 60 79
REMARK SMILES IDX 56 80 57 81 58 82 59 83 38 84 39 85 47 86 40 87 46 88 48 89
REMARK SMILES IDX 45 90 41 91 42 92 43 93 44 94
REMARK H PARENT 5 6 1 13 1 14 1 15 9 28 68 47 36 58
REMARK Flexibility Score: inf
ROOT
ATOM      1  C   UNL A   1      32.785  28.406  26.973  1.00  0.00     0.042 C 
ENDROOT
BRANCH   1   2
ATOM      2  C   UNL A   1      32.538  27.103  26.230  1.00  0.00     0.118 C 
BRANCH   2   3
ATOM      3  N   UNL A   1      31.326  26.428  26.653  1.00  0.00    -0.351 N 
ATOM      4  C   UNL A   1      30.236  25.964  25.983  1.00  0.00     0.281 C 
ATOM      5  O   UNL A   1      29.419  25.335  26.665  1.00  0.00    -0.268 OA
ATOM      6  H   UNL A   1      31.282  26.274  27.624  1.00  0.00     0.163 HD
BRANCH   4   7
ATOM      7  C   UNL A   1      29.950  26.276  24.490  1.00  0.00     0.175 C 
ATOM      8  C   UNL A   1      30.398  27.703  24.126  1.00  0.00     0.080 C 
ATOM      9  C   UNL A   1      30.837  25.399  23.584  1.00  0.00     0.094 C 
ATOM     10  C   UNL A   1      30.594  27.651  22.616  1.00  0.00     0.022 C 
ATOM     11  C   UNL A   1      31.186  26.263  22.359  1.00  0.00     0.058 C 
BRANCH   7  12
ATOM     12  N   UNL A   1      28.526  26.200  24.109  1.00  0.00    -0.345 N 
ATOM     13  H   UNL A   1      28.380  26.708  23.237  1.00  0.00     0.345 HD
ATOM     14  H   UNL A   1      27.955  26.617  24.845  1.00  0.00     0.345 HD
ATOM     15  H   UNL A   1      28.258  25.224  23.983  1.00  0.00     0.345 HD
ENDBRANCH   7  12
BRANCH  11  16
ATOM     16  S   UNL A   1      32.982  26.256  21.932  1.00  0.00    -0.122 SA
BRANCH  16  17
ATOM     17  C   UNL A   1      33.593  24.795  22.751  1.00  0.00     0.009 A 
ATOM     18  C   UNL A   1      33.174  23.531  22.319  1.00  0.00     0.017 A 
ATOM     19  C   UNL A   1      34.434  24.891  23.863  1.00  0.00     0.037 A 
ATOM     20  C   UNL A   1      33.620  22.376  22.967  1.00  0.00     0.023 A 
ATOM     21  C   UNL A   1      34.886  23.736  24.514  1.00  0.00     0.060 A 
ATOM     22  C   UNL A   1      34.480  22.475  24.063  1.00  0.00     0.059 A 
ATOM     23  Cl  UNL A   1      35.928  23.936  25.878  1.00  0.00    -0.083 Cl
ATOM     24  Cl  UNL A   1      34.985  21.008  24.822  1.00  0.00    -0.083 Cl
ENDBRANCH  16  17
ENDBRANCH  11  16
ENDBRANCH   4   7
ENDBRANCH   2   3
ENDBRANCH   1   2
BRANCH   1  25
ATOM     25  C   UNL A   1      33.652  29.406  26.223  1.00  0.00     0.118 C 
BRANCH  25  26
ATOM     26  N   UNL A   1      33.634  30.733  26.825  1.00  0.00    -0.352 N 
ATOM     27  C   UNL A   1      34.434  31.287  27.795  1.00  0.00     0.251 C 
ATOM     28  H   UNL A   1      32.932  31.331  26.481  1.00  0.00     0.163 HD
ATOM     29  O   UNL A   1      34.093  32.352  28.311  1.00  0.00    -0.269 OA
BRANCH  27  30
ATOM     30  C   UNL A   1      35.671  30.608  28.240  1.00  0.00     0.039 A 
ATOM     31  C   UNL A   1      36.874  30.885  27.584  1.00  0.00     0.014 A 
ATOM     32  C   UNL A   1      35.652  29.682  29.285  1.00  0.00     0.014 A 
ATOM     33  C   UNL A   1      38.061  30.296  28.030  1.00  0.00     0.010 A 
ATOM     34  C   UNL A   1      36.845  29.181  29.794  1.00  0.00     0.010 A 
ATOM     35  C   UNL A   1      38.065  29.475  29.168  1.00  0.00    -0.014 A 
BRANCH  35  36
ATOM     36  C   UNL A   1      39.326  28.901  29.711  1.00  0.00     0.031 A 
ATOM     37  C   UNL A   1      39.999  29.541  30.897  1.00  0.00     0.074 A 
ATOM     38  C   UNL A   1      39.898  27.845  29.096  1.00  0.00     0.049 A 
ATOM     39  N   UNL A   1      41.140  29.243  31.463  1.00  0.00    -0.248 NA
ATOM     40  C   UNL A   1      39.310  30.688  31.508  1.00  0.00     0.031 C 
ATOM     41  C   UNL A   1      39.365  27.163  27.915  1.00  0.00     0.029 A 
ATOM     42  N   UNL A   1      41.055  27.161  29.375  1.00  0.00    -0.354 N 
ATOM     43  C   UNL A   1      41.312  30.172  32.485  1.00  0.00     0.074 A 
ATOM     44  C   UNL A   1      40.192  31.085  32.411  1.00  0.00     0.031 C 
ATOM     45  C   UNL A   1      40.173  26.140  27.594  1.00  0.00     0.029 A 
ATOM     46  C   UNL A   1      41.311  26.124  28.507  1.00  0.00     0.049 A 
ATOM     47  H   UNL A   1      41.649  27.393  30.127  1.00  0.00     0.167 HD
ATOM     48  C   UNL A   1      42.295  30.239  33.416  1.00  0.00     0.034 A 
ATOM     49  C   UNL A   1      42.349  25.267  28.444  1.00  0.00     0.034 A 
ATOM     50  C   UNL A   1      43.399  29.313  33.482  1.00  0.00     0.049 A 
ATOM     51  C   UNL A   1      43.451  25.385  29.468  1.00  0.00     0.074 A 
ATOM     52  C   UNL A   1      44.426  29.260  34.409  1.00  0.00     0.029 A 
ATOM     53  N   UNL A   1      43.627  28.280  32.581  1.00  0.00    -0.354 N 
ATOM     54  N   UNL A   1      43.572  26.241  30.457  1.00  0.00    -0.248 NA
ATOM     55  C   UNL A   1      44.548  24.414  29.374  1.00  0.00     0.031 C 
ATOM     56  C   UNL A   1      45.312  28.248  34.025  1.00  0.00     0.029 A 
ATOM     57  C   UNL A   1      44.794  27.608  32.912  1.00  0.00     0.049 A 
ATOM     58  H   UNL A   1      43.044  28.058  31.818  1.00  0.00     0.167 HD
ATOM     59  C   UNL A   1      44.742  25.885  31.124  1.00  0.00     0.074 A 
ATOM     60  C   UNL A   1      45.276  24.730  30.435  1.00  0.00     0.031 C 
ATOM     61  C   UNL A   1      45.320  26.459  32.210  1.00  0.00     0.034 A 
BRANCH  48  62
ATOM     62  C   UNL A   1      42.226  31.366  34.421  1.00  0.00     0.023 A 
ATOM     63  C   UNL A   1      41.278  31.372  35.460  1.00  0.00     0.031 A 
ATOM     64  C   UNL A   1      43.104  32.461  34.329  1.00  0.00     0.131 A 
ATOM     65  C   UNL A   1      41.177  32.482  36.312  1.00  0.00     0.055 A 
ATOM     66  C   UNL A   1      43.057  33.522  35.236  1.00  0.00     0.041 A 
ATOM     67  F   UNL A   1      44.017  32.525  33.347  1.00  0.00    -0.206 F 
ATOM     68  C   UNL A   1      42.079  33.545  36.225  1.00  0.00     0.022 A 
BRANCH  65  69
ATOM     69  S   UNL A   1      39.755  32.586  37.433  1.00  0.00     0.124 S 
ATOM     70  O   UNL A   1      40.404  32.525  38.740  1.00  0.00    -0.237 OA
ATOM     71  O   UNL A   1      39.163  33.870  37.074  1.00  0.00    -0.237 OA
ATOM     72  O   UNL A   1      38.958  31.412  37.085  1.00  0.00    -0.744 OA
ENDBRANCH  65  69
ENDBRANCH  48  62
BRANCH  49  73
ATOM     73  C   UNL A   1      42.411  24.225  27.378  1.00  0.00     0.023 A 
ATOM     74  C   UNL A   1      41.683  23.030  27.492  1.00  0.00     0.031 A 
ATOM     75  C   UNL A   1      43.241  24.383  26.253  1.00  0.00     0.131 A 
ATOM     76  C   UNL A   1      41.841  22.018  26.532  1.00  0.00     0.055 A 
ATOM     77  C   UNL A   1      43.346  23.399  25.268  1.00  0.00     0.041 A 
ATOM     78  F   UNL A   1      43.958  25.507  26.090  1.00  0.00    -0.206 F 
ATOM     79  C   UNL A   1      42.656  22.200  25.414  1.00  0.00     0.022 A 
BRANCH  76  80
ATOM     80  S   UNL A   1      41.044  20.414  26.823  1.00  0.00     0.124 S 
ATOM     81  O   UNL A   1      42.054  19.488  26.322  1.00  0.00    -0.237 OA
ATOM     82  O   UNL A   1      40.849  20.431  28.268  1.00  0.00    -0.237 OA
ATOM     83  O   UNL A   1      39.820  20.494  26.028  1.00  0.00    -0.744 OA
ENDBRANCH  76  80
ENDBRANCH  49  73
BRANCH  61  84
ATOM     84  C   UNL A   1      46.570  25.805  32.750  1.00  0.00     0.023 A 
ATOM     85  C   UNL A   1      47.838  26.055  32.197  1.00  0.00     0.031 A 
ATOM     86  C   UNL A   1      46.486  24.904  33.827  1.00  0.00     0.131 A 
ATOM     87  C   UNL A   1      48.960  25.364  32.680  1.00  0.00     0.055 A 
ATOM     88  C   UNL A   1      47.616  24.274  34.350  1.00  0.00     0.041 A 
ATOM     89  F   UNL A   1      45.301  24.623  34.393  1.00  0.00    -0.206 F 
ATOM     90  C   UNL A   1      48.860  24.490  33.766  1.00  0.00     0.022 A 
BRANCH  87  91
ATOM     91  S   UNL A   1      50.535  25.538  31.797  1.00  0.00     0.124 S 
ATOM     92  O   UNL A   1      51.425  26.007  32.853  1.00  0.00    -0.237 OA
ATOM     93  O   UNL A   1      50.775  24.180  31.318  1.00  0.00    -0.237 OA
ATOM     94  O   UNL A   1      50.237  26.518  30.755  1.00  0.00    -0.744 OA
ENDBRANCH  87  91
ENDBRANCH  61  84
ENDBRANCH  35  36
ENDBRANCH  27  30
ENDBRANCH  25  26
ENDBRANCH   1  25
TORSDOF 16
ENDMDL
