MODEL 1
REMARK VINA RESULT:     -10.1      0.000      0.000
REMARK SMILES O=C(CCCNc1ccccc1SC(F)F)NCCCNC(=O)c1ccc(-c2c3nc(c(-c4cc(S(=O)(=O)[O-])ccc4F)c4ccc([nH]4)c(-c4cc(S(=O)(=O)[O-])ccc4F)c4nc(c(-c5cc(S(=O)(=O)[O-])ccc5F)c5ccc2[nH]5)C=C4)C=C3)cc1
REMARK SMILES IDX 1 1 2 2 17 3 3 5 4 6 5 7 6 8 7 10 8 11 12 12 9 13 11 14
REMARK SMILES IDX 10 15 13 16 14 17 15 18 16 19 18 20 19 21 20 22 21 23 22 24
REMARK SMILES IDX 23 26 24 27 25 28 86 29 26 30 85 31 27 32 28 33 29 34 79 35
REMARK SMILES IDX 30 36 84 37 78 38 80 39 31 40 83 41 77 42 76 43 32 45 64 46
REMARK SMILES IDX 44 47 63 48 45 49 48 50 62 51 81 52 46 53 47 54 61 56 82 57
REMARK SMILES IDX 49 58 33 59 34 60 42 61 35 62 41 63 43 64 40 65 36 66 37 67
REMARK SMILES IDX 38 68 39 69 65 70 66 71 74 72 67 73 73 74 75 75 72 76 68 77
REMARK SMILES IDX 69 78 70 79 71 80 50 81 51 82 59 83 52 84 58 85 60 86 57 87
REMARK SMILES IDX 53 88 54 89 55 90 56 91
REMARK H PARENT 17 4 6 9 21 25 80 44 48 55
REMARK Flexibility Score: inf
ROOT
ATOM      1  O   UNL A   1      30.769  26.715  26.412  1.00  0.00    -0.275 OA
ATOM      2  C   UNL A   1      30.574  26.757  25.202  1.00  0.00     0.220 C 
ATOM      3  N   UNL A   1      30.885  27.837  24.407  1.00  0.00    -0.356 N 
ATOM      4  H   UNL A   1      30.679  27.796  23.445  1.00  0.00     0.163 HD
ENDROOT
BRANCH   2   5
ATOM      5  C   UNL A   1      29.979  25.581  24.456  1.00  0.00     0.102 C 
BRANCH   5   6
ATOM      6  C   UNL A   1      30.928  24.392  24.301  1.00  0.00     0.031 C 
BRANCH   6   7
ATOM      7  C   UNL A   1      30.880  23.343  25.416  1.00  0.00     0.113 C 
BRANCH   7   8
ATOM      8  N   UNL A   1      32.142  23.295  26.130  1.00  0.00    -0.384 N 
ATOM      9  H   UNL A   1      32.122  23.373  27.111  1.00  0.00     0.160 HD
BRANCH   8  10
ATOM     10  C   UNL A   1      33.380  23.144  25.509  1.00  0.00     0.048 A 
ATOM     11  C   UNL A   1      34.402  23.977  26.027  1.00  0.00     0.027 A 
ATOM     12  C   UNL A   1      33.733  22.215  24.507  1.00  0.00     0.036 A 
ATOM     13  C   UNL A   1      35.722  23.918  25.584  1.00  0.00     0.002 A 
ATOM     14  C   UNL A   1      35.072  22.199  24.043  1.00  0.00     0.017 A 
ATOM     15  C   UNL A   1      36.056  23.037  24.573  1.00  0.00     0.001 A 
BRANCH  12  16
ATOM     16  S   UNL A   1      32.744  20.892  23.804  1.00  0.00    -0.053 SA
BRANCH  16  17
ATOM     17  C   UNL A   1      32.953  19.457  24.872  1.00  0.00     0.405 C 
ATOM     18  F   UNL A   1      34.037  18.748  24.444  1.00  0.00    -0.198 F 
ATOM     19  F   UNL A   1      33.178  19.743  26.175  1.00  0.00    -0.198 F 
ENDBRANCH  16  17
ENDBRANCH  12  16
ENDBRANCH   8  10
ENDBRANCH   7   8
ENDBRANCH   6   7
ENDBRANCH   5   6
ENDBRANCH   2   5
BRANCH   3  20
ATOM     20  C   UNL A   1      31.507  29.034  24.939  1.00  0.00     0.117 C 
BRANCH  20  21
ATOM     21  C   UNL A   1      33.031  28.988  24.865  1.00  0.00     0.042 C 
BRANCH  21  22
ATOM     22  C   UNL A   1      33.747  29.167  26.200  1.00  0.00     0.118 C 
BRANCH  22  23
ATOM     23  N   UNL A   1      33.558  30.491  26.769  1.00  0.00    -0.352 N 
ATOM     24  C   UNL A   1      34.316  31.205  27.662  1.00  0.00     0.251 C 
ATOM     25  H   UNL A   1      32.746  30.956  26.460  1.00  0.00     0.163 HD
ATOM     26  O   UNL A   1      33.899  32.290  28.053  1.00  0.00    -0.269 OA
BRANCH  24  27
ATOM     27  C   UNL A   1      35.604  30.672  28.172  1.00  0.00     0.039 A 
ATOM     28  C   UNL A   1      35.579  29.803  29.267  1.00  0.00     0.014 A 
ATOM     29  C   UNL A   1      36.832  31.046  27.619  1.00  0.00     0.014 A 
ATOM     30  C   UNL A   1      36.773  29.281  29.775  1.00  0.00     0.010 A 
ATOM     31  C   UNL A   1      38.015  30.460  28.074  1.00  0.00     0.010 A 
ATOM     32  C   UNL A   1      38.004  29.583  29.169  1.00  0.00    -0.014 A 
BRANCH  32  33
ATOM     33  C   UNL A   1      39.274  29.010  29.697  1.00  0.00     0.031 A 
ATOM     34  C   UNL A   1      39.919  29.592  30.929  1.00  0.00     0.074 A 
ATOM     35  C   UNL A   1      39.860  27.976  29.061  1.00  0.00     0.049 A 
ATOM     36  N   UNL A   1      41.018  29.228  31.541  1.00  0.00    -0.248 NA
ATOM     37  C   UNL A   1      39.255  30.755  31.537  1.00  0.00     0.031 C 
ATOM     38  C   UNL A   1      39.362  27.349  27.835  1.00  0.00     0.029 A 
ATOM     39  N   UNL A   1      40.995  27.262  29.357  1.00  0.00    -0.354 N 
ATOM     40  C   UNL A   1      41.178  30.117  32.601  1.00  0.00     0.074 A 
ATOM     41  C   UNL A   1      40.104  31.082  32.500  1.00  0.00     0.031 C 
ATOM     42  C   UNL A   1      40.164  26.322  27.507  1.00  0.00     0.029 A 
ATOM     43  C   UNL A   1      41.257  26.241  28.471  1.00  0.00     0.049 A 
ATOM     44  H   UNL A   1      41.570  27.462  30.131  1.00  0.00     0.167 HD
ATOM     45  C   UNL A   1      42.115  30.115  33.583  1.00  0.00     0.034 A 
ATOM     46  C   UNL A   1      42.260  25.341  28.437  1.00  0.00     0.034 A 
ATOM     47  C   UNL A   1      43.181  29.145  33.674  1.00  0.00     0.049 A 
ATOM     48  C   UNL A   1      43.299  25.367  29.531  1.00  0.00     0.074 A 
ATOM     49  C   UNL A   1      44.160  29.027  34.646  1.00  0.00     0.029 A 
ATOM     50  N   UNL A   1      43.414  28.125  32.757  1.00  0.00    -0.354 N 
ATOM     51  N   UNL A   1      43.406  26.184  30.555  1.00  0.00    -0.248 NA
ATOM     52  C   UNL A   1      44.340  24.334  29.475  1.00  0.00     0.031 C 
ATOM     53  C   UNL A   1      45.026  27.990  34.278  1.00  0.00     0.029 A 
ATOM     54  C   UNL A   1      44.535  27.396  33.127  1.00  0.00     0.049 A 
ATOM     55  H   UNL A   1      42.863  27.948  31.961  1.00  0.00     0.167 HD
ATOM     56  C   UNL A   1      44.502  25.733  31.287  1.00  0.00     0.074 A 
ATOM     57  C   UNL A   1      45.006  24.564  30.596  1.00  0.00     0.031 C 
ATOM     58  C   UNL A   1      45.039  26.234  32.429  1.00  0.00     0.034 A 
BRANCH  45  59
ATOM     59  C   UNL A   1      42.040  31.215  34.619  1.00  0.00     0.023 A 
ATOM     60  C   UNL A   1      41.008  31.263  35.575  1.00  0.00     0.031 A 
ATOM     61  C   UNL A   1      42.995  32.247  34.637  1.00  0.00     0.131 A 
ATOM     62  C   UNL A   1      40.909  32.356  36.448  1.00  0.00     0.055 A 
ATOM     63  C   UNL A   1      42.943  33.285  35.570  1.00  0.00     0.041 A 
ATOM     64  F   UNL A   1      43.992  32.272  33.738  1.00  0.00    -0.206 F 
ATOM     65  C   UNL A   1      41.885  33.353  36.472  1.00  0.00     0.022 A 
BRANCH  62  66
ATOM     66  S   UNL A   1      39.401  32.538  37.441  1.00  0.00     0.124 S 
ATOM     67  O   UNL A   1      39.952  32.718  38.782  1.00  0.00    -0.237 OA
ATOM     68  O   UNL A   1      38.771  33.711  36.847  1.00  0.00    -0.237 OA
ATOM     69  O   UNL A   1      38.696  31.275  37.230  1.00  0.00    -0.744 OA
ENDBRANCH  62  66
ENDBRANCH  45  59
BRANCH  46  70
ATOM     70  C   UNL A   1      42.339  24.333  27.340  1.00  0.00     0.023 A 
ATOM     71  C   UNL A   1      41.574  23.155  27.377  1.00  0.00     0.031 A 
ATOM     72  C   UNL A   1      43.224  24.507  26.260  1.00  0.00     0.131 A 
ATOM     73  C   UNL A   1      41.749  22.173  26.390  1.00  0.00     0.055 A 
ATOM     74  C   UNL A   1      43.350  23.555  25.248  1.00  0.00     0.041 A 
ATOM     75  F   UNL A   1      43.977  25.615  26.172  1.00  0.00    -0.206 F 
ATOM     76  C   UNL A   1      42.622  22.371  25.317  1.00  0.00     0.022 A 
BRANCH  73  77
ATOM     77  S   UNL A   1      40.894  20.584  26.580  1.00  0.00     0.124 S 
ATOM     78  O   UNL A   1      41.803  19.674  25.894  1.00  0.00    -0.237 OA
ATOM     79  O   UNL A   1      40.824  20.450  28.030  1.00  0.00    -0.237 OA
ATOM     80  O   UNL A   1      39.612  20.807  25.915  1.00  0.00    -0.744 OA
ENDBRANCH  73  77
ENDBRANCH  46  70
BRANCH  58  81
ATOM     81  C   UNL A   1      46.199  25.475  33.035  1.00  0.00     0.023 A 
ATOM     82  C   UNL A   1      46.005  24.391  33.912  1.00  0.00     0.031 A 
ATOM     83  C   UNL A   1      47.521  25.874  32.767  1.00  0.00     0.131 A 
ATOM     84  C   UNL A   1      47.107  23.806  34.554  1.00  0.00     0.055 A 
ATOM     85  C   UNL A   1      48.617  25.235  33.347  1.00  0.00     0.041 A 
ATOM     86  F   UNL A   1      47.770  26.904  31.940  1.00  0.00    -0.206 F 
ATOM     87  C   UNL A   1      48.413  24.208  34.263  1.00  0.00     0.022 A 
BRANCH  84  88
ATOM     88  S   UNL A   1      46.802  22.610  35.884  1.00  0.00     0.124 S 
ATOM     89  O   UNL A   1      47.224  21.356  35.267  1.00  0.00    -0.237 OA
ATOM     90  O   UNL A   1      47.657  23.112  36.956  1.00  0.00    -0.237 OA
ATOM     91  O   UNL A   1      45.366  22.728  36.129  1.00  0.00    -0.744 OA
ENDBRANCH  84  88
ENDBRANCH  58  81
ENDBRANCH  32  33
ENDBRANCH  24  27
ENDBRANCH  22  23
ENDBRANCH  21  22
ENDBRANCH  20  21
ENDBRANCH   3  20
TORSDOF 19
ENDMDL
MODEL 2
REMARK VINA RESULT:     -10.1      1.734      2.280
REMARK SMILES O=C(CCCNc1ccccc1SC(F)F)NCCCNC(=O)c1ccc(-c2c3nc(c(-c4cc(S(=O)(=O)[O-])ccc4F)c4ccc([nH]4)c(-c4cc(S(=O)(=O)[O-])ccc4F)c4nc(c(-c5cc(S(=O)(=O)[O-])ccc5F)c5ccc2[nH]5)C=C4)C=C3)cc1
REMARK SMILES IDX 1 1 2 2 17 3 3 5 4 6 5 7 6 8 7 10 8 11 12 12 9 13 11 14
REMARK SMILES IDX 10 15 13 16 14 17 15 18 16 19 18 20 19 21 20 22 21 23 22 24
REMARK SMILES IDX 23 26 24 27 25 28 86 29 26 30 85 31 27 32 28 33 29 34 79 35
REMARK SMILES IDX 30 36 84 37 78 38 80 39 31 40 83 41 77 42 76 43 32 45 64 46
REMARK SMILES IDX 44 47 63 48 45 49 48 50 62 51 81 52 46 53 47 54 61 56 82 57
REMARK SMILES IDX 49 58 33 59 34 60 42 61 35 62 41 63 43 64 40 65 36 66 37 67
REMARK SMILES IDX 38 68 39 69 65 70 66 71 74 72 67 73 73 74 75 75 72 76 68 77
REMARK SMILES IDX 69 78 70 79 71 80 50 81 51 82 59 83 52 84 58 85 60 86 57 87
REMARK SMILES IDX 53 88 54 89 55 90 56 91
REMARK H PARENT 17 4 6 9 21 25 80 44 48 55
REMARK Flexibility Score: inf
ROOT
ATOM      1  O   UNL A   1      31.294  26.436  25.747  1.00  0.00    -0.275 OA
ATOM      2  C   UNL A   1      31.022  26.730  24.588  1.00  0.00     0.220 C 
ATOM      3  N   UNL A   1      31.098  28.006  24.077  1.00  0.00    -0.356 N 
ATOM      4  H   UNL A   1      30.844  28.159  23.138  1.00  0.00     0.163 HD
ENDROOT
BRANCH   2   5
ATOM      5  C   UNL A   1      30.593  25.679  23.585  1.00  0.00     0.102 C 
BRANCH   5   6
ATOM      6  C   UNL A   1      31.737  25.111  22.744  1.00  0.00     0.031 C 
BRANCH   6   7
ATOM      7  C   UNL A   1      32.865  24.421  23.518  1.00  0.00     0.113 C 
BRANCH   7   8
ATOM      8  N   UNL A   1      33.222  23.163  22.891  1.00  0.00    -0.384 N 
ATOM      9  H   UNL A   1      33.304  23.141  21.911  1.00  0.00     0.160 HD
BRANCH   8  10
ATOM     10  C   UNL A   1      33.456  21.984  23.596  1.00  0.00     0.048 A 
ATOM     11  C   UNL A   1      32.417  21.025  23.497  1.00  0.00     0.027 A 
ATOM     12  C   UNL A   1      34.621  21.622  24.306  1.00  0.00     0.036 A 
ATOM     13  C   UNL A   1      32.501  19.759  24.073  1.00  0.00     0.002 A 
ATOM     14  C   UNL A   1      34.668  20.344  24.917  1.00  0.00     0.017 A 
ATOM     15  C   UNL A   1      33.626  19.422  24.802  1.00  0.00     0.001 A 
BRANCH  12  16
ATOM     16  S   UNL A   1      36.177  22.507  24.436  1.00  0.00    -0.053 SA
BRANCH  16  17
ATOM     17  C   UNL A   1      36.033  23.616  25.847  1.00  0.00     0.405 C 
ATOM     18  F   UNL A   1      35.518  24.804  25.418  1.00  0.00    -0.198 F 
ATOM     19  F   UNL A   1      35.215  23.182  26.833  1.00  0.00    -0.198 F 
ENDBRANCH  16  17
ENDBRANCH  12  16
ENDBRANCH   8  10
ENDBRANCH   7   8
ENDBRANCH   6   7
ENDBRANCH   5   6
ENDBRANCH   2   5
BRANCH   3  20
ATOM     20  C   UNL A   1      31.537  29.133  24.876  1.00  0.00     0.117 C 
BRANCH  20  21
ATOM     21  C   UNL A   1      33.055  29.293  24.883  1.00  0.00     0.042 C 
BRANCH  21  22
ATOM     22  C   UNL A   1      33.679  29.461  26.265  1.00  0.00     0.118 C 
BRANCH  22  23
ATOM     23  N   UNL A   1      33.488  30.793  26.813  1.00  0.00    -0.352 N 
ATOM     24  C   UNL A   1      34.240  31.518  27.702  1.00  0.00     0.251 C 
ATOM     25  H   UNL A   1      32.679  31.255  26.491  1.00  0.00     0.163 HD
ATOM     26  O   UNL A   1      33.822  32.610  28.073  1.00  0.00    -0.269 OA
BRANCH  24  27
ATOM     27  C   UNL A   1      35.523  30.990  28.230  1.00  0.00     0.039 A 
ATOM     28  C   UNL A   1      35.495  29.833  29.015  1.00  0.00     0.014 A 
ATOM     29  C   UNL A   1      36.741  31.637  28.002  1.00  0.00     0.014 A 
ATOM     30  C   UNL A   1      36.685  29.307  29.530  1.00  0.00     0.010 A 
ATOM     31  C   UNL A   1      37.935  31.065  28.446  1.00  0.00     0.010 A 
ATOM     32  C   UNL A   1      37.921  29.902  29.230  1.00  0.00    -0.014 A 
BRANCH  32  33
ATOM     33  C   UNL A   1      39.191  29.328  29.761  1.00  0.00     0.031 A 
ATOM     34  C   UNL A   1      39.821  29.897  31.007  1.00  0.00     0.074 A 
ATOM     35  C   UNL A   1      39.787  28.306  29.116  1.00  0.00     0.049 A 
ATOM     36  N   UNL A   1      40.917  29.531  31.623  1.00  0.00    -0.248 NA
ATOM     37  C   UNL A   1      39.147  31.049  31.625  1.00  0.00     0.031 C 
ATOM     38  C   UNL A   1      39.303  27.693  27.878  1.00  0.00     0.029 A 
ATOM     39  N   UNL A   1      40.924  27.595  29.413  1.00  0.00    -0.354 N 
ATOM     40  C   UNL A   1      41.064  30.407  32.696  1.00  0.00     0.074 A 
ATOM     41  C   UNL A   1      39.986  31.366  32.599  1.00  0.00     0.031 C 
ATOM     42  C   UNL A   1      40.113  26.676  27.543  1.00  0.00     0.029 A 
ATOM     43  C   UNL A   1      41.198  26.587  28.516  1.00  0.00     0.049 A 
ATOM     44  H   UNL A   1      41.491  27.787  30.194  1.00  0.00     0.167 HD
ATOM     45  C   UNL A   1      41.993  30.396  33.685  1.00  0.00     0.034 A 
ATOM     46  C   UNL A   1      42.207  25.693  28.478  1.00  0.00     0.034 A 
ATOM     47  C   UNL A   1      43.064  29.431  33.773  1.00  0.00     0.049 A 
ATOM     48  C   UNL A   1      43.237  25.711  29.580  1.00  0.00     0.074 A 
ATOM     49  C   UNL A   1      44.035  29.306  34.751  1.00  0.00     0.029 A 
ATOM     50  N   UNL A   1      43.310  28.425  32.844  1.00  0.00    -0.354 N 
ATOM     51  N   UNL A   1      43.331  26.514  30.616  1.00  0.00    -0.248 NA
ATOM     52  C   UNL A   1      44.284  24.684  29.519  1.00  0.00     0.031 C 
ATOM     53  C   UNL A   1      44.909  28.279  34.377  1.00  0.00     0.029 A 
ATOM     54  C   UNL A   1      44.432  27.697  33.214  1.00  0.00     0.049 A 
ATOM     55  H   UNL A   1      42.766  28.255  32.041  1.00  0.00     0.167 HD
ATOM     56  C   UNL A   1      44.424  26.059  31.351  1.00  0.00     0.074 A 
ATOM     57  C   UNL A   1      44.940  24.902  30.649  1.00  0.00     0.031 C 
ATOM     58  C   UNL A   1      44.948  26.548  32.504  1.00  0.00     0.034 A 
BRANCH  45  59
ATOM     59  C   UNL A   1      41.903  31.482  34.736  1.00  0.00     0.023 A 
ATOM     60  C   UNL A   1      40.902  31.474  35.725  1.00  0.00     0.031 A 
ATOM     61  C   UNL A   1      42.811  32.556  34.734  1.00  0.00     0.131 A 
ATOM     62  C   UNL A   1      40.783  32.553  36.613  1.00  0.00     0.055 A 
ATOM     63  C   UNL A   1      42.743  33.582  35.680  1.00  0.00     0.041 A 
ATOM     64  F   UNL A   1      43.776  32.635  33.804  1.00  0.00    -0.206 F 
ATOM     65  C   UNL A   1      41.714  33.593  36.616  1.00  0.00     0.022 A 
BRANCH  62  66
ATOM     66  S   UNL A   1      39.302  32.658  37.657  1.00  0.00     0.124 S 
ATOM     67  O   UNL A   1      38.588  31.442  37.278  1.00  0.00    -0.237 OA
ATOM     68  O   UNL A   1      39.865  32.676  39.002  1.00  0.00    -0.237 OA
ATOM     69  O   UNL A   1      38.668  33.903  37.229  1.00  0.00    -0.744 OA
ENDBRANCH  62  66
ENDBRANCH  45  59
BRANCH  46  70
ATOM     70  C   UNL A   1      42.301  24.701  27.368  1.00  0.00     0.023 A 
ATOM     71  C   UNL A   1      41.524  23.530  27.370  1.00  0.00     0.031 A 
ATOM     72  C   UNL A   1      43.211  24.882  26.310  1.00  0.00     0.131 A 
ATOM     73  C   UNL A   1      41.712  22.560  26.373  1.00  0.00     0.055 A 
ATOM     74  C   UNL A   1      43.351  23.943  25.287  1.00  0.00     0.041 A 
ATOM     75  F   UNL A   1      43.976  25.983  26.255  1.00  0.00    -0.206 F 
ATOM     76  C   UNL A   1      42.610  22.766  25.323  1.00  0.00     0.022 A 
BRANCH  73  77
ATOM     77  S   UNL A   1      40.837  20.978  26.521  1.00  0.00     0.124 S 
ATOM     78  O   UNL A   1      40.796  20.797  27.967  1.00  0.00    -0.237 OA
ATOM     79  O   UNL A   1      39.565  21.273  25.874  1.00  0.00    -0.237 OA
ATOM     80  O   UNL A   1      41.700  20.045  25.799  1.00  0.00    -0.744 OA
ENDBRANCH  73  77
ENDBRANCH  46  70
BRANCH  58  81
ATOM     81  C   UNL A   1      46.107  25.787  33.110  1.00  0.00     0.023 A 
ATOM     82  C   UNL A   1      47.433  25.986  32.685  1.00  0.00     0.031 A 
ATOM     83  C   UNL A   1      45.873  24.812  34.097  1.00  0.00     0.131 A 
ATOM     84  C   UNL A   1      48.457  25.162  33.179  1.00  0.00     0.055 A 
ATOM     85  C   UNL A   1      46.907  24.051  34.643  1.00  0.00     0.041 A 
ATOM     86  F   UNL A   1      44.628  24.575  34.542  1.00  0.00    -0.206 F 
ATOM     87  C   UNL A   1      48.206  24.209  34.169  1.00  0.00     0.022 A 
BRANCH  84  88
ATOM     88  S   UNL A   1      50.095  25.254  32.405  1.00  0.00     0.124 S 
ATOM     89  O   UNL A   1      50.565  26.564  32.844  1.00  0.00    -0.237 OA
ATOM     90  O   UNL A   1      50.779  24.103  32.987  1.00  0.00    -0.237 OA
ATOM     91  O   UNL A   1      49.806  25.146  30.976  1.00  0.00    -0.744 OA
ENDBRANCH  84  88
ENDBRANCH  58  81
ENDBRANCH  32  33
ENDBRANCH  24  27
ENDBRANCH  22  23
ENDBRANCH  21  22
ENDBRANCH  20  21
ENDBRANCH   3  20
TORSDOF 19
ENDMDL
MODEL 3
REMARK VINA RESULT:     -10.1      5.395     10.254
REMARK SMILES O=C(CCCNc1ccccc1SC(F)F)NCCCNC(=O)c1ccc(-c2c3nc(c(-c4cc(S(=O)(=O)[O-])ccc4F)c4ccc([nH]4)c(-c4cc(S(=O)(=O)[O-])ccc4F)c4nc(c(-c5cc(S(=O)(=O)[O-])ccc5F)c5ccc2[nH]5)C=C4)C=C3)cc1
REMARK SMILES IDX 1 1 2 2 17 3 3 5 4 6 5 7 6 8 7 10 8 11 12 12 9 13 11 14
REMARK SMILES IDX 10 15 13 16 14 17 15 18 16 19 18 20 19 21 20 22 21 23 22 24
REMARK SMILES IDX 23 26 24 27 25 28 86 29 26 30 85 31 27 32 28 33 29 34 79 35
REMARK SMILES IDX 30 36 84 37 78 38 80 39 31 40 83 41 77 42 76 43 32 45 64 46
REMARK SMILES IDX 44 47 63 48 45 49 48 50 62 51 81 52 46 53 47 54 61 56 82 57
REMARK SMILES IDX 49 58 33 59 34 60 42 61 35 62 41 63 43 64 40 65 36 66 37 67
REMARK SMILES IDX 38 68 39 69 65 70 66 71 74 72 67 73 73 74 75 75 72 76 68 77
REMARK SMILES IDX 69 78 70 79 71 80 50 81 51 82 59 83 52 84 58 85 60 86 57 87
REMARK SMILES IDX 53 88 54 89 55 90 56 91
REMARK H PARENT 17 4 6 9 21 25 80 44 48 55
REMARK Flexibility Score: inf
ROOT
ATOM      1  O   UNL A   1      32.872  24.880  26.071  1.00  0.00    -0.275 OA
ATOM      2  C   UNL A   1      33.691  25.085  25.181  1.00  0.00     0.220 C 
ATOM      3  N   UNL A   1      34.410  24.095  24.551  1.00  0.00    -0.356 N 
ATOM      4  H   UNL A   1      35.062  24.347  23.858  1.00  0.00     0.163 HD
ENDROOT
BRANCH   2   5
ATOM      5  C   UNL A   1      33.969  26.483  24.670  1.00  0.00     0.102 C 
BRANCH   5   6
ATOM      6  C   UNL A   1      33.545  27.597  25.628  1.00  0.00     0.031 C 
BRANCH   6   7
ATOM      7  C   UNL A   1      32.595  28.653  25.054  1.00  0.00     0.113 C 
BRANCH   7   8
ATOM      8  N   UNL A   1      31.983  28.181  23.827  1.00  0.00    -0.384 N 
ATOM      9  H   UNL A   1      32.549  28.112  23.024  1.00  0.00     0.160 HD
BRANCH   8  10
ATOM     10  C   UNL A   1      30.643  27.818  23.718  1.00  0.00     0.048 A 
ATOM     11  C   UNL A   1      30.307  26.607  24.374  1.00  0.00     0.027 A 
ATOM     12  C   UNL A   1      29.598  28.550  23.114  1.00  0.00     0.036 A 
ATOM     13  C   UNL A   1      29.004  26.118  24.437  1.00  0.00     0.002 A 
ATOM     14  C   UNL A   1      28.287  28.014  23.156  1.00  0.00     0.017 A 
ATOM     15  C   UNL A   1      27.990  26.817  23.809  1.00  0.00     0.001 A 
BRANCH  12  16
ATOM     16  S   UNL A   1      29.649  30.196  22.400  1.00  0.00    -0.053 SA
BRANCH  16  17
ATOM     17  C   UNL A   1      28.911  31.313  23.606  1.00  0.00     0.405 C 
ATOM     18  F   UNL A   1      28.870  32.567  23.071  1.00  0.00    -0.198 F 
ATOM     19  F   UNL A   1      27.641  31.010  23.961  1.00  0.00    -0.198 F 
ENDBRANCH  16  17
ENDBRANCH  12  16
ENDBRANCH   8  10
ENDBRANCH   7   8
ENDBRANCH   6   7
ENDBRANCH   5   6
ENDBRANCH   2   5
BRANCH   3  20
ATOM     20  C   UNL A   1      34.240  22.691  24.874  1.00  0.00     0.117 C 
BRANCH  20  21
ATOM     21  C   UNL A   1      35.520  21.884  24.680  1.00  0.00     0.042 C 
BRANCH  21  22
ATOM     22  C   UNL A   1      36.761  22.473  25.344  1.00  0.00     0.118 C 
BRANCH  22  23
ATOM     23  N   UNL A   1      37.774  21.473  25.635  1.00  0.00    -0.352 N 
ATOM     24  C   UNL A   1      39.036  21.596  26.160  1.00  0.00     0.251 C 
ATOM     25  H   UNL A   1      37.510  20.549  25.419  1.00  0.00     0.163 HD
ATOM     26  O   UNL A   1      39.739  20.594  26.241  1.00  0.00    -0.269 OA
BRANCH  24  27
ATOM     27  C   UNL A   1      39.559  22.913  26.599  1.00  0.00     0.039 A 
ATOM     28  C   UNL A   1      40.538  22.943  27.598  1.00  0.00     0.014 A 
ATOM     29  C   UNL A   1      39.074  24.115  26.077  1.00  0.00     0.014 A 
ATOM     30  C   UNL A   1      41.055  24.166  28.037  1.00  0.00     0.010 A 
ATOM     31  C   UNL A   1      39.649  25.330  26.457  1.00  0.00     0.010 A 
ATOM     32  C   UNL A   1      40.635  25.373  27.454  1.00  0.00    -0.014 A 
BRANCH  32  33
ATOM     33  C   UNL A   1      41.202  26.675  27.907  1.00  0.00     0.031 A 
ATOM     34  C   UNL A   1      42.639  27.024  27.613  1.00  0.00     0.074 A 
ATOM     35  C   UNL A   1      40.431  27.539  28.596  1.00  0.00     0.049 A 
ATOM     36  N   UNL A   1      43.308  28.107  27.918  1.00  0.00    -0.248 NA
ATOM     37  C   UNL A   1      43.436  26.010  26.907  1.00  0.00     0.031 C 
ATOM     38  C   UNL A   1      39.038  27.304  28.983  1.00  0.00     0.029 A 
ATOM     39  N   UNL A   1      40.702  28.792  29.089  1.00  0.00    -0.354 N 
ATOM     40  C   UNL A   1      44.603  27.903  27.447  1.00  0.00     0.074 A 
ATOM     41  C   UNL A   1      44.639  26.562  26.903  1.00  0.00     0.031 C 
ATOM     42  C   UNL A   1      38.567  28.390  29.617  1.00  0.00     0.029 A 
ATOM     43  C   UNL A   1      39.631  29.384  29.721  1.00  0.00     0.049 A 
ATOM     44  H   UNL A   1      41.580  29.228  29.000  1.00  0.00     0.167 HD
ATOM     45  C   UNL A   1      45.655  28.760  27.441  1.00  0.00     0.034 A 
ATOM     46  C   UNL A   1      39.517  30.588  30.318  1.00  0.00     0.034 A 
ATOM     47  C   UNL A   1      45.604  30.097  27.985  1.00  0.00     0.049 A 
ATOM     48  C   UNL A   1      40.704  31.518  30.313  1.00  0.00     0.074 A 
ATOM     49  C   UNL A   1      46.598  31.062  27.998  1.00  0.00     0.029 A 
ATOM     50  N   UNL A   1      44.502  30.661  28.619  1.00  0.00    -0.354 N 
ATOM     51  N   UNL A   1      41.906  31.328  29.816  1.00  0.00    -0.248 NA
ATOM     52  C   UNL A   1      40.510  32.836  30.930  1.00  0.00     0.031 C 
ATOM     53  C   UNL A   1      46.124  32.174  28.703  1.00  0.00     0.029 A 
ATOM     54  C   UNL A   1      44.802  31.946  29.048  1.00  0.00     0.049 A 
ATOM     55  H   UNL A   1      43.634  30.212  28.744  1.00  0.00     0.167 HD
ATOM     56  C   UNL A   1      42.596  32.521  30.024  1.00  0.00     0.074 A 
ATOM     57  C   UNL A   1      41.669  33.425  30.672  1.00  0.00     0.031 C 
ATOM     58  C   UNL A   1      43.875  32.841  29.703  1.00  0.00     0.034 A 
BRANCH  45  59
ATOM     59  C   UNL A   1      46.956  28.262  26.850  1.00  0.00     0.023 A 
ATOM     60  C   UNL A   1      47.184  28.253  25.461  1.00  0.00     0.031 A 
ATOM     61  C   UNL A   1      47.973  27.761  27.682  1.00  0.00     0.131 A 
ATOM     62  C   UNL A   1      48.356  27.682  24.946  1.00  0.00     0.055 A 
ATOM     63  C   UNL A   1      49.178  27.278  27.167  1.00  0.00     0.041 A 
ATOM     64  F   UNL A   1      47.810  27.720  29.015  1.00  0.00    -0.206 F 
ATOM     65  C   UNL A   1      49.368  27.221  25.789  1.00  0.00     0.022 A 
BRANCH  62  66
ATOM     66  S   UNL A   1      48.471  27.406  23.156  1.00  0.00     0.124 S 
ATOM     67  O   UNL A   1      49.804  27.924  22.862  1.00  0.00    -0.237 OA
ATOM     68  O   UNL A   1      48.308  25.961  23.048  1.00  0.00    -0.237 OA
ATOM     69  O   UNL A   1      47.369  28.201  22.615  1.00  0.00    -0.744 OA
ENDBRANCH  62  66
ENDBRANCH  45  59
BRANCH  46  70
ATOM     70  C   UNL A   1      38.237  30.995  30.967  1.00  0.00     0.023 A 
ATOM     71  C   UNL A   1      37.229  31.652  30.241  1.00  0.00     0.031 A 
ATOM     72  C   UNL A   1      38.022  30.781  32.341  1.00  0.00     0.131 A 
ATOM     73  C   UNL A   1      36.082  32.123  30.900  1.00  0.00     0.055 A 
ATOM     74  C   UNL A   1      36.853  31.197  32.980  1.00  0.00     0.041 A 
ATOM     75  F   UNL A   1      38.950  30.155  33.083  1.00  0.00    -0.206 F 
ATOM     76  C   UNL A   1      35.881  31.887  32.262  1.00  0.00     0.022 A 
BRANCH  73  77
ATOM     77  S   UNL A   1      34.901  33.139  29.972  1.00  0.00     0.124 S 
ATOM     78  O   UNL A   1      34.329  32.163  29.052  1.00  0.00    -0.237 OA
ATOM     79  O   UNL A   1      34.018  33.619  31.029  1.00  0.00    -0.237 OA
ATOM     80  O   UNL A   1      35.743  34.161  29.355  1.00  0.00    -0.744 OA
ENDBRANCH  73  77
ENDBRANCH  46  70
BRANCH  58  81
ATOM     81  C   UNL A   1      44.324  34.257  29.994  1.00  0.00     0.023 A 
ATOM     82  C   UNL A   1      44.160  35.298  29.062  1.00  0.00     0.031 A 
ATOM     83  C   UNL A   1      44.968  34.557  31.208  1.00  0.00     0.131 A 
ATOM     84  C   UNL A   1      44.713  36.562  29.322  1.00  0.00     0.055 A 
ATOM     85  C   UNL A   1      45.444  35.837  31.494  1.00  0.00     0.041 A 
ATOM     86  F   UNL A   1      45.155  33.605  32.137  1.00  0.00    -0.206 F 
ATOM     87  C   UNL A   1      45.337  36.844  30.539  1.00  0.00     0.022 A 
BRANCH  84  88
ATOM     88  S   UNL A   1      44.733  37.792  27.987  1.00  0.00     0.124 S 
ATOM     89  O   UNL A   1      44.904  39.038  28.727  1.00  0.00    -0.237 OA
ATOM     90  O   UNL A   1      45.876  37.363  27.187  1.00  0.00    -0.237 OA
ATOM     91  O   UNL A   1      43.430  37.625  27.347  1.00  0.00    -0.744 OA
ENDBRANCH  84  88
ENDBRANCH  58  81
ENDBRANCH  32  33
ENDBRANCH  24  27
ENDBRANCH  22  23
ENDBRANCH  21  22
ENDBRANCH  20  21
ENDBRANCH   3  20
TORSDOF 19
ENDMDL
