MODEL 1
REMARK VINA RESULT:     -12.4      0.000      0.000
REMARK SMILES C[N@H+]1[C@H]2CC[C@@H]1[C@@H](C(=O)NCCCNC(=O)c1ccc(-c3c4nc(c(-c5cc(S(=O)(=O)[O-])ccc5F)c5ccc([nH]5)c(-c5cc(S(=O)(=O)[O-])ccc5F)c5nc(c(-c6cc(S(=O)(=O)[O-])ccc6F)c6ccc3[nH]6)C=C5)C=C4)cc1)[C@@H](OC(=O)c1ccccc1)C2
REMARK SMILES IDX 12 1 11 2 10 3 8 4 9 5 7 7 1 8 2 9 3 10 6 11 4 13 90 14 5 15
REMARK SMILES IDX 80 16 81 17 82 18 83 19 84 20 85 21 89 22 86 23 88 24 87 25
REMARK SMILES IDX 13 26 14 27 15 28 16 30 17 31 18 32 79 33 19 34 78 35 20 36
REMARK SMILES IDX 21 37 22 38 72 39 23 40 77 41 71 42 73 43 24 44 76 45 70 46
REMARK SMILES IDX 69 47 25 49 57 50 37 51 56 52 38 53 41 54 55 55 74 56 39 57
REMARK SMILES IDX 40 58 54 60 75 61 42 62 26 63 27 64 35 65 28 66 34 67 36 68
REMARK SMILES IDX 33 69 29 70 30 71 31 72 32 73 58 74 59 75 67 76 60 77 66 78
REMARK SMILES IDX 68 79 65 80 61 81 62 82 63 83 64 84 43 85 44 86 52 87 45 88
REMARK SMILES IDX 51 89 53 90 50 91 46 92 47 93 48 94 49 95
REMARK H PARENT 10 6 2 12 14 29 73 48 41 59
REMARK Flexibility Score: inf
ROOT
ATOM      1  C   UNL A   1      31.486  31.845  26.903  1.00  0.00     0.042 C 
ENDROOT
BRANCH   1   2
ATOM      2  C   UNL A   1      31.373  30.930  25.701  1.00  0.00     0.117 C 
BRANCH   2   3
ATOM      3  N   UNL A   1      32.495  30.042  25.412  1.00  0.00    -0.355 N 
ATOM      4  C   UNL A   1      32.579  28.745  24.998  1.00  0.00     0.232 C 
ATOM      5  O   UNL A   1      33.631  28.451  24.408  1.00  0.00    -0.274 OA
ATOM      6  H   UNL A   1      33.373  30.467  25.543  1.00  0.00     0.163 HD
BRANCH   4   7
ATOM      7  C   UNL A   1      31.548  27.622  25.231  1.00  0.00     0.177 C 
ATOM      8  C   UNL A   1      34.137  25.104  25.200  1.00  0.00     0.333 C 
ATOM      9  N   UNL A   1      32.906  25.744  24.802  1.00  0.00    -0.332 N 
ATOM     10  C   UNL A   1      31.967  25.094  23.891  1.00  0.00     0.188 C 
ATOM     11  C   UNL A   1      32.114  26.335  25.853  1.00  0.00     0.200 C 
ATOM     12  H   UNL A   1      33.400  26.443  24.247  1.00  0.00     0.348 HD
ATOM     13  C   UNL A   1      31.073  24.345  24.860  1.00  0.00     0.071 C 
ATOM     14  C   UNL A   1      31.188  26.211  23.109  1.00  0.00     0.111 C 
ATOM     15  C   UNL A   1      31.063  25.232  26.112  1.00  0.00     0.072 C 
ATOM     16  C   UNL A   1      30.646  27.349  24.016  1.00  0.00     0.201 C 
BRANCH  16  17
ATOM     17  O   UNL A   1      30.186  28.634  23.485  1.00  0.00    -0.457 OA
BRANCH  17  18
ATOM     18  C   UNL A   1      28.907  28.871  23.131  1.00  0.00     0.338 C 
ATOM     19  O   UNL A   1      27.993  28.062  23.177  1.00  0.00    -0.246 OA
BRANCH  18  20
ATOM     20  C   UNL A   1      28.685  30.248  22.600  1.00  0.00     0.060 A 
ATOM     21  C   UNL A   1      28.296  30.360  21.253  1.00  0.00     0.015 A 
ATOM     22  C   UNL A   1      28.797  31.410  23.372  1.00  0.00     0.015 A 
ATOM     23  C   UNL A   1      27.988  31.603  20.695  1.00  0.00     0.001 A 
ATOM     24  C   UNL A   1      28.480  32.657  22.810  1.00  0.00     0.001 A 
ATOM     25  C   UNL A   1      28.068  32.751  21.477  1.00  0.00     0.000 A 
ENDBRANCH  18  20
ENDBRANCH  17  18
ENDBRANCH  16  17
ENDBRANCH   4   7
ENDBRANCH   2   3
ENDBRANCH   1   2
BRANCH   1  26
ATOM     26  C   UNL A   1      32.840  32.489  27.038  1.00  0.00     0.118 C 
BRANCH  26  27
ATOM     27  N   UNL A   1      32.696  33.838  27.571  1.00  0.00    -0.352 N 
ATOM     28  C   UNL A   1      33.270  34.357  28.711  1.00  0.00     0.251 C 
ATOM     29  H   UNL A   1      32.121  34.450  27.057  1.00  0.00     0.163 HD
ATOM     30  O   UNL A   1      32.746  35.308  29.281  1.00  0.00    -0.269 OA
BRANCH  28  31
ATOM     31  C   UNL A   1      34.507  33.740  29.245  1.00  0.00     0.039 A 
ATOM     32  C   UNL A   1      35.758  34.240  28.877  1.00  0.00     0.014 A 
ATOM     33  C   UNL A   1      34.420  32.662  30.129  1.00  0.00     0.014 A 
ATOM     34  C   UNL A   1      36.912  33.705  29.457  1.00  0.00     0.010 A 
ATOM     35  C   UNL A   1      35.553  32.218  30.795  1.00  0.00     0.010 A 
ATOM     36  C   UNL A   1      36.815  32.723  30.457  1.00  0.00    -0.014 A 
BRANCH  36  37
ATOM     37  C   UNL A   1      38.006  32.186  31.163  1.00  0.00     0.031 A 
ATOM     38  C   UNL A   1      38.801  31.071  30.534  1.00  0.00     0.074 A 
ATOM     39  C   UNL A   1      38.308  32.626  32.401  1.00  0.00     0.049 A 
ATOM     40  N   UNL A   1      39.776  30.361  31.040  1.00  0.00    -0.248 NA
ATOM     41  C   UNL A   1      38.421  30.678  29.168  1.00  0.00     0.031 C 
ATOM     42  C   UNL A   1      37.583  33.673  33.125  1.00  0.00     0.029 A 
ATOM     43  N   UNL A   1      39.291  32.240  33.278  1.00  0.00    -0.354 N 
ATOM     44  C   UNL A   1      40.109  29.427  30.064  1.00  0.00     0.074 A 
ATOM     45  C   UNL A   1      39.186  29.617  28.967  1.00  0.00     0.031 C 
ATOM     46  C   UNL A   1      38.159  33.861  34.321  1.00  0.00     0.029 A 
ATOM     47  C   UNL A   1      39.252  32.907  34.481  1.00  0.00     0.049 A 
ATOM     48  H   UNL A   1      39.960  31.550  33.066  1.00  0.00     0.167 HD
ATOM     49  C   UNL A   1      41.107  28.511  30.075  1.00  0.00     0.034 A 
ATOM     50  C   UNL A   1      39.991  32.746  35.597  1.00  0.00     0.034 A 
ATOM     51  C   UNL A   1      42.025  28.351  31.175  1.00  0.00     0.049 A 
ATOM     52  C   UNL A   1      41.063  31.686  35.605  1.00  0.00     0.074 A 
ATOM     53  C   UNL A   1      43.117  27.508  31.268  1.00  0.00     0.029 A 
ATOM     54  N   UNL A   1      41.947  29.038  32.380  1.00  0.00    -0.354 N 
ATOM     55  N   UNL A   1      41.409  30.854  34.648  1.00  0.00    -0.248 NA
ATOM     56  C   UNL A   1      41.844  31.539  36.840  1.00  0.00     0.031 C 
ATOM     57  C   UNL A   1      43.647  27.622  32.557  1.00  0.00     0.029 A 
ATOM     58  C   UNL A   1      42.941  28.599  33.241  1.00  0.00     0.049 A 
ATOM     59  H   UNL A   1      41.284  29.734  32.592  1.00  0.00     0.167 HD
ATOM     60  C   UNL A   1      42.460  30.100  35.163  1.00  0.00     0.074 A 
ATOM     61  C   UNL A   1      42.706  30.591  36.503  1.00  0.00     0.031 C 
ATOM     62  C   UNL A   1      43.158  29.090  34.582  1.00  0.00     0.034 A 
BRANCH  49  63
ATOM     63  C   UNL A   1      41.237  27.600  28.877  1.00  0.00     0.023 A 
ATOM     64  C   UNL A   1      42.244  27.784  27.913  1.00  0.00     0.031 A 
ATOM     65  C   UNL A   1      40.329  26.544  28.684  1.00  0.00     0.131 A 
ATOM     66  C   UNL A   1      42.272  26.977  26.765  1.00  0.00     0.055 A 
ATOM     67  C   UNL A   1      40.416  25.688  27.583  1.00  0.00     0.041 A 
ATOM     68  F   UNL A   1      39.331  26.332  29.556  1.00  0.00    -0.206 F 
ATOM     69  C   UNL A   1      41.382  25.912  26.607  1.00  0.00     0.022 A 
BRANCH  66  70
ATOM     70  S   UNL A   1      43.390  27.437  25.413  1.00  0.00     0.124 S 
ATOM     71  O   UNL A   1      43.984  26.147  25.071  1.00  0.00    -0.237 OA
ATOM     72  O   UNL A   1      42.477  28.002  24.427  1.00  0.00    -0.237 OA
ATOM     73  O   UNL A   1      44.307  28.390  26.035  1.00  0.00    -0.744 OA
ENDBRANCH  66  70
ENDBRANCH  49  63
BRANCH  50  74
ATOM     74  C   UNL A   1      39.728  33.580  36.807  1.00  0.00     0.023 A 
ATOM     75  C   UNL A   1      39.065  33.046  37.923  1.00  0.00     0.031 A 
ATOM     76  C   UNL A   1      40.100  34.937  36.851  1.00  0.00     0.131 A 
ATOM     77  C   UNL A   1      38.754  33.872  39.014  1.00  0.00     0.055 A 
ATOM     78  C   UNL A   1      39.843  35.737  37.964  1.00  0.00     0.041 A 
ATOM     79  F   UNL A   1      40.733  35.502  35.811  1.00  0.00    -0.206 F 
ATOM     80  C   UNL A   1      39.154  35.209  39.051  1.00  0.00     0.022 A 
BRANCH  77  81
ATOM     81  S   UNL A   1      37.727  33.195  40.348  1.00  0.00     0.124 S 
ATOM     82  O   UNL A   1      36.491  32.879  39.641  1.00  0.00    -0.237 OA
ATOM     83  O   UNL A   1      38.521  32.055  40.794  1.00  0.00    -0.237 OA
ATOM     84  O   UNL A   1      37.636  34.301  41.301  1.00  0.00    -0.744 OA
ENDBRANCH  77  81
ENDBRANCH  50  74
BRANCH  62  85
ATOM     85  C   UNL A   1      44.267  28.466  35.390  1.00  0.00     0.023 A 
ATOM     86  C   UNL A   1      44.062  27.294  36.137  1.00  0.00     0.031 A 
ATOM     87  C   UNL A   1      45.551  29.041  35.397  1.00  0.00     0.131 A 
ATOM     88  C   UNL A   1      45.113  26.755  36.893  1.00  0.00     0.055 A 
ATOM     89  C   UNL A   1      46.610  28.464  36.099  1.00  0.00     0.041 A 
ATOM     90  F   UNL A   1      45.801  30.164  34.705  1.00  0.00    -0.206 F 
ATOM     91  C   UNL A   1      46.391  27.320  36.860  1.00  0.00     0.022 A 
BRANCH  88  92
ATOM     92  S   UNL A   1      44.769  25.345  37.980  1.00  0.00     0.124 S 
ATOM     93  O   UNL A   1      43.474  24.891  37.485  1.00  0.00    -0.237 OA
ATOM     94  O   UNL A   1      45.900  24.461  37.714  1.00  0.00    -0.237 OA
ATOM     95  O   UNL A   1      44.750  25.940  39.316  1.00  0.00    -0.744 OA
ENDBRANCH  88  92
ENDBRANCH  62  85
ENDBRANCH  36  37
ENDBRANCH  28  31
ENDBRANCH  26  27
ENDBRANCH   1  26
TORSDOF 16
ENDMDL
MODEL 2
REMARK VINA RESULT:     -12.4      5.616     10.914
REMARK SMILES C[N@H+]1[C@H]2CC[C@@H]1[C@@H](C(=O)NCCCNC(=O)c1ccc(-c3c4nc(c(-c5cc(S(=O)(=O)[O-])ccc5F)c5ccc([nH]5)c(-c5cc(S(=O)(=O)[O-])ccc5F)c5nc(c(-c6cc(S(=O)(=O)[O-])ccc6F)c6ccc3[nH]6)C=C5)C=C4)cc1)[C@@H](OC(=O)c1ccccc1)C2
REMARK SMILES IDX 12 1 11 2 10 3 8 4 9 5 7 7 1 8 2 9 3 10 6 11 4 13 90 14 5 15
REMARK SMILES IDX 80 16 81 17 82 18 83 19 84 20 85 21 89 22 86 23 88 24 87 25
REMARK SMILES IDX 13 26 14 27 15 28 16 30 17 31 18 32 79 33 19 34 78 35 20 36
REMARK SMILES IDX 21 37 22 38 72 39 23 40 77 41 71 42 73 43 24 44 76 45 70 46
REMARK SMILES IDX 69 47 25 49 57 50 37 51 56 52 38 53 41 54 55 55 74 56 39 57
REMARK SMILES IDX 40 58 54 60 75 61 42 62 26 63 27 64 35 65 28 66 34 67 36 68
REMARK SMILES IDX 33 69 29 70 30 71 31 72 32 73 58 74 59 75 67 76 60 77 66 78
REMARK SMILES IDX 68 79 65 80 61 81 62 82 63 83 64 84 43 85 44 86 52 87 45 88
REMARK SMILES IDX 51 89 53 90 50 91 46 92 47 93 48 94 49 95
REMARK H PARENT 10 6 2 12 14 29 73 48 41 59
REMARK Flexibility Score: inf
ROOT
ATOM      1  C   UNL A   1      35.800  22.408  23.944  1.00  0.00     0.042 C 
ENDROOT
BRANCH   1   2
ATOM      2  C   UNL A   1      34.698  23.422  23.715  1.00  0.00     0.117 C 
BRANCH   2   3
ATOM      3  N   UNL A   1      34.794  24.701  24.411  1.00  0.00    -0.355 N 
ATOM      4  C   UNL A   1      33.865  25.565  24.912  1.00  0.00     0.232 C 
ATOM      5  O   UNL A   1      34.272  26.295  25.831  1.00  0.00    -0.274 OA
ATOM      6  H   UNL A   1      35.721  25.005  24.545  1.00  0.00     0.163 HD
BRANCH   4   7
ATOM      7  C   UNL A   1      32.412  25.758  24.430  1.00  0.00     0.177 C 
ATOM      8  C   UNL A   1      33.221  28.960  22.968  1.00  0.00     0.333 C 
ATOM      9  N   UNL A   1      32.503  28.029  23.805  1.00  0.00    -0.332 N 
ATOM     10  C   UNL A   1      31.294  28.422  24.523  1.00  0.00     0.188 C 
ATOM     11  C   UNL A   1      32.241  26.725  23.247  1.00  0.00     0.200 C 
ATOM     12  H   UNL A   1      33.251  28.013  24.499  1.00  0.00     0.348 HD
ATOM     13  C   UNL A   1      30.217  28.089  23.510  1.00  0.00     0.071 C 
ATOM     14  C   UNL A   1      31.182  27.541  25.819  1.00  0.00     0.111 C 
ATOM     15  C   UNL A   1      30.785  26.882  22.752  1.00  0.00     0.072 C 
ATOM     16  C   UNL A   1      31.414  26.027  25.567  1.00  0.00     0.201 C 
BRANCH  16  17
ATOM     17  O   UNL A   1      31.680  25.076  26.650  1.00  0.00    -0.457 OA
BRANCH  17  18
ATOM     18  C   UNL A   1      31.006  23.919  26.798  1.00  0.00     0.338 C 
ATOM     19  O   UNL A   1      29.841  23.813  27.151  1.00  0.00    -0.246 OA
BRANCH  18  20
ATOM     20  C   UNL A   1      31.842  22.710  26.541  1.00  0.00     0.060 A 
ATOM     21  C   UNL A   1      31.541  21.955  25.392  1.00  0.00     0.015 A 
ATOM     22  C   UNL A   1      32.921  22.321  27.342  1.00  0.00     0.015 A 
ATOM     23  C   UNL A   1      32.321  20.856  25.029  1.00  0.00     0.001 A 
ATOM     24  C   UNL A   1      33.708  21.220  26.971  1.00  0.00     0.001 A 
ATOM     25  C   UNL A   1      33.414  20.495  25.812  1.00  0.00     0.000 A 
ENDBRANCH  18  20
ENDBRANCH  17  18
ENDBRANCH  16  17
ENDBRANCH   4   7
ENDBRANCH   2   3
ENDBRANCH   1   2
BRANCH   1  26
ATOM     26  C   UNL A   1      36.453  22.529  25.295  1.00  0.00     0.118 C 
BRANCH  26  27
ATOM     27  N   UNL A   1      37.241  21.336  25.573  1.00  0.00    -0.352 N 
ATOM     28  C   UNL A   1      38.586  21.265  25.865  1.00  0.00     0.251 C 
ATOM     29  H   UNL A   1      36.756  20.479  25.550  1.00  0.00     0.163 HD
ATOM     30  O   UNL A   1      39.206  20.230  25.644  1.00  0.00    -0.269 OA
BRANCH  28  31
ATOM     31  C   UNL A   1      39.269  22.455  26.425  1.00  0.00     0.039 A 
ATOM     32  C   UNL A   1      40.390  22.301  27.244  1.00  0.00     0.014 A 
ATOM     33  C   UNL A   1      38.797  23.733  26.123  1.00  0.00     0.014 A 
ATOM     34  C   UNL A   1      41.077  23.434  27.693  1.00  0.00     0.010 A 
ATOM     35  C   UNL A   1      39.548  24.849  26.464  1.00  0.00     0.010 A 
ATOM     36  C   UNL A   1      40.689  24.714  27.266  1.00  0.00    -0.014 A 
BRANCH  36  37
ATOM     37  C   UNL A   1      41.437  25.940  27.646  1.00  0.00     0.031 A 
ATOM     38  C   UNL A   1      40.746  27.014  28.445  1.00  0.00     0.074 A 
ATOM     39  C   UNL A   1      42.692  26.129  27.190  1.00  0.00     0.049 A 
ATOM     40  N   UNL A   1      41.162  28.215  28.752  1.00  0.00    -0.248 NA
ATOM     41  C   UNL A   1      39.390  26.708  28.929  1.00  0.00     0.031 C 
ATOM     42  C   UNL A   1      43.446  25.174  26.373  1.00  0.00     0.029 A 
ATOM     43  N   UNL A   1      43.549  27.191  27.331  1.00  0.00    -0.354 N 
ATOM     44  C   UNL A   1      40.112  28.812  29.444  1.00  0.00     0.074 A 
ATOM     45  C   UNL A   1      39.019  27.866  29.449  1.00  0.00     0.031 C 
ATOM     46  C   UNL A   1      44.658  25.684  26.108  1.00  0.00     0.029 A 
ATOM     47  C   UNL A   1      44.749  27.025  26.676  1.00  0.00     0.049 A 
ATOM     48  H   UNL A   1      43.327  27.996  27.851  1.00  0.00     0.167 HD
ATOM     49  C   UNL A   1      40.075  30.030  30.038  1.00  0.00     0.034 A 
ATOM     50  C   UNL A   1      45.789  27.869  26.524  1.00  0.00     0.034 A 
ATOM     51  C   UNL A   1      41.184  30.950  30.032  1.00  0.00     0.049 A 
ATOM     52  C   UNL A   1      45.704  29.238  27.150  1.00  0.00     0.074 A 
ATOM     53  C   UNL A   1      41.287  32.177  30.661  1.00  0.00     0.029 A 
ATOM     54  N   UNL A   1      42.378  30.750  29.350  1.00  0.00    -0.354 N 
ATOM     55  N   UNL A   1      44.731  29.763  27.859  1.00  0.00    -0.248 NA
ATOM     56  C   UNL A   1      46.856  30.129  26.958  1.00  0.00     0.031 C 
ATOM     57  C   UNL A   1      42.504  32.757  30.290  1.00  0.00     0.029 A 
ATOM     58  C   UNL A   1      43.201  31.855  29.500  1.00  0.00     0.049 A 
ATOM     59  H   UNL A   1      42.606  29.943  28.835  1.00  0.00     0.167 HD
ATOM     60  C   UNL A   1      45.162  31.038  28.210  1.00  0.00     0.074 A 
ATOM     61  C   UNL A   1      46.492  31.194  27.657  1.00  0.00     0.031 C 
ATOM     62  C   UNL A   1      44.518  31.997  28.925  1.00  0.00     0.034 A 
BRANCH  49  63
ATOM     63  C   UNL A   1      38.789  30.439  30.716  1.00  0.00     0.023 A 
ATOM     64  C   UNL A   1      37.727  31.022  30.002  1.00  0.00     0.031 A 
ATOM     65  C   UNL A   1      38.628  30.263  32.102  1.00  0.00     0.131 A 
ATOM     66  C   UNL A   1      36.588  31.477  30.684  1.00  0.00     0.055 A 
ATOM     67  C   UNL A   1      37.455  30.637  32.762  1.00  0.00     0.041 A 
ATOM     68  F   UNL A   1      39.614  29.734  32.843  1.00  0.00    -0.206 F 
ATOM     69  C   UNL A   1      36.433  31.263  32.055  1.00  0.00     0.022 A 
BRANCH  66  70
ATOM     70  S   UNL A   1      35.384  32.486  29.778  1.00  0.00     0.124 S 
ATOM     71  O   UNL A   1      34.927  31.551  28.754  1.00  0.00    -0.237 OA
ATOM     72  O   UNL A   1      34.415  32.826  30.814  1.00  0.00    -0.237 OA
ATOM     73  O   UNL A   1      36.182  33.605  29.278  1.00  0.00    -0.744 OA
ENDBRANCH  66  70
ENDBRANCH  49  63
BRANCH  50  74
ATOM     74  C   UNL A   1      46.982  27.465  25.722  1.00  0.00     0.023 A 
ATOM     75  C   UNL A   1      47.134  27.882  24.391  1.00  0.00     0.031 A 
ATOM     76  C   UNL A   1      47.969  26.620  26.263  1.00  0.00     0.131 A 
ATOM     77  C   UNL A   1      48.220  27.420  23.631  1.00  0.00     0.055 A 
ATOM     78  C   UNL A   1      49.080  26.214  25.522  1.00  0.00     0.041 A 
ATOM     79  F   UNL A   1      47.874  26.187  27.529  1.00  0.00    -0.206 F 
ATOM     80  C   UNL A   1      49.204  26.603  24.193  1.00  0.00     0.022 A 
BRANCH  77  81
ATOM     81  S   UNL A   1      48.276  27.822  21.863  1.00  0.00     0.124 S 
ATOM     82  O   UNL A   1      46.942  28.368  21.641  1.00  0.00    -0.237 OA
ATOM     83  O   UNL A   1      49.378  28.777  21.804  1.00  0.00    -0.237 OA
ATOM     84  O   UNL A   1      48.537  26.532  21.229  1.00  0.00    -0.744 OA
ENDBRANCH  77  81
ENDBRANCH  50  74
BRANCH  62  85
ATOM     85  C   UNL A   1      45.256  33.290  29.162  1.00  0.00     0.023 A 
ATOM     86  C   UNL A   1      45.102  34.392  28.304  1.00  0.00     0.031 A 
ATOM     87  C   UNL A   1      46.107  33.429  30.273  1.00  0.00     0.131 A 
ATOM     88  C   UNL A   1      45.820  35.571  28.548  1.00  0.00     0.055 A 
ATOM     89  C   UNL A   1      46.770  34.625  30.546  1.00  0.00     0.041 A 
ATOM     90  F   UNL A   1      46.294  32.404  31.122  1.00  0.00    -0.206 F 
ATOM     91  C   UNL A   1      46.635  35.702  29.675  1.00  0.00     0.022 A 
BRANCH  88  92
ATOM     92  S   UNL A   1      45.734  36.910  27.328  1.00  0.00     0.124 S 
ATOM     93  O   UNL A   1      46.340  38.021  28.055  1.00  0.00    -0.237 OA
ATOM     94  O   UNL A   1      46.513  36.374  26.216  1.00  0.00    -0.237 OA
ATOM     95  O   UNL A   1      44.301  37.046  27.070  1.00  0.00    -0.744 OA
ENDBRANCH  88  92
ENDBRANCH  62  85
ENDBRANCH  36  37
ENDBRANCH  28  31
ENDBRANCH  26  27
ENDBRANCH   1  26
TORSDOF 16
ENDMDL
MODEL 3
REMARK VINA RESULT:     -12.4      2.621      3.481
REMARK SMILES C[N@H+]1[C@H]2CC[C@@H]1[C@@H](C(=O)NCCCNC(=O)c1ccc(-c3c4nc(c(-c5cc(S(=O)(=O)[O-])ccc5F)c5ccc([nH]5)c(-c5cc(S(=O)(=O)[O-])ccc5F)c5nc(c(-c6cc(S(=O)(=O)[O-])ccc6F)c6ccc3[nH]6)C=C5)C=C4)cc1)[C@@H](OC(=O)c1ccccc1)C2
REMARK SMILES IDX 12 1 11 2 10 3 8 4 9 5 7 7 1 8 2 9 3 10 6 11 4 13 90 14 5 15
REMARK SMILES IDX 80 16 81 17 82 18 83 19 84 20 85 21 89 22 86 23 88 24 87 25
REMARK SMILES IDX 13 26 14 27 15 28 16 30 17 31 18 32 79 33 19 34 78 35 20 36
REMARK SMILES IDX 21 37 22 38 72 39 23 40 77 41 71 42 73 43 24 44 76 45 70 46
REMARK SMILES IDX 69 47 25 49 57 50 37 51 56 52 38 53 41 54 55 55 74 56 39 57
REMARK SMILES IDX 40 58 54 60 75 61 42 62 26 63 27 64 35 65 28 66 34 67 36 68
REMARK SMILES IDX 33 69 29 70 30 71 31 72 32 73 58 74 59 75 67 76 60 77 66 78
REMARK SMILES IDX 68 79 65 80 61 81 62 82 63 83 64 84 43 85 44 86 52 87 45 88
REMARK SMILES IDX 51 89 53 90 50 91 46 92 47 93 48 94 49 95
REMARK H PARENT 10 6 2 12 14 29 73 48 41 59
REMARK Flexibility Score: inf
ROOT
ATOM      1  C   UNL A   1      31.767  28.410  26.640  1.00  0.00     0.042 C 
ENDROOT
BRANCH   1   2
ATOM      2  C   UNL A   1      31.808  26.950  26.240  1.00  0.00     0.117 C 
BRANCH   2   3
ATOM      3  N   UNL A   1      33.075  26.239  26.384  1.00  0.00    -0.355 N 
ATOM      4  C   UNL A   1      33.670  25.236  25.675  1.00  0.00     0.232 C 
ATOM      5  O   UNL A   1      34.908  25.192  25.770  1.00  0.00    -0.274 OA
ATOM      6  H   UNL A   1      33.611  26.545  27.150  1.00  0.00     0.163 HD
BRANCH   4   7
ATOM      7  C   UNL A   1      32.975  24.146  24.834  1.00  0.00     0.177 C 
ATOM      8  C   UNL A   1      34.286  21.534  26.955  1.00  0.00     0.333 C 
ATOM      9  N   UNL A   1      34.028  22.232  25.719  1.00  0.00    -0.332 N 
ATOM     10  C   UNL A   1      34.372  21.648  24.425  1.00  0.00     0.188 C 
ATOM     11  C   UNL A   1      32.719  22.819  25.567  1.00  0.00     0.200 C 
ATOM     12  H   UNL A   1      34.747  22.929  25.914  1.00  0.00     0.348 HD
ATOM     13  C   UNL A   1      33.098  20.904  24.080  1.00  0.00     0.071 C 
ATOM     14  C   UNL A   1      34.665  22.818  23.420  1.00  0.00     0.111 C 
ATOM     15  C   UNL A   1      31.990  21.750  24.723  1.00  0.00     0.072 C 
ATOM     16  C   UNL A   1      33.599  23.947  23.444  1.00  0.00     0.201 C 
BRANCH  16  17
ATOM     17  O   UNL A   1      33.827  25.265  22.846  1.00  0.00    -0.457 OA
BRANCH  17  18
ATOM     18  C   UNL A   1      33.038  25.787  21.887  1.00  0.00     0.338 C 
ATOM     19  O   UNL A   1      33.164  25.608  20.685  1.00  0.00    -0.246 OA
BRANCH  18  20
ATOM     20  C   UNL A   1      31.978  26.691  22.420  1.00  0.00     0.060 A 
ATOM     21  C   UNL A   1      32.267  28.067  22.456  1.00  0.00     0.015 A 
ATOM     22  C   UNL A   1      30.714  26.254  22.835  1.00  0.00     0.015 A 
ATOM     23  C   UNL A   1      31.305  28.994  22.864  1.00  0.00     0.001 A 
ATOM     24  C   UNL A   1      29.747  27.188  23.237  1.00  0.00     0.001 A 
ATOM     25  C   UNL A   1      30.039  28.555  23.242  1.00  0.00     0.000 A 
ENDBRANCH  18  20
ENDBRANCH  17  18
ENDBRANCH  16  17
ENDBRANCH   4   7
ENDBRANCH   2   3
ENDBRANCH   1   2
BRANCH   1  26
ATOM     26  C   UNL A   1      32.879  29.226  26.038  1.00  0.00     0.118 C 
BRANCH  26  27
ATOM     27  N   UNL A   1      32.588  30.646  26.186  1.00  0.00    -0.352 N 
ATOM     28  C   UNL A   1      33.132  31.526  27.096  1.00  0.00     0.251 C 
ATOM     29  H   UNL A   1      31.924  31.021  25.562  1.00  0.00     0.163 HD
ATOM     30  O   UNL A   1      32.513  32.537  27.415  1.00  0.00    -0.269 OA
BRANCH  28  31
ATOM     31  C   UNL A   1      34.453  31.224  27.695  1.00  0.00     0.039 A 
ATOM     32  C   UNL A   1      35.422  32.224  27.799  1.00  0.00     0.014 A 
ATOM     33  C   UNL A   1      34.725  29.939  28.166  1.00  0.00     0.014 A 
ATOM     34  C   UNL A   1      36.631  31.948  28.446  1.00  0.00     0.010 A 
ATOM     35  C   UNL A   1      35.869  29.701  28.914  1.00  0.00     0.010 A 
ATOM     36  C   UNL A   1      36.843  30.698  29.051  1.00  0.00    -0.014 A 
BRANCH  36  37
ATOM     37  C   UNL A   1      38.074  30.386  29.822  1.00  0.00     0.031 A 
ATOM     38  C   UNL A   1      39.068  29.400  29.267  1.00  0.00     0.074 A 
ATOM     39  C   UNL A   1      38.245  30.907  31.054  1.00  0.00     0.049 A 
ATOM     40  N   UNL A   1      40.122  28.876  29.835  1.00  0.00    -0.248 NA
ATOM     41  C   UNL A   1      38.818  28.909  27.902  1.00  0.00     0.031 C 
ATOM     42  C   UNL A   1      37.326  31.841  31.710  1.00  0.00     0.029 A 
ATOM     43  N   UNL A   1      39.237  30.714  31.982  1.00  0.00    -0.354 N 
ATOM     44  C   UNL A   1      40.646  27.981  28.908  1.00  0.00     0.074 A 
ATOM     45  C   UNL A   1      39.754  27.983  27.770  1.00  0.00     0.031 C 
ATOM     46  C   UNL A   1      37.811  32.157  32.921  1.00  0.00     0.029 A 
ATOM     47  C   UNL A   1      39.036  31.402  33.158  1.00  0.00     0.049 A 
ATOM     48  H   UNL A   1      40.019  30.138  31.822  1.00  0.00     0.167 HD
ATOM     49  C   UNL A   1      41.779  27.242  28.992  1.00  0.00     0.034 A 
ATOM     50  C   UNL A   1      39.742  31.399  34.306  1.00  0.00     0.034 A 
ATOM     51  C   UNL A   1      42.662  27.269  30.131  1.00  0.00     0.049 A 
ATOM     52  C   UNL A   1      40.972  30.530  34.395  1.00  0.00     0.074 A 
ATOM     53  C   UNL A   1      43.872  26.621  30.298  1.00  0.00     0.029 A 
ATOM     54  N   UNL A   1      42.419  27.969  31.307  1.00  0.00    -0.354 N 
ATOM     55  N   UNL A   1      41.491  29.739  33.484  1.00  0.00    -0.248 NA
ATOM     56  C   UNL A   1      41.710  30.552  35.664  1.00  0.00     0.031 C 
ATOM     57  C   UNL A   1      44.318  26.859  31.601  1.00  0.00     0.029 A 
ATOM     58  C   UNL A   1      43.432  27.727  32.221  1.00  0.00     0.049 A 
ATOM     59  H   UNL A   1      41.642  28.552  31.467  1.00  0.00     0.167 HD
ATOM     60  C   UNL A   1      42.627  29.184  34.066  1.00  0.00     0.074 A 
ATOM     61  C   UNL A   1      42.730  29.749  35.396  1.00  0.00     0.031 C 
ATOM     62  C   UNL A   1      43.506  28.287  33.550  1.00  0.00     0.034 A 
BRANCH  49  63
ATOM     63  C   UNL A   1      42.109  26.330  27.834  1.00  0.00     0.023 A 
ATOM     64  C   UNL A   1      41.652  25.002  27.783  1.00  0.00     0.031 A 
ATOM     65  C   UNL A   1      42.909  26.790  26.772  1.00  0.00     0.131 A 
ATOM     66  C   UNL A   1      42.060  24.159  26.738  1.00  0.00     0.055 A 
ATOM     67  C   UNL A   1      43.239  25.971  25.690  1.00  0.00     0.041 A 
ATOM     68  F   UNL A   1      43.396  28.040  26.774  1.00  0.00    -0.206 F 
ATOM     69  C   UNL A   1      42.827  24.642  25.676  1.00  0.00     0.022 A 
BRANCH  66  70
ATOM     70  S   UNL A   1      41.700  22.386  26.868  1.00  0.00     0.124 S 
ATOM     71  O   UNL A   1      40.302  22.399  27.290  1.00  0.00    -0.237 OA
ATOM     72  O   UNL A   1      41.953  21.913  25.512  1.00  0.00    -0.237 OA
ATOM     73  O   UNL A   1      42.644  21.917  27.880  1.00  0.00    -0.744 OA
ENDBRANCH  66  70
ENDBRANCH  49  63
BRANCH  50  74
ATOM     74  C   UNL A   1      39.293  32.213  35.474  1.00  0.00     0.023 A 
ATOM     75  C   UNL A   1      39.717  33.540  35.637  1.00  0.00     0.031 A 
ATOM     76  C   UNL A   1      38.463  31.662  36.469  1.00  0.00     0.131 A 
ATOM     77  C   UNL A   1      39.350  34.258  36.787  1.00  0.00     0.055 A 
ATOM     78  C   UNL A   1      38.050  32.400  37.579  1.00  0.00     0.041 A 
ATOM     79  F   UNL A   1      38.029  30.396  36.368  1.00  0.00    -0.206 F 
ATOM     80  C   UNL A   1      38.505  33.703  37.750  1.00  0.00     0.022 A 
BRANCH  77  81
ATOM     81  S   UNL A   1      40.077  35.898  37.055  1.00  0.00     0.124 S 
ATOM     82  O   UNL A   1      39.377  36.341  38.255  1.00  0.00    -0.237 OA
ATOM     83  O   UNL A   1      41.492  35.580  37.217  1.00  0.00    -0.237 OA
ATOM     84  O   UNL A   1      39.739  36.623  35.831  1.00  0.00    -0.744 OA
ENDBRANCH  77  81
ENDBRANCH  50  74
BRANCH  62  85
ATOM     85  C   UNL A   1      44.665  27.879  34.424  1.00  0.00     0.023 A 
ATOM     86  C   UNL A   1      44.593  26.753  35.261  1.00  0.00     0.031 A 
ATOM     87  C   UNL A   1      45.864  28.614  34.402  1.00  0.00     0.131 A 
ATOM     88  C   UNL A   1      45.685  26.417  36.074  1.00  0.00     0.055 A 
ATOM     89  C   UNL A   1      46.970  28.237  35.165  1.00  0.00     0.041 A 
ATOM     90  F   UNL A   1      45.985  29.702  33.623  1.00  0.00    -0.206 F 
ATOM     91  C   UNL A   1      46.881  27.139  36.014  1.00  0.00     0.022 A 
BRANCH  88  92
ATOM     92  S   UNL A   1      45.498  25.066  37.268  1.00  0.00     0.124 S 
ATOM     93  O   UNL A   1      45.899  23.906  36.478  1.00  0.00    -0.237 OA
ATOM     94  O   UNL A   1      46.414  25.459  38.334  1.00  0.00    -0.237 OA
ATOM     95  O   UNL A   1      44.080  25.116  37.622  1.00  0.00    -0.744 OA
ENDBRANCH  88  92
ENDBRANCH  62  85
ENDBRANCH  36  37
ENDBRANCH  28  31
ENDBRANCH  26  27
ENDBRANCH   1  26
TORSDOF 16
ENDMDL
