MODEL 1
REMARK VINA RESULT:     -12.5      0.000      0.000
REMARK SMILES NC(=O)c1c(F)cccc1N1CCC[C@H](CC(=O)NCCCNC(=O)c2ccc(-c3c4nc(c(-c5cc(S(=O)(=O)[O-])ccc5F)c5ccc([nH]5)c(-c5cc(S(=O)(=O)[O-])ccc5F)c5nc(c(-c6cc(S(=O)(=O)[O-])ccc6F)c6ccc3[nH]6)C=C5)C=C4)cc2)C1
REMARK SMILES IDX 21 1 20 2 19 3 17 4 18 5 16 7 15 8 11 9 12 10 89 11 13 12
REMARK SMILES IDX 14 13 10 14 4 15 5 16 6 17 7 18 9 19 8 20 2 21 1 22 3 25
REMARK SMILES IDX 22 26 23 27 24 28 25 30 26 31 27 32 88 33 28 34 87 35 29 36
REMARK SMILES IDX 30 37 31 38 81 39 32 40 86 41 80 42 82 43 33 44 85 45 79 46
REMARK SMILES IDX 78 47 34 49 66 50 46 51 65 52 47 53 50 54 64 55 83 56 48 57
REMARK SMILES IDX 49 58 63 60 84 61 51 62 35 63 36 64 44 65 37 66 43 67 45 68
REMARK SMILES IDX 42 69 38 70 39 71 40 72 41 73 67 74 68 75 76 76 69 77 75 78
REMARK SMILES IDX 77 79 74 80 70 81 71 82 72 83 73 84 52 85 53 86 61 87 54 88
REMARK SMILES IDX 60 89 62 90 59 91 55 92 56 93 57 94 58 95
REMARK H PARENT 19 6 1 23 1 24 23 29 82 48 50 59
REMARK Flexibility Score: inf
ROOT
ATOM      1  C   UNL A   1      31.454  31.955  26.495  1.00  0.00     0.042 C 
ENDROOT
BRANCH   1   2
ATOM      2  C   UNL A   1      31.657  30.541  25.963  1.00  0.00     0.117 C 
BRANCH   2   3
ATOM      3  N   UNL A   1      32.963  30.029  26.339  1.00  0.00    -0.356 N 
ATOM      4  C   UNL A   1      33.539  28.825  26.068  1.00  0.00     0.220 C 
ATOM      5  O   UNL A   1      34.612  28.551  26.610  1.00  0.00    -0.275 OA
ATOM      6  H   UNL A   1      33.516  30.645  26.872  1.00  0.00     0.163 HD
BRANCH   4   7
ATOM      7  C   UNL A   1      32.902  27.868  25.084  1.00  0.00     0.105 C 
BRANCH   7   8
ATOM      8  C   UNL A   1      33.489  27.946  23.659  1.00  0.00     0.018 C 
ATOM      9  N   UNL A   1      31.297  27.983  22.633  1.00  0.00    -0.371 N 
ATOM     10  C   UNL A   1      31.399  26.691  21.956  1.00  0.00     0.116 C 
ATOM     11  C   UNL A   1      32.536  28.750  22.760  1.00  0.00     0.120 C 
ATOM     12  C   UNL A   1      32.413  25.822  22.704  1.00  0.00     0.022 C 
ATOM     13  C   UNL A   1      33.715  26.582  22.980  1.00  0.00     0.008 C 
BRANCH   9  14
ATOM     14  C   UNL A   1      30.085  28.653  22.585  1.00  0.00     0.053 A 
ATOM     15  C   UNL A   1      28.876  28.193  23.138  1.00  0.00     0.098 A 
ATOM     16  C   UNL A   1      27.691  28.902  22.911  1.00  0.00     0.138 A 
ATOM     17  F   UNL A   1      26.525  28.471  23.415  1.00  0.00    -0.206 F 
ATOM     18  C   UNL A   1      27.683  30.072  22.156  1.00  0.00     0.040 A 
ATOM     19  C   UNL A   1      30.059  29.853  21.848  1.00  0.00     0.027 A 
ATOM     20  C   UNL A   1      28.874  30.557  21.629  1.00  0.00     0.005 A 
BRANCH  15  21
ATOM     21  C   UNL A   1      28.827  27.002  24.013  1.00  0.00     0.253 C 
ATOM     22  N   UNL A   1      27.760  26.164  23.851  1.00  0.00    -0.365 N 
ATOM     23  H   UNL A   1      27.679  25.357  24.409  1.00  0.00     0.159 HD
ATOM     24  H   UNL A   1      27.072  26.367  23.176  1.00  0.00     0.159 HD
ATOM     25  O   UNL A   1      29.696  26.762  24.844  1.00  0.00    -0.269 OA
ENDBRANCH  15  21
ENDBRANCH   9  14
ENDBRANCH   7   8
ENDBRANCH   4   7
ENDBRANCH   2   3
ENDBRANCH   1   2
BRANCH   1  26
ATOM     26  C   UNL A   1      32.685  32.531  27.173  1.00  0.00     0.118 C 
BRANCH  26  27
ATOM     27  N   UNL A   1      32.493  33.915  27.572  1.00  0.00    -0.352 N 
ATOM     28  C   UNL A   1      33.092  34.639  28.576  1.00  0.00     0.251 C 
ATOM     29  H   UNL A   1      31.831  34.412  27.039  1.00  0.00     0.163 HD
ATOM     30  O   UNL A   1      32.618  35.735  28.872  1.00  0.00    -0.269 OA
BRANCH  28  31
ATOM     31  C   UNL A   1      34.265  34.111  29.315  1.00  0.00     0.039 A 
ATOM     32  C   UNL A   1      34.047  33.250  30.396  1.00  0.00     0.014 A 
ATOM     33  C   UNL A   1      35.572  34.479  28.987  1.00  0.00     0.014 A 
ATOM     34  C   UNL A   1      35.132  32.719  31.100  1.00  0.00     0.010 A 
ATOM     35  C   UNL A   1      36.655  33.874  29.623  1.00  0.00     0.010 A 
ATOM     36  C   UNL A   1      36.448  32.998  30.698  1.00  0.00    -0.014 A 
BRANCH  36  37
ATOM     37  C   UNL A   1      37.618  32.411  31.406  1.00  0.00     0.031 A 
ATOM     38  C   UNL A   1      38.388  31.278  30.780  1.00  0.00     0.074 A 
ATOM     39  C   UNL A   1      37.958  32.860  32.631  1.00  0.00     0.049 A 
ATOM     40  N   UNL A   1      39.378  30.577  31.274  1.00  0.00    -0.248 NA
ATOM     41  C   UNL A   1      37.971  30.856  29.434  1.00  0.00     0.031 C 
ATOM     42  C   UNL A   1      37.273  33.929  33.359  1.00  0.00     0.029 A 
ATOM     43  N   UNL A   1      38.967  32.474  33.478  1.00  0.00    -0.354 N 
ATOM     44  C   UNL A   1      39.685  29.622  30.312  1.00  0.00     0.074 A 
ATOM     45  C   UNL A   1      38.739  29.797  29.229  1.00  0.00     0.031 C 
ATOM     46  C   UNL A   1      37.906  34.142  34.524  1.00  0.00     0.029 A 
ATOM     47  C   UNL A   1      39.010  33.195  34.648  1.00  0.00     0.049 A 
ATOM     48  H   UNL A   1      39.599  31.750  33.268  1.00  0.00     0.167 HD
ATOM     49  C   UNL A   1      40.676  28.698  30.316  1.00  0.00     0.034 A 
ATOM     50  C   UNL A   1      39.840  33.104  35.706  1.00  0.00     0.034 A 
ATOM     51  C   UNL A   1      41.635  28.555  31.383  1.00  0.00     0.049 A 
ATOM     52  C   UNL A   1      40.931  32.069  35.698  1.00  0.00     0.074 A 
ATOM     53  C   UNL A   1      42.715  27.692  31.459  1.00  0.00     0.029 A 
ATOM     54  N   UNL A   1      41.634  29.294  32.558  1.00  0.00    -0.354 N 
ATOM     55  N   UNL A   1      41.208  31.176  34.778  1.00  0.00    -0.248 NA
ATOM     56  C   UNL A   1      41.817  32.029  36.867  1.00  0.00     0.031 C 
ATOM     57  C   UNL A   1      43.331  27.869  32.702  1.00  0.00     0.029 A 
ATOM     58  C   UNL A   1      42.677  28.889  33.376  1.00  0.00     0.049 A 
ATOM     59  H   UNL A   1      40.985  30.002  32.779  1.00  0.00     0.167 HD
ATOM     60  C   UNL A   1      42.314  30.476  35.250  1.00  0.00     0.074 A 
ATOM     61  C   UNL A   1      42.653  31.053  36.536  1.00  0.00     0.031 C 
ATOM     62  C   UNL A   1      42.991  29.457  34.665  1.00  0.00     0.034 A 
BRANCH  49  63
ATOM     63  C   UNL A   1      40.760  27.760  29.138  1.00  0.00     0.023 A 
ATOM     64  C   UNL A   1      41.670  27.974  28.088  1.00  0.00     0.031 A 
ATOM     65  C   UNL A   1      39.910  26.642  29.058  1.00  0.00     0.131 A 
ATOM     66  C   UNL A   1      41.664  27.122  26.973  1.00  0.00     0.055 A 
ATOM     67  C   UNL A   1      39.961  25.756  27.980  1.00  0.00     0.041 A 
ATOM     68  F   UNL A   1      39.010  26.398  30.022  1.00  0.00    -0.206 F 
ATOM     69  C   UNL A   1      40.834  26.001  26.923  1.00  0.00     0.022 A 
BRANCH  66  70
ATOM     70  S   UNL A   1      42.680  27.565  25.538  1.00  0.00     0.124 S 
ATOM     71  O   UNL A   1      43.939  27.945  26.177  1.00  0.00    -0.237 OA
ATOM     72  O   UNL A   1      42.703  26.326  24.771  1.00  0.00    -0.237 OA
ATOM     73  O   UNL A   1      41.943  28.666  24.923  1.00  0.00    -0.744 OA
ENDBRANCH  66  70
ENDBRANCH  49  63
BRANCH  50  74
ATOM     74  C   UNL A   1      39.663  34.030  36.856  1.00  0.00     0.023 A 
ATOM     75  C   UNL A   1      39.071  33.590  38.049  1.00  0.00     0.031 A 
ATOM     76  C   UNL A   1      40.128  35.355  36.792  1.00  0.00     0.131 A 
ATOM     77  C   UNL A   1      38.951  34.473  39.135  1.00  0.00     0.055 A 
ATOM     78  C   UNL A   1      40.034  36.220  37.884  1.00  0.00     0.041 A 
ATOM     79  F   UNL A   1      40.716  35.813  35.676  1.00  0.00    -0.206 F 
ATOM     80  C   UNL A   1      39.441  35.780  39.064  1.00  0.00     0.022 A 
BRANCH  77  81
ATOM     81  S   UNL A   1      38.154  33.887  40.654  1.00  0.00     0.124 S 
ATOM     82  O   UNL A   1      37.848  35.141  41.333  1.00  0.00    -0.237 OA
ATOM     83  O   UNL A   1      37.011  33.142  40.134  1.00  0.00    -0.237 OA
ATOM     84  O   UNL A   1      39.187  33.069  41.286  1.00  0.00    -0.744 OA
ENDBRANCH  77  81
ENDBRANCH  50  74
BRANCH  62  85
ATOM     85  C   UNL A   1      44.188  28.911  35.396  1.00  0.00     0.023 A 
ATOM     86  C   UNL A   1      44.068  27.873  36.334  1.00  0.00     0.031 A 
ATOM     87  C   UNL A   1      45.472  29.408  35.110  1.00  0.00     0.131 A 
ATOM     88  C   UNL A   1      45.214  27.378  36.973  1.00  0.00     0.055 A 
ATOM     89  C   UNL A   1      46.613  28.882  35.717  1.00  0.00     0.041 A 
ATOM     90  F   UNL A   1      45.639  30.398  34.218  1.00  0.00    -0.206 F 
ATOM     91  C   UNL A   1      46.487  27.864  36.659  1.00  0.00     0.022 A 
BRANCH  88  92
ATOM     92  S   UNL A   1      45.022  26.104  38.249  1.00  0.00     0.124 S 
ATOM     93  O   UNL A   1      44.292  26.826  39.287  1.00  0.00    -0.237 OA
ATOM     94  O   UNL A   1      44.275  25.064  37.550  1.00  0.00    -0.237 OA
ATOM     95  O   UNL A   1      46.399  25.751  38.592  1.00  0.00    -0.744 OA
ENDBRANCH  88  92
ENDBRANCH  62  85
ENDBRANCH  36  37
ENDBRANCH  28  31
ENDBRANCH  26  27
ENDBRANCH   1  26
TORSDOF 16
ENDMDL
MODEL 2
REMARK VINA RESULT:     -12.5      1.582      2.672
REMARK SMILES NC(=O)c1c(F)cccc1N1CCC[C@H](CC(=O)NCCCNC(=O)c2ccc(-c3c4nc(c(-c5cc(S(=O)(=O)[O-])ccc5F)c5ccc([nH]5)c(-c5cc(S(=O)(=O)[O-])ccc5F)c5nc(c(-c6cc(S(=O)(=O)[O-])ccc6F)c6ccc3[nH]6)C=C5)C=C4)cc2)C1
REMARK SMILES IDX 21 1 20 2 19 3 17 4 18 5 16 7 15 8 11 9 12 10 89 11 13 12
REMARK SMILES IDX 14 13 10 14 4 15 5 16 6 17 7 18 9 19 8 20 2 21 1 22 3 25
REMARK SMILES IDX 22 26 23 27 24 28 25 30 26 31 27 32 88 33 28 34 87 35 29 36
REMARK SMILES IDX 30 37 31 38 81 39 32 40 86 41 80 42 82 43 33 44 85 45 79 46
REMARK SMILES IDX 78 47 34 49 66 50 46 51 65 52 47 53 50 54 64 55 83 56 48 57
REMARK SMILES IDX 49 58 63 60 84 61 51 62 35 63 36 64 44 65 37 66 43 67 45 68
REMARK SMILES IDX 42 69 38 70 39 71 40 72 41 73 67 74 68 75 76 76 69 77 75 78
REMARK SMILES IDX 77 79 74 80 70 81 71 82 72 83 73 84 52 85 53 86 61 87 54 88
REMARK SMILES IDX 60 89 62 90 59 91 55 92 56 93 57 94 58 95
REMARK H PARENT 19 6 1 23 1 24 23 29 82 48 50 59
REMARK Flexibility Score: inf
ROOT
ATOM      1  C   UNL A   1      31.341  31.835  26.477  1.00  0.00     0.042 C 
ENDROOT
BRANCH   1   2
ATOM      2  C   UNL A   1      31.564  30.466  25.847  1.00  0.00     0.117 C 
BRANCH   2   3
ATOM      3  N   UNL A   1      30.789  30.324  24.627  1.00  0.00    -0.356 N 
ATOM      4  C   UNL A   1      30.757  29.303  23.726  1.00  0.00     0.220 C 
ATOM      5  O   UNL A   1      30.122  29.459  22.681  1.00  0.00    -0.275 OA
ATOM      6  H   UNL A   1      30.197  31.083  24.417  1.00  0.00     0.163 HD
BRANCH   4   7
ATOM      7  C   UNL A   1      31.443  27.988  24.026  1.00  0.00     0.105 C 
BRANCH   7   8
ATOM      8  C   UNL A   1      32.931  27.945  23.618  1.00  0.00     0.018 C 
ATOM      9  N   UNL A   1      33.205  25.678  24.420  1.00  0.00    -0.371 N 
ATOM     10  C   UNL A   1      34.134  25.989  25.507  1.00  0.00     0.116 C 
ATOM     11  C   UNL A   1      33.307  26.510  23.221  1.00  0.00     0.120 C 
ATOM     12  C   UNL A   1      33.929  27.446  25.928  1.00  0.00     0.022 C 
ATOM     13  C   UNL A   1      33.913  28.387  24.719  1.00  0.00     0.008 C 
BRANCH   9  14
ATOM     14  C   UNL A   1      32.741  24.378  24.308  1.00  0.00     0.053 A 
ATOM     15  C   UNL A   1      31.763  23.787  25.129  1.00  0.00     0.098 A 
ATOM     16  C   UNL A   1      31.472  22.425  24.997  1.00  0.00     0.138 A 
ATOM     17  F   UNL A   1      30.554  21.839  25.781  1.00  0.00    -0.206 F 
ATOM     18  C   UNL A   1      32.122  21.636  24.051  1.00  0.00     0.040 A 
ATOM     19  C   UNL A   1      33.366  23.568  23.340  1.00  0.00     0.027 A 
ATOM     20  C   UNL A   1      33.068  22.211  23.211  1.00  0.00     0.005 A 
BRANCH  15  21
ATOM     21  C   UNL A   1      30.981  24.583  26.098  1.00  0.00     0.253 C 
ATOM     22  N   UNL A   1      29.850  25.189  25.625  1.00  0.00    -0.365 N 
ATOM     23  H   UNL A   1      29.293  25.731  26.229  1.00  0.00     0.159 HD
ATOM     24  H   UNL A   1      29.593  25.082  24.680  1.00  0.00     0.159 HD
ATOM     25  O   UNL A   1      31.313  24.700  27.272  1.00  0.00    -0.269 OA
ENDBRANCH  15  21
ENDBRANCH   9  14
ENDBRANCH   7   8
ENDBRANCH   4   7
ENDBRANCH   2   3
ENDBRANCH   1   2
BRANCH   1  26
ATOM     26  C   UNL A   1      32.573  32.391  27.170  1.00  0.00     0.118 C 
BRANCH  26  27
ATOM     27  N   UNL A   1      32.426  33.799  27.501  1.00  0.00    -0.352 N 
ATOM     28  C   UNL A   1      33.059  34.555  28.461  1.00  0.00     0.251 C 
ATOM     29  H   UNL A   1      31.772  34.288  26.952  1.00  0.00     0.163 HD
ATOM     30  O   UNL A   1      32.621  35.678  28.706  1.00  0.00    -0.269 OA
BRANCH  28  31
ATOM     31  C   UNL A   1      34.226  34.030  29.211  1.00  0.00     0.039 A 
ATOM     32  C   UNL A   1      34.003  33.122  30.252  1.00  0.00     0.014 A 
ATOM     33  C   UNL A   1      35.530  34.446  28.935  1.00  0.00     0.014 A 
ATOM     34  C   UNL A   1      35.083  32.593  30.965  1.00  0.00     0.010 A 
ATOM     35  C   UNL A   1      36.612  33.846  29.578  1.00  0.00     0.010 A 
ATOM     36  C   UNL A   1      36.402  32.923  30.611  1.00  0.00    -0.014 A 
BRANCH  36  37
ATOM     37  C   UNL A   1      37.568  32.341  31.329  1.00  0.00     0.031 A 
ATOM     38  C   UNL A   1      38.353  31.216  30.706  1.00  0.00     0.074 A 
ATOM     39  C   UNL A   1      37.891  32.786  32.559  1.00  0.00     0.049 A 
ATOM     40  N   UNL A   1      39.342  30.520  31.207  1.00  0.00    -0.248 NA
ATOM     41  C   UNL A   1      37.952  30.798  29.353  1.00  0.00     0.031 C 
ATOM     42  C   UNL A   1      37.191  33.846  33.286  1.00  0.00     0.029 A 
ATOM     43  N   UNL A   1      38.894  32.403  33.416  1.00  0.00    -0.354 N 
ATOM     44  C   UNL A   1      39.665  29.572  30.243  1.00  0.00     0.074 A 
ATOM     45  C   UNL A   1      38.730  29.745  29.152  1.00  0.00     0.031 C 
ATOM     46  C   UNL A   1      37.810  34.058  34.458  1.00  0.00     0.029 A 
ATOM     47  C   UNL A   1      38.920  33.119  34.590  1.00  0.00     0.049 A 
ATOM     48  H   UNL A   1      39.534  31.684  33.209  1.00  0.00     0.167 HD
ATOM     49  C   UNL A   1      40.663  28.655  30.254  1.00  0.00     0.034 A 
ATOM     50  C   UNL A   1      39.738  33.028  35.656  1.00  0.00     0.034 A 
ATOM     51  C   UNL A   1      41.612  28.513  31.330  1.00  0.00     0.049 A 
ATOM     52  C   UNL A   1      40.837  32.001  35.654  1.00  0.00     0.074 A 
ATOM     53  C   UNL A   1      42.696  27.657  31.414  1.00  0.00     0.029 A 
ATOM     54  N   UNL A   1      41.593  29.246  32.509  1.00  0.00    -0.354 N 
ATOM     55  N   UNL A   1      41.130  31.114  34.733  1.00  0.00    -0.248 NA
ATOM     56  C   UNL A   1      41.711  31.961  36.833  1.00  0.00     0.031 C 
ATOM     57  C   UNL A   1      43.298  27.832  32.664  1.00  0.00     0.029 A 
ATOM     58  C   UNL A   1      42.630  28.844  33.336  1.00  0.00     0.049 A 
ATOM     59  H   UNL A   1      40.936  29.948  32.726  1.00  0.00     0.167 HD
ATOM     60  C   UNL A   1      42.235  30.419  35.214  1.00  0.00     0.074 A 
ATOM     61  C   UNL A   1      42.557  30.992  36.506  1.00  0.00     0.031 C 
ATOM     62  C   UNL A   1      42.927  29.408  34.631  1.00  0.00     0.034 A 
BRANCH  49  63
ATOM     63  C   UNL A   1      40.766  27.723  29.072  1.00  0.00     0.023 A 
ATOM     64  C   UNL A   1      41.694  27.942  28.039  1.00  0.00     0.031 A 
ATOM     65  C   UNL A   1      39.917  26.606  28.971  1.00  0.00     0.131 A 
ATOM     66  C   UNL A   1      41.706  27.097  26.919  1.00  0.00     0.055 A 
ATOM     67  C   UNL A   1      39.985  25.727  27.889  1.00  0.00     0.041 A 
ATOM     68  F   UNL A   1      39.000  26.358  29.919  1.00  0.00    -0.206 F 
ATOM     69  C   UNL A   1      40.876  25.976  26.849  1.00  0.00     0.022 A 
BRANCH  66  70
ATOM     70  S   UNL A   1      42.747  27.547  25.504  1.00  0.00     0.124 S 
ATOM     71  O   UNL A   1      42.668  26.337  24.687  1.00  0.00    -0.237 OA
ATOM     72  O   UNL A   1      42.067  28.721  24.971  1.00  0.00    -0.237 OA
ATOM     73  O   UNL A   1      44.053  27.801  26.107  1.00  0.00    -0.744 OA
ENDBRANCH  66  70
ENDBRANCH  49  63
BRANCH  50  74
ATOM     74  C   UNL A   1      39.543  33.946  36.809  1.00  0.00     0.023 A 
ATOM     75  C   UNL A   1      38.971  33.489  38.005  1.00  0.00     0.031 A 
ATOM     76  C   UNL A   1      39.970  35.285  36.744  1.00  0.00     0.131 A 
ATOM     77  C   UNL A   1      38.834  34.366  39.093  1.00  0.00     0.055 A 
ATOM     78  C   UNL A   1      39.858  36.145  37.838  1.00  0.00     0.041 A 
ATOM     79  F   UNL A   1      40.538  35.760  35.625  1.00  0.00    -0.206 F 
ATOM     80  C   UNL A   1      39.285  35.687  39.020  1.00  0.00     0.022 A 
BRANCH  77  81
ATOM     81  S   UNL A   1      38.062  33.755  40.616  1.00  0.00     0.124 S 
ATOM     82  O   UNL A   1      39.063  32.810  41.098  1.00  0.00    -0.237 OA
ATOM     83  O   UNL A   1      37.907  34.980  41.395  1.00  0.00    -0.237 OA
ATOM     84  O   UNL A   1      36.813  33.159  40.148  1.00  0.00    -0.744 OA
ENDBRANCH  77  81
ENDBRANCH  50  74
BRANCH  62  85
ATOM     85  C   UNL A   1      44.119  28.867  35.372  1.00  0.00     0.023 A 
ATOM     86  C   UNL A   1      43.997  27.819  36.299  1.00  0.00     0.031 A 
ATOM     87  C   UNL A   1      45.402  29.378  35.106  1.00  0.00     0.131 A 
ATOM     88  C   UNL A   1      45.140  27.330  36.949  1.00  0.00     0.055 A 
ATOM     89  C   UNL A   1      46.540  28.857  35.723  1.00  0.00     0.041 A 
ATOM     90  F   UNL A   1      45.570  30.377  34.225  1.00  0.00    -0.206 F 
ATOM     91  C   UNL A   1      46.412  27.830  36.654  1.00  0.00     0.022 A 
BRANCH  88  92
ATOM     92  S   UNL A   1      44.944  26.043  38.211  1.00  0.00     0.124 S 
ATOM     93  O   UNL A   1      46.273  26.009  38.814  1.00  0.00    -0.237 OA
ATOM     94  O   UNL A   1      43.877  26.580  39.049  1.00  0.00    -0.237 OA
ATOM     95  O   UNL A   1      44.585  24.855  37.438  1.00  0.00    -0.744 OA
ENDBRANCH  88  92
ENDBRANCH  62  85
ENDBRANCH  36  37
ENDBRANCH  28  31
ENDBRANCH  26  27
ENDBRANCH   1  26
TORSDOF 16
ENDMDL
MODEL 3
REMARK VINA RESULT:     -12.3      3.093      4.678
REMARK SMILES NC(=O)c1c(F)cccc1N1CCC[C@H](CC(=O)NCCCNC(=O)c2ccc(-c3c4nc(c(-c5cc(S(=O)(=O)[O-])ccc5F)c5ccc([nH]5)c(-c5cc(S(=O)(=O)[O-])ccc5F)c5nc(c(-c6cc(S(=O)(=O)[O-])ccc6F)c6ccc3[nH]6)C=C5)C=C4)cc2)C1
REMARK SMILES IDX 21 1 20 2 19 3 17 4 18 5 16 7 15 8 11 9 12 10 89 11 13 12
REMARK SMILES IDX 14 13 10 14 4 15 5 16 6 17 7 18 9 19 8 20 2 21 1 22 3 25
REMARK SMILES IDX 22 26 23 27 24 28 25 30 26 31 27 32 88 33 28 34 87 35 29 36
REMARK SMILES IDX 30 37 31 38 81 39 32 40 86 41 80 42 82 43 33 44 85 45 79 46
REMARK SMILES IDX 78 47 34 49 66 50 46 51 65 52 47 53 50 54 64 55 83 56 48 57
REMARK SMILES IDX 49 58 63 60 84 61 51 62 35 63 36 64 44 65 37 66 43 67 45 68
REMARK SMILES IDX 42 69 38 70 39 71 40 72 41 73 67 74 68 75 76 76 69 77 75 78
REMARK SMILES IDX 77 79 74 80 70 81 71 82 72 83 73 84 52 85 53 86 61 87 54 88
REMARK SMILES IDX 60 89 62 90 59 91 55 92 56 93 57 94 58 95
REMARK H PARENT 19 6 1 23 1 24 23 29 82 48 50 59
REMARK Flexibility Score: inf
ROOT
ATOM      1  C   UNL A   1      33.140  28.938  23.285  1.00  0.00     0.042 C 
ENDROOT
BRANCH   1   2
ATOM      2  C   UNL A   1      32.088  27.986  22.729  1.00  0.00     0.117 C 
BRANCH   2   3
ATOM      3  N   UNL A   1      32.701  26.759  22.250  1.00  0.00    -0.356 N 
ATOM      4  C   UNL A   1      32.548  25.478  22.688  1.00  0.00     0.220 C 
ATOM      5  O   UNL A   1      33.280  24.604  22.219  1.00  0.00    -0.275 OA
ATOM      6  H   UNL A   1      33.323  26.869  21.495  1.00  0.00     0.163 HD
BRANCH   4   7
ATOM      7  C   UNL A   1      31.469  25.129  23.689  1.00  0.00     0.105 C 
BRANCH   7   8
ATOM      8  C   UNL A   1      31.694  25.727  25.094  1.00  0.00     0.018 C 
ATOM      9  N   UNL A   1      32.875  23.762  25.869  1.00  0.00    -0.371 N 
ATOM     10  C   UNL A   1      31.886  23.345  26.863  1.00  0.00     0.116 C 
ATOM     11  C   UNL A   1      33.021  25.203  25.663  1.00  0.00     0.120 C 
ATOM     12  C   UNL A   1      30.518  23.903  26.462  1.00  0.00     0.022 C 
ATOM     13  C   UNL A   1      30.594  25.395  26.119  1.00  0.00     0.008 C 
BRANCH   9  14
ATOM     14  C   UNL A   1      33.955  22.928  25.632  1.00  0.00     0.053 A 
ATOM     15  C   UNL A   1      33.887  21.654  25.039  1.00  0.00     0.098 A 
ATOM     16  C   UNL A   1      35.033  20.855  24.970  1.00  0.00     0.138 A 
ATOM     17  F   UNL A   1      34.986  19.630  24.424  1.00  0.00    -0.206 F 
ATOM     18  C   UNL A   1      36.256  21.302  25.466  1.00  0.00     0.040 A 
ATOM     19  C   UNL A   1      35.207  23.371  26.101  1.00  0.00     0.027 A 
ATOM     20  C   UNL A   1      36.347  22.570  26.026  1.00  0.00     0.005 A 
BRANCH  15  21
ATOM     21  C   UNL A   1      32.641  21.151  24.424  1.00  0.00     0.253 C 
ATOM     22  N   UNL A   1      32.337  21.621  23.176  1.00  0.00    -0.365 N 
ATOM     23  H   UNL A   1      31.518  21.318  22.722  1.00  0.00     0.159 HD
ATOM     24  H   UNL A   1      32.939  22.263  22.733  1.00  0.00     0.159 HD
ATOM     25  O   UNL A   1      31.907  20.347  24.988  1.00  0.00    -0.269 OA
ENDBRANCH  15  21
ENDBRANCH   9  14
ENDBRANCH   7   8
ENDBRANCH   4   7
ENDBRANCH   2   3
ENDBRANCH   1   2
BRANCH   1  26
ATOM     26  C   UNL A   1      33.213  28.940  24.803  1.00  0.00     0.118 C 
BRANCH  26  27
ATOM     27  N   UNL A   1      32.591  30.121  25.378  1.00  0.00    -0.352 N 
ATOM     28  C   UNL A   1      32.900  30.816  26.524  1.00  0.00     0.251 C 
ATOM     29  H   UNL A   1      31.830  30.480  24.866  1.00  0.00     0.163 HD
ATOM     30  O   UNL A   1      32.103  31.660  26.932  1.00  0.00    -0.269 OA
BRANCH  28  31
ATOM     31  C   UNL A   1      34.149  30.546  27.278  1.00  0.00     0.039 A 
ATOM     32  C   UNL A   1      34.970  31.623  27.627  1.00  0.00     0.014 A 
ATOM     33  C   UNL A   1      34.544  29.249  27.613  1.00  0.00     0.014 A 
ATOM     34  C   UNL A   1      36.143  31.404  28.356  1.00  0.00     0.010 A 
ATOM     35  C   UNL A   1      35.659  29.039  28.423  1.00  0.00     0.010 A 
ATOM     36  C   UNL A   1      36.481  30.113  28.792  1.00  0.00    -0.014 A 
BRANCH  36  37
ATOM     37  C   UNL A   1      37.702  29.862  29.604  1.00  0.00     0.031 A 
ATOM     38  C   UNL A   1      38.810  28.999  29.057  1.00  0.00     0.074 A 
ATOM     39  C   UNL A   1      37.797  30.366  30.851  1.00  0.00     0.049 A 
ATOM     40  N   UNL A   1      39.909  28.594  29.641  1.00  0.00    -0.248 NA
ATOM     41  C   UNL A   1      38.644  28.502  27.682  1.00  0.00     0.031 C 
ATOM     42  C   UNL A   1      36.780  31.189  31.508  1.00  0.00     0.029 A 
ATOM     43  N   UNL A   1      38.795  30.262  31.786  1.00  0.00    -0.354 N 
ATOM     44  C   UNL A   1      40.552  27.779  28.716  1.00  0.00     0.074 A 
ATOM     45  C   UNL A   1      39.692  27.702  27.553  1.00  0.00     0.031 C 
ATOM     46  C   UNL A   1      37.225  31.549  32.722  1.00  0.00     0.029 A 
ATOM     47  C   UNL A   1      38.535  30.946  32.950  1.00  0.00     0.049 A 
ATOM     48  H   UNL A   1      39.621  29.746  31.638  1.00  0.00     0.167 HD
ATOM     49  C   UNL A   1      41.757  27.168  28.814  1.00  0.00     0.034 A 
ATOM     50  C   UNL A   1      39.262  31.070  34.078  1.00  0.00     0.034 A 
ATOM     51  C   UNL A   1      42.622  27.279  29.962  1.00  0.00     0.049 A 
ATOM     52  C   UNL A   1      40.595  30.381  34.173  1.00  0.00     0.074 A 
ATOM     53  C   UNL A   1      43.889  26.749  30.140  1.00  0.00     0.029 A 
ATOM     54  N   UNL A   1      42.313  27.967  31.128  1.00  0.00    -0.354 N 
ATOM     55  N   UNL A   1      41.189  29.616  33.288  1.00  0.00    -0.248 NA
ATOM     56  C   UNL A   1      41.352  30.569  35.416  1.00  0.00     0.031 C 
ATOM     57  C   UNL A   1      44.321  27.069  31.431  1.00  0.00     0.029 A 
ATOM     58  C   UNL A   1      43.353  27.854  32.037  1.00  0.00     0.049 A 
ATOM     59  H   UNL A   1      41.476  28.462  31.285  1.00  0.00     0.167 HD
ATOM     60  C   UNL A   1      42.400  29.244  33.861  1.00  0.00     0.074 A 
ATOM     61  C   UNL A   1      42.453  29.870  35.167  1.00  0.00     0.031 C 
ATOM     62  C   UNL A   1      43.384  28.465  33.345  1.00  0.00     0.034 A 
BRANCH  49  63
ATOM     63  C   UNL A   1      42.202  26.311  27.655  1.00  0.00     0.023 A 
ATOM     64  C   UNL A   1      41.789  24.974  27.526  1.00  0.00     0.031 A 
ATOM     65  C   UNL A   1      43.060  26.835  26.672  1.00  0.00     0.131 A 
ATOM     66  C   UNL A   1      42.285  24.187  26.476  1.00  0.00     0.055 A 
ATOM     67  C   UNL A   1      43.492  26.067  25.589  1.00  0.00     0.041 A 
ATOM     68  F   UNL A   1      43.501  28.099  26.754  1.00  0.00    -0.206 F 
ATOM     69  C   UNL A   1      43.114  24.731  25.493  1.00  0.00     0.022 A 
BRANCH  66  70
ATOM     70  S   UNL A   1      41.921  22.410  26.476  1.00  0.00     0.124 S 
ATOM     71  O   UNL A   1      42.687  21.955  25.318  1.00  0.00    -0.237 OA
ATOM     72  O   UNL A   1      42.418  21.984  27.778  1.00  0.00    -0.237 OA
ATOM     73  O   UNL A   1      40.470  22.358  26.315  1.00  0.00    -0.744 OA
ENDBRANCH  66  70
ENDBRANCH  49  63
BRANCH  50  74
ATOM     74  C   UNL A   1      38.735  31.890  35.201  1.00  0.00     0.023 A 
ATOM     75  C   UNL A   1      38.181  31.282  36.338  1.00  0.00     0.031 A 
ATOM     76  C   UNL A   1      38.822  33.293  35.172  1.00  0.00     0.131 A 
ATOM     77  C   UNL A   1      37.727  32.077  37.402  1.00  0.00     0.055 A 
ATOM     78  C   UNL A   1      38.396  34.078  36.245  1.00  0.00     0.041 A 
ATOM     79  F   UNL A   1      39.360  33.916  34.112  1.00  0.00    -0.206 F 
ATOM     80  C   UNL A   1      37.843  33.470  37.368  1.00  0.00     0.022 A 
BRANCH  77  81
ATOM     81  S   UNL A   1      36.988  31.265  38.845  1.00  0.00     0.124 S 
ATOM     82  O   UNL A   1      37.960  31.570  39.889  1.00  0.00    -0.237 OA
ATOM     83  O   UNL A   1      35.698  31.940  38.951  1.00  0.00    -0.237 OA
ATOM     84  O   UNL A   1      36.918  29.861  38.446  1.00  0.00    -0.744 OA
ENDBRANCH  77  81
ENDBRANCH  50  74
BRANCH  62  85
ATOM     85  C   UNL A   1      44.618  28.261  34.182  1.00  0.00     0.023 A 
ATOM     86  C   UNL A   1      44.752  27.156  35.037  1.00  0.00     0.031 A 
ATOM     87  C   UNL A   1      45.691  29.164  34.081  1.00  0.00     0.131 A 
ATOM     88  C   UNL A   1      45.931  26.993  35.781  1.00  0.00     0.055 A 
ATOM     89  C   UNL A   1      46.877  28.972  34.790  1.00  0.00     0.041 A 
ATOM     90  F   UNL A   1      45.611  30.234  33.275  1.00  0.00    -0.206 F 
ATOM     91  C   UNL A   1      47.000  27.884  35.651  1.00  0.00     0.022 A 
BRANCH  88  92
ATOM     92  S   UNL A   1      46.043  25.611  36.950  1.00  0.00     0.124 S 
ATOM     93  O   UNL A   1      46.659  24.573  36.129  1.00  0.00    -0.237 OA
ATOM     94  O   UNL A   1      46.876  26.161  38.014  1.00  0.00    -0.237 OA
ATOM     95  O   UNL A   1      44.651  25.361  37.322  1.00  0.00    -0.744 OA
ENDBRANCH  88  92
ENDBRANCH  62  85
ENDBRANCH  36  37
ENDBRANCH  28  31
ENDBRANCH  26  27
ENDBRANCH   1  26
TORSDOF 16
ENDMDL
