MODEL 1
REMARK VINA RESULT:     -12.7      0.000      0.000
REMARK SMILES C[C@@H]1CC[C@@H](C(=O)NCCCNC(=O)c2ccc(-c3c4nc(c(-c5cc(S(=O)(=O)[O-])ccc5F)c5ccc([nH]5)c(-c5cc(S(=O)(=O)[O-])ccc5F)c5nc(c(-c6cc(S(=O)(=O)[O-])ccc6F)c6ccc3[nH]6)C=C5)C=C4)cc2)[C@H]2C(=O)N(c3ccccc3)C(=O)[C@@H]21
REMARK SMILES IDX 11 1 10 2 9 3 8 4 6 5 7 6 5 8 1 9 2 10 3 11 90 12 4 13 78 14
REMARK SMILES IDX 88 15 79 16 81 17 89 18 80 19 82 20 83 21 87 22 84 23 86 24
REMARK SMILES IDX 85 25 12 26 13 27 14 29 15 30 16 31 77 32 17 33 76 34 18 35
REMARK SMILES IDX 19 36 20 37 70 38 21 39 75 40 69 41 71 42 22 43 74 44 68 45
REMARK SMILES IDX 67 46 23 48 55 49 35 50 54 51 36 52 39 53 53 54 72 55 37 56
REMARK SMILES IDX 38 57 52 59 73 60 40 61 24 62 25 63 33 64 26 65 32 66 34 67
REMARK SMILES IDX 31 68 27 69 28 70 29 71 30 72 56 73 57 74 65 75 58 76 64 77
REMARK SMILES IDX 66 78 63 79 59 80 60 81 61 82 62 83 41 84 42 85 50 86 43 87
REMARK SMILES IDX 49 88 51 89 48 90 44 91 45 92 46 93 47 94
REMARK H PARENT 8 7 12 28 71 47 39 58
REMARK Flexibility Score: inf
ROOT
ATOM      1  C   UNL A   1      36.577  23.299  25.503  1.00  0.00     0.118 C 
ENDROOT
BRANCH   1   2
ATOM      2  C   UNL A   1      35.402  23.355  26.457  1.00  0.00     0.042 C 
BRANCH   2   3
ATOM      3  C   UNL A   1      34.115  22.792  25.871  1.00  0.00     0.117 C 
BRANCH   3   4
ATOM      4  N   UNL A   1      32.963  23.044  26.710  1.00  0.00    -0.356 N 
ATOM      5  C   UNL A   1      31.695  23.447  26.457  1.00  0.00     0.223 C 
ATOM      6  O   UNL A   1      30.908  23.330  27.403  1.00  0.00    -0.275 OA
ATOM      7  H   UNL A   1      33.138  22.889  27.666  1.00  0.00     0.163 HD
BRANCH   5   8
ATOM      8  C   UNL A   1      31.183  24.023  25.124  1.00  0.00     0.092 C 
ATOM      9  C   UNL A   1      32.399  25.564  21.578  1.00  0.00     0.008 C 
ATOM     10  C   UNL A   1      32.984  24.790  22.759  1.00  0.00    -0.001 C 
ATOM     11  C   UNL A   1      32.378  23.364  22.846  1.00  0.00     0.005 C 
ATOM     12  C   UNL A   1      32.911  25.513  24.092  1.00  0.00     0.095 C 
ATOM     13  C   UNL A   1      31.261  23.115  23.885  1.00  0.00     0.014 C 
ATOM     14  C   UNL A   1      31.576  25.447  24.773  1.00  0.00     0.104 C 
ATOM     15  C   UNL A   1      33.269  26.971  24.237  1.00  0.00     0.237 C 
ATOM     16  C   UNL A   1      31.752  26.459  25.878  1.00  0.00     0.238 C 
ATOM     17  N   UNL A   1      32.683  27.385  25.428  1.00  0.00    -0.250 N 
ATOM     18  O   UNL A   1      34.038  27.549  23.491  1.00  0.00    -0.274 OA
ATOM     19  O   UNL A   1      31.058  26.481  26.884  1.00  0.00    -0.274 OA
BRANCH  17  20
ATOM     20  C   UNL A   1      33.018  28.591  26.108  1.00  0.00     0.052 A 
ATOM     21  C   UNL A   1      34.220  28.714  26.822  1.00  0.00     0.027 A 
ATOM     22  C   UNL A   1      32.139  29.685  26.120  1.00  0.00     0.027 A 
ATOM     23  C   UNL A   1      34.530  29.883  27.522  1.00  0.00     0.002 A 
ATOM     24  C   UNL A   1      32.438  30.847  26.841  1.00  0.00     0.002 A 
ATOM     25  C   UNL A   1      33.635  30.946  27.541  1.00  0.00     0.000 A 
ENDBRANCH  17  20
ENDBRANCH   5   8
ENDBRANCH   3   4
ENDBRANCH   2   3
ENDBRANCH   1   2
BRANCH   1  26
ATOM     26  N   UNL A   1      37.612  22.383  25.963  1.00  0.00    -0.352 N 
ATOM     27  C   UNL A   1      38.855  22.641  26.492  1.00  0.00     0.251 C 
ATOM     28  H   UNL A   1      37.386  21.429  25.883  1.00  0.00     0.163 HD
ATOM     29  O   UNL A   1      39.661  21.720  26.593  1.00  0.00    -0.269 OA
BRANCH  27  30
ATOM     30  C   UNL A   1      39.227  24.013  26.909  1.00  0.00     0.039 A 
ATOM     31  C   UNL A   1      38.930  24.441  28.204  1.00  0.00     0.014 A 
ATOM     32  C   UNL A   1      39.858  24.885  26.020  1.00  0.00     0.014 A 
ATOM     33  C   UNL A   1      39.322  25.716  28.622  1.00  0.00     0.010 A 
ATOM     34  C   UNL A   1      40.364  26.095  26.473  1.00  0.00     0.010 A 
ATOM     35  C   UNL A   1      40.076  26.540  27.771  1.00  0.00    -0.014 A 
BRANCH  35  36
ATOM     36  C   UNL A   1      40.530  27.893  28.182  1.00  0.00     0.031 A 
ATOM     37  C   UNL A   1      41.999  28.226  28.154  1.00  0.00     0.074 A 
ATOM     38  C   UNL A   1      39.638  28.792  28.641  1.00  0.00     0.049 A 
ATOM     39  N   UNL A   1      42.616  29.304  28.563  1.00  0.00    -0.248 NA
ATOM     40  C   UNL A   1      42.898  27.180  27.641  1.00  0.00     0.031 C 
ATOM     41  C   UNL A   1      38.195  28.571  28.753  1.00  0.00     0.029 A 
ATOM     42  N   UNL A   1      39.814  30.071  29.101  1.00  0.00    -0.354 N 
ATOM     43  C   UNL A   1      43.972  29.057  28.375  1.00  0.00     0.074 A 
ATOM     44  C   UNL A   1      44.086  27.692  27.911  1.00  0.00     0.031 C 
ATOM     45  C   UNL A   1      37.612  29.693  29.202  1.00  0.00     0.029 A 
ATOM     46  C   UNL A   1      38.642  30.694  29.463  1.00  0.00     0.049 A 
ATOM     47  H   UNL A   1      40.696  30.504  29.167  1.00  0.00     0.167 HD
ATOM     48  C   UNL A   1      45.023  29.900  28.535  1.00  0.00     0.034 A 
ATOM     49  C   UNL A   1      38.426  31.930  29.955  1.00  0.00     0.034 A 
ATOM     50  C   UNL A   1      44.883  31.261  28.989  1.00  0.00     0.049 A 
ATOM     51  C   UNL A   1      39.608  32.838  30.173  1.00  0.00     0.074 A 
ATOM     52  C   UNL A   1      45.862  32.224  29.153  1.00  0.00     0.029 A 
ATOM     53  N   UNL A   1      43.680  31.851  29.365  1.00  0.00    -0.354 N 
ATOM     54  N   UNL A   1      40.882  32.608  29.951  1.00  0.00    -0.248 NA
ATOM     55  C   UNL A   1      39.321  34.178  30.700  1.00  0.00     0.031 C 
ATOM     56  C   UNL A   1      45.265  33.368  29.696  1.00  0.00     0.029 A 
ATOM     57  C   UNL A   1      43.899  33.153  29.790  1.00  0.00     0.049 A 
ATOM     58  H   UNL A   1      42.801  31.409  29.333  1.00  0.00     0.167 HD
ATOM     59  C   UNL A   1      41.544  33.788  30.279  1.00  0.00     0.074 A 
ATOM     60  C   UNL A   1      40.526  34.727  30.704  1.00  0.00     0.031 C 
ATOM     61  C   UNL A   1      42.871  34.072  30.225  1.00  0.00     0.034 A 
BRANCH  48  62
ATOM     62  C   UNL A   1      46.400  29.348  28.237  1.00  0.00     0.023 A 
ATOM     63  C   UNL A   1      46.816  29.075  26.920  1.00  0.00     0.031 A 
ATOM     64  C   UNL A   1      47.281  29.011  29.281  1.00  0.00     0.131 A 
ATOM     65  C   UNL A   1      48.011  28.377  26.689  1.00  0.00     0.055 A 
ATOM     66  C   UNL A   1      48.521  28.415  29.036  1.00  0.00     0.041 A 
ATOM     67  F   UNL A   1      46.940  29.226  30.561  1.00  0.00    -0.206 F 
ATOM     68  C   UNL A   1      48.881  28.071  27.736  1.00  0.00     0.022 A 
BRANCH  65  69
ATOM     69  S   UNL A   1      48.301  27.693  25.034  1.00  0.00     0.124 S 
ATOM     70  O   UNL A   1      47.238  28.333  24.260  1.00  0.00    -0.237 OA
ATOM     71  O   UNL A   1      49.659  28.137  24.742  1.00  0.00    -0.237 OA
ATOM     72  O   UNL A   1      48.139  26.253  25.225  1.00  0.00    -0.744 OA
ENDBRANCH  65  69
ENDBRANCH  48  62
BRANCH  49  73
ATOM     73  C   UNL A   1      37.039  32.387  30.254  1.00  0.00     0.023 A 
ATOM     74  C   UNL A   1      36.305  33.115  29.305  1.00  0.00     0.031 A 
ATOM     75  C   UNL A   1      36.431  32.117  31.493  1.00  0.00     0.131 A 
ATOM     76  C   UNL A   1      35.019  33.579  29.619  1.00  0.00     0.055 A 
ATOM     77  C   UNL A   1      35.131  32.537  31.782  1.00  0.00     0.041 A 
ATOM     78  F   UNL A   1      37.087  31.422  32.435  1.00  0.00    -0.206 F 
ATOM     79  C   UNL A   1      34.420  33.281  30.845  1.00  0.00     0.022 A 
BRANCH  76  80
ATOM     80  S   UNL A   1      34.161  34.638  28.422  1.00  0.00     0.124 S 
ATOM     81  O   UNL A   1      34.417  35.967  28.965  1.00  0.00    -0.237 OA
ATOM     82  O   UNL A   1      34.849  34.309  27.178  1.00  0.00    -0.237 OA
ATOM     83  O   UNL A   1      32.773  34.187  28.502  1.00  0.00    -0.744 OA
ENDBRANCH  76  80
ENDBRANCH  49  73
BRANCH  61  84
ATOM     84  C   UNL A   1      43.287  35.477  30.592  1.00  0.00     0.023 A 
ATOM     85  C   UNL A   1      43.491  35.867  31.927  1.00  0.00     0.031 A 
ATOM     86  C   UNL A   1      43.477  36.441  29.584  1.00  0.00     0.131 A 
ATOM     87  C   UNL A   1      43.815  37.200  32.222  1.00  0.00     0.055 A 
ATOM     88  C   UNL A   1      43.868  37.746  29.881  1.00  0.00     0.041 A 
ATOM     89  F   UNL A   1      43.293  36.125  28.293  1.00  0.00    -0.206 F 
ATOM     90  C   UNL A   1      44.026  38.136  31.207  1.00  0.00     0.022 A 
BRANCH  87  91
ATOM     91  S   UNL A   1      43.864  37.718  33.960  1.00  0.00     0.124 S 
ATOM     92  O   UNL A   1      43.507  36.485  34.654  1.00  0.00    -0.237 OA
ATOM     93  O   UNL A   1      45.245  38.161  34.116  1.00  0.00    -0.237 OA
ATOM     94  O   UNL A   1      42.861  38.781  34.029  1.00  0.00    -0.744 OA
ENDBRANCH  87  91
ENDBRANCH  61  84
ENDBRANCH  35  36
ENDBRANCH  27  30
ENDBRANCH   1  26
TORSDOF 14
ENDMDL
MODEL 2
REMARK VINA RESULT:     -12.7      4.528      9.712
REMARK SMILES C[C@@H]1CC[C@@H](C(=O)NCCCNC(=O)c2ccc(-c3c4nc(c(-c5cc(S(=O)(=O)[O-])ccc5F)c5ccc([nH]5)c(-c5cc(S(=O)(=O)[O-])ccc5F)c5nc(c(-c6cc(S(=O)(=O)[O-])ccc6F)c6ccc3[nH]6)C=C5)C=C4)cc2)[C@H]2C(=O)N(c3ccccc3)C(=O)[C@@H]21
REMARK SMILES IDX 11 1 10 2 9 3 8 4 6 5 7 6 5 8 1 9 2 10 3 11 90 12 4 13 78 14
REMARK SMILES IDX 88 15 79 16 81 17 89 18 80 19 82 20 83 21 87 22 84 23 86 24
REMARK SMILES IDX 85 25 12 26 13 27 14 29 15 30 16 31 77 32 17 33 76 34 18 35
REMARK SMILES IDX 19 36 20 37 70 38 21 39 75 40 69 41 71 42 22 43 74 44 68 45
REMARK SMILES IDX 67 46 23 48 55 49 35 50 54 51 36 52 39 53 53 54 72 55 37 56
REMARK SMILES IDX 38 57 52 59 73 60 40 61 24 62 25 63 33 64 26 65 32 66 34 67
REMARK SMILES IDX 31 68 27 69 28 70 29 71 30 72 56 73 57 74 65 75 58 76 64 77
REMARK SMILES IDX 66 78 63 79 59 80 60 81 61 82 62 83 41 84 42 85 50 86 43 87
REMARK SMILES IDX 49 88 51 89 48 90 44 91 45 92 46 93 47 94
REMARK H PARENT 8 7 12 28 71 47 39 58
REMARK Flexibility Score: inf
ROOT
ATOM      1  C   UNL A   1      33.791  28.595  26.099  1.00  0.00     0.118 C 
ENDROOT
BRANCH   1   2
ATOM      2  C   UNL A   1      34.052  28.352  24.627  1.00  0.00     0.042 C 
BRANCH   2   3
ATOM      3  C   UNL A   1      32.880  27.709  23.899  1.00  0.00     0.117 C 
BRANCH   3   4
ATOM      4  N   UNL A   1      33.278  27.049  22.674  1.00  0.00    -0.356 N 
ATOM      5  C   UNL A   1      32.901  25.898  22.070  1.00  0.00     0.223 C 
ATOM      6  O   UNL A   1      33.289  25.765  20.903  1.00  0.00    -0.275 OA
ATOM      7  H   UNL A   1      33.968  27.543  22.175  1.00  0.00     0.163 HD
BRANCH   5   8
ATOM      8  C   UNL A   1      32.057  24.781  22.709  1.00  0.00     0.092 C 
ATOM      9  C   UNL A   1      30.624  23.422  26.249  1.00  0.00     0.008 C 
ATOM     10  C   UNL A   1      31.262  24.686  25.673  1.00  0.00    -0.001 C 
ATOM     11  C   UNL A   1      30.326  25.361  24.637  1.00  0.00     0.005 C 
ATOM     12  C   UNL A   1      32.664  24.495  25.122  1.00  0.00     0.095 C 
ATOM     13  C   UNL A   1      30.622  25.135  23.138  1.00  0.00     0.014 C 
ATOM     14  C   UNL A   1      32.725  23.897  23.747  1.00  0.00     0.104 C 
ATOM     15  C   UNL A   1      33.717  23.705  25.858  1.00  0.00     0.237 C 
ATOM     16  C   UNL A   1      34.196  23.588  23.618  1.00  0.00     0.238 C 
ATOM     17  N   UNL A   1      34.674  23.375  24.904  1.00  0.00    -0.250 N 
ATOM     18  O   UNL A   1      33.722  23.557  27.066  1.00  0.00    -0.274 OA
ATOM     19  O   UNL A   1      34.755  23.421  22.545  1.00  0.00    -0.274 OA
BRANCH  17  20
ATOM     20  C   UNL A   1      35.983  22.905  25.212  1.00  0.00     0.052 A 
ATOM     21  C   UNL A   1      36.939  23.749  25.798  1.00  0.00     0.027 A 
ATOM     22  C   UNL A   1      36.374  21.592  24.906  1.00  0.00     0.027 A 
ATOM     23  C   UNL A   1      38.236  23.299  26.064  1.00  0.00     0.002 A 
ATOM     24  C   UNL A   1      37.679  21.149  25.149  1.00  0.00     0.002 A 
ATOM     25  C   UNL A   1      38.610  22.003  25.730  1.00  0.00     0.000 A 
ENDBRANCH  17  20
ENDBRANCH   5   8
ENDBRANCH   3   4
ENDBRANCH   2   3
ENDBRANCH   1   2
BRANCH   1  26
ATOM     26  N   UNL A   1      33.668  30.014  26.405  1.00  0.00    -0.352 N 
ATOM     27  C   UNL A   1      34.378  30.798  27.285  1.00  0.00     0.251 C 
ATOM     28  H   UNL A   1      32.966  30.486  25.904  1.00  0.00     0.163 HD
ATOM     29  O   UNL A   1      33.954  31.917  27.560  1.00  0.00    -0.269 OA
BRANCH  27  30
ATOM     30  C   UNL A   1      35.621  30.291  27.911  1.00  0.00     0.039 A 
ATOM     31  C   UNL A   1      35.568  29.738  29.193  1.00  0.00     0.014 A 
ATOM     32  C   UNL A   1      36.843  30.371  27.243  1.00  0.00     0.014 A 
ATOM     33  C   UNL A   1      36.727  29.212  29.771  1.00  0.00     0.010 A 
ATOM     34  C   UNL A   1      37.962  29.732  27.758  1.00  0.00     0.010 A 
ATOM     35  C   UNL A   1      37.926  29.171  29.042  1.00  0.00    -0.014 A 
BRANCH  35  36
ATOM     36  C   UNL A   1      39.175  28.602  29.612  1.00  0.00     0.031 A 
ATOM     37  C   UNL A   1      39.764  29.204  30.861  1.00  0.00     0.074 A 
ATOM     38  C   UNL A   1      39.811  27.601  28.975  1.00  0.00     0.049 A 
ATOM     39  N   UNL A   1      40.891  28.929  31.466  1.00  0.00    -0.248 NA
ATOM     40  C   UNL A   1      39.002  30.297  31.484  1.00  0.00     0.031 C 
ATOM     41  C   UNL A   1      39.359  26.963  27.736  1.00  0.00     0.029 A 
ATOM     42  N   UNL A   1      40.974  26.942  29.281  1.00  0.00    -0.354 N 
ATOM     43  C   UNL A   1      40.979  29.827  32.525  1.00  0.00     0.074 A 
ATOM     44  C   UNL A   1      39.843  30.715  32.415  1.00  0.00     0.031 C 
ATOM     45  C   UNL A   1      40.208  25.975  27.417  1.00  0.00     0.029 A 
ATOM     46  C   UNL A   1      41.292  25.942  28.392  1.00  0.00     0.049 A 
ATOM     47  H   UNL A   1      41.529  27.164  30.063  1.00  0.00     0.167 HD
ATOM     48  C   UNL A   1      41.900  29.884  33.520  1.00  0.00     0.034 A 
ATOM     49  C   UNL A   1      42.344  25.100  28.366  1.00  0.00     0.034 A 
ATOM     50  C   UNL A   1      43.019  28.981  33.614  1.00  0.00     0.049 A 
ATOM     51  C   UNL A   1      43.383  25.206  29.452  1.00  0.00     0.074 A 
ATOM     52  C   UNL A   1      43.994  28.910  34.594  1.00  0.00     0.029 A 
ATOM     53  N   UNL A   1      43.320  27.992  32.684  1.00  0.00    -0.354 N 
ATOM     54  N   UNL A   1      43.434  26.032  30.472  1.00  0.00    -0.248 NA
ATOM     55  C   UNL A   1      44.503  24.260  29.386  1.00  0.00     0.031 C 
ATOM     56  C   UNL A   1      44.922  27.932  34.217  1.00  0.00     0.029 A 
ATOM     57  C   UNL A   1      44.483  27.329  33.049  1.00  0.00     0.049 A 
ATOM     58  H   UNL A   1      42.784  27.791  31.882  1.00  0.00     0.167 HD
ATOM     59  C   UNL A   1      44.574  25.680  31.190  1.00  0.00     0.074 A 
ATOM     60  C   UNL A   1      45.173  24.563  30.488  1.00  0.00     0.031 C 
ATOM     61  C   UNL A   1      45.075  26.224  32.328  1.00  0.00     0.034 A 
BRANCH  48  62
ATOM     62  C   UNL A   1      41.729  30.976  34.555  1.00  0.00     0.023 A 
ATOM     63  C   UNL A   1      40.665  30.957  35.478  1.00  0.00     0.031 A 
ATOM     64  C   UNL A   1      42.584  32.092  34.570  1.00  0.00     0.131 A 
ATOM     65  C   UNL A   1      40.414  32.076  36.285  1.00  0.00     0.055 A 
ATOM     66  C   UNL A   1      42.392  33.157  35.455  1.00  0.00     0.041 A 
ATOM     67  F   UNL A   1      43.605  32.184  33.705  1.00  0.00    -0.206 F 
ATOM     68  C   UNL A   1      41.287  33.165  36.301  1.00  0.00     0.022 A 
BRANCH  65  69
ATOM     69  S   UNL A   1      38.820  32.174  37.147  1.00  0.00     0.124 S 
ATOM     70  O   UNL A   1      38.244  30.863  36.850  1.00  0.00    -0.237 OA
ATOM     71  O   UNL A   1      39.222  32.396  38.530  1.00  0.00    -0.237 OA
ATOM     72  O   UNL A   1      38.149  33.299  36.500  1.00  0.00    -0.744 OA
ENDBRANCH  65  69
ENDBRANCH  48  62
BRANCH  49  73
ATOM     73  C   UNL A   1      42.456  24.072  27.292  1.00  0.00     0.023 A 
ATOM     74  C   UNL A   1      41.980  22.767  27.497  1.00  0.00     0.031 A 
ATOM     75  C   UNL A   1      43.049  24.370  26.053  1.00  0.00     0.131 A 
ATOM     76  C   UNL A   1      42.136  21.799  26.494  1.00  0.00     0.055 A 
ATOM     77  C   UNL A   1      43.156  23.416  25.039  1.00  0.00     0.041 A 
ATOM     78  F   UNL A   1      43.518  25.603  25.803  1.00  0.00    -0.206 F 
ATOM     79  C   UNL A   1      42.706  22.119  25.260  1.00  0.00     0.022 A 
BRANCH  76  80
ATOM     80  S   UNL A   1      41.640  20.091  26.852  1.00  0.00     0.124 S 
ATOM     81  O   UNL A   1      40.724  20.277  27.971  1.00  0.00    -0.237 OA
ATOM     82  O   UNL A   1      41.037  19.679  25.588  1.00  0.00    -0.237 OA
ATOM     83  O   UNL A   1      42.903  19.432  27.181  1.00  0.00    -0.744 OA
ENDBRANCH  76  80
ENDBRANCH  49  73
BRANCH  61  84
ATOM     84  C   UNL A   1      46.310  25.580  32.911  1.00  0.00     0.023 A 
ATOM     85  C   UNL A   1      46.231  24.530  33.841  1.00  0.00     0.031 A 
ATOM     86  C   UNL A   1      47.587  26.032  32.530  1.00  0.00     0.131 A 
ATOM     87  C   UNL A   1      47.405  24.005  34.402  1.00  0.00     0.055 A 
ATOM     88  C   UNL A   1      48.751  25.460  33.040  1.00  0.00     0.041 A 
ATOM     89  F   UNL A   1      47.721  27.036  31.648  1.00  0.00    -0.206 F 
ATOM     90  C   UNL A   1      48.665  24.449  33.992  1.00  0.00     0.022 A 
BRANCH  87  91
ATOM     91  S   UNL A   1      47.262  22.800  35.751  1.00  0.00     0.124 S 
ATOM     92  O   UNL A   1      45.842  22.467  35.709  1.00  0.00    -0.237 OA
ATOM     93  O   UNL A   1      48.177  21.746  35.327  1.00  0.00    -0.237 OA
ATOM     94  O   UNL A   1      47.688  23.553  36.930  1.00  0.00    -0.744 OA
ENDBRANCH  87  91
ENDBRANCH  61  84
ENDBRANCH  35  36
ENDBRANCH  27  30
ENDBRANCH   1  26
TORSDOF 14
ENDMDL
MODEL 3
REMARK VINA RESULT:     -12.7      4.728      9.366
REMARK SMILES C[C@@H]1CC[C@@H](C(=O)NCCCNC(=O)c2ccc(-c3c4nc(c(-c5cc(S(=O)(=O)[O-])ccc5F)c5ccc([nH]5)c(-c5cc(S(=O)(=O)[O-])ccc5F)c5nc(c(-c6cc(S(=O)(=O)[O-])ccc6F)c6ccc3[nH]6)C=C5)C=C4)cc2)[C@H]2C(=O)N(c3ccccc3)C(=O)[C@@H]21
REMARK SMILES IDX 11 1 10 2 9 3 8 4 6 5 7 6 5 8 1 9 2 10 3 11 90 12 4 13 78 14
REMARK SMILES IDX 88 15 79 16 81 17 89 18 80 19 82 20 83 21 87 22 84 23 86 24
REMARK SMILES IDX 85 25 12 26 13 27 14 29 15 30 16 31 77 32 17 33 76 34 18 35
REMARK SMILES IDX 19 36 20 37 70 38 21 39 75 40 69 41 71 42 22 43 74 44 68 45
REMARK SMILES IDX 67 46 23 48 55 49 35 50 54 51 36 52 39 53 53 54 72 55 37 56
REMARK SMILES IDX 38 57 52 59 73 60 40 61 24 62 25 63 33 64 26 65 32 66 34 67
REMARK SMILES IDX 31 68 27 69 28 70 29 71 30 72 56 73 57 74 65 75 58 76 64 77
REMARK SMILES IDX 66 78 63 79 59 80 60 81 61 82 62 83 41 84 42 85 50 86 43 87
REMARK SMILES IDX 49 88 51 89 48 90 44 91 45 92 46 93 47 94
REMARK H PARENT 8 7 12 28 71 47 39 58
REMARK Flexibility Score: inf
ROOT
ATOM      1  C   UNL A   1      33.077  29.639  26.359  1.00  0.00     0.118 C 
ENDROOT
BRANCH   1   2
ATOM      2  C   UNL A   1      31.838  28.900  26.818  1.00  0.00     0.042 C 
BRANCH   2   3
ATOM      3  C   UNL A   1      32.038  27.395  26.942  1.00  0.00     0.117 C 
BRANCH   3   4
ATOM      4  N   UNL A   1      30.790  26.662  26.918  1.00  0.00    -0.356 N 
ATOM      5  C   UNL A   1      30.267  25.739  26.078  1.00  0.00     0.223 C 
ATOM      6  O   UNL A   1      29.264  25.152  26.501  1.00  0.00    -0.275 OA
ATOM      7  H   UNL A   1      30.197  26.882  27.672  1.00  0.00     0.163 HD
BRANCH   5   8
ATOM      8  C   UNL A   1      30.810  25.382  24.682  1.00  0.00     0.092 C 
ATOM      9  C   UNL A   1      33.638  26.373  21.953  1.00  0.00     0.008 C 
ATOM     10  C   UNL A   1      33.320  26.626  23.426  1.00  0.00    -0.001 C 
ATOM     11  C   UNL A   1      33.429  25.317  24.253  1.00  0.00     0.005 C 
ATOM     12  C   UNL A   1      32.005  27.341  23.679  1.00  0.00     0.095 C 
ATOM     13  C   UNL A   1      32.122  24.580  24.618  1.00  0.00     0.014 C 
ATOM     14  C   UNL A   1      30.788  26.464  23.618  1.00  0.00     0.104 C 
ATOM     15  C   UNL A   1      31.573  28.540  22.873  1.00  0.00     0.237 C 
ATOM     16  C   UNL A   1      29.680  27.488  23.627  1.00  0.00     0.238 C 
ATOM     17  N   UNL A   1      30.199  28.645  23.062  1.00  0.00    -0.250 N 
ATOM     18  O   UNL A   1      32.353  29.289  22.315  1.00  0.00    -0.274 OA
ATOM     19  O   UNL A   1      28.528  27.226  23.942  1.00  0.00    -0.274 OA
BRANCH  17  20
ATOM     20  C   UNL A   1      29.433  29.802  22.743  1.00  0.00     0.052 A 
ATOM     21  C   UNL A   1      28.960  30.025  21.441  1.00  0.00     0.027 A 
ATOM     22  C   UNL A   1      29.155  30.779  23.713  1.00  0.00     0.027 A 
ATOM     23  C   UNL A   1      28.242  31.181  21.119  1.00  0.00     0.002 A 
ATOM     24  C   UNL A   1      28.457  31.948  23.385  1.00  0.00     0.002 A 
ATOM     25  C   UNL A   1      27.999  32.147  22.087  1.00  0.00     0.000 A 
ENDBRANCH  17  20
ENDBRANCH   5   8
ENDBRANCH   3   4
ENDBRANCH   2   3
ENDBRANCH   1   2
BRANCH   1  26
ATOM     26  N   UNL A   1      33.006  31.063  26.659  1.00  0.00    -0.352 N 
ATOM     27  C   UNL A   1      33.787  31.837  27.485  1.00  0.00     0.251 C 
ATOM     28  H   UNL A   1      32.285  31.548  26.198  1.00  0.00     0.163 HD
ATOM     29  O   UNL A   1      33.407  32.968  27.776  1.00  0.00    -0.269 OA
BRANCH  27  30
ATOM     30  C   UNL A   1      35.055  31.306  28.038  1.00  0.00     0.039 A 
ATOM     31  C   UNL A   1      36.195  32.113  28.038  1.00  0.00     0.014 A 
ATOM     32  C   UNL A   1      35.127  30.008  28.545  1.00  0.00     0.014 A 
ATOM     33  C   UNL A   1      37.382  31.638  28.603  1.00  0.00     0.010 A 
ATOM     34  C   UNL A   1      36.262  29.587  29.223  1.00  0.00     0.010 A 
ATOM     35  C   UNL A   1      37.415  30.384  29.234  1.00  0.00    -0.014 A 
BRANCH  35  36
ATOM     36  C   UNL A   1      38.650  29.851  29.864  1.00  0.00     0.031 A 
ATOM     37  C   UNL A   1      39.065  30.347  31.225  1.00  0.00     0.074 A 
ATOM     38  C   UNL A   1      39.427  28.981  29.192  1.00  0.00     0.049 A 
ATOM     39  N   UNL A   1      40.151  30.092  31.909  1.00  0.00    -0.248 NA
ATOM     40  C   UNL A   1      38.155  31.300  31.881  1.00  0.00     0.031 C 
ATOM     41  C   UNL A   1      39.151  28.459  27.852  1.00  0.00     0.029 A 
ATOM     42  N   UNL A   1      40.610  28.383  29.543  1.00  0.00    -0.354 N 
ATOM     43  C   UNL A   1      40.061  30.865  33.062  1.00  0.00     0.074 A 
ATOM     44  C   UNL A   1      38.866  31.671  32.932  1.00  0.00     0.031 C 
ATOM     45  C   UNL A   1      40.108  27.581  27.517  1.00  0.00     0.029 A 
ATOM     46  C   UNL A   1      41.096  27.520  28.588  1.00  0.00     0.049 A 
ATOM     47  H   UNL A   1      41.068  28.555  30.397  1.00  0.00     0.167 HD
ATOM     48  C   UNL A   1      40.876  30.877  34.146  1.00  0.00     0.034 A 
ATOM     49  C   UNL A   1      42.215  26.769  28.580  1.00  0.00     0.034 A 
ATOM     50  C   UNL A   1      42.056  30.057  34.257  1.00  0.00     0.049 A 
ATOM     51  C   UNL A   1      43.135  26.828  29.772  1.00  0.00     0.074 A 
ATOM     52  C   UNL A   1      42.938  29.948  35.317  1.00  0.00     0.029 A 
ATOM     53  N   UNL A   1      42.528  29.208  33.261  1.00  0.00    -0.354 N 
ATOM     54  N   UNL A   1      43.019  27.532  30.875  1.00  0.00    -0.248 NA
ATOM     55  C   UNL A   1      44.335  25.984  29.720  1.00  0.00     0.031 C 
ATOM     56  C   UNL A   1      43.979  29.094  34.935  1.00  0.00     0.029 A 
ATOM     57  C   UNL A   1      43.705  28.599  33.670  1.00  0.00     0.049 A 
ATOM     58  H   UNL A   1      42.089  29.061  32.392  1.00  0.00     0.167 HD
ATOM     59  C   UNL A   1      44.113  27.187  31.663  1.00  0.00     0.074 A 
ATOM     60  C   UNL A   1      44.871  26.208  30.911  1.00  0.00     0.031 C 
ATOM     61  C   UNL A   1      44.456  27.633  32.899  1.00  0.00     0.034 A 
BRANCH  48  62
ATOM     62  C   UNL A   1      40.514  31.826  35.269  1.00  0.00     0.023 A 
ATOM     63  C   UNL A   1      39.589  31.467  36.268  1.00  0.00     0.031 A 
ATOM     64  C   UNL A   1      41.033  33.133  35.302  1.00  0.00     0.131 A 
ATOM     65  C   UNL A   1      39.121  32.432  37.172  1.00  0.00     0.055 A 
ATOM     66  C   UNL A   1      40.645  34.057  36.275  1.00  0.00     0.041 A 
ATOM     67  F   UNL A   1      41.905  33.546  34.369  1.00  0.00    -0.206 F 
ATOM     68  C   UNL A   1      39.664  33.717  37.202  1.00  0.00     0.022 A 
BRANCH  65  69
ATOM     69  S   UNL A   1      37.649  32.042  38.160  1.00  0.00     0.124 S 
ATOM     70  O   UNL A   1      37.378  30.664  37.753  1.00  0.00    -0.237 OA
ATOM     71  O   UNL A   1      38.127  32.223  39.525  1.00  0.00    -0.237 OA
ATOM     72  O   UNL A   1      36.663  33.020  37.706  1.00  0.00    -0.744 OA
ENDBRANCH  65  69
ENDBRANCH  48  62
BRANCH  49  73
ATOM     73  C   UNL A   1      42.517  25.883  27.419  1.00  0.00     0.023 A 
ATOM     74  C   UNL A   1      42.058  24.557  27.392  1.00  0.00     0.031 A 
ATOM     75  C   UNL A   1      43.275  26.341  26.328  1.00  0.00     0.131 A 
ATOM     76  C   UNL A   1      42.390  23.722  26.315  1.00  0.00     0.055 A 
ATOM     77  C   UNL A   1      43.559  25.522  25.233  1.00  0.00     0.041 A 
ATOM     78  F   UNL A   1      43.735  27.601  26.301  1.00  0.00    -0.206 F 
ATOM     79  C   UNL A   1      43.124  24.200  25.227  1.00  0.00     0.022 A 
BRANCH  76  80
ATOM     80  S   UNL A   1      41.902  21.976  26.386  1.00  0.00     0.124 S 
ATOM     81  O   UNL A   1      40.465  22.061  26.154  1.00  0.00    -0.237 OA
ATOM     82  O   UNL A   1      42.694  21.395  25.307  1.00  0.00    -0.237 OA
ATOM     83  O   UNL A   1      42.295  21.569  27.733  1.00  0.00    -0.744 OA
ENDBRANCH  76  80
ENDBRANCH  49  73
BRANCH  61  84
ATOM     84  C   UNL A   1      45.683  27.022  33.533  1.00  0.00     0.023 A 
ATOM     85  C   UNL A   1      45.614  25.852  34.308  1.00  0.00     0.031 A 
ATOM     86  C   UNL A   1      46.941  27.628  33.359  1.00  0.00     0.131 A 
ATOM     87  C   UNL A   1      46.771  25.357  34.929  1.00  0.00     0.055 A 
ATOM     88  C   UNL A   1      48.099  27.091  33.921  1.00  0.00     0.041 A 
ATOM     89  F   UNL A   1      47.065  28.749  32.631  1.00  0.00    -0.206 F 
ATOM     90  C   UNL A   1      48.016  25.957  34.723  1.00  0.00     0.022 A 
BRANCH  87  91
ATOM     91  S   UNL A   1      46.611  23.973  36.090  1.00  0.00     0.124 S 
ATOM     92  O   UNL A   1      47.017  24.586  37.350  1.00  0.00    -0.237 OA
ATOM     93  O   UNL A   1      45.198  23.628  35.973  1.00  0.00    -0.237 OA
ATOM     94  O   UNL A   1      47.538  22.973  35.560  1.00  0.00    -0.744 OA
ENDBRANCH  87  91
ENDBRANCH  61  84
ENDBRANCH  35  36
ENDBRANCH  27  30
ENDBRANCH   1  26
TORSDOF 14
ENDMDL
