MODEL 1
REMARK VINA RESULT:     -11.9      0.000      0.000
REMARK SMILES C=C(C)COc1ccc2c(C)c(CC(=O)NCCCNC(=O)c3ccc(-c4c5nc(c(-c6cc(S(=O)(=O)[O-])ccc6F)c6ccc([nH]6)c(-c6cc(S(=O)(=O)[O-])ccc6F)c6nc(c(-c7cc(S(=O)(=O)[O-])ccc7F)c7ccc4[nH]7)C=C6)C=C5)cc3)c(=O)oc2c1
REMARK SMILES IDX 17 1 16 2 14 3 15 4 13 6 12 7 6 8 7 9 90 10 8 11 89 12 9 13
REMARK SMILES IDX 88 14 10 15 86 16 11 17 87 18 5 19 4 20 2 21 1 22 3 23 18 24
REMARK SMILES IDX 19 25 20 26 21 27 22 29 23 30 24 31 85 32 25 33 84 34 26 35
REMARK SMILES IDX 27 36 28 37 78 38 29 39 83 40 77 41 79 42 30 43 82 44 76 45
REMARK SMILES IDX 75 46 31 48 63 49 43 50 62 51 44 52 47 53 61 54 80 55 45 56
REMARK SMILES IDX 46 57 60 59 81 60 48 61 32 62 33 63 41 64 34 65 40 66 42 67
REMARK SMILES IDX 39 68 35 69 36 70 37 71 38 72 64 73 65 74 73 75 66 76 72 77
REMARK SMILES IDX 74 78 71 79 67 80 68 81 69 82 70 83 49 84 50 85 58 86 51 87
REMARK SMILES IDX 57 88 59 89 56 90 52 91 53 92 54 93 55 94
REMARK H PARENT 16 5 20 28 79 47 47 58
REMARK Flexibility Score: inf
ROOT
ATOM      1  C   UNL A   1      32.184  27.855  27.288  1.00  0.00     0.117 C 
ENDROOT
BRANCH   1   2
ATOM      2  N   UNL A   1      31.045  26.959  27.180  1.00  0.00    -0.356 N 
ATOM      3  C   UNL A   1      30.642  26.170  26.144  1.00  0.00     0.224 C 
ATOM      4  O   UNL A   1      29.633  25.477  26.305  1.00  0.00    -0.275 OA
ATOM      5  H   UNL A   1      30.476  26.915  27.981  1.00  0.00     0.163 HD
BRANCH   3   6
ATOM      6  C   UNL A   1      31.428  26.117  24.840  1.00  0.00     0.143 C 
BRANCH   6   7
ATOM      7  C   UNL A   1      32.083  24.777  24.608  1.00  0.00     0.051 A 
ATOM      8  C   UNL A   1      34.323  20.250  24.629  1.00  0.00     0.123 A 
ATOM      9  C   UNL A   1      35.269  21.124  25.156  1.00  0.00     0.047 A 
ATOM     10  C   UNL A   1      33.079  20.742  24.264  1.00  0.00     0.094 A 
ATOM     11  C   UNL A   1      34.979  22.494  25.278  1.00  0.00     0.016 A 
ATOM     12  C   UNL A   1      32.820  22.104  24.357  1.00  0.00     0.142 A 
ATOM     13  C   UNL A   1      33.739  23.009  24.872  1.00  0.00     0.021 A 
ATOM     14  O   UNL A   1      31.566  22.500  23.882  1.00  0.00    -0.422 OA
ATOM     15  C   UNL A   1      33.315  24.414  25.036  1.00  0.00    -0.029 A 
ATOM     16  C   UNL A   1      31.231  23.833  23.835  1.00  0.00     0.340 A 
ATOM     17  C   UNL A   1      34.270  25.351  25.728  1.00  0.00     0.046 C 
ATOM     18  O   UNL A   1      30.234  24.207  23.226  1.00  0.00    -0.246 OA
BRANCH   8  19
ATOM     19  O   UNL A   1      34.621  18.916  24.582  1.00  0.00    -0.489 OA
BRANCH  19  20
ATOM     20  C   UNL A   1      33.558  18.061  25.041  1.00  0.00     0.260 C 
BRANCH  20  21
ATOM     21  C   UNL A   1      33.527  16.713  24.349  1.00  0.00    -0.043 C 
ATOM     22  C   UNL A   1      34.120  16.497  23.163  1.00  0.00     0.011 C 
ATOM     23  C   UNL A   1      32.860  15.602  25.112  1.00  0.00     0.042 C 
ENDBRANCH  20  21
ENDBRANCH  19  20
ENDBRANCH   8  19
ENDBRANCH   6   7
ENDBRANCH   3   6
ENDBRANCH   1   2
BRANCH   1  24
ATOM     24  C   UNL A   1      31.871  29.256  26.765  1.00  0.00     0.042 C 
BRANCH  24  25
ATOM     25  C   UNL A   1      33.099  30.044  26.308  1.00  0.00     0.118 C 
BRANCH  25  26
ATOM     26  N   UNL A   1      33.067  31.434  26.740  1.00  0.00    -0.352 N 
ATOM     27  C   UNL A   1      33.859  32.104  27.636  1.00  0.00     0.251 C 
ATOM     28  H   UNL A   1      32.364  31.980  26.321  1.00  0.00     0.163 HD
ATOM     29  O   UNL A   1      33.524  33.236  27.995  1.00  0.00    -0.269 OA
BRANCH  27  30
ATOM     30  C   UNL A   1      35.087  31.488  28.186  1.00  0.00     0.039 A 
ATOM     31  C   UNL A   1      36.273  32.228  28.179  1.00  0.00     0.014 A 
ATOM     32  C   UNL A   1      35.090  30.176  28.670  1.00  0.00     0.014 A 
ATOM     33  C   UNL A   1      37.441  31.680  28.716  1.00  0.00     0.010 A 
ATOM     34  C   UNL A   1      36.237  29.658  29.271  1.00  0.00     0.010 A 
ATOM     35  C   UNL A   1      37.425  30.404  29.301  1.00  0.00    -0.014 A 
BRANCH  35  36
ATOM     36  C   UNL A   1      38.638  29.839  29.952  1.00  0.00     0.031 A 
ATOM     37  C   UNL A   1      39.071  30.327  31.308  1.00  0.00     0.074 A 
ATOM     38  C   UNL A   1      39.383  28.928  29.294  1.00  0.00     0.049 A 
ATOM     39  N   UNL A   1      40.138  30.015  32.000  1.00  0.00    -0.248 NA
ATOM     40  C   UNL A   1      38.201  31.318  31.960  1.00  0.00     0.031 C 
ATOM     41  C   UNL A   1      39.086  28.402  27.959  1.00  0.00     0.029 A 
ATOM     42  N   UNL A   1      40.546  28.290  29.647  1.00  0.00    -0.354 N 
ATOM     43  C   UNL A   1      40.076  30.779  33.161  1.00  0.00     0.074 A 
ATOM     44  C   UNL A   1      38.897  31.612  33.049  1.00  0.00     0.031 C 
ATOM     45  C   UNL A   1      40.026  27.507  27.619  1.00  0.00     0.029 A 
ATOM     46  C   UNL A   1      41.023  27.432  28.683  1.00  0.00     0.049 A 
ATOM     47  H   UNL A   1      40.996  28.432  30.511  1.00  0.00     0.167 HD
ATOM     48  C   UNL A   1      40.912  30.771  34.228  1.00  0.00     0.034 A 
ATOM     49  C   UNL A   1      42.144  26.683  28.648  1.00  0.00     0.034 A 
ATOM     50  C   UNL A   1      42.080  29.928  34.326  1.00  0.00     0.049 A 
ATOM     51  C   UNL A   1      43.079  26.718  29.831  1.00  0.00     0.074 A 
ATOM     52  C   UNL A   1      42.966  29.801  35.383  1.00  0.00     0.029 A 
ATOM     53  N   UNL A   1      42.535  29.075  33.327  1.00  0.00    -0.354 N 
ATOM     54  N   UNL A   1      42.979  27.409  30.944  1.00  0.00    -0.248 NA
ATOM     55  C   UNL A   1      44.270  25.863  29.759  1.00  0.00     0.031 C 
ATOM     56  C   UNL A   1      43.994  28.936  34.994  1.00  0.00     0.029 A 
ATOM     57  C   UNL A   1      43.706  28.449  33.729  1.00  0.00     0.049 A 
ATOM     58  H   UNL A   1      42.090  28.936  32.460  1.00  0.00     0.167 HD
ATOM     59  C   UNL A   1      44.078  27.044  31.717  1.00  0.00     0.074 A 
ATOM     60  C   UNL A   1      44.816  26.063  30.950  1.00  0.00     0.031 C 
ATOM     61  C   UNL A   1      44.441  27.478  32.952  1.00  0.00     0.034 A 
BRANCH  48  62
ATOM     62  C   UNL A   1      40.610  31.725  35.361  1.00  0.00     0.023 A 
ATOM     63  C   UNL A   1      39.526  31.520  36.234  1.00  0.00     0.031 A 
ATOM     64  C   UNL A   1      41.404  32.869  35.561  1.00  0.00     0.131 A 
ATOM     65  C   UNL A   1      39.222  32.477  37.213  1.00  0.00     0.055 A 
ATOM     66  C   UNL A   1      41.147  33.775  36.594  1.00  0.00     0.041 A 
ATOM     67  F   UNL A   1      42.439  33.134  34.750  1.00  0.00    -0.206 F 
ATOM     68  C   UNL A   1      40.040  33.589  37.417  1.00  0.00     0.022 A 
BRANCH  65  69
ATOM     69  S   UNL A   1      37.655  32.323  38.116  1.00  0.00     0.124 S 
ATOM     70  O   UNL A   1      36.771  33.169  37.316  1.00  0.00    -0.237 OA
ATOM     71  O   UNL A   1      37.396  30.890  38.056  1.00  0.00    -0.237 OA
ATOM     72  O   UNL A   1      37.972  32.847  39.444  1.00  0.00    -0.744 OA
ENDBRANCH  65  69
ENDBRANCH  48  62
BRANCH  49  73
ATOM     73  C   UNL A   1      42.461  25.851  27.451  1.00  0.00     0.023 A 
ATOM     74  C   UNL A   1      42.040  24.515  27.365  1.00  0.00     0.031 A 
ATOM     75  C   UNL A   1      43.230  26.368  26.392  1.00  0.00     0.131 A 
ATOM     76  C   UNL A   1      42.432  23.725  26.273  1.00  0.00     0.055 A 
ATOM     77  C   UNL A   1      43.567  25.595  25.278  1.00  0.00     0.041 A 
ATOM     78  F   UNL A   1      43.657  27.640  26.419  1.00  0.00    -0.206 F 
ATOM     79  C   UNL A   1      43.180  24.261  25.222  1.00  0.00     0.022 A 
BRANCH  76  80
ATOM     80  S   UNL A   1      42.032  21.956  26.292  1.00  0.00     0.124 S 
ATOM     81  O   UNL A   1      42.901  21.444  25.238  1.00  0.00    -0.237 OA
ATOM     82  O   UNL A   1      42.389  21.580  27.656  1.00  0.00    -0.237 OA
ATOM     83  O   UNL A   1      40.602  21.927  25.993  1.00  0.00    -0.744 OA
ENDBRANCH  76  80
ENDBRANCH  49  73
BRANCH  61  84
ATOM     84  C   UNL A   1      45.669  26.851  33.569  1.00  0.00     0.023 A 
ATOM     85  C   UNL A   1      45.595  25.692  34.361  1.00  0.00     0.031 A 
ATOM     86  C   UNL A   1      46.934  27.432  33.366  1.00  0.00     0.131 A 
ATOM     87  C   UNL A   1      46.754  25.185  34.969  1.00  0.00     0.055 A 
ATOM     88  C   UNL A   1      48.092  26.885  33.918  1.00  0.00     0.041 A 
ATOM     89  F   UNL A   1      47.065  28.542  32.623  1.00  0.00    -0.206 F 
ATOM     90  C   UNL A   1      48.004  25.762  34.737  1.00  0.00     0.022 A 
BRANCH  87  91
ATOM     91  S   UNL A   1      46.593  23.816  36.148  1.00  0.00     0.124 S 
ATOM     92  O   UNL A   1      45.261  23.304  35.838  1.00  0.00    -0.237 OA
ATOM     93  O   UNL A   1      47.709  22.952  35.778  1.00  0.00    -0.237 OA
ATOM     94  O   UNL A   1      46.719  24.468  37.450  1.00  0.00    -0.744 OA
ENDBRANCH  87  91
ENDBRANCH  61  84
ENDBRANCH  35  36
ENDBRANCH  27  30
ENDBRANCH  25  26
ENDBRANCH  24  25
ENDBRANCH   1  24
TORSDOF 17
ENDMDL
MODEL 2
REMARK VINA RESULT:     -11.9      1.999      7.895
REMARK SMILES C=C(C)COc1ccc2c(C)c(CC(=O)NCCCNC(=O)c3ccc(-c4c5nc(c(-c6cc(S(=O)(=O)[O-])ccc6F)c6ccc([nH]6)c(-c6cc(S(=O)(=O)[O-])ccc6F)c6nc(c(-c7cc(S(=O)(=O)[O-])ccc7F)c7ccc4[nH]7)C=C6)C=C5)cc3)c(=O)oc2c1
REMARK SMILES IDX 17 1 16 2 14 3 15 4 13 6 12 7 6 8 7 9 90 10 8 11 89 12 9 13
REMARK SMILES IDX 88 14 10 15 86 16 11 17 87 18 5 19 4 20 2 21 1 22 3 23 18 24
REMARK SMILES IDX 19 25 20 26 21 27 22 29 23 30 24 31 85 32 25 33 84 34 26 35
REMARK SMILES IDX 27 36 28 37 78 38 29 39 83 40 77 41 79 42 30 43 82 44 76 45
REMARK SMILES IDX 75 46 31 48 63 49 43 50 62 51 44 52 47 53 61 54 80 55 45 56
REMARK SMILES IDX 46 57 60 59 81 60 48 61 32 62 33 63 41 64 34 65 40 66 42 67
REMARK SMILES IDX 39 68 35 69 36 70 37 71 38 72 64 73 65 74 73 75 66 76 72 77
REMARK SMILES IDX 74 78 71 79 67 80 68 81 69 82 70 83 49 84 50 85 58 86 51 87
REMARK SMILES IDX 57 88 59 89 56 90 52 91 53 92 54 93 55 94
REMARK H PARENT 16 5 20 28 79 47 47 58
REMARK Flexibility Score: inf
ROOT
ATOM      1  C   UNL A   1      31.646  30.055  26.088  1.00  0.00     0.117 C 
ENDROOT
BRANCH   1   2
ATOM      2  N   UNL A   1      31.177  29.720  24.755  1.00  0.00    -0.356 N 
ATOM      3  C   UNL A   1      31.850  29.201  23.689  1.00  0.00     0.224 C 
ATOM      4  O   UNL A   1      31.215  28.989  22.653  1.00  0.00    -0.275 OA
ATOM      5  H   UNL A   1      30.221  29.894  24.597  1.00  0.00     0.163 HD
BRANCH   3   6
ATOM      6  C   UNL A   1      33.333  28.864  23.782  1.00  0.00     0.143 C 
BRANCH   6   7
ATOM      7  C   UNL A   1      33.585  27.381  23.917  1.00  0.00     0.051 A 
ATOM      8  C   UNL A   1      33.732  22.403  24.756  1.00  0.00     0.123 A 
ATOM      9  C   UNL A   1      33.806  22.984  26.018  1.00  0.00     0.047 A 
ATOM     10  C   UNL A   1      33.622  23.220  23.641  1.00  0.00     0.094 A 
ATOM     11  C   UNL A   1      33.809  24.383  26.156  1.00  0.00     0.016 A 
ATOM     12  C   UNL A   1      33.663  24.601  23.790  1.00  0.00     0.142 A 
ATOM     13  C   UNL A   1      33.741  25.220  25.031  1.00  0.00     0.021 A 
ATOM     14  O   UNL A   1      33.630  25.325  22.594  1.00  0.00    -0.422 OA
ATOM     15  C   UNL A   1      33.656  26.694  25.080  1.00  0.00    -0.029 A 
ATOM     16  C   UNL A   1      33.759  26.694  22.608  1.00  0.00     0.340 A 
ATOM     17  C   UNL A   1      33.597  27.341  26.439  1.00  0.00     0.046 C 
ATOM     18  O   UNL A   1      33.950  27.316  21.568  1.00  0.00    -0.246 OA
BRANCH   8  19
ATOM     19  O   UNL A   1      33.672  21.039  24.669  1.00  0.00    -0.489 OA
BRANCH  19  20
ATOM     20  C   UNL A   1      32.737  20.556  23.687  1.00  0.00     0.260 C 
BRANCH  20  21
ATOM     21  C   UNL A   1      32.606  19.046  23.670  1.00  0.00    -0.043 C 
ATOM     22  C   UNL A   1      32.181  18.371  22.589  1.00  0.00     0.011 C 
ATOM     23  C   UNL A   1      33.061  18.336  24.916  1.00  0.00     0.042 C 
ENDBRANCH  20  21
ENDBRANCH  19  20
ENDBRANCH   8  19
ENDBRANCH   6   7
ENDBRANCH   3   6
ENDBRANCH   1   2
BRANCH   1  24
ATOM     24  C   UNL A   1      31.518  31.548  26.390  1.00  0.00     0.042 C 
BRANCH  24  25
ATOM     25  C   UNL A   1      32.796  32.192  26.927  1.00  0.00     0.118 C 
BRANCH  25  26
ATOM     26  N   UNL A   1      32.590  33.562  27.374  1.00  0.00    -0.352 N 
ATOM     27  C   UNL A   1      33.191  34.268  28.385  1.00  0.00     0.251 C 
ATOM     28  H   UNL A   1      31.908  34.062  26.870  1.00  0.00     0.163 HD
ATOM     29  O   UNL A   1      32.716  35.358  28.712  1.00  0.00    -0.269 OA
BRANCH  27  30
ATOM     30  C   UNL A   1      34.377  33.736  29.091  1.00  0.00     0.039 A 
ATOM     31  C   UNL A   1      34.193  32.767  30.081  1.00  0.00     0.014 A 
ATOM     32  C   UNL A   1      35.663  34.211  28.816  1.00  0.00     0.014 A 
ATOM     33  C   UNL A   1      35.297  32.228  30.746  1.00  0.00     0.010 A 
ATOM     34  C   UNL A   1      36.769  33.621  29.427  1.00  0.00     0.010 A 
ATOM     35  C   UNL A   1      36.599  32.623  30.399  1.00  0.00    -0.014 A 
BRANCH  35  36
ATOM     36  C   UNL A   1      37.790  31.999  31.037  1.00  0.00     0.031 A 
ATOM     37  C   UNL A   1      38.587  30.955  30.304  1.00  0.00     0.074 A 
ATOM     38  C   UNL A   1      38.118  32.333  32.301  1.00  0.00     0.049 A 
ATOM     39  N   UNL A   1      39.603  30.243  30.720  1.00  0.00    -0.248 NA
ATOM     40  C   UNL A   1      38.166  30.651  28.927  1.00  0.00     0.031 C 
ATOM     41  C   UNL A   1      37.403  33.308  33.129  1.00  0.00     0.029 A 
ATOM     42  N   UNL A   1      39.127  31.886  33.119  1.00  0.00    -0.354 N 
ATOM     43  C   UNL A   1      39.936  29.399  29.665  1.00  0.00     0.074 A 
ATOM     44  C   UNL A   1      38.973  29.648  28.613  1.00  0.00     0.031 C 
ATOM     45  C   UNL A   1      38.008  33.400  34.323  1.00  0.00     0.029 A 
ATOM     46  C   UNL A   1      39.121  32.457  34.371  1.00  0.00     0.049 A 
ATOM     47  H   UNL A   1      39.794  31.219  32.834  1.00  0.00     0.167 HD
ATOM     48  C   UNL A   1      40.960  28.515  29.575  1.00  0.00     0.034 A 
ATOM     49  C   UNL A   1      39.908  32.235  35.442  1.00  0.00     0.034 A 
ATOM     50  C   UNL A   1      41.916  28.285  30.633  1.00  0.00     0.049 A 
ATOM     51  C   UNL A   1      41.019  31.221  35.331  1.00  0.00     0.074 A 
ATOM     52  C   UNL A   1      43.022  27.452  30.628  1.00  0.00     0.029 A 
ATOM     53  N   UNL A   1      41.875  28.878  31.889  1.00  0.00    -0.354 N 
ATOM     54  N   UNL A   1      41.351  30.467  34.308  1.00  0.00    -0.248 NA
ATOM     55  C   UNL A   1      41.868  31.036  36.515  1.00  0.00     0.031 C 
ATOM     56  C   UNL A   1      43.602  27.483  31.902  1.00  0.00     0.029 A 
ATOM     57  C   UNL A   1      42.914  28.403  32.677  1.00  0.00     0.049 A 
ATOM     58  H   UNL A   1      41.206  29.540  32.178  1.00  0.00     0.167 HD
ATOM     59  C   UNL A   1      42.469  29.744  34.716  1.00  0.00     0.074 A 
ATOM     60  C   UNL A   1      42.761  30.164  36.071  1.00  0.00     0.031 C 
ATOM     61  C   UNL A   1      43.191  28.820  34.031  1.00  0.00     0.034 A 
BRANCH  48  62
ATOM     62  C   UNL A   1      41.080  27.710  28.301  1.00  0.00     0.023 A 
ATOM     63  C   UNL A   1      40.706  26.356  28.243  1.00  0.00     0.031 A 
ATOM     64  C   UNL A   1      41.595  28.298  27.132  1.00  0.00     0.131 A 
ATOM     65  C   UNL A   1      40.921  25.618  27.069  1.00  0.00     0.055 A 
ATOM     66  C   UNL A   1      41.726  27.580  25.941  1.00  0.00     0.041 A 
ATOM     67  F   UNL A   1      41.991  29.580  27.128  1.00  0.00    -0.206 F 
ATOM     68  C   UNL A   1      41.403  26.227  25.909  1.00  0.00     0.022 A 
BRANCH  65  69
ATOM     69  S   UNL A   1      40.702  23.817  27.126  1.00  0.00     0.124 S 
ATOM     70  O   UNL A   1      41.507  23.388  25.984  1.00  0.00    -0.237 OA
ATOM     71  O   UNL A   1      41.227  23.477  28.443  1.00  0.00    -0.237 OA
ATOM     72  O   UNL A   1      39.260  23.642  26.964  1.00  0.00    -0.744 OA
ENDBRANCH  65  69
ENDBRANCH  48  62
BRANCH  49  73
ATOM     73  C   UNL A   1      39.670  32.968  36.720  1.00  0.00     0.023 A 
ATOM     74  C   UNL A   1      38.794  32.462  37.693  1.00  0.00     0.031 A 
ATOM     75  C   UNL A   1      40.283  34.210  36.968  1.00  0.00     0.131 A 
ATOM     76  C   UNL A   1      38.514  33.217  38.844  1.00  0.00     0.055 A 
ATOM     77  C   UNL A   1      40.047  34.929  38.142  1.00  0.00     0.041 A 
ATOM     78  F   UNL A   1      41.132  34.740  36.074  1.00  0.00    -0.206 F 
ATOM     79  C   UNL A   1      39.146  34.439  39.081  1.00  0.00     0.022 A 
BRANCH  76  80
ATOM     80  S   UNL A   1      37.234  32.621  39.983  1.00  0.00     0.124 S 
ATOM     81  O   UNL A   1      37.199  33.690  40.975  1.00  0.00    -0.237 OA
ATOM     82  O   UNL A   1      36.072  32.523  39.106  1.00  0.00    -0.237 OA
ATOM     83  O   UNL A   1      37.765  31.345  40.455  1.00  0.00    -0.744 OA
ENDBRANCH  76  80
ENDBRANCH  49  73
BRANCH  61  84
ATOM     84  C   UNL A   1      44.402  28.240  34.724  1.00  0.00     0.023 A 
ATOM     85  C   UNL A   1      44.335  27.048  35.466  1.00  0.00     0.031 A 
ATOM     86  C   UNL A   1      45.641  28.900  34.647  1.00  0.00     0.131 A 
ATOM     87  C   UNL A   1      45.470  26.584  36.149  1.00  0.00     0.055 A 
ATOM     88  C   UNL A   1      46.783  28.399  35.273  1.00  0.00     0.041 A 
ATOM     89  F   UNL A   1      45.765  30.045  33.957  1.00  0.00    -0.206 F 
ATOM     90  C   UNL A   1      46.698  27.241  36.041  1.00  0.00     0.022 A 
BRANCH  87  91
ATOM     91  S   UNL A   1      45.298  25.162  37.261  1.00  0.00     0.124 S 
ATOM     92  O   UNL A   1      46.626  24.559  37.190  1.00  0.00    -0.237 OA
ATOM     93  O   UNL A   1      44.954  25.796  38.529  1.00  0.00    -0.237 OA
ATOM     94  O   UNL A   1      44.228  24.375  36.651  1.00  0.00    -0.744 OA
ENDBRANCH  87  91
ENDBRANCH  61  84
ENDBRANCH  35  36
ENDBRANCH  27  30
ENDBRANCH  25  26
ENDBRANCH  24  25
ENDBRANCH   1  24
TORSDOF 17
ENDMDL
MODEL 3
REMARK VINA RESULT:     -11.9      2.668      3.083
REMARK SMILES C=C(C)COc1ccc2c(C)c(CC(=O)NCCCNC(=O)c3ccc(-c4c5nc(c(-c6cc(S(=O)(=O)[O-])ccc6F)c6ccc([nH]6)c(-c6cc(S(=O)(=O)[O-])ccc6F)c6nc(c(-c7cc(S(=O)(=O)[O-])ccc7F)c7ccc4[nH]7)C=C6)C=C5)cc3)c(=O)oc2c1
REMARK SMILES IDX 17 1 16 2 14 3 15 4 13 6 12 7 6 8 7 9 90 10 8 11 89 12 9 13
REMARK SMILES IDX 88 14 10 15 86 16 11 17 87 18 5 19 4 20 2 21 1 22 3 23 18 24
REMARK SMILES IDX 19 25 20 26 21 27 22 29 23 30 24 31 85 32 25 33 84 34 26 35
REMARK SMILES IDX 27 36 28 37 78 38 29 39 83 40 77 41 79 42 30 43 82 44 76 45
REMARK SMILES IDX 75 46 31 48 63 49 43 50 62 51 44 52 47 53 61 54 80 55 45 56
REMARK SMILES IDX 46 57 60 59 81 60 48 61 32 62 33 63 41 64 34 65 40 66 42 67
REMARK SMILES IDX 39 68 35 69 36 70 37 71 38 72 64 73 65 74 73 75 66 76 72 77
REMARK SMILES IDX 74 78 71 79 67 80 68 81 69 82 70 83 49 84 50 85 58 86 51 87
REMARK SMILES IDX 57 88 59 89 56 90 52 91 53 92 54 93 55 94
REMARK H PARENT 16 5 20 28 79 47 47 58
REMARK Flexibility Score: inf
ROOT
ATOM      1  C   UNL A   1      31.894  29.824  25.335  1.00  0.00     0.117 C 
ENDROOT
BRANCH   1   2
ATOM      2  N   UNL A   1      33.097  29.646  24.541  1.00  0.00    -0.356 N 
ATOM      3  C   UNL A   1      33.408  28.694  23.615  1.00  0.00     0.224 C 
ATOM      4  O   UNL A   1      34.505  28.768  23.057  1.00  0.00    -0.275 OA
ATOM      5  H   UNL A   1      33.798  30.319  24.694  1.00  0.00     0.163 HD
BRANCH   3   6
ATOM      6  C   UNL A   1      32.420  27.591  23.256  1.00  0.00     0.143 C 
BRANCH   6   7
ATOM      7  C   UNL A   1      32.965  26.210  23.528  1.00  0.00     0.051 A 
ATOM      8  C   UNL A   1      34.078  21.444  24.774  1.00  0.00     0.123 A 
ATOM      9  C   UNL A   1      33.922  22.107  25.987  1.00  0.00     0.047 A 
ATOM     10  C   UNL A   1      33.894  22.145  23.592  1.00  0.00     0.094 A 
ATOM     11  C   UNL A   1      33.620  23.480  26.011  1.00  0.00     0.016 A 
ATOM     12  C   UNL A   1      33.633  23.509  23.631  1.00  0.00     0.142 A 
ATOM     13  C   UNL A   1      33.474  24.208  24.821  1.00  0.00     0.021 A 
ATOM     14  O   UNL A   1      33.551  24.131  22.381  1.00  0.00    -0.422 OA
ATOM     15  C   UNL A   1      33.079  25.630  24.745  1.00  0.00    -0.029 A 
ATOM     16  C   UNL A   1      33.388  25.493  22.294  1.00  0.00     0.340 A 
ATOM     17  C   UNL A   1      32.771  26.335  26.040  1.00  0.00     0.046 C 
ATOM     18  O   UNL A   1      33.532  26.073  21.222  1.00  0.00    -0.246 OA
BRANCH   8  19
ATOM     19  O   UNL A   1      34.312  20.096  24.793  1.00  0.00    -0.489 OA
BRANCH  19  20
ATOM     20  C   UNL A   1      33.217  19.304  24.297  1.00  0.00     0.260 C 
BRANCH  20  21
ATOM     21  C   UNL A   1      33.430  17.812  24.459  1.00  0.00    -0.043 C 
ATOM     22  C   UNL A   1      33.057  17.146  25.565  1.00  0.00     0.011 C 
ATOM     23  C   UNL A   1      34.011  17.101  23.268  1.00  0.00     0.042 C 
ENDBRANCH  20  21
ENDBRANCH  19  20
ENDBRANCH   8  19
ENDBRANCH   6   7
ENDBRANCH   3   6
ENDBRANCH   1   2
BRANCH   1  24
ATOM     24  C   UNL A   1      32.171  29.731  26.835  1.00  0.00     0.042 C 
BRANCH  24  25
ATOM     25  C   UNL A   1      33.608  30.073  27.231  1.00  0.00     0.118 C 
BRANCH  25  26
ATOM     26  N   UNL A   1      33.752  31.449  27.684  1.00  0.00    -0.352 N 
ATOM     27  C   UNL A   1      34.696  32.022  28.498  1.00  0.00     0.251 C 
ATOM     28  H   UNL A   1      33.062  32.068  27.354  1.00  0.00     0.163 HD
ATOM     29  O   UNL A   1      34.509  33.170  28.908  1.00  0.00    -0.269 OA
BRANCH  27  30
ATOM     30  C   UNL A   1      35.913  31.283  28.899  1.00  0.00     0.039 A 
ATOM     31  C   UNL A   1      37.162  31.799  28.542  1.00  0.00     0.014 A 
ATOM     32  C   UNL A   1      35.835  30.070  29.588  1.00  0.00     0.014 A 
ATOM     33  C   UNL A   1      38.329  31.136  28.930  1.00  0.00     0.010 A 
ATOM     34  C   UNL A   1      37.000  29.447  30.038  1.00  0.00     0.010 A 
ATOM     35  C   UNL A   1      38.260  29.973  29.715  1.00  0.00    -0.014 A 
BRANCH  35  36
ATOM     36  C   UNL A   1      39.492  29.301  30.208  1.00  0.00     0.031 A 
ATOM     37  C   UNL A   1      40.206  29.821  31.426  1.00  0.00     0.074 A 
ATOM     38  C   UNL A   1      40.000  28.257  29.523  1.00  0.00     0.049 A 
ATOM     39  N   UNL A   1      41.333  29.421  31.961  1.00  0.00    -0.248 NA
ATOM     40  C   UNL A   1      39.585  30.961  32.118  1.00  0.00     0.031 C 
ATOM     41  C   UNL A   1      39.417  27.683  28.308  1.00  0.00     0.029 A 
ATOM     42  N   UNL A   1      41.123  27.498  29.739  1.00  0.00    -0.354 N 
ATOM     43  C   UNL A   1      41.562  30.266  33.043  1.00  0.00     0.074 A 
ATOM     44  C   UNL A   1      40.487  31.236  33.048  1.00  0.00     0.031 C 
ATOM     45  C   UNL A   1      40.173  26.651  27.902  1.00  0.00     0.029 A 
ATOM     46  C   UNL A   1      41.323  26.520  28.791  1.00  0.00     0.049 A 
ATOM     47  H   UNL A   1      41.730  27.640  30.502  1.00  0.00     0.167 HD
ATOM     48  C   UNL A   1      42.563  30.222  33.956  1.00  0.00     0.034 A 
ATOM     49  C   UNL A   1      42.325  25.631  28.643  1.00  0.00     0.034 A 
ATOM     50  C   UNL A   1      43.623  29.242  33.938  1.00  0.00     0.049 A 
ATOM     51  C   UNL A   1      43.447  25.625  29.650  1.00  0.00     0.074 A 
ATOM     52  C   UNL A   1      44.657  29.074  34.844  1.00  0.00     0.029 A 
ATOM     53  N   UNL A   1      43.796  28.269  32.960  1.00  0.00    -0.354 N 
ATOM     54  N   UNL A   1      43.623  26.398  30.697  1.00  0.00    -0.248 NA
ATOM     55  C   UNL A   1      44.500  24.618  29.463  1.00  0.00     0.031 C 
ATOM     56  C   UNL A   1      45.494  28.056  34.373  1.00  0.00     0.029 A 
ATOM     57  C   UNL A   1      44.936  27.525  33.221  1.00  0.00     0.049 A 
ATOM     58  H   UNL A   1      43.194  28.130  32.193  1.00  0.00     0.167 HD
ATOM     59  C   UNL A   1      44.788  25.948  31.311  1.00  0.00     0.074 A 
ATOM     60  C   UNL A   1      45.263  24.827  30.526  1.00  0.00     0.031 C 
ATOM     61  C   UNL A   1      45.407  26.415  32.426  1.00  0.00     0.034 A 
BRANCH  48  62
ATOM     62  C   UNL A   1      42.575  31.284  35.032  1.00  0.00     0.023 A 
ATOM     63  C   UNL A   1      43.127  32.558  34.810  1.00  0.00     0.031 A 
ATOM     64  C   UNL A   1      42.045  31.013  36.306  1.00  0.00     0.131 A 
ATOM     65  C   UNL A   1      43.205  33.483  35.861  1.00  0.00     0.055 A 
ATOM     66  C   UNL A   1      42.048  31.969  37.325  1.00  0.00     0.041 A 
ATOM     67  F   UNL A   1      41.524  29.809  36.589  1.00  0.00    -0.206 F 
ATOM     68  C   UNL A   1      42.644  33.208  37.110  1.00  0.00     0.022 A 
BRANCH  65  69
ATOM     69  S   UNL A   1      44.182  34.993  35.617  1.00  0.00     0.124 S 
ATOM     70  O   UNL A   1      45.413  34.665  36.333  1.00  0.00    -0.237 OA
ATOM     71  O   UNL A   1      44.288  35.068  34.165  1.00  0.00    -0.237 OA
ATOM     72  O   UNL A   1      43.366  36.034  36.239  1.00  0.00    -0.744 OA
ENDBRANCH  65  69
ENDBRANCH  48  62
BRANCH  49  73
ATOM     73  C   UNL A   1      42.331  24.683  27.490  1.00  0.00     0.023 A 
ATOM     74  C   UNL A   1      41.598  23.486  27.532  1.00  0.00     0.031 A 
ATOM     75  C   UNL A   1      43.107  24.939  26.345  1.00  0.00     0.131 A 
ATOM     76  C   UNL A   1      41.696  22.567  26.476  1.00  0.00     0.055 A 
ATOM     77  C   UNL A   1      43.153  24.049  25.270  1.00  0.00     0.041 A 
ATOM     78  F   UNL A   1      43.825  26.069  26.249  1.00  0.00    -0.206 F 
ATOM     79  C   UNL A   1      42.456  22.848  25.339  1.00  0.00     0.022 A 
BRANCH  76  80
ATOM     80  S   UNL A   1      40.890  20.952  26.652  1.00  0.00     0.124 S 
ATOM     81  O   UNL A   1      39.609  21.186  25.994  1.00  0.00    -0.237 OA
ATOM     82  O   UNL A   1      41.820  20.072  25.952  1.00  0.00    -0.237 OA
ATOM     83  O   UNL A   1      40.824  20.761  28.099  1.00  0.00    -0.744 OA
ENDBRANCH  76  80
ENDBRANCH  49  73
BRANCH  61  84
ATOM     84  C   UNL A   1      46.641  25.676  32.890  1.00  0.00     0.023 A 
ATOM     85  C   UNL A   1      47.882  25.822  32.246  1.00  0.00     0.031 A 
ATOM     86  C   UNL A   1      46.568  24.803  33.990  1.00  0.00     0.131 A 
ATOM     87  C   UNL A   1      48.984  25.064  32.670  1.00  0.00     0.055 A 
ATOM     88  C   UNL A   1      47.683  24.102  34.449  1.00  0.00     0.041 A 
ATOM     89  F   UNL A   1      45.408  24.620  34.641  1.00  0.00    -0.206 F 
ATOM     90  C   UNL A   1      48.897  24.220  33.780  1.00  0.00     0.022 A 
BRANCH  87  91
ATOM     91  S   UNL A   1      50.511  25.120  31.692  1.00  0.00     0.124 S 
ATOM     92  O   UNL A   1      50.011  25.493  30.372  1.00  0.00    -0.237 OA
ATOM     93  O   UNL A   1      51.290  26.138  32.388  1.00  0.00    -0.237 OA
ATOM     94  O   UNL A   1      51.035  23.760  31.795  1.00  0.00    -0.744 OA
ENDBRANCH  87  91
ENDBRANCH  61  84
ENDBRANCH  35  36
ENDBRANCH  27  30
ENDBRANCH  25  26
ENDBRANCH  24  25
ENDBRANCH   1  24
TORSDOF 17
ENDMDL
