MODEL 1
REMARK VINA RESULT:     -12.4      0.000      0.000
REMARK SMILES Cc1cc(-c2ccc(/C=C/C(=O)NCCCNC(=O)c3ccc(-c4c5nc(c(-c6cc(S(=O)(=O)[O-])ccc6F)c6ccc([nH]6)c(-c6cc(S(=O)(=O)[O-])ccc6F)c6nc(c(-c7cc(S(=O)(=O)[O-])ccc7F)c7ccc4[nH]7)C=C6)C=C5)cc3)o2)c(C)cc1Br
REMARK SMILES IDX 15 1 14 2 13 3 11 4 12 5 10 7 9 8 8 9 5 10 6 11 83 12 7 13
REMARK SMILES IDX 4 14 1 15 2 16 3 17 87 18 86 19 88 20 84 21 85 22 16 23
REMARK SMILES IDX 17 24 18 25 19 27 20 28 21 29 82 30 22 31 81 32 23 33 24 34
REMARK SMILES IDX 25 35 75 36 26 37 80 38 74 39 76 40 27 41 79 42 73 43 72 44
REMARK SMILES IDX 28 46 60 47 40 48 59 49 41 50 44 51 58 52 77 53 42 54 43 55
REMARK SMILES IDX 57 57 78 58 45 59 29 60 30 61 38 62 31 63 37 64 39 65 36 66
REMARK SMILES IDX 32 67 33 68 34 69 35 70 61 71 62 72 70 73 63 74 69 75 71 76
REMARK SMILES IDX 68 77 64 78 65 79 66 80 67 81 46 82 47 83 55 84 48 85 54 86
REMARK SMILES IDX 56 87 53 88 49 89 50 90 51 91 52 92
REMARK H PARENT 13 6 17 26 76 45 44 56
REMARK Flexibility Score: inf
ROOT
ATOM      1  C   UNL A   1      31.226  30.707  25.435  1.00  0.00     0.042 C 
ENDROOT
BRANCH   1   2
ATOM      2  C   UNL A   1      31.456  29.325  24.833  1.00  0.00     0.118 C 
BRANCH   2   3
ATOM      3  N   UNL A   1      32.550  29.332  23.875  1.00  0.00    -0.352 N 
ATOM      4  C   UNL A   1      33.510  28.407  23.608  1.00  0.00     0.244 C 
ATOM      5  O   UNL A   1      34.260  28.578  22.649  1.00  0.00    -0.270 OA
ATOM      6  H   UNL A   1      32.605  30.146  23.326  1.00  0.00     0.163 HD
BRANCH   4   7
ATOM      7  C   UNL A   1      33.615  27.154  24.386  1.00  0.00     0.075 C 
ATOM      8  C   UNL A   1      33.857  25.944  23.866  1.00  0.00     0.053 C 
BRANCH   8   9
ATOM      9  C   UNL A   1      33.942  24.802  24.701  1.00  0.00     0.127 A 
ATOM     10  C   UNL A   1      34.142  22.674  25.298  1.00  0.00     0.135 A 
ATOM     11  C   UNL A   1      34.069  23.389  26.469  1.00  0.00     0.051 A 
ATOM     12  O   UNL A   1      34.024  23.512  24.233  1.00  0.00    -0.457 OA
ATOM     13  C   UNL A   1      33.971  24.748  26.089  1.00  0.00     0.051 A 
BRANCH  10  14
ATOM     14  C   UNL A   1      34.323  21.268  24.982  1.00  0.00     0.020 A 
ATOM     15  C   UNL A   1      32.044  18.383  23.986  1.00  0.00     0.045 C 
ATOM     16  C   UNL A   1      33.300  19.131  24.337  1.00  0.00    -0.036 A 
ATOM     17  C   UNL A   1      33.199  20.503  24.629  1.00  0.00     0.016 A 
ATOM     18  C   UNL A   1      34.556  18.521  24.448  1.00  0.00     0.021 A 
ATOM     19  C   UNL A   1      35.684  19.273  24.791  1.00  0.00     0.020 A 
ATOM     20  Br  UNL A   1      34.807  16.658  24.164  1.00  0.00    -0.051 Br
ATOM     21  C   UNL A   1      35.584  20.646  25.060  1.00  0.00    -0.039 A 
ATOM     22  C   UNL A   1      36.828  21.413  25.428  1.00  0.00     0.045 C 
ENDBRANCH  10  14
ENDBRANCH   8   9
ENDBRANCH   4   7
ENDBRANCH   2   3
ENDBRANCH   1   2
BRANCH   1  23
ATOM     23  C   UNL A   1      32.187  31.040  26.571  1.00  0.00     0.118 C 
BRANCH  23  24
ATOM     24  N   UNL A   1      32.164  32.455  26.921  1.00  0.00    -0.352 N 
ATOM     25  C   UNL A   1      33.035  33.188  27.696  1.00  0.00     0.251 C 
ATOM     26  H   UNL A   1      31.410  32.963  26.545  1.00  0.00     0.163 HD
ATOM     27  O   UNL A   1      32.730  34.326  28.027  1.00  0.00    -0.269 OA
BRANCH  25  28
ATOM     28  C   UNL A   1      34.311  32.590  28.151  1.00  0.00     0.039 A 
ATOM     29  C   UNL A   1      34.359  31.284  28.641  1.00  0.00     0.014 A 
ATOM     30  C   UNL A   1      35.482  33.352  28.085  1.00  0.00     0.014 A 
ATOM     31  C   UNL A   1      35.526  30.809  29.229  1.00  0.00     0.010 A 
ATOM     32  C   UNL A   1      36.679  32.836  28.594  1.00  0.00     0.010 A 
ATOM     33  C   UNL A   1      36.699  31.581  29.221  1.00  0.00    -0.014 A 
BRANCH  33  34
ATOM     34  C   UNL A   1      37.926  31.055  29.876  1.00  0.00     0.031 A 
ATOM     35  C   UNL A   1      38.263  31.431  31.293  1.00  0.00     0.074 A 
ATOM     36  C   UNL A   1      38.701  30.176  29.211  1.00  0.00     0.049 A 
ATOM     37  N   UNL A   1      39.257  31.023  32.040  1.00  0.00    -0.248 NA
ATOM     38  C   UNL A   1      37.371  32.393  31.961  1.00  0.00     0.031 C 
ATOM     39  C   UNL A   1      38.461  29.731  27.838  1.00  0.00     0.029 A 
ATOM     40  N   UNL A   1      39.816  29.477  29.599  1.00  0.00    -0.354 N 
ATOM     41  C   UNL A   1      39.112  31.674  33.261  1.00  0.00     0.074 A 
ATOM     42  C   UNL A   1      37.965  32.546  33.136  1.00  0.00     0.031 C 
ATOM     43  C   UNL A   1      39.353  28.784  27.523  1.00  0.00     0.029 A 
ATOM     44  C   UNL A   1      40.278  28.605  28.640  1.00  0.00     0.049 A 
ATOM     45  H   UNL A   1      40.244  29.588  30.478  1.00  0.00     0.167 HD
ATOM     46  C   UNL A   1      39.852  31.539  34.388  1.00  0.00     0.034 A 
ATOM     47  C   UNL A   1      41.327  27.755  28.652  1.00  0.00     0.034 A 
ATOM     48  C   UNL A   1      40.995  30.667  34.495  1.00  0.00     0.049 A 
ATOM     49  C   UNL A   1      42.170  27.662  29.897  1.00  0.00     0.074 A 
ATOM     50  C   UNL A   1      41.822  30.470  35.586  1.00  0.00     0.029 A 
ATOM     51  N   UNL A   1      41.468  29.842  33.483  1.00  0.00    -0.354 N 
ATOM     52  N   UNL A   1      42.011  28.277  31.046  1.00  0.00    -0.248 NA
ATOM     53  C   UNL A   1      43.333  26.765  29.852  1.00  0.00     0.031 C 
ATOM     54  C   UNL A   1      42.826  29.571  35.217  1.00  0.00     0.029 A 
ATOM     55  C   UNL A   1      42.587  29.149  33.920  1.00  0.00     0.049 A 
ATOM     56  H   UNL A   1      41.069  29.761  32.587  1.00  0.00     0.167 HD
ATOM     57  C   UNL A   1      43.044  27.831  31.865  1.00  0.00     0.074 A 
ATOM     58  C   UNL A   1      43.805  26.873  31.088  1.00  0.00     0.031 C 
ATOM     59  C   UNL A   1      43.336  28.189  33.141  1.00  0.00     0.034 A 
BRANCH  46  60
ATOM     60  C   UNL A   1      39.452  32.336  35.607  1.00  0.00     0.023 A 
ATOM     61  C   UNL A   1      38.641  31.757  36.602  1.00  0.00     0.031 A 
ATOM     62  C   UNL A   1      39.792  33.695  35.736  1.00  0.00     0.131 A 
ATOM     63  C   UNL A   1      38.181  32.541  37.669  1.00  0.00     0.055 A 
ATOM     64  C   UNL A   1      39.365  34.461  36.822  1.00  0.00     0.041 A 
ATOM     65  F   UNL A   1      40.565  34.294  34.816  1.00  0.00    -0.206 F 
ATOM     66  C   UNL A   1      38.546  33.886  37.789  1.00  0.00     0.022 A 
BRANCH  63  67
ATOM     67  S   UNL A   1      37.047  31.865  38.913  1.00  0.00     0.124 S 
ATOM     68  O   UNL A   1      35.843  32.662  38.680  1.00  0.00    -0.237 OA
ATOM     69  O   UNL A   1      36.953  30.464  38.513  1.00  0.00    -0.237 OA
ATOM     70  O   UNL A   1      37.724  32.116  40.179  1.00  0.00    -0.744 OA
ENDBRANCH  63  67
ENDBRANCH  46  60
BRANCH  47  71
ATOM     71  C   UNL A   1      41.571  26.896  27.457  1.00  0.00     0.023 A 
ATOM     72  C   UNL A   1      41.200  25.539  27.454  1.00  0.00     0.031 A 
ATOM     73  C   UNL A   1      42.308  27.382  26.365  1.00  0.00     0.131 A 
ATOM     74  C   UNL A   1      41.647  24.696  26.429  1.00  0.00     0.055 A 
ATOM     75  C   UNL A   1      42.684  26.554  25.305  1.00  0.00     0.041 A 
ATOM     76  F   UNL A   1      42.694  28.666  26.327  1.00  0.00    -0.206 F 
ATOM     77  C   UNL A   1      42.373  25.199  25.345  1.00  0.00     0.022 A 
BRANCH  74  78
ATOM     78  S   UNL A   1      41.435  22.898  26.547  1.00  0.00     0.124 S 
ATOM     79  O   UNL A   1      39.984  22.756  26.472  1.00  0.00    -0.237 OA
ATOM     80  O   UNL A   1      42.176  22.434  25.378  1.00  0.00    -0.237 OA
ATOM     81  O   UNL A   1      42.034  22.564  27.834  1.00  0.00    -0.744 OA
ENDBRANCH  74  78
ENDBRANCH  47  71
BRANCH  59  82
ATOM     82  C   UNL A   1      44.534  27.559  33.812  1.00  0.00     0.023 A 
ATOM     83  C   UNL A   1      44.364  26.440  34.649  1.00  0.00     0.031 A 
ATOM     84  C   UNL A   1      45.805  28.158  33.751  1.00  0.00     0.131 A 
ATOM     85  C   UNL A   1      45.435  25.981  35.427  1.00  0.00     0.055 A 
ATOM     86  C   UNL A   1      46.881  27.666  34.492  1.00  0.00     0.041 A 
ATOM     87  F   UNL A   1      46.015  29.234  32.977  1.00  0.00    -0.206 F 
ATOM     88  C   UNL A   1      46.694  26.584  35.346  1.00  0.00     0.022 A 
BRANCH  85  89
ATOM     89  S   UNL A   1      45.210  24.650  36.638  1.00  0.00     0.124 S 
ATOM     90  O   UNL A   1      46.339  24.866  37.539  1.00  0.00    -0.237 OA
ATOM     91  O   UNL A   1      43.897  24.964  37.197  1.00  0.00    -0.237 OA
ATOM     92  O   UNL A   1      45.275  23.431  35.839  1.00  0.00    -0.744 OA
ENDBRANCH  85  89
ENDBRANCH  59  82
ENDBRANCH  33  34
ENDBRANCH  25  28
ENDBRANCH  23  24
ENDBRANCH   1  23
TORSDOF 15
ENDMDL
MODEL 2
REMARK VINA RESULT:     -12.2      5.464     10.754
REMARK SMILES Cc1cc(-c2ccc(/C=C/C(=O)NCCCNC(=O)c3ccc(-c4c5nc(c(-c6cc(S(=O)(=O)[O-])ccc6F)c6ccc([nH]6)c(-c6cc(S(=O)(=O)[O-])ccc6F)c6nc(c(-c7cc(S(=O)(=O)[O-])ccc7F)c7ccc4[nH]7)C=C6)C=C5)cc3)o2)c(C)cc1Br
REMARK SMILES IDX 15 1 14 2 13 3 11 4 12 5 10 7 9 8 8 9 5 10 6 11 83 12 7 13
REMARK SMILES IDX 4 14 1 15 2 16 3 17 87 18 86 19 88 20 84 21 85 22 16 23
REMARK SMILES IDX 17 24 18 25 19 27 20 28 21 29 82 30 22 31 81 32 23 33 24 34
REMARK SMILES IDX 25 35 75 36 26 37 80 38 74 39 76 40 27 41 79 42 73 43 72 44
REMARK SMILES IDX 28 46 60 47 40 48 59 49 41 50 44 51 58 52 77 53 42 54 43 55
REMARK SMILES IDX 57 57 78 58 45 59 29 60 30 61 38 62 31 63 37 64 39 65 36 66
REMARK SMILES IDX 32 67 33 68 34 69 35 70 61 71 62 72 70 73 63 74 69 75 71 76
REMARK SMILES IDX 68 77 64 78 65 79 66 80 67 81 46 82 47 83 55 84 48 85 54 86
REMARK SMILES IDX 56 87 53 88 49 89 50 90 51 91 52 92
REMARK H PARENT 13 6 17 26 76 45 44 56
REMARK Flexibility Score: inf
ROOT
ATOM      1  C   UNL A   1      36.073  21.066  24.884  1.00  0.00     0.042 C 
ENDROOT
BRANCH   1   2
ATOM      2  C   UNL A   1      35.143  21.136  26.092  1.00  0.00     0.118 C 
BRANCH   2   3
ATOM      3  N   UNL A   1      33.873  20.480  25.831  1.00  0.00    -0.352 N 
ATOM      4  C   UNL A   1      32.758  20.915  25.185  1.00  0.00     0.244 C 
ATOM      5  O   UNL A   1      31.842  20.124  24.969  1.00  0.00    -0.270 OA
ATOM      6  H   UNL A   1      33.809  19.563  26.182  1.00  0.00     0.163 HD
BRANCH   4   7
ATOM      7  C   UNL A   1      32.659  22.290  24.654  1.00  0.00     0.075 C 
ATOM      8  C   UNL A   1      33.028  22.668  23.422  1.00  0.00     0.053 C 
BRANCH   8   9
ATOM      9  C   UNL A   1      32.888  24.016  23.008  1.00  0.00     0.127 A 
ATOM     10  C   UNL A   1      32.592  26.211  23.143  1.00  0.00     0.135 A 
ATOM     11  C   UNL A   1      32.797  25.940  21.811  1.00  0.00     0.051 A 
ATOM     12  O   UNL A   1      32.604  25.057  23.861  1.00  0.00    -0.457 OA
ATOM     13  C   UNL A   1      33.015  24.544  21.729  1.00  0.00     0.051 A 
BRANCH  10  14
ATOM     14  C   UNL A   1      32.385  27.431  23.904  1.00  0.00     0.020 A 
ATOM     15  C   UNL A   1      34.247  29.263  26.676  1.00  0.00     0.045 C 
ATOM     16  C   UNL A   1      33.188  28.952  25.657  1.00  0.00    -0.036 A 
ATOM     17  C   UNL A   1      33.340  27.799  24.867  1.00  0.00     0.016 A 
ATOM     18  C   UNL A   1      32.027  29.719  25.493  1.00  0.00     0.021 A 
ATOM     19  C   UNL A   1      31.072  29.368  24.532  1.00  0.00     0.020 A 
ATOM     20  Br  UNL A   1      31.663  31.250  26.558  1.00  0.00    -0.051 Br
ATOM     21  C   UNL A   1      31.237  28.228  23.730  1.00  0.00    -0.039 A 
ATOM     22  C   UNL A   1      30.180  27.890  22.711  1.00  0.00     0.045 C 
ENDBRANCH  10  14
ENDBRANCH   8   9
ENDBRANCH   4   7
ENDBRANCH   2   3
ENDBRANCH   1   2
BRANCH   1  23
ATOM     23  C   UNL A   1      37.457  21.647  25.150  1.00  0.00     0.118 C 
BRANCH  23  24
ATOM     24  N   UNL A   1      38.411  20.633  25.581  1.00  0.00    -0.352 N 
ATOM     25  C   UNL A   1      39.624  20.774  26.217  1.00  0.00     0.251 C 
ATOM     26  H   UNL A   1      38.147  19.705  25.386  1.00  0.00     0.163 HD
ATOM     27  O   UNL A   1      40.364  19.805  26.318  1.00  0.00    -0.269 OA
BRANCH  25  28
ATOM     28  C   UNL A   1      40.041  22.095  26.742  1.00  0.00     0.039 A 
ATOM     29  C   UNL A   1      39.528  23.276  26.205  1.00  0.00     0.014 A 
ATOM     30  C   UNL A   1      40.962  22.149  27.794  1.00  0.00     0.014 A 
ATOM     31  C   UNL A   1      40.067  24.500  26.587  1.00  0.00     0.010 A 
ATOM     32  C   UNL A   1      41.434  23.387  28.242  1.00  0.00     0.010 A 
ATOM     33  C   UNL A   1      41.032  24.571  27.605  1.00  0.00    -0.014 A 
BRANCH  33  34
ATOM     34  C   UNL A   1      41.606  25.892  27.979  1.00  0.00     0.031 A 
ATOM     35  C   UNL A   1      42.999  26.272  27.560  1.00  0.00     0.074 A 
ATOM     36  C   UNL A   1      40.835  26.779  28.638  1.00  0.00     0.049 A 
ATOM     37  N   UNL A   1      43.637  27.399  27.746  1.00  0.00    -0.248 NA
ATOM     38  C   UNL A   1      43.782  25.256  26.838  1.00  0.00     0.031 C 
ATOM     39  C   UNL A   1      39.465  26.522  29.082  1.00  0.00     0.029 A 
ATOM     40  N   UNL A   1      41.071  28.076  29.020  1.00  0.00    -0.354 N 
ATOM     41  C   UNL A   1      44.891  27.230  27.169  1.00  0.00     0.074 A 
ATOM     42  C   UNL A   1      44.944  25.872  26.673  1.00  0.00     0.031 C 
ATOM     43  C   UNL A   1      38.957  27.643  29.609  1.00  0.00     0.029 A 
ATOM     44  C   UNL A   1      39.986  28.681  29.612  1.00  0.00     0.049 A 
ATOM     45  H   UNL A   1      41.933  28.530  28.882  1.00  0.00     0.167 HD
ATOM     46  C   UNL A   1      45.896  28.131  27.042  1.00  0.00     0.034 A 
ATOM     47  C   UNL A   1      39.831  29.928  30.104  1.00  0.00     0.034 A 
ATOM     48  C   UNL A   1      45.829  29.480  27.545  1.00  0.00     0.049 A 
ATOM     49  C   UNL A   1      40.981  30.896  30.003  1.00  0.00     0.074 A 
ATOM     50  C   UNL A   1      46.798  30.465  27.483  1.00  0.00     0.029 A 
ATOM     51  N   UNL A   1      44.734  30.038  28.192  1.00  0.00    -0.354 N 
ATOM     52  N   UNL A   1      42.155  30.722  29.444  1.00  0.00    -0.248 NA
ATOM     53  C   UNL A   1      40.790  32.225  30.598  1.00  0.00     0.031 C 
ATOM     54  C   UNL A   1      46.311  31.598  28.140  1.00  0.00     0.029 A 
ATOM     55  C   UNL A   1      45.012  31.348  28.550  1.00  0.00     0.049 A 
ATOM     56  H   UNL A   1      43.885  29.573  28.370  1.00  0.00     0.167 HD
ATOM     57  C   UNL A   1      42.839  31.923  29.606  1.00  0.00     0.074 A 
ATOM     58  C   UNL A   1      41.934  32.824  30.291  1.00  0.00     0.031 C 
ATOM     59  C   UNL A   1      44.102  32.245  29.226  1.00  0.00     0.034 A 
BRANCH  46  60
ATOM     60  C   UNL A   1      47.154  27.703  26.324  1.00  0.00     0.023 A 
ATOM     61  C   UNL A   1      47.287  27.907  24.937  1.00  0.00     0.031 A 
ATOM     62  C   UNL A   1      48.178  27.010  26.994  1.00  0.00     0.131 A 
ATOM     63  C   UNL A   1      48.408  27.403  24.263  1.00  0.00     0.055 A 
ATOM     64  C   UNL A   1      49.312  26.545  26.324  1.00  0.00     0.041 A 
ATOM     65  F   UNL A   1      48.102  26.791  28.316  1.00  0.00    -0.206 F 
ATOM     66  C   UNL A   1      49.424  26.731  24.950  1.00  0.00     0.022 A 
BRANCH  63  67
ATOM     67  S   UNL A   1      48.565  27.546  22.462  1.00  0.00     0.124 S 
ATOM     68  O   UNL A   1      47.360  28.298  22.117  1.00  0.00    -0.237 OA
ATOM     69  O   UNL A   1      49.820  28.281  22.321  1.00  0.00    -0.237 OA
ATOM     70  O   UNL A   1      48.590  26.163  22.000  1.00  0.00    -0.744 OA
ENDBRANCH  63  67
ENDBRANCH  46  60
BRANCH  47  71
ATOM     71  C   UNL A   1      38.507  30.318  30.671  1.00  0.00     0.023 A 
ATOM     72  C   UNL A   1      37.587  31.065  29.911  1.00  0.00     0.031 A 
ATOM     73  C   UNL A   1      38.207  30.077  32.021  1.00  0.00     0.131 A 
ATOM     74  C   UNL A   1      36.462  31.622  30.531  1.00  0.00     0.055 A 
ATOM     75  C   UNL A   1      37.043  30.569  32.616  1.00  0.00     0.041 A 
ATOM     76  F   UNL A   1      39.058  29.379  32.789  1.00  0.00    -0.206 F 
ATOM     77  C   UNL A   1      36.175  31.365  31.875  1.00  0.00     0.022 A 
BRANCH  74  78
ATOM     78  S   UNL A   1      35.420  32.823  29.655  1.00  0.00     0.124 S 
ATOM     79  O   UNL A   1      35.021  33.723  30.733  1.00  0.00    -0.237 OA
ATOM     80  O   UNL A   1      36.360  33.378  28.685  1.00  0.00    -0.237 OA
ATOM     81  O   UNL A   1      34.354  32.005  29.089  1.00  0.00    -0.744 OA
ENDBRANCH  74  78
ENDBRANCH  47  71
BRANCH  59  82
ATOM     82  C   UNL A   1      44.618  33.630  29.534  1.00  0.00     0.023 A 
ATOM     83  C   UNL A   1      44.549  34.640  28.554  1.00  0.00     0.031 A 
ATOM     84  C   UNL A   1      45.314  33.904  30.724  1.00  0.00     0.131 A 
ATOM     85  C   UNL A   1      45.205  35.860  28.763  1.00  0.00     0.055 A 
ATOM     86  C   UNL A   1      45.925  35.140  30.947  1.00  0.00     0.041 A 
ATOM     87  F   UNL A   1      45.417  32.970  31.683  1.00  0.00    -0.206 F 
ATOM     88  C   UNL A   1      45.885  36.117  29.958  1.00  0.00     0.022 A 
BRANCH  85  89
ATOM     89  S   UNL A   1      45.279  37.118  27.459  1.00  0.00     0.124 S 
ATOM     90  O   UNL A   1      45.888  38.246  28.160  1.00  0.00    -0.237 OA
ATOM     91  O   UNL A   1      46.128  36.474  26.460  1.00  0.00    -0.237 OA
ATOM     92  O   UNL A   1      43.885  37.306  27.070  1.00  0.00    -0.744 OA
ENDBRANCH  85  89
ENDBRANCH  59  82
ENDBRANCH  33  34
ENDBRANCH  25  28
ENDBRANCH  23  24
ENDBRANCH   1  23
TORSDOF 15
ENDMDL
MODEL 3
REMARK VINA RESULT:     -12.2      5.523     11.012
REMARK SMILES Cc1cc(-c2ccc(/C=C/C(=O)NCCCNC(=O)c3ccc(-c4c5nc(c(-c6cc(S(=O)(=O)[O-])ccc6F)c6ccc([nH]6)c(-c6cc(S(=O)(=O)[O-])ccc6F)c6nc(c(-c7cc(S(=O)(=O)[O-])ccc7F)c7ccc4[nH]7)C=C6)C=C5)cc3)o2)c(C)cc1Br
REMARK SMILES IDX 15 1 14 2 13 3 11 4 12 5 10 7 9 8 8 9 5 10 6 11 83 12 7 13
REMARK SMILES IDX 4 14 1 15 2 16 3 17 87 18 86 19 88 20 84 21 85 22 16 23
REMARK SMILES IDX 17 24 18 25 19 27 20 28 21 29 82 30 22 31 81 32 23 33 24 34
REMARK SMILES IDX 25 35 75 36 26 37 80 38 74 39 76 40 27 41 79 42 73 43 72 44
REMARK SMILES IDX 28 46 60 47 40 48 59 49 41 50 44 51 58 52 77 53 42 54 43 55
REMARK SMILES IDX 57 57 78 58 45 59 29 60 30 61 38 62 31 63 37 64 39 65 36 66
REMARK SMILES IDX 32 67 33 68 34 69 35 70 61 71 62 72 70 73 63 74 69 75 71 76
REMARK SMILES IDX 68 77 64 78 65 79 66 80 67 81 46 82 47 83 55 84 48 85 54 86
REMARK SMILES IDX 56 87 53 88 49 89 50 90 51 91 52 92
REMARK H PARENT 13 6 17 26 76 45 44 56
REMARK Flexibility Score: inf
ROOT
ATOM      1  C   UNL A   1      36.939  19.929  25.017  1.00  0.00     0.042 C 
ENDROOT
BRANCH   1   2
ATOM      2  C   UNL A   1      35.690  20.805  24.976  1.00  0.00     0.118 C 
BRANCH   2   3
ATOM      3  N   UNL A   1      35.437  21.441  26.258  1.00  0.00    -0.352 N 
ATOM      4  C   UNL A   1      34.492  22.341  26.638  1.00  0.00     0.244 C 
ATOM      5  O   UNL A   1      34.390  22.640  27.826  1.00  0.00    -0.270 OA
ATOM      6  H   UNL A   1      36.057  21.174  26.974  1.00  0.00     0.163 HD
BRANCH   4   7
ATOM      7  C   UNL A   1      33.523  22.900  25.672  1.00  0.00     0.075 C 
ATOM      8  C   UNL A   1      32.589  23.816  25.962  1.00  0.00     0.053 C 
BRANCH   8   9
ATOM      9  C   UNL A   1      31.707  24.291  24.959  1.00  0.00     0.127 A 
ATOM     10  C   UNL A   1      30.551  25.719  23.715  1.00  0.00     0.135 A 
ATOM     11  C   UNL A   1      30.284  24.471  23.204  1.00  0.00     0.051 A 
ATOM     12  O   UNL A   1      31.371  25.614  24.795  1.00  0.00    -0.457 OA
ATOM     13  C   UNL A   1      31.044  23.563  23.978  1.00  0.00     0.051 A 
BRANCH  10  14
ATOM     14  C   UNL A   1      30.159  27.068  23.344  1.00  0.00     0.020 A 
ATOM     15  C   UNL A   1      26.903  29.044  23.293  1.00  0.00     0.045 C 
ATOM     16  C   UNL A   1      28.363  28.727  23.124  1.00  0.00    -0.036 A 
ATOM     17  C   UNL A   1      28.814  27.446  23.488  1.00  0.00     0.016 A 
ATOM     18  C   UNL A   1      29.286  29.621  22.566  1.00  0.00     0.021 A 
ATOM     19  C   UNL A   1      30.630  29.259  22.425  1.00  0.00     0.020 A 
ATOM     20  Br  UNL A   1      28.784  31.349  21.955  1.00  0.00    -0.051 Br
ATOM     21  C   UNL A   1      31.082  27.988  22.810  1.00  0.00    -0.039 A 
ATOM     22  C   UNL A   1      32.538  27.644  22.636  1.00  0.00     0.045 C 
ENDBRANCH  10  14
ENDBRANCH   8   9
ENDBRANCH   4   7
ENDBRANCH   2   3
ENDBRANCH   1   2
BRANCH   1  23
ATOM     23  C   UNL A   1      38.204  20.697  25.385  1.00  0.00     0.118 C 
BRANCH  23  24
ATOM     24  N   UNL A   1      39.280  19.817  25.822  1.00  0.00    -0.352 N 
ATOM     25  C   UNL A   1      40.495  20.122  26.394  1.00  0.00     0.251 C 
ATOM     26  H   UNL A   1      39.112  18.856  25.686  1.00  0.00     0.163 HD
ATOM     27  O   UNL A   1      41.341  19.245  26.508  1.00  0.00    -0.269 OA
BRANCH  25  28
ATOM     28  C   UNL A   1      40.785  21.507  26.832  1.00  0.00     0.039 A 
ATOM     29  C   UNL A   1      40.323  22.603  26.103  1.00  0.00     0.014 A 
ATOM     30  C   UNL A   1      41.533  21.709  27.997  1.00  0.00     0.014 A 
ATOM     31  C   UNL A   1      40.758  23.883  26.430  1.00  0.00     0.010 A 
ATOM     32  C   UNL A   1      41.892  23.007  28.377  1.00  0.00     0.010 A 
ATOM     33  C   UNL A   1      41.555  24.101  27.566  1.00  0.00    -0.014 A 
BRANCH  33  34
ATOM     34  C   UNL A   1      42.022  25.478  27.879  1.00  0.00     0.031 A 
ATOM     35  C   UNL A   1      43.347  25.975  27.369  1.00  0.00     0.074 A 
ATOM     36  C   UNL A   1      41.212  26.307  28.565  1.00  0.00     0.049 A 
ATOM     37  N   UNL A   1      43.887  27.160  27.495  1.00  0.00    -0.248 NA
ATOM     38  C   UNL A   1      44.180  25.017  26.622  1.00  0.00     0.031 C 
ATOM     39  C   UNL A   1      39.900  25.935  29.095  1.00  0.00     0.029 A 
ATOM     40  N   UNL A   1      41.347  27.629  28.906  1.00  0.00    -0.354 N 
ATOM     41  C   UNL A   1      45.116  27.093  26.847  1.00  0.00     0.074 A 
ATOM     42  C   UNL A   1      45.267  25.734  26.376  1.00  0.00     0.031 C 
ATOM     43  C   UNL A   1      39.320  27.018  29.630  1.00  0.00     0.029 A 
ATOM     44  C   UNL A   1      40.246  28.146  29.551  1.00  0.00     0.049 A 
ATOM     45  H   UNL A   1      42.153  28.157  28.709  1.00  0.00     0.167 HD
ATOM     46  C   UNL A   1      46.023  28.079  26.643  1.00  0.00     0.034 A 
ATOM     47  C   UNL A   1      40.004  29.385  30.027  1.00  0.00     0.034 A 
ATOM     48  C   UNL A   1      45.859  29.429  27.122  1.00  0.00     0.049 A 
ATOM     49  C   UNL A   1      41.050  30.452  29.838  1.00  0.00     0.074 A 
ATOM     50  C   UNL A   1      46.726  30.497  26.984  1.00  0.00     0.029 A 
ATOM     51  N   UNL A   1      44.756  29.900  27.822  1.00  0.00    -0.354 N 
ATOM     52  N   UNL A   1      42.201  30.373  29.213  1.00  0.00    -0.248 NA
ATOM     53  C   UNL A   1      40.770  31.773  30.417  1.00  0.00     0.031 C 
ATOM     54  C   UNL A   1      46.175  31.596  27.646  1.00  0.00     0.029 A 
ATOM     55  C   UNL A   1      44.930  31.238  28.138  1.00  0.00     0.049 A 
ATOM     56  H   UNL A   1      43.966  29.362  28.060  1.00  0.00     0.167 HD
ATOM     57  C   UNL A   1      42.778  31.636  29.310  1.00  0.00     0.074 A 
ATOM     58  C   UNL A   1      41.834  32.467  30.031  1.00  0.00     0.031 C 
ATOM     59  C   UNL A   1      43.981  32.063  28.850  1.00  0.00     0.034 A 
BRANCH  46  60
ATOM     60  C   UNL A   1      47.272  27.752  25.859  1.00  0.00     0.023 A 
ATOM     61  C   UNL A   1      47.308  27.940  24.465  1.00  0.00     0.031 A 
ATOM     62  C   UNL A   1      48.391  27.164  26.478  1.00  0.00     0.131 A 
ATOM     63  C   UNL A   1      48.429  27.525  23.733  1.00  0.00     0.055 A 
ATOM     64  C   UNL A   1      49.522  26.789  25.751  1.00  0.00     0.041 A 
ATOM     65  F   UNL A   1      48.409  26.964  27.806  1.00  0.00    -0.206 F 
ATOM     66  C   UNL A   1      49.539  26.959  24.370  1.00  0.00     0.022 A 
BRANCH  63  67
ATOM     67  S   UNL A   1      48.472  27.648  21.925  1.00  0.00     0.124 S 
ATOM     68  O   UNL A   1      48.653  26.251  21.536  1.00  0.00    -0.237 OA
ATOM     69  O   UNL A   1      47.159  28.213  21.625  1.00  0.00    -0.237 OA
ATOM     70  O   UNL A   1      49.610  28.521  21.659  1.00  0.00    -0.744 OA
ENDBRANCH  63  67
ENDBRANCH  46  60
BRANCH  47  71
ATOM     71  C   UNL A   1      38.684  29.665  30.664  1.00  0.00     0.023 A 
ATOM     72  C   UNL A   1      37.709  30.433  30.000  1.00  0.00     0.031 A 
ATOM     73  C   UNL A   1      38.439  29.295  31.996  1.00  0.00     0.131 A 
ATOM     74  C   UNL A   1      36.583  30.884  30.699  1.00  0.00     0.055 A 
ATOM     75  C   UNL A   1      37.276  29.682  32.665  1.00  0.00     0.041 A 
ATOM     76  F   UNL A   1      39.343  28.573  32.675  1.00  0.00    -0.206 F 
ATOM     77  C   UNL A   1      36.351  30.500  32.023  1.00  0.00     0.022 A 
BRANCH  74  78
ATOM     78  S   UNL A   1      35.463  32.109  29.963  1.00  0.00     0.124 S 
ATOM     79  O   UNL A   1      34.948  31.392  28.801  1.00  0.00    -0.237 OA
ATOM     80  O   UNL A   1      34.508  32.325  31.046  1.00  0.00    -0.237 OA
ATOM     81  O   UNL A   1      36.336  33.240  29.670  1.00  0.00    -0.744 OA
ENDBRANCH  74  78
ENDBRANCH  47  71
BRANCH  59  82
ATOM     82  C   UNL A   1      44.382  33.498  29.099  1.00  0.00     0.023 A 
ATOM     83  C   UNL A   1      43.852  34.526  28.295  1.00  0.00     0.031 A 
ATOM     84  C   UNL A   1      45.397  33.825  30.014  1.00  0.00     0.131 A 
ATOM     85  C   UNL A   1      44.372  35.823  28.390  1.00  0.00     0.055 A 
ATOM     86  C   UNL A   1      45.878  35.130  30.138  1.00  0.00     0.041 A 
ATOM     87  F   UNL A   1      45.943  32.878  30.794  1.00  0.00    -0.206 F 
ATOM     88  C   UNL A   1      45.376  36.131  29.313  1.00  0.00     0.022 A 
BRANCH  85  89
ATOM     89  S   UNL A   1      43.831  37.133  27.257  1.00  0.00     0.124 S 
ATOM     90  O   UNL A   1      43.225  38.095  28.175  1.00  0.00    -0.237 OA
ATOM     91  O   UNL A   1      45.093  37.557  26.655  1.00  0.00    -0.237 OA
ATOM     92  O   UNL A   1      42.901  36.461  26.357  1.00  0.00    -0.744 OA
ENDBRANCH  85  89
ENDBRANCH  59  82
ENDBRANCH  33  34
ENDBRANCH  25  28
ENDBRANCH  23  24
ENDBRANCH   1  23
TORSDOF 15
ENDMDL
