MODEL 1
REMARK VINA RESULT:     -12.3      0.000      0.000
REMARK SMILES COc1ccc([C@@H](CC(=O)NCCCNC(=O)c2ccc(-c3c4nc(c(-c5cc(S(=O)(=O)[O-])ccc5F)c5ccc([nH]5)c(-c5cc(S(=O)(=O)[O-])ccc5F)c5nc(c(-c6cc(S(=O)(=O)[O-])ccc6F)c6ccc3[nH]6)C=C5)C=C4)cc2)NC(=O)c2ccc(Cl)c([N+](=O)[O-])c2)cc1
REMARK SMILES IDX 12 1 11 2 9 3 10 4 8 6 7 7 6 8 3 9 4 10 95 11 5 12 94 13
REMARK SMILES IDX 2 14 1 15 81 16 82 17 83 19 84 20 85 21 93 22 86 23 89 24
REMARK SMILES IDX 87 25 88 26 90 27 91 28 92 29 13 30 14 31 15 32 16 33 17 35
REMARK SMILES IDX 18 36 19 37 80 38 20 39 79 40 21 41 22 42 23 43 73 44 24 45
REMARK SMILES IDX 78 46 72 47 74 48 25 49 77 50 71 51 70 52 26 54 58 55 38 56
REMARK SMILES IDX 57 57 39 58 42 59 56 60 75 61 40 62 41 63 55 65 76 66 43 67
REMARK SMILES IDX 27 68 28 69 36 70 29 71 35 72 37 73 34 74 30 75 31 76 32 77
REMARK SMILES IDX 33 78 59 79 60 80 68 81 61 82 67 83 69 84 66 85 62 86 63 87
REMARK SMILES IDX 64 88 65 89 44 90 45 91 53 92 46 93 52 94 54 95 51 96 47 97
REMARK SMILES IDX 48 98 49 99 50 100
REMARK H PARENT 11 5 81 18 15 34 74 53 42 64
REMARK Flexibility Score: inf
ROOT
ATOM      1  C   UNL A   1      33.528  30.073  26.851  1.00  0.00     0.117 C 
ENDROOT
BRANCH   1   2
ATOM      2  N   UNL A   1      32.569  29.294  27.621  1.00  0.00    -0.356 N 
ATOM      3  C   UNL A   1      32.094  28.035  27.401  1.00  0.00     0.222 C 
ATOM      4  O   UNL A   1      31.071  27.693  27.999  1.00  0.00    -0.275 OA
ATOM      5  H   UNL A   1      32.210  29.743  28.420  1.00  0.00     0.163 HD
BRANCH   3   6
ATOM      6  C   UNL A   1      32.830  27.055  26.511  1.00  0.00     0.129 C 
BRANCH   6   7
ATOM      7  C   UNL A   1      31.933  26.097  25.703  1.00  0.00     0.122 C 
BRANCH   7   8
ATOM      8  C   UNL A   1      31.241  26.772  24.527  1.00  0.00    -0.025 A 
ATOM      9  C   UNL A   1      29.990  28.355  22.569  1.00  0.00     0.118 A 
ATOM     10  C   UNL A   1      29.254  27.410  23.279  1.00  0.00     0.047 A 
ATOM     11  C   UNL A   1      31.365  28.461  22.764  1.00  0.00     0.047 A 
ATOM     12  C   UNL A   1      29.878  26.609  24.243  1.00  0.00     0.010 A 
ATOM     13  C   UNL A   1      31.986  27.664  23.728  1.00  0.00     0.010 A 
BRANCH   9  14
ATOM     14  O   UNL A   1      29.294  29.302  21.871  1.00  0.00    -0.497 OA
ATOM     15  C   UNL A   1      28.478  30.125  22.695  1.00  0.00     0.278 C 
ENDBRANCH   9  14
ENDBRANCH   7   8
BRANCH   7  16
ATOM     16  N   UNL A   1      31.027  25.328  26.559  1.00  0.00    -0.345 N 
ATOM     17  C   UNL A   1      30.907  23.973  26.714  1.00  0.00     0.252 C 
ATOM     18  H   UNL A   1      30.411  25.867  27.105  1.00  0.00     0.164 HD
ATOM     19  O   UNL A   1      29.956  23.471  27.300  1.00  0.00    -0.269 OA
BRANCH  17  20
ATOM     20  C   UNL A   1      31.964  23.092  26.183  1.00  0.00     0.046 A 
ATOM     21  C   UNL A   1      33.206  23.045  26.819  1.00  0.00     0.016 A 
ATOM     22  C   UNL A   1      31.721  22.325  25.041  1.00  0.00     0.101 A 
ATOM     23  C   UNL A   1      34.188  22.163  26.356  1.00  0.00     0.028 A 
ATOM     24  C   UNL A   1      32.707  21.433  24.604  1.00  0.00     0.288 A 
ATOM     25  C   UNL A   1      33.939  21.332  25.256  1.00  0.00     0.118 A 
ATOM     26  Cl  UNL A   1      35.162  20.194  24.827  1.00  0.00    -0.077 Cl
BRANCH  24  27
ATOM     27  N   UNL A   1      32.366  20.572  23.488  1.00  0.00     0.064 N 
ATOM     28  O   UNL A   1      32.074  21.105  22.411  1.00  0.00    -0.258 OA
ATOM     29  O   UNL A   1      32.335  19.354  23.718  1.00  0.00    -0.258 OA
ENDBRANCH  24  27
ENDBRANCH  17  20
ENDBRANCH   7  16
ENDBRANCH   6   7
ENDBRANCH   3   6
ENDBRANCH   1   2
BRANCH   1  30
ATOM     30  C   UNL A   1      32.844  31.278  26.216  1.00  0.00     0.042 C 
BRANCH  30  31
ATOM     31  C   UNL A   1      31.905  32.046  27.137  1.00  0.00     0.118 C 
BRANCH  31  32
ATOM     32  N   UNL A   1      32.335  33.421  27.312  1.00  0.00    -0.352 N 
ATOM     33  C   UNL A   1      33.391  33.970  27.999  1.00  0.00     0.251 C 
ATOM     34  H   UNL A   1      31.766  34.081  26.853  1.00  0.00     0.163 HD
ATOM     35  O   UNL A   1      33.340  35.181  28.223  1.00  0.00    -0.269 OA
BRANCH  33  36
ATOM     36  C   UNL A   1      34.573  33.192  28.476  1.00  0.00     0.039 A 
ATOM     37  C   UNL A   1      34.379  32.308  29.549  1.00  0.00     0.014 A 
ATOM     38  C   UNL A   1      35.875  33.393  28.014  1.00  0.00     0.014 A 
ATOM     39  C   UNL A   1      35.462  31.636  30.135  1.00  0.00     0.010 A 
ATOM     40  C   UNL A   1      36.946  32.657  28.542  1.00  0.00     0.010 A 
ATOM     41  C   UNL A   1      36.761  31.790  29.630  1.00  0.00    -0.014 A 
BRANCH  41  42
ATOM     42  C   UNL A   1      37.929  31.108  30.266  1.00  0.00     0.031 A 
ATOM     43  C   UNL A   1      38.337  31.447  31.681  1.00  0.00     0.074 A 
ATOM     44  C   UNL A   1      38.646  30.198  29.575  1.00  0.00     0.049 A 
ATOM     45  N   UNL A   1      39.362  31.021  32.376  1.00  0.00    -0.248 NA
ATOM     46  C   UNL A   1      37.491  32.413  32.397  1.00  0.00     0.031 C 
ATOM     47  C   UNL A   1      38.380  29.782  28.196  1.00  0.00     0.029 A 
ATOM     48  N   UNL A   1      39.750  29.462  29.935  1.00  0.00    -0.354 N 
ATOM     49  C   UNL A   1      39.298  31.684  33.600  1.00  0.00     0.074 A 
ATOM     50  C   UNL A   1      38.161  32.578  33.527  1.00  0.00     0.031 C 
ATOM     51  C   UNL A   1      39.279  28.852  27.837  1.00  0.00     0.029 A 
ATOM     52  C   UNL A   1      40.217  28.639  28.935  1.00  0.00     0.049 A 
ATOM     53  H   UNL A   1      40.167  29.518  30.825  1.00  0.00     0.167 HD
ATOM     54  C   UNL A   1      40.097  31.551  34.690  1.00  0.00     0.034 A 
ATOM     55  C   UNL A   1      41.288  27.819  28.896  1.00  0.00     0.034 A 
ATOM     56  C   UNL A   1      41.213  30.638  34.769  1.00  0.00     0.049 A 
ATOM     57  C   UNL A   1      42.176  27.701  30.110  1.00  0.00     0.074 A 
ATOM     58  C   UNL A   1      42.048  30.387  35.846  1.00  0.00     0.029 A 
ATOM     59  N   UNL A   1      41.657  29.828  33.732  1.00  0.00    -0.354 N 
ATOM     60  N   UNL A   1      42.082  28.315  31.266  1.00  0.00    -0.248 NA
ATOM     61  C   UNL A   1      43.310  26.772  30.014  1.00  0.00     0.031 C 
ATOM     62  C   UNL A   1      43.031  29.476  35.442  1.00  0.00     0.029 A 
ATOM     63  C   UNL A   1      42.768  29.100  34.136  1.00  0.00     0.049 A 
ATOM     64  H   UNL A   1      41.243  29.776  32.841  1.00  0.00     0.167 HD
ATOM     65  C   UNL A   1      43.128  27.824  32.043  1.00  0.00     0.074 A 
ATOM     66  C   UNL A   1      43.831  26.854  31.229  1.00  0.00     0.031 C 
ATOM     67  C   UNL A   1      43.473  28.143  33.317  1.00  0.00     0.034 A 
BRANCH  54  68
ATOM     68  C   UNL A   1      39.807  32.437  35.880  1.00  0.00     0.023 A 
ATOM     69  C   UNL A   1      38.922  32.044  36.899  1.00  0.00     0.031 A 
ATOM     70  C   UNL A   1      40.409  33.704  35.987  1.00  0.00     0.131 A 
ATOM     71  C   UNL A   1      38.603  32.936  37.934  1.00  0.00     0.055 A 
ATOM     72  C   UNL A   1      40.152  34.554  37.065  1.00  0.00     0.041 A 
ATOM     73  F   UNL A   1      41.252  34.143  35.038  1.00  0.00    -0.206 F 
ATOM     74  C   UNL A   1      39.231  34.179  38.038  1.00  0.00     0.022 A 
BRANCH  71  75
ATOM     75  S   UNL A   1      37.248  32.506  39.062  1.00  0.00     0.124 S 
ATOM     76  O   UNL A   1      37.421  31.061  39.192  1.00  0.00    -0.237 OA
ATOM     77  O   UNL A   1      37.561  33.296  40.247  1.00  0.00    -0.237 OA
ATOM     78  O   UNL A   1      36.051  32.919  38.333  1.00  0.00    -0.744 OA
ENDBRANCH  71  75
ENDBRANCH  54  68
BRANCH  55  79
ATOM     79  C   UNL A   1      41.604  27.054  27.655  1.00  0.00     0.023 A 
ATOM     80  C   UNL A   1      41.404  25.666  27.589  1.00  0.00     0.031 A 
ATOM     81  C   UNL A   1      42.156  27.696  26.533  1.00  0.00     0.131 A 
ATOM     82  C   UNL A   1      41.793  24.958  26.440  1.00  0.00     0.055 A 
ATOM     83  C   UNL A   1      42.495  26.995  25.375  1.00  0.00     0.041 A 
ATOM     84  F   UNL A   1      42.364  29.023  26.544  1.00  0.00    -0.206 F 
ATOM     85  C   UNL A   1      42.325  25.615  25.329  1.00  0.00     0.022 A 
BRANCH  82  86
ATOM     86  S   UNL A   1      41.663  23.149  26.450  1.00  0.00     0.124 S 
ATOM     87  O   UNL A   1      42.412  22.802  27.652  1.00  0.00    -0.237 OA
ATOM     88  O   UNL A   1      40.218  22.951  26.512  1.00  0.00    -0.237 OA
ATOM     89  O   UNL A   1      42.288  22.757  25.188  1.00  0.00    -0.744 OA
ENDBRANCH  82  86
ENDBRANCH  55  79
BRANCH  67  90
ATOM     90  C   UNL A   1      44.636  27.396  33.923  1.00  0.00     0.023 A 
ATOM     91  C   UNL A   1      44.509  26.075  34.389  1.00  0.00     0.031 A 
ATOM     92  C   UNL A   1      45.889  28.022  34.047  1.00  0.00     0.131 A 
ATOM     93  C   UNL A   1      45.599  25.443  35.005  1.00  0.00     0.055 A 
ATOM     94  C   UNL A   1      46.987  27.368  34.610  1.00  0.00     0.041 A 
ATOM     95  F   UNL A   1      46.068  29.283  33.620  1.00  0.00    -0.206 F 
ATOM     96  C   UNL A   1      46.842  26.075  35.104  1.00  0.00     0.022 A 
BRANCH  93  97
ATOM     97  S   UNL A   1      45.354  23.809  35.755  1.00  0.00     0.124 S 
ATOM     98  O   UNL A   1      46.413  23.773  36.759  1.00  0.00    -0.237 OA
ATOM     99  O   UNL A   1      43.991  23.904  36.270  1.00  0.00    -0.237 OA
ATOM    100  O   UNL A   1      45.530  22.886  34.636  1.00  0.00    -0.744 OA
ENDBRANCH  93  97
ENDBRANCH  67  90
ENDBRANCH  41  42
ENDBRANCH  33  36
ENDBRANCH  31  32
ENDBRANCH  30  31
ENDBRANCH   1  30
TORSDOF 19
ENDMDL
MODEL 2
REMARK VINA RESULT:     -12.3      1.582      7.506
REMARK SMILES COc1ccc([C@@H](CC(=O)NCCCNC(=O)c2ccc(-c3c4nc(c(-c5cc(S(=O)(=O)[O-])ccc5F)c5ccc([nH]5)c(-c5cc(S(=O)(=O)[O-])ccc5F)c5nc(c(-c6cc(S(=O)(=O)[O-])ccc6F)c6ccc3[nH]6)C=C5)C=C4)cc2)NC(=O)c2ccc(Cl)c([N+](=O)[O-])c2)cc1
REMARK SMILES IDX 12 1 11 2 9 3 10 4 8 6 7 7 6 8 3 9 4 10 95 11 5 12 94 13
REMARK SMILES IDX 2 14 1 15 81 16 82 17 83 19 84 20 85 21 93 22 86 23 89 24
REMARK SMILES IDX 87 25 88 26 90 27 91 28 92 29 13 30 14 31 15 32 16 33 17 35
REMARK SMILES IDX 18 36 19 37 80 38 20 39 79 40 21 41 22 42 23 43 73 44 24 45
REMARK SMILES IDX 78 46 72 47 74 48 25 49 77 50 71 51 70 52 26 54 58 55 38 56
REMARK SMILES IDX 57 57 39 58 42 59 56 60 75 61 40 62 41 63 55 65 76 66 43 67
REMARK SMILES IDX 27 68 28 69 36 70 29 71 35 72 37 73 34 74 30 75 31 76 32 77
REMARK SMILES IDX 33 78 59 79 60 80 68 81 61 82 67 83 69 84 66 85 62 86 63 87
REMARK SMILES IDX 64 88 65 89 44 90 45 91 53 92 46 93 52 94 54 95 51 96 47 97
REMARK SMILES IDX 48 98 49 99 50 100
REMARK H PARENT 11 5 81 18 15 34 74 53 42 64
REMARK Flexibility Score: inf
ROOT
ATOM      1  C   UNL A   1      33.967  29.986  27.139  1.00  0.00     0.117 C 
ENDROOT
BRANCH   1   2
ATOM      2  N   UNL A   1      32.785  29.348  27.702  1.00  0.00    -0.356 N 
ATOM      3  C   UNL A   1      32.191  28.167  27.367  1.00  0.00     0.222 C 
ATOM      4  O   UNL A   1      31.039  27.971  27.760  1.00  0.00    -0.275 OA
ATOM      5  H   UNL A   1      32.350  29.842  28.433  1.00  0.00     0.163 HD
BRANCH   3   6
ATOM      6  C   UNL A   1      32.938  27.094  26.602  1.00  0.00     0.129 C 
BRANCH   6   7
ATOM      7  C   UNL A   1      32.054  26.131  25.786  1.00  0.00     0.122 C 
BRANCH   7   8
ATOM      8  C   UNL A   1      31.388  26.797  24.590  1.00  0.00    -0.025 A 
ATOM      9  C   UNL A   1      30.212  28.372  22.580  1.00  0.00     0.118 A 
ATOM     10  C   UNL A   1      29.425  27.518  23.348  1.00  0.00     0.047 A 
ATOM     11  C   UNL A   1      31.594  28.387  22.744  1.00  0.00     0.047 A 
ATOM     12  C   UNL A   1      30.010  26.720  24.339  1.00  0.00     0.010 A 
ATOM     13  C   UNL A   1      32.177  27.594  23.735  1.00  0.00     0.010 A 
BRANCH   9  14
ATOM     14  O   UNL A   1      29.570  29.332  21.848  1.00  0.00    -0.497 OA
ATOM     15  C   UNL A   1      29.214  30.479  22.610  1.00  0.00     0.278 C 
ENDBRANCH   9  14
ENDBRANCH   7   8
BRANCH   7  16
ATOM     16  N   UNL A   1      31.130  25.373  26.630  1.00  0.00    -0.345 N 
ATOM     17  C   UNL A   1      30.989  24.018  26.779  1.00  0.00     0.252 C 
ATOM     18  H   UNL A   1      30.516  25.919  27.173  1.00  0.00     0.164 HD
ATOM     19  O   UNL A   1      30.026  23.528  27.355  1.00  0.00    -0.269 OA
BRANCH  17  20
ATOM     20  C   UNL A   1      32.038  23.124  26.256  1.00  0.00     0.046 A 
ATOM     21  C   UNL A   1      33.349  23.257  26.717  1.00  0.00     0.016 A 
ATOM     22  C   UNL A   1      31.717  22.165  25.294  1.00  0.00     0.101 A 
ATOM     23  C   UNL A   1      34.334  22.369  26.269  1.00  0.00     0.028 A 
ATOM     24  C   UNL A   1      32.708  21.271  24.873  1.00  0.00     0.288 A 
ATOM     25  C   UNL A   1      34.016  21.353  25.359  1.00  0.00     0.118 A 
ATOM     26  Cl  UNL A   1      35.264  20.232  24.953  1.00  0.00    -0.077 Cl
BRANCH  24  27
ATOM     27  N   UNL A   1      32.301  20.217  23.964  1.00  0.00     0.064 N 
ATOM     28  O   UNL A   1      32.182  19.073  24.417  1.00  0.00    -0.258 OA
ATOM     29  O   UNL A   1      32.157  20.537  22.774  1.00  0.00    -0.258 OA
ENDBRANCH  24  27
ENDBRANCH  17  20
ENDBRANCH   7  16
ENDBRANCH   6   7
ENDBRANCH   3   6
ENDBRANCH   1   2
BRANCH   1  30
ATOM     30  C   UNL A   1      33.655  31.424  26.744  1.00  0.00     0.042 C 
BRANCH  30  31
ATOM     31  C   UNL A   1      32.398  32.009  27.374  1.00  0.00     0.118 C 
BRANCH  31  32
ATOM     32  N   UNL A   1      32.502  33.446  27.538  1.00  0.00    -0.352 N 
ATOM     33  C   UNL A   1      33.208  34.217  28.431  1.00  0.00     0.251 C 
ATOM     34  H   UNL A   1      31.970  33.965  26.892  1.00  0.00     0.163 HD
ATOM     35  O   UNL A   1      32.874  35.400  28.530  1.00  0.00    -0.269 OA
BRANCH  33  36
ATOM     36  C   UNL A   1      34.335  33.707  29.267  1.00  0.00     0.039 A 
ATOM     37  C   UNL A   1      35.634  34.112  28.924  1.00  0.00     0.014 A 
ATOM     38  C   UNL A   1      34.187  32.752  30.275  1.00  0.00     0.014 A 
ATOM     39  C   UNL A   1      36.753  33.580  29.580  1.00  0.00     0.010 A 
ATOM     40  C   UNL A   1      35.299  32.284  30.990  1.00  0.00     0.010 A 
ATOM     41  C   UNL A   1      36.601  32.667  30.634  1.00  0.00    -0.014 A 
BRANCH  41  42
ATOM     42  C   UNL A   1      37.785  32.066  31.319  1.00  0.00     0.031 A 
ATOM     43  C   UNL A   1      38.561  30.946  30.666  1.00  0.00     0.074 A 
ATOM     44  C   UNL A   1      38.161  32.502  32.539  1.00  0.00     0.049 A 
ATOM     45  N   UNL A   1      39.565  30.246  31.133  1.00  0.00    -0.248 NA
ATOM     46  C   UNL A   1      38.130  30.545  29.319  1.00  0.00     0.031 C 
ATOM     47  C   UNL A   1      37.499  33.564  33.298  1.00  0.00     0.029 A 
ATOM     48  N   UNL A   1      39.189  32.101  33.360  1.00  0.00    -0.354 N 
ATOM     49  C   UNL A   1      39.870  29.308  30.149  1.00  0.00     0.074 A 
ATOM     50  C   UNL A   1      38.908  29.499  29.083  1.00  0.00     0.031 C 
ATOM     51  C   UNL A   1      38.148  33.745  34.459  1.00  0.00     0.029 A 
ATOM     52  C   UNL A   1      39.241  32.782  34.555  1.00  0.00     0.049 A 
ATOM     53  H   UNL A   1      39.828  31.394  33.115  1.00  0.00     0.167 HD
ATOM     54  C   UNL A   1      40.867  28.386  30.123  1.00  0.00     0.034 A 
ATOM     55  C   UNL A   1      40.062  32.638  35.617  1.00  0.00     0.034 A 
ATOM     56  C   UNL A   1      41.842  28.217  31.174  1.00  0.00     0.049 A 
ATOM     57  C   UNL A   1      41.150  31.594  35.577  1.00  0.00     0.074 A 
ATOM     58  C   UNL A   1      42.924  27.353  31.218  1.00  0.00     0.029 A 
ATOM     59  N   UNL A   1      41.856  28.923  32.371  1.00  0.00    -0.354 N 
ATOM     60  N   UNL A   1      41.438  30.736  34.626  1.00  0.00    -0.248 NA
ATOM     61  C   UNL A   1      42.026  31.505  36.752  1.00  0.00     0.031 C 
ATOM     62  C   UNL A   1      43.551  27.490  32.462  1.00  0.00     0.029 A 
ATOM     63  C   UNL A   1      42.907  28.491  33.168  1.00  0.00     0.049 A 
ATOM     64  H   UNL A   1      41.213  29.626  32.618  1.00  0.00     0.167 HD
ATOM     65  C   UNL A   1      42.548  30.027  35.079  1.00  0.00     0.074 A 
ATOM     66  C   UNL A   1      42.883  30.566  36.381  1.00  0.00     0.031 C 
ATOM     67  C   UNL A   1      43.231  29.024  34.470  1.00  0.00     0.034 A 
BRANCH  54  68
ATOM     68  C   UNL A   1      40.935  27.467  28.924  1.00  0.00     0.023 A 
ATOM     69  C   UNL A   1      41.901  27.633  27.917  1.00  0.00     0.031 A 
ATOM     70  C   UNL A   1      40.007  26.420  28.777  1.00  0.00     0.131 A 
ATOM     71  C   UNL A   1      41.868  26.821  26.772  1.00  0.00     0.055 A 
ATOM     72  C   UNL A   1      40.031  25.562  27.676  1.00  0.00     0.041 A 
ATOM     73  F   UNL A   1      39.051  26.220  29.698  1.00  0.00    -0.206 F 
ATOM     74  C   UNL A   1      40.955  25.770  26.657  1.00  0.00     0.022 A 
BRANCH  71  75
ATOM     75  S   UNL A   1      42.941  27.250  25.374  1.00  0.00     0.124 S 
ATOM     76  O   UNL A   1      42.990  25.986  24.642  1.00  0.00    -0.237 OA
ATOM     77  O   UNL A   1      42.203  28.332  24.731  1.00  0.00    -0.237 OA
ATOM     78  O   UNL A   1      44.196  27.642  26.011  1.00  0.00    -0.744 OA
ENDBRANCH  71  75
ENDBRANCH  54  68
BRANCH  55  79
ATOM     79  C   UNL A   1      39.879  33.489  36.828  1.00  0.00     0.023 A 
ATOM     80  C   UNL A   1      39.258  32.985  37.981  1.00  0.00     0.031 A 
ATOM     81  C   UNL A   1      40.282  34.837  36.830  1.00  0.00     0.131 A 
ATOM     82  C   UNL A   1      39.020  33.833  39.075  1.00  0.00     0.055 A 
ATOM     83  C   UNL A   1      40.087  35.662  37.938  1.00  0.00     0.041 A 
ATOM     84  F   UNL A   1      40.884  35.367  35.753  1.00  0.00    -0.206 F 
ATOM     85  C   UNL A   1      39.441  35.164  39.065  1.00  0.00     0.022 A 
BRANCH  82  86
ATOM     86  S   UNL A   1      38.078  33.188  40.485  1.00  0.00     0.124 S 
ATOM     87  O   UNL A   1      38.295  34.226  41.487  1.00  0.00    -0.237 OA
ATOM     88  O   UNL A   1      36.731  33.098  39.932  1.00  0.00    -0.237 OA
ATOM     89  O   UNL A   1      38.722  31.906  40.764  1.00  0.00    -0.744 OA
ENDBRANCH  82  86
ENDBRANCH  55  79
BRANCH  67  90
ATOM     90  C   UNL A   1      44.441  28.480  35.190  1.00  0.00     0.023 A 
ATOM     91  C   UNL A   1      44.363  27.350  36.023  1.00  0.00     0.031 A 
ATOM     92  C   UNL A   1      45.690  29.111  35.047  1.00  0.00     0.131 A 
ATOM     93  C   UNL A   1      45.499  26.919  36.725  1.00  0.00     0.055 A 
ATOM     94  C   UNL A   1      46.830  28.644  35.704  1.00  0.00     0.041 A 
ATOM     95  F   UNL A   1      45.823  30.195  34.265  1.00  0.00    -0.206 F 
ATOM     96  C   UNL A   1      46.736  27.549  36.557  1.00  0.00     0.022 A 
BRANCH  93  97
ATOM     97  S   UNL A   1      45.326  25.572  37.928  1.00  0.00     0.124 S 
ATOM     98  O   UNL A   1      46.041  24.482  37.270  1.00  0.00    -0.237 OA
ATOM     99  O   UNL A   1      45.968  26.129  39.114  1.00  0.00    -0.237 OA
ATOM    100  O   UNL A   1      43.880  25.388  38.034  1.00  0.00    -0.744 OA
ENDBRANCH  93  97
ENDBRANCH  67  90
ENDBRANCH  41  42
ENDBRANCH  33  36
ENDBRANCH  31  32
ENDBRANCH  30  31
ENDBRANCH   1  30
TORSDOF 19
ENDMDL
MODEL 3
REMARK VINA RESULT:     -11.9      4.576      9.490
REMARK SMILES COc1ccc([C@@H](CC(=O)NCCCNC(=O)c2ccc(-c3c4nc(c(-c5cc(S(=O)(=O)[O-])ccc5F)c5ccc([nH]5)c(-c5cc(S(=O)(=O)[O-])ccc5F)c5nc(c(-c6cc(S(=O)(=O)[O-])ccc6F)c6ccc3[nH]6)C=C5)C=C4)cc2)NC(=O)c2ccc(Cl)c([N+](=O)[O-])c2)cc1
REMARK SMILES IDX 12 1 11 2 9 3 10 4 8 6 7 7 6 8 3 9 4 10 95 11 5 12 94 13
REMARK SMILES IDX 2 14 1 15 81 16 82 17 83 19 84 20 85 21 93 22 86 23 89 24
REMARK SMILES IDX 87 25 88 26 90 27 91 28 92 29 13 30 14 31 15 32 16 33 17 35
REMARK SMILES IDX 18 36 19 37 80 38 20 39 79 40 21 41 22 42 23 43 73 44 24 45
REMARK SMILES IDX 78 46 72 47 74 48 25 49 77 50 71 51 70 52 26 54 58 55 38 56
REMARK SMILES IDX 57 57 39 58 42 59 56 60 75 61 40 62 41 63 55 65 76 66 43 67
REMARK SMILES IDX 27 68 28 69 36 70 29 71 35 72 37 73 34 74 30 75 31 76 32 77
REMARK SMILES IDX 33 78 59 79 60 80 68 81 61 82 67 83 69 84 66 85 62 86 63 87
REMARK SMILES IDX 64 88 65 89 44 90 45 91 53 92 46 93 52 94 54 95 51 96 47 97
REMARK SMILES IDX 48 98 49 99 50 100
REMARK H PARENT 11 5 81 18 15 34 74 53 42 64
REMARK Flexibility Score: inf
ROOT
ATOM      1  C   UNL A   1      34.928  23.245  23.403  1.00  0.00     0.117 C 
ENDROOT
BRANCH   1   2
ATOM      2  N   UNL A   1      33.753  22.426  23.138  1.00  0.00    -0.356 N 
ATOM      3  C   UNL A   1      32.432  22.758  23.189  1.00  0.00     0.222 C 
ATOM      4  O   UNL A   1      31.609  21.840  23.227  1.00  0.00    -0.275 OA
ATOM      5  H   UNL A   1      33.941  21.494  22.886  1.00  0.00     0.163 HD
BRANCH   3   6
ATOM      6  C   UNL A   1      31.975  24.201  23.126  1.00  0.00     0.129 C 
BRANCH   6   7
ATOM      7  C   UNL A   1      30.546  24.462  23.640  1.00  0.00     0.122 C 
BRANCH   7   8
ATOM      8  C   UNL A   1      30.096  25.905  23.451  1.00  0.00    -0.025 A 
ATOM      9  C   UNL A   1      29.013  28.423  22.828  1.00  0.00     0.118 A 
ATOM     10  C   UNL A   1      30.321  28.115  22.463  1.00  0.00     0.047 A 
ATOM     11  C   UNL A   1      28.265  27.520  23.578  1.00  0.00     0.047 A 
ATOM     12  C   UNL A   1      30.868  26.868  22.786  1.00  0.00     0.010 A 
ATOM     13  C   UNL A   1      28.810  26.274  23.898  1.00  0.00     0.010 A 
BRANCH   9  14
ATOM     14  O   UNL A   1      28.434  29.513  22.239  1.00  0.00    -0.497 OA
ATOM     15  C   UNL A   1      29.377  30.431  21.701  1.00  0.00     0.278 C 
ENDBRANCH   9  14
ENDBRANCH   7   8
BRANCH   7  16
ATOM     16  N   UNL A   1      30.338  23.952  24.996  1.00  0.00    -0.345 N 
ATOM     17  C   UNL A   1      31.013  24.238  26.153  1.00  0.00     0.252 C 
ATOM     18  H   UNL A   1      29.603  23.304  25.090  1.00  0.00     0.164 HD
ATOM     19  O   UNL A   1      30.869  23.569  27.168  1.00  0.00    -0.269 OA
BRANCH  17  20
ATOM     20  C   UNL A   1      31.920  25.400  26.188  1.00  0.00     0.046 A 
ATOM     21  C   UNL A   1      33.293  25.208  26.023  1.00  0.00     0.016 A 
ATOM     22  C   UNL A   1      31.402  26.679  26.400  1.00  0.00     0.101 A 
ATOM     23  C   UNL A   1      34.148  26.315  25.992  1.00  0.00     0.028 A 
ATOM     24  C   UNL A   1      32.268  27.778  26.345  1.00  0.00     0.288 A 
ATOM     25  C   UNL A   1      33.639  27.613  26.131  1.00  0.00     0.118 A 
ATOM     26  Cl  UNL A   1      34.749  28.923  25.962  1.00  0.00    -0.077 Cl
BRANCH  24  27
ATOM     27  N   UNL A   1      31.669  29.093  26.451  1.00  0.00     0.064 N 
ATOM     28  O   UNL A   1      31.331  29.665  25.408  1.00  0.00    -0.258 OA
ATOM     29  O   UNL A   1      31.594  29.577  27.591  1.00  0.00    -0.258 OA
ENDBRANCH  24  27
ENDBRANCH  17  20
ENDBRANCH   7  16
ENDBRANCH   6   7
ENDBRANCH   3   6
ENDBRANCH   1   2
BRANCH   1  30
ATOM     30  C   UNL A   1      36.006  22.418  24.094  1.00  0.00     0.042 C 
BRANCH  30  31
ATOM     31  C   UNL A   1      37.165  23.221  24.670  1.00  0.00     0.118 C 
BRANCH  31  32
ATOM     32  N   UNL A   1      38.071  22.380  25.429  1.00  0.00    -0.352 N 
ATOM     33  C   UNL A   1      39.134  22.684  26.246  1.00  0.00     0.251 C 
ATOM     34  H   UNL A   1      37.892  21.416  25.343  1.00  0.00     0.163 HD
ATOM     35  O   UNL A   1      39.907  21.763  26.519  1.00  0.00    -0.269 OA
BRANCH  33  36
ATOM     36  C   UNL A   1      39.394  24.042  26.810  1.00  0.00     0.039 A 
ATOM     37  C   UNL A   1      40.024  24.981  25.979  1.00  0.00     0.014 A 
ATOM     38  C   UNL A   1      39.174  24.385  28.145  1.00  0.00     0.014 A 
ATOM     39  C   UNL A   1      40.414  26.234  26.473  1.00  0.00     0.010 A 
ATOM     40  C   UNL A   1      39.485  25.669  28.617  1.00  0.00     0.010 A 
ATOM     41  C   UNL A   1      40.137  26.603  27.797  1.00  0.00    -0.014 A 
BRANCH  41  42
ATOM     42  C   UNL A   1      40.577  27.921  28.347  1.00  0.00     0.031 A 
ATOM     43  C   UNL A   1      42.047  28.228  28.515  1.00  0.00     0.074 A 
ATOM     44  C   UNL A   1      39.666  28.843  28.720  1.00  0.00     0.049 A 
ATOM     45  N   UNL A   1      42.623  29.280  29.043  1.00  0.00    -0.248 NA
ATOM     46  C   UNL A   1      42.992  27.202  28.051  1.00  0.00     0.031 C 
ATOM     47  C   UNL A   1      38.214  28.680  28.630  1.00  0.00     0.029 A 
ATOM     48  N   UNL A   1      39.825  30.099  29.256  1.00  0.00    -0.354 N 
ATOM     49  C   UNL A   1      43.993  29.032  28.996  1.00  0.00     0.074 A 
ATOM     50  C   UNL A   1      44.154  27.707  28.435  1.00  0.00     0.031 C 
ATOM     51  C   UNL A   1      37.618  29.799  29.073  1.00  0.00     0.029 A 
ATOM     52  C   UNL A   1      38.638  30.741  29.525  1.00  0.00     0.049 A 
ATOM     53  H   UNL A   1      40.706  30.502  29.429  1.00  0.00     0.167 HD
ATOM     54  C   UNL A   1      45.023  29.836  29.367  1.00  0.00     0.034 A 
ATOM     55  C   UNL A   1      38.392  31.942  30.090  1.00  0.00     0.034 A 
ATOM     56  C   UNL A   1      44.859  31.168  29.900  1.00  0.00     0.049 A 
ATOM     57  C   UNL A   1      39.550  32.812  30.514  1.00  0.00     0.074 A 
ATOM     58  C   UNL A   1      45.838  32.083  30.251  1.00  0.00     0.029 A 
ATOM     59  N   UNL A   1      43.639  31.778  30.164  1.00  0.00    -0.354 N 
ATOM     60  N   UNL A   1      40.838  32.570  30.435  1.00  0.00    -0.248 NA
ATOM     61  C   UNL A   1      39.218  34.118  31.097  1.00  0.00     0.031 C 
ATOM     62  C   UNL A   1      45.213  33.217  30.785  1.00  0.00     0.029 A 
ATOM     63  C   UNL A   1      43.843  33.042  30.699  1.00  0.00     0.049 A 
ATOM     64  H   UNL A   1      42.758  31.373  29.995  1.00  0.00     0.167 HD
ATOM     65  C   UNL A   1      41.468  33.709  30.932  1.00  0.00     0.074 A 
ATOM     66  C   UNL A   1      40.420  34.640  31.295  1.00  0.00     0.031 C 
ATOM     67  C   UNL A   1      42.794  33.962  31.070  1.00  0.00     0.034 A 
BRANCH  54  68
ATOM     68  C   UNL A   1      46.423  29.282  29.232  1.00  0.00     0.023 A 
ATOM     69  C   UNL A   1      47.107  29.287  28.004  1.00  0.00     0.031 A 
ATOM     70  C   UNL A   1      47.076  28.723  30.346  1.00  0.00     0.131 A 
ATOM     71  C   UNL A   1      48.366  28.673  27.901  1.00  0.00     0.055 A 
ATOM     72  C   UNL A   1      48.363  28.189  30.254  1.00  0.00     0.041 A 
ATOM     73  F   UNL A   1      46.469  28.675  31.542  1.00  0.00    -0.206 F 
ATOM     74  C   UNL A   1      49.009  28.146  29.023  1.00  0.00     0.022 A 
BRANCH  71  75
ATOM     75  S   UNL A   1      49.084  28.444  26.250  1.00  0.00     0.124 S 
ATOM     76  O   UNL A   1      47.907  28.583  25.395  1.00  0.00    -0.237 OA
ATOM     77  O   UNL A   1      50.058  29.527  26.177  1.00  0.00    -0.237 OA
ATOM     78  O   UNL A   1      49.649  27.098  26.306  1.00  0.00    -0.744 OA
ENDBRANCH  71  75
ENDBRANCH  54  68
BRANCH  55  79
ATOM     79  C   UNL A   1      36.989  32.396  30.312  1.00  0.00     0.023 A 
ATOM     80  C   UNL A   1      36.277  33.067  29.307  1.00  0.00     0.031 A 
ATOM     81  C   UNL A   1      36.357  32.204  31.554  1.00  0.00     0.131 A 
ATOM     82  C   UNL A   1      34.989  33.561  29.573  1.00  0.00     0.055 A 
ATOM     83  C   UNL A   1      35.059  32.653  31.798  1.00  0.00     0.041 A 
ATOM     84  F   UNL A   1      36.995  31.564  32.548  1.00  0.00    -0.206 F 
ATOM     85  C   UNL A   1      34.372  33.347  30.807  1.00  0.00     0.022 A 
BRANCH  82  86
ATOM     86  S   UNL A   1      34.161  34.556  28.302  1.00  0.00     0.124 S 
ATOM     87  O   UNL A   1      35.072  34.415  27.173  1.00  0.00    -0.237 OA
ATOM     88  O   UNL A   1      32.874  33.879  28.180  1.00  0.00    -0.237 OA
ATOM     89  O   UNL A   1      34.106  35.890  28.899  1.00  0.00    -0.744 OA
ENDBRANCH  82  86
ENDBRANCH  55  79
BRANCH  67  90
ATOM     90  C   UNL A   1      43.184  35.323  31.594  1.00  0.00     0.023 A 
ATOM     91  C   UNL A   1      43.528  36.380  30.732  1.00  0.00     0.031 A 
ATOM     92  C   UNL A   1      43.223  35.562  32.980  1.00  0.00     0.131 A 
ATOM     93  C   UNL A   1      43.947  37.609  31.265  1.00  0.00     0.055 A 
ATOM     94  C   UNL A   1      43.587  36.804  33.504  1.00  0.00     0.041 A 
ATOM     95  F   UNL A   1      42.906  34.589  33.850  1.00  0.00    -0.206 F 
ATOM     96  C   UNL A   1      43.964  37.832  32.645  1.00  0.00     0.022 A 
BRANCH  93  97
ATOM     97  S   UNL A   1      44.555  38.891  30.134  1.00  0.00     0.124 S 
ATOM     98  O   UNL A   1      45.236  38.099  29.114  1.00  0.00    -0.237 OA
ATOM     99  O   UNL A   1      43.320  39.545  29.713  1.00  0.00    -0.237 OA
ATOM    100  O   UNL A   1      45.431  39.704  30.974  1.00  0.00    -0.744 OA
ENDBRANCH  93  97
ENDBRANCH  67  90
ENDBRANCH  41  42
ENDBRANCH  33  36
ENDBRANCH  31  32
ENDBRANCH  30  31
ENDBRANCH   1  30
TORSDOF 19
ENDMDL
