MODEL 1
REMARK VINA RESULT:     -10.9      0.000      0.000
REMARK SMILES [NH3+][C@H](Cc1ccc(O)c(F)c1)C(=O)NCCCNC(=O)c1ccc(-c2c3nc(c(-c4cc(S(=O)(=O)[O-])ccc4F)c4ccc([nH]4)c(-c4cc(S(=O)(=O)[O-])ccc4F)c4nc(c(-c5cc(S(=O)(=O)[O-])ccc5F)c5ccc2[nH]5)C=C4)C=C3)cc1
REMARK SMILES IDX 16 1 15 2 14 3 12 4 13 5 2 7 1 8 3 12 4 13 5 14 11 15 6 16
REMARK SMILES IDX 9 17 7 18 10 19 8 20 17 22 18 23 19 24 20 26 21 27 22 28
REMARK SMILES IDX 83 29 23 30 82 31 24 32 25 33 26 34 76 35 27 36 81 37 75 38
REMARK SMILES IDX 77 39 28 40 80 41 74 42 73 43 29 45 61 46 41 47 60 48 42 49
REMARK SMILES IDX 45 50 59 51 78 52 43 53 44 54 58 56 79 57 46 58 30 59 31 60
REMARK SMILES IDX 39 61 32 62 38 63 40 64 37 65 33 66 34 67 35 68 36 69 62 70
REMARK SMILES IDX 63 71 71 72 64 73 70 74 72 75 69 76 65 77 66 78 67 79 68 80
REMARK SMILES IDX 47 81 48 82 56 83 49 84 55 85 57 86 54 87 50 88 51 89 52 90
REMARK SMILES IDX 53 91
REMARK H PARENT 14 6 1 9 1 10 1 11 8 21 18 25 77 44 45 55
REMARK Flexibility Score: inf
ROOT
ATOM      1  C   UNL A   1      42.120  20.184  27.408  1.00  0.00     0.042 C 
ENDROOT
BRANCH   1   2
ATOM      2  C   UNL A   1      42.128  19.196  26.249  1.00  0.00     0.118 C 
BRANCH   2   3
ATOM      3  N   UNL A   1      43.452  18.625  26.084  1.00  0.00    -0.351 N 
ATOM      4  C   UNL A   1      44.537  18.986  25.351  1.00  0.00     0.278 C 
ATOM      5  O   UNL A   1      45.427  18.130  25.251  1.00  0.00    -0.268 OA
ATOM      6  H   UNL A   1      43.594  17.807  26.613  1.00  0.00     0.163 HD
BRANCH   4   7
ATOM      7  C   UNL A   1      44.725  20.372  24.688  1.00  0.00     0.275 C 
BRANCH   7   8
ATOM      8  N   UNL A   1      44.825  20.261  23.221  1.00  0.00    -0.347 N 
ATOM      9  H   UNL A   1      45.136  21.151  22.833  1.00  0.00     0.345 HD
ATOM     10  H   UNL A   1      43.912  20.022  22.836  1.00  0.00     0.345 HD
ATOM     11  H   UNL A   1      45.497  19.532  22.981  1.00  0.00     0.345 HD
ENDBRANCH   7   8
BRANCH   7  12
ATOM     12  C   UNL A   1      45.637  21.388  25.422  1.00  0.00     0.111 C 
BRANCH  12  13
ATOM     13  C   UNL A   1      45.442  22.887  25.353  1.00  0.00    -0.038 A 
ATOM     14  C   UNL A   1      46.571  23.720  25.501  1.00  0.00     0.008 A 
ATOM     15  C   UNL A   1      44.197  23.510  25.196  1.00  0.00     0.047 A 
ATOM     16  C   UNL A   1      46.481  25.112  25.355  1.00  0.00     0.049 A 
ATOM     17  C   UNL A   1      44.111  24.893  25.028  1.00  0.00     0.165 A 
ATOM     18  C   UNL A   1      45.250  25.690  25.075  1.00  0.00     0.151 A 
ATOM     19  F   UNL A   1      42.911  25.432  24.769  1.00  0.00    -0.203 F 
BRANCH  18  20
ATOM     20  O   UNL A   1      45.141  27.026  24.824  1.00  0.00    -0.505 OA
ATOM     21  H   UNL A   1      45.552  27.644  25.395  1.00  0.00     0.293 HD
ENDBRANCH  18  20
ENDBRANCH  12  13
ENDBRANCH   7  12
ENDBRANCH   4   7
ENDBRANCH   2   3
ENDBRANCH   1   2
BRANCH   1  22
ATOM     22  C   UNL A   1      41.473  21.530  27.140  1.00  0.00     0.118 C 
BRANCH  22  23
ATOM     23  N   UNL A   1      40.123  21.461  26.605  1.00  0.00    -0.352 N 
ATOM     24  C   UNL A   1      39.178  22.446  26.401  1.00  0.00     0.251 C 
ATOM     25  H   UNL A   1      39.834  20.557  26.344  1.00  0.00     0.163 HD
ATOM     26  O   UNL A   1      38.099  22.129  25.913  1.00  0.00    -0.269 OA
BRANCH  24  27
ATOM     27  C   UNL A   1      39.419  23.859  26.801  1.00  0.00     0.039 A 
ATOM     28  C   UNL A   1      39.140  24.238  28.121  1.00  0.00     0.014 A 
ATOM     29  C   UNL A   1      39.906  24.816  25.913  1.00  0.00     0.014 A 
ATOM     30  C   UNL A   1      39.437  25.535  28.563  1.00  0.00     0.010 A 
ATOM     31  C   UNL A   1      40.306  26.067  26.380  1.00  0.00     0.010 A 
ATOM     32  C   UNL A   1      40.076  26.445  27.711  1.00  0.00    -0.014 A 
BRANCH  32  33
ATOM     33  C   UNL A   1      40.504  27.803  28.154  1.00  0.00     0.031 A 
ATOM     34  C   UNL A   1      41.974  28.111  28.292  1.00  0.00     0.074 A 
ATOM     35  C   UNL A   1      39.588  28.714  28.543  1.00  0.00     0.049 A 
ATOM     36  N   UNL A   1      42.561  29.128  28.870  1.00  0.00    -0.248 NA
ATOM     37  C   UNL A   1      42.905  27.112  27.745  1.00  0.00     0.031 C 
ATOM     38  C   UNL A   1      38.136  28.539  28.476  1.00  0.00     0.029 A 
ATOM     39  N   UNL A   1      39.743  29.962  29.098  1.00  0.00    -0.354 N 
ATOM     40  C   UNL A   1      43.927  28.873  28.790  1.00  0.00     0.074 A 
ATOM     41  C   UNL A   1      44.073  27.578  28.158  1.00  0.00     0.031 C 
ATOM     42  C   UNL A   1      37.536  29.639  28.959  1.00  0.00     0.029 A 
ATOM     43  C   UNL A   1      38.554  30.574  29.428  1.00  0.00     0.049 A 
ATOM     44  H   UNL A   1      40.622  30.380  29.244  1.00  0.00     0.167 HD
ATOM     45  C   UNL A   1      44.963  29.653  29.187  1.00  0.00     0.034 A 
ATOM     46  C   UNL A   1      38.311  31.739  30.061  1.00  0.00     0.034 A 
ATOM     47  C   UNL A   1      44.800  30.957  29.782  1.00  0.00     0.049 A 
ATOM     48  C   UNL A   1      39.476  32.586  30.510  1.00  0.00     0.074 A 
ATOM     49  C   UNL A   1      45.777  31.856  30.173  1.00  0.00     0.029 A 
ATOM     50  N   UNL A   1      43.578  31.551  30.071  1.00  0.00    -0.354 N 
ATOM     51  N   UNL A   1      40.761  32.337  30.412  1.00  0.00    -0.248 NA
ATOM     52  C   UNL A   1      39.158  33.871  31.147  1.00  0.00     0.031 C 
ATOM     53  C   UNL A   1      45.150  32.963  30.753  1.00  0.00     0.029 A 
ATOM     54  C   UNL A   1      43.779  32.793  30.653  1.00  0.00     0.049 A 
ATOM     55  H   UNL A   1      42.698  31.149  29.888  1.00  0.00     0.167 HD
ATOM     56  C   UNL A   1      41.404  33.456  30.934  1.00  0.00     0.074 A 
ATOM     57  C   UNL A   1      40.366  34.377  31.349  1.00  0.00     0.031 C 
ATOM     58  C   UNL A   1      42.733  33.705  31.052  1.00  0.00     0.034 A 
BRANCH  45  59
ATOM     59  C   UNL A   1      46.359  29.101  29.013  1.00  0.00     0.023 A 
ATOM     60  C   UNL A   1      46.998  29.086  27.761  1.00  0.00     0.031 A 
ATOM     61  C   UNL A   1      47.051  28.552  30.108  1.00  0.00     0.131 A 
ATOM     62  C   UNL A   1      48.244  28.457  27.616  1.00  0.00     0.055 A 
ATOM     63  C   UNL A   1      48.331  28.010  29.976  1.00  0.00     0.041 A 
ATOM     64  F   UNL A   1      46.487  28.519  31.326  1.00  0.00    -0.206 F 
ATOM     65  C   UNL A   1      48.928  27.944  28.720  1.00  0.00     0.022 A 
BRANCH  62  66
ATOM     66  S   UNL A   1      48.882  28.181  25.941  1.00  0.00     0.124 S 
ATOM     67  O   UNL A   1      49.929  29.196  25.856  1.00  0.00    -0.237 OA
ATOM     68  O   UNL A   1      49.337  26.797  26.001  1.00  0.00    -0.237 OA
ATOM     69  O   UNL A   1      47.721  28.421  25.087  1.00  0.00    -0.744 OA
ENDBRANCH  62  66
ENDBRANCH  45  59
BRANCH  46  70
ATOM     70  C   UNL A   1      36.908  32.175  30.326  1.00  0.00     0.023 A 
ATOM     71  C   UNL A   1      36.094  32.654  29.289  1.00  0.00     0.031 A 
ATOM     72  C   UNL A   1      36.373  32.154  31.627  1.00  0.00     0.131 A 
ATOM     73  C   UNL A   1      34.807  33.137  29.573  1.00  0.00     0.055 A 
ATOM     74  C   UNL A   1      35.073  32.586  31.898  1.00  0.00     0.041 A 
ATOM     75  F   UNL A   1      37.105  31.697  32.656  1.00  0.00    -0.206 F 
ATOM     76  C   UNL A   1      34.287  33.095  30.869  1.00  0.00     0.022 A 
BRANCH  73  77
ATOM     77  S   UNL A   1      33.853  33.904  28.234  1.00  0.00     0.124 S 
ATOM     78  O   UNL A   1      33.195  32.746  27.641  1.00  0.00    -0.237 OA
ATOM     79  O   UNL A   1      32.994  34.827  28.967  1.00  0.00    -0.237 OA
ATOM     80  O   UNL A   1      34.879  34.533  27.405  1.00  0.00    -0.744 OA
ENDBRANCH  73  77
ENDBRANCH  46  70
BRANCH  58  81
ATOM     81  C   UNL A   1      43.142  35.057  31.579  1.00  0.00     0.023 A 
ATOM     82  C   UNL A   1      43.124  35.362  32.949  1.00  0.00     0.031 A 
ATOM     83  C   UNL A   1      43.581  36.050  30.684  1.00  0.00     0.131 A 
ATOM     84  C   UNL A   1      43.500  36.642  33.384  1.00  0.00     0.055 A 
ATOM     85  C   UNL A   1      44.004  37.303  31.125  1.00  0.00     0.041 A 
ATOM     86  F   UNL A   1      43.617  35.810  29.363  1.00  0.00    -0.206 F 
ATOM     87  C   UNL A   1      43.957  37.608  32.482  1.00  0.00     0.022 A 
BRANCH  84  88
ATOM     88  S   UNL A   1      43.330  37.054  35.142  1.00  0.00     0.124 S 
ATOM     89  O   UNL A   1      44.217  36.078  35.768  1.00  0.00    -0.237 OA
ATOM     90  O   UNL A   1      43.780  38.441  35.185  1.00  0.00    -0.237 OA
ATOM     91  O   UNL A   1      41.906  36.856  35.405  1.00  0.00    -0.744 OA
ENDBRANCH  84  88
ENDBRANCH  58  81
ENDBRANCH  32  33
ENDBRANCH  24  27
ENDBRANCH  22  23
ENDBRANCH   1  22
TORSDOF 17
ENDMDL
MODEL 2
REMARK VINA RESULT:     -10.8      3.886     12.166
REMARK SMILES [NH3+][C@H](Cc1ccc(O)c(F)c1)C(=O)NCCCNC(=O)c1ccc(-c2c3nc(c(-c4cc(S(=O)(=O)[O-])ccc4F)c4ccc([nH]4)c(-c4cc(S(=O)(=O)[O-])ccc4F)c4nc(c(-c5cc(S(=O)(=O)[O-])ccc5F)c5ccc2[nH]5)C=C4)C=C3)cc1
REMARK SMILES IDX 16 1 15 2 14 3 12 4 13 5 2 7 1 8 3 12 4 13 5 14 11 15 6 16
REMARK SMILES IDX 9 17 7 18 10 19 8 20 17 22 18 23 19 24 20 26 21 27 22 28
REMARK SMILES IDX 83 29 23 30 82 31 24 32 25 33 26 34 76 35 27 36 81 37 75 38
REMARK SMILES IDX 77 39 28 40 80 41 74 42 73 43 29 45 61 46 41 47 60 48 42 49
REMARK SMILES IDX 45 50 59 51 78 52 43 53 44 54 58 56 79 57 46 58 30 59 31 60
REMARK SMILES IDX 39 61 32 62 38 63 40 64 37 65 33 66 34 67 35 68 36 69 62 70
REMARK SMILES IDX 63 71 71 72 64 73 70 74 72 75 69 76 65 77 66 78 67 79 68 80
REMARK SMILES IDX 47 81 48 82 56 83 49 84 55 85 57 86 54 87 50 88 51 89 52 90
REMARK SMILES IDX 53 91
REMARK H PARENT 14 6 1 9 1 10 1 11 8 21 18 25 77 44 45 55
REMARK Flexibility Score: inf
ROOT
ATOM      1  C   UNL A   1      34.743  34.383  29.477  1.00  0.00     0.042 C 
ENDROOT
BRANCH   1   2
ATOM      2  C   UNL A   1      33.500  35.186  29.117  1.00  0.00     0.118 C 
BRANCH   2   3
ATOM      3  N   UNL A   1      33.423  36.385  29.930  1.00  0.00    -0.351 N 
ATOM      4  C   UNL A   1      33.114  36.607  31.234  1.00  0.00     0.278 C 
ATOM      5  O   UNL A   1      32.901  37.788  31.543  1.00  0.00    -0.268 OA
ATOM      6  H   UNL A   1      33.639  37.208  29.435  1.00  0.00     0.163 HD
BRANCH   4   7
ATOM      7  C   UNL A   1      33.048  35.506  32.320  1.00  0.00     0.275 C 
BRANCH   7   8
ATOM      8  N   UNL A   1      31.661  35.247  32.747  1.00  0.00    -0.347 N 
ATOM      9  H   UNL A   1      31.086  36.065  32.548  1.00  0.00     0.345 HD
ATOM     10  H   UNL A   1      31.644  35.056  33.748  1.00  0.00     0.345 HD
ATOM     11  H   UNL A   1      31.295  34.441  32.241  1.00  0.00     0.345 HD
ENDBRANCH   7   8
BRANCH   7  12
ATOM     12  C   UNL A   1      34.169  35.502  33.391  1.00  0.00     0.111 C 
BRANCH  12  13
ATOM     13  C   UNL A   1      35.133  34.352  33.587  1.00  0.00    -0.038 A 
ATOM     14  C   UNL A   1      36.065  34.428  34.644  1.00  0.00     0.008 A 
ATOM     15  C   UNL A   1      35.192  33.228  32.755  1.00  0.00     0.047 A 
ATOM     16  C   UNL A   1      36.923  33.361  34.944  1.00  0.00     0.049 A 
ATOM     17  C   UNL A   1      36.032  32.156  33.066  1.00  0.00     0.165 A 
ATOM     18  C   UNL A   1      36.871  32.206  34.174  1.00  0.00     0.151 A 
ATOM     19  F   UNL A   1      35.972  31.055  32.304  1.00  0.00    -0.203 F 
BRANCH  18  20
ATOM     20  O   UNL A   1      37.615  31.110  34.498  1.00  0.00    -0.505 OA
ATOM     21  H   UNL A   1      37.803  30.464  33.846  1.00  0.00     0.293 HD
ENDBRANCH  18  20
ENDBRANCH  12  13
ENDBRANCH   7  12
ENDBRANCH   4   7
ENDBRANCH   2   3
ENDBRANCH   1   2
BRANCH   1  22
ATOM     22  C   UNL A   1      35.341  33.536  28.370  1.00  0.00     0.118 C 
BRANCH  22  23
ATOM     23  N   UNL A   1      34.429  32.570  27.782  1.00  0.00    -0.352 N 
ATOM     24  C   UNL A   1      34.515  31.196  27.666  1.00  0.00     0.251 C 
ATOM     25  H   UNL A   1      33.610  32.961  27.402  1.00  0.00     0.163 HD
ATOM     26  O   UNL A   1      33.589  30.596  27.132  1.00  0.00    -0.269 OA
BRANCH  24  27
ATOM     27  C   UNL A   1      35.714  30.444  28.124  1.00  0.00     0.039 A 
ATOM     28  C   UNL A   1      36.900  30.562  27.387  1.00  0.00     0.014 A 
ATOM     29  C   UNL A   1      35.699  29.628  29.254  1.00  0.00     0.014 A 
ATOM     30  C   UNL A   1      38.075  29.942  27.833  1.00  0.00     0.010 A 
ATOM     31  C   UNL A   1      36.890  29.108  29.758  1.00  0.00     0.010 A 
ATOM     32  C   UNL A   1      38.094  29.255  29.055  1.00  0.00    -0.014 A 
BRANCH  32  33
ATOM     33  C   UNL A   1      39.336  28.661  29.628  1.00  0.00     0.031 A 
ATOM     34  C   UNL A   1      40.037  29.359  30.767  1.00  0.00     0.074 A 
ATOM     35  C   UNL A   1      39.897  27.573  29.061  1.00  0.00     0.049 A 
ATOM     36  N   UNL A   1      41.231  29.153  31.260  1.00  0.00    -0.248 NA
ATOM     37  C   UNL A   1      39.309  30.468  31.401  1.00  0.00     0.031 C 
ATOM     38  C   UNL A   1      39.331  26.812  27.945  1.00  0.00     0.029 A 
ATOM     39  N   UNL A   1      41.083  26.932  29.327  1.00  0.00    -0.354 N 
ATOM     40  C   UNL A   1      41.412  30.130  32.235  1.00  0.00     0.074 A 
ATOM     41  C   UNL A   1      40.226  30.960  32.219  1.00  0.00     0.031 C 
ATOM     42  C   UNL A   1      40.163  25.805  27.631  1.00  0.00     0.029 A 
ATOM     43  C   UNL A   1      41.349  25.882  28.478  1.00  0.00     0.049 A 
ATOM     44  H   UNL A   1      41.685  27.199  30.059  1.00  0.00     0.167 HD
ATOM     45  C   UNL A   1      42.460  30.307  33.078  1.00  0.00     0.034 A 
ATOM     46  C   UNL A   1      42.435  25.089  28.372  1.00  0.00     0.034 A 
ATOM     47  C   UNL A   1      43.620  29.448  33.105  1.00  0.00     0.049 A 
ATOM     48  C   UNL A   1      43.597  25.311  29.308  1.00  0.00     0.074 A 
ATOM     49  C   UNL A   1      44.714  29.501  33.951  1.00  0.00     0.029 A 
ATOM     50  N   UNL A   1      43.835  28.377  32.247  1.00  0.00    -0.354 N 
ATOM     51  N   UNL A   1      43.745  26.229  30.235  1.00  0.00    -0.248 NA
ATOM     52  C   UNL A   1      44.734  24.388  29.189  1.00  0.00     0.031 C 
ATOM     53  C   UNL A   1      45.616  28.504  33.566  1.00  0.00     0.029 A 
ATOM     54  C   UNL A   1      45.051  27.778  32.531  1.00  0.00     0.049 A 
ATOM     55  H   UNL A   1      43.213  28.086  31.541  1.00  0.00     0.167 HD
ATOM     56  C   UNL A   1      44.972  25.964  30.839  1.00  0.00     0.074 A 
ATOM     57  C   UNL A   1      45.523  24.804  30.169  1.00  0.00     0.031 C 
ATOM     58  C   UNL A   1      45.583  26.614  31.860  1.00  0.00     0.034 A 
BRANCH  45  59
ATOM     59  C   UNL A   1      42.407  31.488  34.018  1.00  0.00     0.023 A 
ATOM     60  C   UNL A   1      41.627  31.469  35.188  1.00  0.00     0.031 A 
ATOM     61  C   UNL A   1      43.121  32.665  33.727  1.00  0.00     0.131 A 
ATOM     62  C   UNL A   1      41.510  32.626  35.972  1.00  0.00     0.055 A 
ATOM     63  C   UNL A   1      43.072  33.784  34.561  1.00  0.00     0.041 A 
ATOM     64  F   UNL A   1      43.868  32.754  32.614  1.00  0.00    -0.206 F 
ATOM     65  C   UNL A   1      42.248  33.775  35.683  1.00  0.00     0.022 A 
BRANCH  62  66
ATOM     66  S   UNL A   1      40.256  32.656  37.282  1.00  0.00     0.124 S 
ATOM     67  O   UNL A   1      41.065  32.379  38.468  1.00  0.00    -0.237 OA
ATOM     68  O   UNL A   1      39.722  34.009  37.178  1.00  0.00    -0.237 OA
ATOM     69  O   UNL A   1      39.335  31.589  36.901  1.00  0.00    -0.744 OA
ENDBRANCH  62  66
ENDBRANCH  45  59
BRANCH  46  70
ATOM     70  C   UNL A   1      42.489  24.018  27.334  1.00  0.00     0.023 A 
ATOM     71  C   UNL A   1      41.876  22.774  27.549  1.00  0.00     0.031 A 
ATOM     72  C   UNL A   1      43.188  24.209  26.128  1.00  0.00     0.131 A 
ATOM     73  C   UNL A   1      42.010  21.752  26.596  1.00  0.00     0.055 A 
ATOM     74  C   UNL A   1      43.274  23.207  25.159  1.00  0.00     0.041 A 
ATOM     75  F   UNL A   1      43.785  25.382  25.867  1.00  0.00    -0.206 F 
ATOM     76  C   UNL A   1      42.694  21.965  25.397  1.00  0.00     0.022 A 
BRANCH  73  77
ATOM     77  S   UNL A   1      41.348  20.110  26.987  1.00  0.00     0.124 S 
ATOM     78  O   UNL A   1      40.893  20.295  28.360  1.00  0.00    -0.237 OA
ATOM     79  O   UNL A   1      40.305  19.957  25.978  1.00  0.00    -0.237 OA
ATOM     80  O   UNL A   1      42.504  19.231  26.825  1.00  0.00    -0.744 OA
ENDBRANCH  73  77
ENDBRANCH  46  70
BRANCH  58  81
ATOM     81  C   UNL A   1      46.880  26.040  32.371  1.00  0.00     0.023 A 
ATOM     82  C   UNL A   1      48.125  26.424  31.847  1.00  0.00     0.031 A 
ATOM     83  C   UNL A   1      46.862  25.105  33.423  1.00  0.00     0.131 A 
ATOM     84  C   UNL A   1      49.301  25.845  32.350  1.00  0.00     0.055 A 
ATOM     85  C   UNL A   1      48.037  24.573  33.954  1.00  0.00     0.041 A 
ATOM     86  F   UNL A   1      45.698  24.704  33.959  1.00  0.00    -0.206 F 
ATOM     87  C   UNL A   1      49.265  24.936  33.411  1.00  0.00     0.022 A 
BRANCH  84  88
ATOM     88  S   UNL A   1      50.882  26.251  31.558  1.00  0.00     0.124 S 
ATOM     89  O   UNL A   1      51.813  26.164  32.679  1.00  0.00    -0.237 OA
ATOM     90  O   UNL A   1      51.004  25.205  30.548  1.00  0.00    -0.237 OA
ATOM     91  O   UNL A   1      50.667  27.598  31.033  1.00  0.00    -0.744 OA
ENDBRANCH  84  88
ENDBRANCH  58  81
ENDBRANCH  32  33
ENDBRANCH  24  27
ENDBRANCH  22  23
ENDBRANCH   1  22
TORSDOF 17
ENDMDL
MODEL 3
REMARK VINA RESULT:     -10.7      6.227     10.240
REMARK SMILES [NH3+][C@H](Cc1ccc(O)c(F)c1)C(=O)NCCCNC(=O)c1ccc(-c2c3nc(c(-c4cc(S(=O)(=O)[O-])ccc4F)c4ccc([nH]4)c(-c4cc(S(=O)(=O)[O-])ccc4F)c4nc(c(-c5cc(S(=O)(=O)[O-])ccc5F)c5ccc2[nH]5)C=C4)C=C3)cc1
REMARK SMILES IDX 16 1 15 2 14 3 12 4 13 5 2 7 1 8 3 12 4 13 5 14 11 15 6 16
REMARK SMILES IDX 9 17 7 18 10 19 8 20 17 22 18 23 19 24 20 26 21 27 22 28
REMARK SMILES IDX 83 29 23 30 82 31 24 32 25 33 26 34 76 35 27 36 81 37 75 38
REMARK SMILES IDX 77 39 28 40 80 41 74 42 73 43 29 45 61 46 41 47 60 48 42 49
REMARK SMILES IDX 45 50 59 51 78 52 43 53 44 54 58 56 79 57 46 58 30 59 31 60
REMARK SMILES IDX 39 61 32 62 38 63 40 64 37 65 33 66 34 67 35 68 36 69 62 70
REMARK SMILES IDX 63 71 71 72 64 73 70 74 72 75 69 76 65 77 66 78 67 79 68 80
REMARK SMILES IDX 47 81 48 82 56 83 49 84 55 85 57 86 54 87 50 88 51 89 52 90
REMARK SMILES IDX 53 91
REMARK H PARENT 14 6 1 9 1 10 1 11 8 21 18 25 77 44 45 55
REMARK Flexibility Score: inf
ROOT
ATOM      1  C   UNL A   1      33.253  29.106  24.359  1.00  0.00     0.042 C 
ENDROOT
BRANCH   1   2
ATOM      2  C   UNL A   1      33.674  27.732  23.856  1.00  0.00     0.118 C 
BRANCH   2   3
ATOM      3  N   UNL A   1      32.929  27.383  22.661  1.00  0.00    -0.351 N 
ATOM      4  C   UNL A   1      31.611  27.163  22.416  1.00  0.00     0.278 C 
ATOM      5  O   UNL A   1      31.348  26.638  21.325  1.00  0.00    -0.268 OA
ATOM      6  H   UNL A   1      33.495  27.288  21.861  1.00  0.00     0.163 HD
BRANCH   4   7
ATOM      7  C   UNL A   1      30.463  27.549  23.381  1.00  0.00     0.275 C 
BRANCH   7   8
ATOM      8  N   UNL A   1      30.305  26.556  24.459  1.00  0.00    -0.347 N 
ATOM      9  H   UNL A   1      31.222  26.218  24.747  1.00  0.00     0.345 HD
ATOM     10  H   UNL A   1      29.745  25.774  24.120  1.00  0.00     0.345 HD
ATOM     11  H   UNL A   1      29.837  26.990  25.254  1.00  0.00     0.345 HD
ENDBRANCH   7   8
BRANCH   7  12
ATOM     12  C   UNL A   1      29.192  28.173  22.751  1.00  0.00     0.111 C 
BRANCH  12  13
ATOM     13  C   UNL A   1      28.912  29.661  22.736  1.00  0.00    -0.038 A 
ATOM     14  C   UNL A   1      29.294  30.427  23.858  1.00  0.00     0.008 A 
ATOM     15  C   UNL A   1      28.254  30.324  21.695  1.00  0.00     0.047 A 
ATOM     16  C   UNL A   1      29.152  31.822  23.876  1.00  0.00     0.049 A 
ATOM     17  C   UNL A   1      28.132  31.716  21.703  1.00  0.00     0.165 A 
ATOM     18  C   UNL A   1      28.608  32.467  22.773  1.00  0.00     0.151 A 
ATOM     19  F   UNL A   1      27.595  32.316  20.632  1.00  0.00    -0.203 F 
BRANCH  18  20
ATOM     20  O   UNL A   1      28.549  33.828  22.711  1.00  0.00    -0.505 OA
ATOM     21  H   UNL A   1      29.303  34.339  22.932  1.00  0.00     0.293 HD
ENDBRANCH  18  20
ENDBRANCH  12  13
ENDBRANCH   7  12
ENDBRANCH   4   7
ENDBRANCH   2   3
ENDBRANCH   1   2
BRANCH   1  22
ATOM     22  C   UNL A   1      32.745  29.175  25.787  1.00  0.00     0.118 C 
BRANCH  22  23
ATOM     23  N   UNL A   1      32.376  30.505  26.238  1.00  0.00    -0.352 N 
ATOM     24  C   UNL A   1      33.056  31.418  27.020  1.00  0.00     0.251 C 
ATOM     25  H   UNL A   1      31.491  30.808  25.934  1.00  0.00     0.163 HD
ATOM     26  O   UNL A   1      32.527  32.499  27.251  1.00  0.00    -0.269 OA
BRANCH  24  27
ATOM     27  C   UNL A   1      34.380  31.102  27.623  1.00  0.00     0.039 A 
ATOM     28  C   UNL A   1      35.301  32.143  27.797  1.00  0.00     0.014 A 
ATOM     29  C   UNL A   1      34.736  29.812  28.013  1.00  0.00     0.014 A 
ATOM     30  C   UNL A   1      36.524  31.906  28.441  1.00  0.00     0.010 A 
ATOM     31  C   UNL A   1      35.898  29.600  28.753  1.00  0.00     0.010 A 
ATOM     32  C   UNL A   1      36.809  30.642  28.976  1.00  0.00    -0.014 A 
BRANCH  32  33
ATOM     33  C   UNL A   1      38.047  30.356  29.756  1.00  0.00     0.031 A 
ATOM     34  C   UNL A   1      39.064  29.386  29.208  1.00  0.00     0.074 A 
ATOM     35  C   UNL A   1      38.207  30.867  30.995  1.00  0.00     0.049 A 
ATOM     36  N   UNL A   1      40.082  28.822  29.805  1.00  0.00    -0.248 NA
ATOM     37  C   UNL A   1      38.876  28.962  27.813  1.00  0.00     0.031 C 
ATOM     38  C   UNL A   1      37.293  31.805  31.649  1.00  0.00     0.029 A 
ATOM     39  N   UNL A   1      39.184  30.650  31.936  1.00  0.00    -0.354 N 
ATOM     40  C   UNL A   1      40.633  27.949  28.872  1.00  0.00     0.074 A 
ATOM     41  C   UNL A   1      39.797  28.019  27.691  1.00  0.00     0.031 C 
ATOM     42  C   UNL A   1      37.756  32.089  32.878  1.00  0.00     0.029 A 
ATOM     43  C   UNL A   1      38.966  31.309  33.125  1.00  0.00     0.049 A 
ATOM     44  H   UNL A   1      39.969  30.077  31.775  1.00  0.00     0.167 HD
ATOM     45  C   UNL A   1      41.742  27.175  28.980  1.00  0.00     0.034 A 
ATOM     46  C   UNL A   1      39.643  31.270  34.291  1.00  0.00     0.034 A 
ATOM     47  C   UNL A   1      42.584  27.144  30.152  1.00  0.00     0.049 A 
ATOM     48  C   UNL A   1      40.865  30.391  34.398  1.00  0.00     0.074 A 
ATOM     49  C   UNL A   1      43.759  26.440  30.352  1.00  0.00     0.029 A 
ATOM     50  N   UNL A   1      42.342  27.851  31.323  1.00  0.00    -0.354 N 
ATOM     51  N   UNL A   1      41.381  29.584  33.501  1.00  0.00    -0.248 NA
ATOM     52  C   UNL A   1      41.599  30.424  35.670  1.00  0.00     0.031 C 
ATOM     53  C   UNL A   1      44.193  26.672  31.661  1.00  0.00     0.029 A 
ATOM     54  C   UNL A   1      43.333  27.582  32.253  1.00  0.00     0.049 A 
ATOM     55  H   UNL A   1      41.578  28.455  31.470  1.00  0.00     0.167 HD
ATOM     56  C   UNL A   1      42.525  29.048  34.086  1.00  0.00     0.074 A 
ATOM     57  C   UNL A   1      42.621  29.621  35.413  1.00  0.00     0.031 C 
ATOM     58  C   UNL A   1      43.421  28.169  33.570  1.00  0.00     0.034 A 
BRANCH  45  59
ATOM     59  C   UNL A   1      42.087  26.283  27.811  1.00  0.00     0.023 A 
ATOM     60  C   UNL A   1      41.623  24.958  27.728  1.00  0.00     0.031 A 
ATOM     61  C   UNL A   1      42.918  26.752  26.777  1.00  0.00     0.131 A 
ATOM     62  C   UNL A   1      42.062  24.125  26.688  1.00  0.00     0.055 A 
ATOM     63  C   UNL A   1      43.278  25.945  25.696  1.00  0.00     0.041 A 
ATOM     64  F   UNL A   1      43.410  28.001  26.808  1.00  0.00    -0.206 F 
ATOM     65  C   UNL A   1      42.865  24.616  25.656  1.00  0.00     0.022 A 
BRANCH  62  66
ATOM     66  S   UNL A   1      41.699  22.351  26.793  1.00  0.00     0.124 S 
ATOM     67  O   UNL A   1      40.304  22.364  27.226  1.00  0.00    -0.237 OA
ATOM     68  O   UNL A   1      41.939  21.899  25.427  1.00  0.00    -0.237 OA
ATOM     69  O   UNL A   1      42.650  21.864  27.789  1.00  0.00    -0.744 OA
ENDBRANCH  62  66
ENDBRANCH  45  59
BRANCH  46  70
ATOM     70  C   UNL A   1      39.180  32.074  35.460  1.00  0.00     0.023 A 
ATOM     71  C   UNL A   1      38.521  31.463  36.538  1.00  0.00     0.031 A 
ATOM     72  C   UNL A   1      39.355  33.469  35.499  1.00  0.00     0.131 A 
ATOM     73  C   UNL A   1      38.019  32.248  37.589  1.00  0.00     0.055 A 
ATOM     74  C   UNL A   1      38.901  34.239  36.572  1.00  0.00     0.041 A 
ATOM     75  F   UNL A   1      39.986  34.103  34.499  1.00  0.00    -0.206 F 
ATOM     76  C   UNL A   1      38.216  33.630  37.619  1.00  0.00     0.022 A 
BRANCH  73  77
ATOM     77  S   UNL A   1      37.028  31.442  38.876  1.00  0.00     0.124 S 
ATOM     78  O   UNL A   1      37.893  31.577  40.042  1.00  0.00    -0.237 OA
ATOM     79  O   UNL A   1      35.816  32.254  38.876  1.00  0.00    -0.237 OA
ATOM     80  O   UNL A   1      36.864  30.079  38.374  1.00  0.00    -0.744 OA
ENDBRANCH  73  77
ENDBRANCH  46  70
BRANCH  58  81
ATOM     81  C   UNL A   1      44.627  27.834  34.411  1.00  0.00     0.023 A 
ATOM     82  C   UNL A   1      44.649  26.729  35.278  1.00  0.00     0.031 A 
ATOM     83  C   UNL A   1      45.783  28.629  34.318  1.00  0.00     0.131 A 
ATOM     84  C   UNL A   1      45.793  26.472  36.049  1.00  0.00     0.055 A 
ATOM     85  C   UNL A   1      46.936  28.338  35.048  1.00  0.00     0.041 A 
ATOM     86  F   UNL A   1      45.814  29.697  33.505  1.00  0.00    -0.206 F 
ATOM     87  C   UNL A   1      46.942  27.259  35.926  1.00  0.00     0.022 A 
BRANCH  84  88
ATOM     88  S   UNL A   1      45.743  25.127  37.265  1.00  0.00     0.124 S 
ATOM     89  O   UNL A   1      44.375  25.221  37.764  1.00  0.00    -0.237 OA
ATOM     90  O   UNL A   1      46.042  23.955  36.448  1.00  0.00    -0.237 OA
ATOM     91  O   UNL A   1      46.781  25.493  38.226  1.00  0.00    -0.744 OA
ENDBRANCH  84  88
ENDBRANCH  58  81
ENDBRANCH  32  33
ENDBRANCH  24  27
ENDBRANCH  22  23
ENDBRANCH   1  22
TORSDOF 17
ENDMDL
