MODEL 1
REMARK VINA RESULT:     -12.9      0.000      0.000
REMARK SMILES O=C(NCCCNC(=O)c1ccc(-c2c3nc(c(-c4cc(S(=O)(=O)[O-])ccc4F)c4ccc([nH]4)c(-c4cc(S(=O)(=O)[O-])ccc4F)c4nc(c(-c5cc(S(=O)(=O)[O-])ccc5F)c5ccc2[nH]5)C=C4)C=C3)cc1)c1ccc(C(=O)Nc2ccc(-c3nc4ccccc4[nH]3)cc2)cc1
REMARK SMILES IDX 5 1 4 2 3 3 1 4 2 5 73 7 74 8 96 9 75 10 95 11 76 12 77 13
REMARK SMILES IDX 78 14 79 15 80 17 81 18 94 19 82 20 93 21 83 22 84 23 85 24
REMARK SMILES IDX 92 25 86 26 91 27 87 29 90 30 88 31 89 32 6 33 7 34 8 35
REMARK SMILES IDX 9 37 10 38 11 39 72 40 12 41 71 42 13 43 14 44 15 45 65 46
REMARK SMILES IDX 16 47 70 48 64 49 66 50 17 51 69 52 63 53 62 54 18 56 50 57
REMARK SMILES IDX 30 58 49 59 31 60 34 61 48 62 67 63 32 64 33 65 47 67 68 68
REMARK SMILES IDX 35 69 19 70 20 71 28 72 21 73 27 74 29 75 26 76 22 77 23 78
REMARK SMILES IDX 24 79 25 80 51 81 52 82 60 83 53 84 59 85 61 86 58 87 54 88
REMARK SMILES IDX 55 89 56 90 57 91 36 92 37 93 45 94 38 95 44 96 46 97 43 98
REMARK SMILES IDX 39 99 40 100 41 101 42 102
REMARK H PARENT 3 6 79 16 92 28 7 36 66 55 34 66
REMARK Flexibility Score: inf
ROOT
ATOM      1  C   UNL A   1      31.795  31.869  26.833  1.00  0.00     0.042 C 
ENDROOT
BRANCH   1   2
ATOM      2  C   UNL A   1      32.100  30.401  26.586  1.00  0.00     0.118 C 
BRANCH   2   3
ATOM      3  N   UNL A   1      33.480  30.041  26.871  1.00  0.00    -0.352 N 
ATOM      4  O   UNL A   1      35.321  28.768  27.055  1.00  0.00    -0.269 OA
ATOM      5  C   UNL A   1      34.178  28.888  26.620  1.00  0.00     0.251 C 
ATOM      6  H   UNL A   1      34.001  30.744  27.321  1.00  0.00     0.163 HD
BRANCH   5   7
ATOM      7  C   UNL A   1      33.566  27.765  25.871  1.00  0.00     0.039 A 
ATOM      8  C   UNL A   1      33.581  27.678  24.478  1.00  0.00     0.014 A 
ATOM      9  C   UNL A   1      32.995  26.729  26.607  1.00  0.00     0.014 A 
ATOM     10  C   UNL A   1      32.859  26.672  23.827  1.00  0.00     0.014 A 
ATOM     11  C   UNL A   1      32.364  25.669  25.951  1.00  0.00     0.014 A 
ATOM     12  C   UNL A   1      32.196  25.676  24.559  1.00  0.00     0.040 A 
BRANCH  12  13
ATOM     13  C   UNL A   1      31.440  24.631  23.789  1.00  0.00     0.255 C 
ATOM     14  O   UNL A   1      30.236  24.799  23.590  1.00  0.00    -0.269 OA
ATOM     15  N   UNL A   1      32.056  23.546  23.193  1.00  0.00    -0.322 N 
ATOM     16  H   UNL A   1      31.535  23.105  22.484  1.00  0.00     0.170 HD
BRANCH  15  17
ATOM     17  C   UNL A   1      33.311  22.984  23.448  1.00  0.00     0.041 A 
ATOM     18  C   UNL A   1      34.423  23.537  22.808  1.00  0.00     0.027 A 
ATOM     19  C   UNL A   1      33.479  21.965  24.382  1.00  0.00     0.027 A 
ATOM     20  C   UNL A   1      35.715  23.194  23.231  1.00  0.00     0.014 A 
ATOM     21  C   UNL A   1      34.765  21.602  24.775  1.00  0.00     0.014 A 
ATOM     22  C   UNL A   1      35.896  22.250  24.249  1.00  0.00     0.017 A 
BRANCH  22  23
ATOM     23  C   UNL A   1      37.197  21.923  24.834  1.00  0.00     0.138 A 
ATOM     24  N   UNL A   1      37.751  20.726  24.791  1.00  0.00    -0.229 NA
ATOM     25  N   UNL A   1      37.963  22.768  25.608  1.00  0.00    -0.338 N 
ATOM     26  C   UNL A   1      38.859  20.784  25.588  1.00  0.00     0.089 A 
ATOM     27  C   UNL A   1      39.022  22.055  26.119  1.00  0.00     0.066 A 
ATOM     28  H   UNL A   1      37.782  23.723  25.768  1.00  0.00     0.168 HD
ATOM     29  C   UNL A   1      39.764  19.768  25.919  1.00  0.00     0.030 A 
ATOM     30  C   UNL A   1      40.065  22.387  26.989  1.00  0.00     0.028 A 
ATOM     31  C   UNL A   1      40.817  20.071  26.788  1.00  0.00     0.002 A 
ATOM     32  C   UNL A   1      40.963  21.358  27.311  1.00  0.00     0.002 A 
ENDBRANCH  22  23
ENDBRANCH  15  17
ENDBRANCH  12  13
ENDBRANCH   5   7
ENDBRANCH   2   3
ENDBRANCH   1   2
BRANCH   1  33
ATOM     33  C   UNL A   1      33.014  32.734  27.107  1.00  0.00     0.118 C 
BRANCH  33  34
ATOM     34  N   UNL A   1      32.673  34.038  27.657  1.00  0.00    -0.352 N 
ATOM     35  C   UNL A   1      33.129  34.681  28.782  1.00  0.00     0.251 C 
ATOM     36  H   UNL A   1      32.005  34.541  27.138  1.00  0.00     0.163 HD
ATOM     37  O   UNL A   1      32.553  35.698  29.160  1.00  0.00    -0.269 OA
BRANCH  35  38
ATOM     38  C   UNL A   1      34.277  34.145  29.548  1.00  0.00     0.039 A 
ATOM     39  C   UNL A   1      34.027  33.320  30.647  1.00  0.00     0.014 A 
ATOM     40  C   UNL A   1      35.593  34.461  29.203  1.00  0.00     0.014 A 
ATOM     41  C   UNL A   1      35.095  32.759  31.352  1.00  0.00     0.010 A 
ATOM     42  C   UNL A   1      36.652  33.820  29.839  1.00  0.00     0.010 A 
ATOM     43  C   UNL A   1      36.418  32.969  30.927  1.00  0.00    -0.014 A 
BRANCH  43  44
ATOM     44  C   UNL A   1      37.561  32.313  31.618  1.00  0.00     0.031 A 
ATOM     45  C   UNL A   1      38.310  31.193  30.946  1.00  0.00     0.074 A 
ATOM     46  C   UNL A   1      37.893  32.696  32.867  1.00  0.00     0.049 A 
ATOM     47  N   UNL A   1      39.304  30.471  31.401  1.00  0.00    -0.248 NA
ATOM     48  C   UNL A   1      37.864  30.812  29.597  1.00  0.00     0.031 C 
ATOM     49  C   UNL A   1      37.212  33.738  33.640  1.00  0.00     0.029 A 
ATOM     50  N   UNL A   1      38.885  32.258  33.708  1.00  0.00    -0.354 N 
ATOM     51  C   UNL A   1      39.595  29.550  30.400  1.00  0.00     0.074 A 
ATOM     52  C   UNL A   1      38.624  29.756  29.348  1.00  0.00     0.031 C 
ATOM     53  C   UNL A   1      37.829  33.885  34.822  1.00  0.00     0.029 A 
ATOM     54  C   UNL A   1      38.916  32.915  34.917  1.00  0.00     0.049 A 
ATOM     55  H   UNL A   1      39.515  31.541  33.469  1.00  0.00     0.167 HD
ATOM     56  C   UNL A   1      40.595  28.636  30.351  1.00  0.00     0.034 A 
ATOM     57  C   UNL A   1      39.722  32.751  35.984  1.00  0.00     0.034 A 
ATOM     58  C   UNL A   1      41.559  28.447  31.409  1.00  0.00     0.049 A 
ATOM     59  C   UNL A   1      40.809  31.708  35.918  1.00  0.00     0.074 A 
ATOM     60  C   UNL A   1      42.642  27.585  31.445  1.00  0.00     0.029 A 
ATOM     61  N   UNL A   1      41.554  29.125  32.623  1.00  0.00    -0.354 N 
ATOM     62  N   UNL A   1      41.105  30.881  34.941  1.00  0.00    -0.248 NA
ATOM     63  C   UNL A   1      41.680  31.587  37.094  1.00  0.00     0.031 C 
ATOM     64  C   UNL A   1      43.241  27.683  32.705  1.00  0.00     0.029 A 
ATOM     65  C   UNL A   1      42.592  28.674  33.425  1.00  0.00     0.049 A 
ATOM     66  H   UNL A   1      40.908  29.822  32.875  1.00  0.00     0.167 HD
ATOM     67  C   UNL A   1      42.219  30.167  35.374  1.00  0.00     0.074 A 
ATOM     68  C   UNL A   1      42.551  30.677  36.688  1.00  0.00     0.031 C 
ATOM     69  C   UNL A   1      42.906  29.181  34.741  1.00  0.00     0.034 A 
BRANCH  56  70
ATOM     70  C   UNL A   1      40.676  27.758  29.123  1.00  0.00     0.023 A 
ATOM     71  C   UNL A   1      41.615  27.995  28.103  1.00  0.00     0.031 A 
ATOM     72  C   UNL A   1      39.787  26.680  28.956  1.00  0.00     0.131 A 
ATOM     73  C   UNL A   1      41.593  27.222  26.932  1.00  0.00     0.055 A 
ATOM     74  C   UNL A   1      39.829  25.859  27.827  1.00  0.00     0.041 A 
ATOM     75  F   UNL A   1      38.852  26.414  29.882  1.00  0.00    -0.206 F 
ATOM     76  C   UNL A   1      40.724  26.138  26.799  1.00  0.00     0.022 A 
BRANCH  73  77
ATOM     77  S   UNL A   1      42.606  27.752  25.525  1.00  0.00     0.124 S 
ATOM     78  O   UNL A   1      43.891  28.018  26.169  1.00  0.00    -0.237 OA
ATOM     79  O   UNL A   1      42.561  26.588  24.648  1.00  0.00    -0.237 OA
ATOM     80  O   UNL A   1      41.911  28.937  25.028  1.00  0.00    -0.744 OA
ENDBRANCH  73  77
ENDBRANCH  56  70
BRANCH  57  81
ATOM     81  C   UNL A   1      39.538  33.583  37.210  1.00  0.00     0.023 A 
ATOM     82  C   UNL A   1      40.304  34.741  37.421  1.00  0.00     0.031 A 
ATOM     83  C   UNL A   1      38.626  33.206  38.212  1.00  0.00     0.131 A 
ATOM     84  C   UNL A   1      40.186  35.448  38.628  1.00  0.00     0.055 A 
ATOM     85  C   UNL A   1      38.467  33.948  39.384  1.00  0.00     0.041 A 
ATOM     86  F   UNL A   1      37.866  32.109  38.061  1.00  0.00    -0.206 F 
ATOM     87  C   UNL A   1      39.261  35.069  39.604  1.00  0.00     0.022 A 
BRANCH  84  88
ATOM     88  S   UNL A   1      41.331  36.818  38.948  1.00  0.00     0.124 S 
ATOM     89  O   UNL A   1      42.065  36.890  37.689  1.00  0.00    -0.237 OA
ATOM     90  O   UNL A   1      40.415  37.920  39.221  1.00  0.00    -0.237 OA
ATOM     91  O   UNL A   1      42.104  36.354  40.097  1.00  0.00    -0.744 OA
ENDBRANCH  84  88
ENDBRANCH  57  81
BRANCH  69  92
ATOM     92  C   UNL A   1      44.121  28.628  35.453  1.00  0.00     0.023 A 
ATOM     93  C   UNL A   1      44.027  27.554  36.355  1.00  0.00     0.031 A 
ATOM     94  C   UNL A   1      45.387  29.206  35.246  1.00  0.00     0.131 A 
ATOM     95  C   UNL A   1      45.160  27.143  37.073  1.00  0.00     0.055 A 
ATOM     96  C   UNL A   1      46.524  28.742  35.906  1.00  0.00     0.041 A 
ATOM     97  F   UNL A   1      45.537  30.237  34.399  1.00  0.00    -0.206 F 
ATOM     98  C   UNL A   1      46.413  27.717  36.841  1.00  0.00     0.022 A 
BRANCH  95  99
ATOM     99  S   UNL A   1      44.952  25.933  38.409  1.00  0.00     0.124 S 
ATOM    100  O   UNL A   1      44.180  26.692  39.388  1.00  0.00    -0.237 OA
ATOM    101  O   UNL A   1      44.241  24.849  37.739  1.00  0.00    -0.237 OA
ATOM    102  O   UNL A   1      46.324  25.622  38.807  1.00  0.00    -0.744 OA
ENDBRANCH  95  99
ENDBRANCH  69  92
ENDBRANCH  43  44
ENDBRANCH  35  38
ENDBRANCH  33  34
ENDBRANCH   1  33
TORSDOF 16
ENDMDL
MODEL 2
REMARK VINA RESULT:     -12.5      5.146     10.045
REMARK SMILES O=C(NCCCNC(=O)c1ccc(-c2c3nc(c(-c4cc(S(=O)(=O)[O-])ccc4F)c4ccc([nH]4)c(-c4cc(S(=O)(=O)[O-])ccc4F)c4nc(c(-c5cc(S(=O)(=O)[O-])ccc5F)c5ccc2[nH]5)C=C4)C=C3)cc1)c1ccc(C(=O)Nc2ccc(-c3nc4ccccc4[nH]3)cc2)cc1
REMARK SMILES IDX 5 1 4 2 3 3 1 4 2 5 73 7 74 8 96 9 75 10 95 11 76 12 77 13
REMARK SMILES IDX 78 14 79 15 80 17 81 18 94 19 82 20 93 21 83 22 84 23 85 24
REMARK SMILES IDX 92 25 86 26 91 27 87 29 90 30 88 31 89 32 6 33 7 34 8 35
REMARK SMILES IDX 9 37 10 38 11 39 72 40 12 41 71 42 13 43 14 44 15 45 65 46
REMARK SMILES IDX 16 47 70 48 64 49 66 50 17 51 69 52 63 53 62 54 18 56 50 57
REMARK SMILES IDX 30 58 49 59 31 60 34 61 48 62 67 63 32 64 33 65 47 67 68 68
REMARK SMILES IDX 35 69 19 70 20 71 28 72 21 73 27 74 29 75 26 76 22 77 23 78
REMARK SMILES IDX 24 79 25 80 51 81 52 82 60 83 53 84 59 85 61 86 58 87 54 88
REMARK SMILES IDX 55 89 56 90 57 91 36 92 37 93 45 94 38 95 44 96 46 97 43 98
REMARK SMILES IDX 39 99 40 100 41 101 42 102
REMARK H PARENT 3 6 79 16 92 28 7 36 66 55 34 66
REMARK Flexibility Score: inf
ROOT
ATOM      1  C   UNL A   1      38.929  22.656  26.288  1.00  0.00     0.042 C 
ENDROOT
BRANCH   1   2
ATOM      2  C   UNL A   1      37.898  21.824  25.543  1.00  0.00     0.118 C 
BRANCH   2   3
ATOM      3  N   UNL A   1      37.654  22.285  24.185  1.00  0.00    -0.352 N 
ATOM      4  O   UNL A   1      36.527  23.048  22.399  1.00  0.00    -0.269 OA
ATOM      5  C   UNL A   1      36.537  22.834  23.609  1.00  0.00     0.251 C 
ATOM      6  H   UNL A   1      38.421  22.185  23.577  1.00  0.00     0.163 HD
BRANCH   5   7
ATOM      7  C   UNL A   1      35.326  23.132  24.409  1.00  0.00     0.039 A 
ATOM      8  C   UNL A   1      35.296  24.096  25.419  1.00  0.00     0.014 A 
ATOM      9  C   UNL A   1      34.155  22.446  24.095  1.00  0.00     0.014 A 
ATOM     10  C   UNL A   1      34.168  24.226  26.236  1.00  0.00     0.014 A 
ATOM     11  C   UNL A   1      32.997  22.656  24.848  1.00  0.00     0.014 A 
ATOM     12  C   UNL A   1      33.014  23.468  25.990  1.00  0.00     0.040 A 
BRANCH  12  13
ATOM     13  C   UNL A   1      31.842  23.663  26.911  1.00  0.00     0.255 C 
ATOM     14  O   UNL A   1      31.609  22.801  27.760  1.00  0.00    -0.269 OA
ATOM     15  N   UNL A   1      31.084  24.819  26.928  1.00  0.00    -0.322 N 
ATOM     16  H   UNL A   1      30.554  24.961  27.745  1.00  0.00     0.170 HD
BRANCH  15  17
ATOM     17  C   UNL A   1      30.961  25.816  25.956  1.00  0.00     0.041 A 
ATOM     18  C   UNL A   1      30.194  25.539  24.821  1.00  0.00     0.027 A 
ATOM     19  C   UNL A   1      31.502  27.086  26.139  1.00  0.00     0.027 A 
ATOM     20  C   UNL A   1      29.819  26.581  23.960  1.00  0.00     0.014 A 
ATOM     21  C   UNL A   1      31.156  28.111  25.261  1.00  0.00     0.014 A 
ATOM     22  C   UNL A   1      30.266  27.887  24.197  1.00  0.00     0.017 A 
BRANCH  22  23
ATOM     23  C   UNL A   1      29.828  29.049  23.423  1.00  0.00     0.138 A 
ATOM     24  N   UNL A   1      29.834  30.288  23.877  1.00  0.00    -0.229 NA
ATOM     25  N   UNL A   1      29.240  29.008  22.177  1.00  0.00    -0.338 N 
ATOM     26  C   UNL A   1      29.196  31.047  22.938  1.00  0.00     0.089 A 
ATOM     27  C   UNL A   1      28.808  30.272  21.854  1.00  0.00     0.066 A 
ATOM     28  H   UNL A   1      29.146  28.207  21.612  1.00  0.00     0.168 HD
ATOM     29  C   UNL A   1      28.894  32.415  22.961  1.00  0.00     0.030 A 
ATOM     30  C   UNL A   1      28.116  30.793  20.757  1.00  0.00     0.028 A 
ATOM     31  C   UNL A   1      28.200  32.963  21.878  1.00  0.00     0.002 A 
ATOM     32  C   UNL A   1      27.821  32.165  20.796  1.00  0.00     0.002 A 
ENDBRANCH  22  23
ENDBRANCH  15  17
ENDBRANCH  12  13
ENDBRANCH   5   7
ENDBRANCH   2   3
ENDBRANCH   1   2
BRANCH   1  33
ATOM     33  C   UNL A   1      40.020  21.851  26.973  1.00  0.00     0.118 C 
BRANCH  33  34
ATOM     34  N   UNL A   1      41.209  21.690  26.148  1.00  0.00    -0.352 N 
ATOM     35  C   UNL A   1      42.165  22.602  25.769  1.00  0.00     0.251 C 
ATOM     36  H   UNL A   1      41.350  20.779  25.804  1.00  0.00     0.163 HD
ATOM     37  O   UNL A   1      42.977  22.287  24.905  1.00  0.00    -0.269 OA
BRANCH  35  38
ATOM     38  C   UNL A   1      42.201  23.954  26.371  1.00  0.00     0.039 A 
ATOM     39  C   UNL A   1      42.511  24.079  27.728  1.00  0.00     0.014 A 
ATOM     40  C   UNL A   1      41.916  25.095  25.617  1.00  0.00     0.014 A 
ATOM     41  C   UNL A   1      42.603  25.349  28.304  1.00  0.00     0.010 A 
ATOM     42  C   UNL A   1      42.110  26.359  26.165  1.00  0.00     0.010 A 
ATOM     43  C   UNL A   1      42.446  26.502  27.518  1.00  0.00    -0.014 A 
BRANCH  43  44
ATOM     44  C   UNL A   1      42.621  27.860  28.100  1.00  0.00     0.031 A 
ATOM     45  C   UNL A   1      43.995  28.469  28.204  1.00  0.00     0.074 A 
ATOM     46  C   UNL A   1      41.549  28.524  28.577  1.00  0.00     0.049 A 
ATOM     47  N   UNL A   1      44.355  29.618  28.717  1.00  0.00    -0.248 NA
ATOM     48  C   UNL A   1      45.116  27.666  27.692  1.00  0.00     0.031 C 
ATOM     49  C   UNL A   1      40.174  28.019  28.575  1.00  0.00     0.029 A 
ATOM     50  N   UNL A   1      41.443  29.764  29.154  1.00  0.00    -0.354 N 
ATOM     51  C   UNL A   1      45.740  29.673  28.596  1.00  0.00     0.074 A 
ATOM     52  C   UNL A   1      46.159  28.409  28.031  1.00  0.00     0.031 C 
ATOM     53  C   UNL A   1      39.359  28.955  29.086  1.00  0.00     0.029 A 
ATOM     54  C   UNL A   1      40.155  30.105  29.502  1.00  0.00     0.049 A 
ATOM     55  H   UNL A   1      42.216  30.356  29.304  1.00  0.00     0.167 HD
ATOM     56  C   UNL A   1      46.580  30.691  28.902  1.00  0.00     0.034 A 
ATOM     57  C   UNL A   1      39.672  31.214  30.096  1.00  0.00     0.034 A 
ATOM     58  C   UNL A   1      46.144  31.949  29.461  1.00  0.00     0.049 A 
ATOM     59  C   UNL A   1      40.630  32.321  30.455  1.00  0.00     0.074 A 
ATOM     60  C   UNL A   1      46.902  33.066  29.765  1.00  0.00     0.029 A 
ATOM     61  N   UNL A   1      44.833  32.254  29.809  1.00  0.00    -0.354 N 
ATOM     62  N   UNL A   1      41.931  32.378  30.283  1.00  0.00    -0.248 NA
ATOM     63  C   UNL A   1      40.051  33.521  31.072  1.00  0.00     0.031 C 
ATOM     64  C   UNL A   1      46.067  34.014  30.367  1.00  0.00     0.029 A 
ATOM     65  C   UNL A   1      44.769  33.528  30.355  1.00  0.00     0.049 A 
ATOM     66  H   UNL A   1      44.063  31.654  29.686  1.00  0.00     0.167 HD
ATOM     67  C   UNL A   1      42.319  33.635  30.742  1.00  0.00     0.074 A 
ATOM     68  C   UNL A   1      41.111  34.307  31.174  1.00  0.00     0.031 C 
ATOM     69  C   UNL A   1      43.560  34.184  30.797  1.00  0.00     0.034 A 
BRANCH  56  70
ATOM     70  C   UNL A   1      48.057  30.472  28.661  1.00  0.00     0.023 A 
ATOM     71  C   UNL A   1      48.880  29.853  29.618  1.00  0.00     0.031 A 
ATOM     72  C   UNL A   1      48.657  30.910  27.466  1.00  0.00     0.131 A 
ATOM     73  C   UNL A   1      50.263  29.760  29.402  1.00  0.00     0.055 A 
ATOM     74  C   UNL A   1      50.021  30.734  27.219  1.00  0.00     0.041 A 
ATOM     75  F   UNL A   1      47.932  31.528  26.522  1.00  0.00    -0.206 F 
ATOM     76  C   UNL A   1      50.836  30.171  28.197  1.00  0.00     0.022 A 
BRANCH  73  77
ATOM     77  S   UNL A   1      51.323  29.239  30.779  1.00  0.00     0.124 S 
ATOM     78  O   UNL A   1      50.458  29.495  31.929  1.00  0.00    -0.237 OA
ATOM     79  O   UNL A   1      51.575  27.837  30.469  1.00  0.00    -0.237 OA
ATOM     80  O   UNL A   1      52.482  30.121  30.672  1.00  0.00    -0.744 OA
ENDBRANCH  73  77
ENDBRANCH  56  70
BRANCH  57  81
ATOM     81  C   UNL A   1      38.215  31.339  30.397  1.00  0.00     0.023 A 
ATOM     82  C   UNL A   1      37.317  31.838  29.440  1.00  0.00     0.031 A 
ATOM     83  C   UNL A   1      37.706  31.006  31.666  1.00  0.00     0.131 A 
ATOM     84  C   UNL A   1      35.971  32.043  29.782  1.00  0.00     0.055 A 
ATOM     85  C   UNL A   1      36.354  31.154  31.981  1.00  0.00     0.041 A 
ATOM     86  F   UNL A   1      38.519  30.523  32.618  1.00  0.00    -0.206 F 
ATOM     87  C   UNL A   1      35.480  31.689  31.040  1.00  0.00     0.022 A 
BRANCH  84  88
ATOM     88  S   UNL A   1      34.889  32.873  28.586  1.00  0.00     0.124 S 
ATOM     89  O   UNL A   1      34.327  33.951  29.393  1.00  0.00    -0.237 OA
ATOM     90  O   UNL A   1      35.833  33.272  27.548  1.00  0.00    -0.237 OA
ATOM     91  O   UNL A   1      33.945  31.827  28.199  1.00  0.00    -0.744 OA
ENDBRANCH  84  88
ENDBRANCH  57  81
BRANCH  69  92
ATOM     92  C   UNL A   1      43.657  35.606  31.303  1.00  0.00     0.023 A 
ATOM     93  C   UNL A   1      43.656  36.706  30.428  1.00  0.00     0.031 A 
ATOM     94  C   UNL A   1      43.783  35.859  32.681  1.00  0.00     0.131 A 
ATOM     95  C   UNL A   1      43.855  38.000  30.933  1.00  0.00     0.055 A 
ATOM     96  C   UNL A   1      43.904  37.155  33.183  1.00  0.00     0.041 A 
ATOM     97  F   UNL A   1      43.794  34.848  33.564  1.00  0.00    -0.206 F 
ATOM     98  C   UNL A   1      43.959  38.235  32.306  1.00  0.00     0.022 A 
BRANCH  95  99
ATOM     99  S   UNL A   1      44.104  39.362  29.760  1.00  0.00     0.124 S 
ATOM    100  O   UNL A   1      45.490  39.159  29.349  1.00  0.00    -0.237 OA
ATOM    101  O   UNL A   1      43.092  39.087  28.744  1.00  0.00    -0.237 OA
ATOM    102  O   UNL A   1      43.865  40.558  30.566  1.00  0.00    -0.744 OA
ENDBRANCH  95  99
ENDBRANCH  69  92
ENDBRANCH  43  44
ENDBRANCH  35  38
ENDBRANCH  33  34
ENDBRANCH   1  33
TORSDOF 16
ENDMDL
MODEL 3
REMARK VINA RESULT:     -12.3      1.528      2.030
REMARK SMILES O=C(NCCCNC(=O)c1ccc(-c2c3nc(c(-c4cc(S(=O)(=O)[O-])ccc4F)c4ccc([nH]4)c(-c4cc(S(=O)(=O)[O-])ccc4F)c4nc(c(-c5cc(S(=O)(=O)[O-])ccc5F)c5ccc2[nH]5)C=C4)C=C3)cc1)c1ccc(C(=O)Nc2ccc(-c3nc4ccccc4[nH]3)cc2)cc1
REMARK SMILES IDX 5 1 4 2 3 3 1 4 2 5 73 7 74 8 96 9 75 10 95 11 76 12 77 13
REMARK SMILES IDX 78 14 79 15 80 17 81 18 94 19 82 20 93 21 83 22 84 23 85 24
REMARK SMILES IDX 92 25 86 26 91 27 87 29 90 30 88 31 89 32 6 33 7 34 8 35
REMARK SMILES IDX 9 37 10 38 11 39 72 40 12 41 71 42 13 43 14 44 15 45 65 46
REMARK SMILES IDX 16 47 70 48 64 49 66 50 17 51 69 52 63 53 62 54 18 56 50 57
REMARK SMILES IDX 30 58 49 59 31 60 34 61 48 62 67 63 32 64 33 65 47 67 68 68
REMARK SMILES IDX 35 69 19 70 20 71 28 72 21 73 27 74 29 75 26 76 22 77 23 78
REMARK SMILES IDX 24 79 25 80 51 81 52 82 60 83 53 84 59 85 61 86 58 87 54 88
REMARK SMILES IDX 55 89 56 90 57 91 36 92 37 93 45 94 38 95 44 96 46 97 43 98
REMARK SMILES IDX 39 99 40 100 41 101 42 102
REMARK H PARENT 3 6 79 16 92 28 7 36 66 55 34 66
REMARK Flexibility Score: inf
ROOT
ATOM      1  C   UNL A   1      31.745  32.816  26.825  1.00  0.00     0.042 C 
ENDROOT
BRANCH   1   2
ATOM      2  C   UNL A   1      31.694  31.299  26.891  1.00  0.00     0.118 C 
BRANCH   2   3
ATOM      3  N   UNL A   1      32.998  30.683  27.082  1.00  0.00    -0.352 N 
ATOM      4  O   UNL A   1      34.577  29.088  27.136  1.00  0.00    -0.269 OA
ATOM      5  C   UNL A   1      33.451  29.426  26.777  1.00  0.00     0.251 C 
ATOM      6  H   UNL A   1      33.668  31.269  27.502  1.00  0.00     0.163 HD
BRANCH   5   7
ATOM      7  C   UNL A   1      32.595  28.451  26.061  1.00  0.00     0.039 A 
ATOM      8  C   UNL A   1      32.508  28.390  24.669  1.00  0.00     0.014 A 
ATOM      9  C   UNL A   1      31.887  27.526  26.825  1.00  0.00     0.014 A 
ATOM     10  C   UNL A   1      31.571  27.549  24.058  1.00  0.00     0.014 A 
ATOM     11  C   UNL A   1      31.029  26.615  26.202  1.00  0.00     0.014 A 
ATOM     12  C   UNL A   1      30.780  26.680  24.824  1.00  0.00     0.040 A 
BRANCH  12  13
ATOM     13  C   UNL A   1      29.796  25.809  24.097  1.00  0.00     0.255 C 
ATOM     14  O   UNL A   1      28.649  26.226  23.928  1.00  0.00    -0.269 OA
ATOM     15  N   UNL A   1      30.149  24.610  23.506  1.00  0.00    -0.322 N 
ATOM     16  H   UNL A   1      29.524  24.280  22.820  1.00  0.00     0.170 HD
BRANCH  15  17
ATOM     17  C   UNL A   1      31.263  23.798  23.737  1.00  0.00     0.041 A 
ATOM     18  C   UNL A   1      32.293  23.807  22.794  1.00  0.00     0.027 A 
ATOM     19  C   UNL A   1      31.402  23.066  24.914  1.00  0.00     0.027 A 
ATOM     20  C   UNL A   1      33.533  23.231  23.107  1.00  0.00     0.014 A 
ATOM     21  C   UNL A   1      32.624  22.464  25.206  1.00  0.00     0.014 A 
ATOM     22  C   UNL A   1      33.720  22.587  24.336  1.00  0.00     0.017 A 
BRANCH  22  23
ATOM     23  C   UNL A   1      35.009  22.066  24.793  1.00  0.00     0.138 A 
ATOM     24  N   UNL A   1      35.958  22.804  25.339  1.00  0.00    -0.229 NA
ATOM     25  N   UNL A   1      35.464  20.777  24.611  1.00  0.00    -0.338 N 
ATOM     26  C   UNL A   1      37.053  21.997  25.462  1.00  0.00     0.089 A 
ATOM     27  C   UNL A   1      36.777  20.713  25.012  1.00  0.00     0.066 A 
ATOM     28  H   UNL A   1      34.935  20.027  24.253  1.00  0.00     0.168 HD
ATOM     29  C   UNL A   1      38.333  22.310  25.936  1.00  0.00     0.030 A 
ATOM     30  C   UNL A   1      37.729  19.690  25.005  1.00  0.00     0.028 A 
ATOM     31  C   UNL A   1      39.306  21.306  25.939  1.00  0.00     0.002 A 
ATOM     32  C   UNL A   1      39.007  20.020  25.482  1.00  0.00     0.002 A 
ENDBRANCH  22  23
ENDBRANCH  15  17
ENDBRANCH  12  13
ENDBRANCH   5   7
ENDBRANCH   2   3
ENDBRANCH   1   2
BRANCH   1  33
ATOM     33  C   UNL A   1      33.034  33.431  27.345  1.00  0.00     0.118 C 
BRANCH  33  34
ATOM     34  N   UNL A   1      32.809  34.621  28.154  1.00  0.00    -0.352 N 
ATOM     35  C   UNL A   1      33.347  34.997  29.361  1.00  0.00     0.251 C 
ATOM     36  H   UNL A   1      32.165  35.261  27.773  1.00  0.00     0.163 HD
ATOM     37  O   UNL A   1      32.862  35.955  29.955  1.00  0.00    -0.269 OA
BRANCH  35  38
ATOM     38  C   UNL A   1      34.475  34.243  29.954  1.00  0.00     0.039 A 
ATOM     39  C   UNL A   1      35.775  34.539  29.538  1.00  0.00     0.014 A 
ATOM     40  C   UNL A   1      34.262  33.238  30.900  1.00  0.00     0.014 A 
ATOM     41  C   UNL A   1      36.858  33.878  30.123  1.00  0.00     0.010 A 
ATOM     42  C   UNL A   1      35.343  32.657  31.555  1.00  0.00     0.010 A 
ATOM     43  C   UNL A   1      36.655  32.961  31.168  1.00  0.00    -0.014 A 
BRANCH  43  44
ATOM     44  C   UNL A   1      37.803  32.311  31.855  1.00  0.00     0.031 A 
ATOM     45  C   UNL A   1      38.565  31.204  31.175  1.00  0.00     0.074 A 
ATOM     46  C   UNL A   1      38.128  32.686  33.108  1.00  0.00     0.049 A 
ATOM     47  N   UNL A   1      39.565  30.489  31.626  1.00  0.00    -0.248 NA
ATOM     48  C   UNL A   1      38.126  30.830  29.822  1.00  0.00     0.031 C 
ATOM     49  C   UNL A   1      37.435  33.713  33.889  1.00  0.00     0.029 A 
ATOM     50  N   UNL A   1      39.123  32.250  33.948  1.00  0.00    -0.354 N 
ATOM     51  C   UNL A   1      39.868  29.579  30.617  1.00  0.00     0.074 A 
ATOM     52  C   UNL A   1      38.897  29.785  29.565  1.00  0.00     0.031 C 
ATOM     53  C   UNL A   1      38.049  33.856  35.074  1.00  0.00     0.029 A 
ATOM     54  C   UNL A   1      39.144  32.897  35.163  1.00  0.00     0.049 A 
ATOM     55  H   UNL A   1      39.761  31.542  33.704  1.00  0.00     0.167 HD
ATOM     56  C   UNL A   1      40.877  28.676  30.563  1.00  0.00     0.034 A 
ATOM     57  C   UNL A   1      39.950  32.731  36.230  1.00  0.00     0.034 A 
ATOM     58  C   UNL A   1      41.841  28.487  31.621  1.00  0.00     0.049 A 
ATOM     59  C   UNL A   1      41.047  31.699  36.157  1.00  0.00     0.074 A 
ATOM     60  C   UNL A   1      42.931  27.635  31.651  1.00  0.00     0.029 A 
ATOM     61  N   UNL A   1      41.826  29.154  32.840  1.00  0.00    -0.354 N 
ATOM     62  N   UNL A   1      41.354  30.885  35.174  1.00  0.00    -0.248 NA
ATOM     63  C   UNL A   1      41.917  31.577  37.334  1.00  0.00     0.031 C 
ATOM     64  C   UNL A   1      43.527  27.728  32.914  1.00  0.00     0.029 A 
ATOM     65  C   UNL A   1      42.867  28.706  33.641  1.00  0.00     0.049 A 
ATOM     66  H   UNL A   1      41.172  29.842  33.098  1.00  0.00     0.167 HD
ATOM     67  C   UNL A   1      42.474  30.177  35.603  1.00  0.00     0.074 A 
ATOM     68  C   UNL A   1      42.798  30.679  36.921  1.00  0.00     0.031 C 
ATOM     69  C   UNL A   1      43.173  29.204  34.963  1.00  0.00     0.034 A 
BRANCH  56  70
ATOM     70  C   UNL A   1      40.970  27.809  29.327  1.00  0.00     0.023 A 
ATOM     71  C   UNL A   1      41.950  28.026  28.343  1.00  0.00     0.031 A 
ATOM     72  C   UNL A   1      40.050  26.766  29.116  1.00  0.00     0.131 A 
ATOM     73  C   UNL A   1      41.941  27.268  27.162  1.00  0.00     0.055 A 
ATOM     74  C   UNL A   1      40.102  25.956  27.979  1.00  0.00     0.041 A 
ATOM     75  F   UNL A   1      39.076  26.521  30.006  1.00  0.00    -0.206 F 
ATOM     76  C   UNL A   1      41.040  26.216  26.985  1.00  0.00     0.022 A 
BRANCH  73  77
ATOM     77  S   UNL A   1      43.020  27.778  25.796  1.00  0.00     0.124 S 
ATOM     78  O   UNL A   1      43.216  29.197  26.089  1.00  0.00    -0.237 OA
ATOM     79  O   UNL A   1      44.186  26.922  25.978  1.00  0.00    -0.237 OA
ATOM     80  O   UNL A   1      42.220  27.501  24.605  1.00  0.00    -0.744 OA
ENDBRANCH  73  77
ENDBRANCH  56  70
BRANCH  57  81
ATOM     81  C   UNL A   1      39.755  33.550  37.463  1.00  0.00     0.023 A 
ATOM     82  C   UNL A   1      39.027  33.053  38.556  1.00  0.00     0.031 A 
ATOM     83  C   UNL A   1      40.253  34.863  37.547  1.00  0.00     0.131 A 
ATOM     84  C   UNL A   1      38.770  33.880  39.660  1.00  0.00     0.055 A 
ATOM     85  C   UNL A   1      40.047  35.661  38.674  1.00  0.00     0.041 A 
ATOM     86  F   UNL A   1      40.958  35.389  36.532  1.00  0.00    -0.206 F 
ATOM     87  C   UNL A   1      39.288  35.174  39.734  1.00  0.00     0.022 A 
BRANCH  84  88
ATOM     88  S   UNL A   1      37.661  33.271  40.961  1.00  0.00     0.124 S 
ATOM     89  O   UNL A   1      38.318  32.029  41.353  1.00  0.00    -0.237 OA
ATOM     90  O   UNL A   1      37.709  34.358  41.932  1.00  0.00    -0.237 OA
ATOM     91  O   UNL A   1      36.383  33.111  40.271  1.00  0.00    -0.744 OA
ENDBRANCH  84  88
ENDBRANCH  57  81
BRANCH  69  92
ATOM     92  C   UNL A   1      44.391  28.657  35.672  1.00  0.00     0.023 A 
ATOM     93  C   UNL A   1      44.296  27.626  36.623  1.00  0.00     0.031 A 
ATOM     94  C   UNL A   1      45.664  29.198  35.413  1.00  0.00     0.131 A 
ATOM     95  C   UNL A   1      45.436  27.224  37.335  1.00  0.00     0.055 A 
ATOM     96  C   UNL A   1      46.806  28.740  36.068  1.00  0.00     0.041 A 
ATOM     97  F   UNL A   1      45.817  30.187  34.517  1.00  0.00    -0.206 F 
ATOM     98  C   UNL A   1      46.694  27.759  37.050  1.00  0.00     0.022 A 
BRANCH  95  99
ATOM     99  S   UNL A   1      45.233  26.078  38.727  1.00  0.00     0.124 S 
ATOM    100  O   UNL A   1      44.740  24.876  38.060  1.00  0.00    -0.237 OA
ATOM    101  O   UNL A   1      46.587  25.999  39.266  1.00  0.00    -0.237 OA
ATOM    102  O   UNL A   1      44.262  26.752  39.587  1.00  0.00    -0.744 OA
ENDBRANCH  95  99
ENDBRANCH  69  92
ENDBRANCH  43  44
ENDBRANCH  35  38
ENDBRANCH  33  34
ENDBRANCH   1  33
TORSDOF 16
ENDMDL
