MODEL 1
REMARK VINA RESULT:     -11.6      0.000      0.000
REMARK SMILES COC(=O)[C@@H](NC(=O)CCC(=O)NCCCNC(=O)c1ccc(-c2c3nc(c(-c4cc(S(=O)(=O)[O-])ccc4F)c4ccc([nH]4)c(-c4cc(S(=O)(=O)[O-])ccc4F)c4nc(c(-c5cc(S(=O)(=O)[O-])ccc5F)c5ccc2[nH]5)C=C4)C=C3)cc1)c1cccc2ccccc12
REMARK SMILES IDX 14 1 13 2 11 3 12 4 10 6 9 7 7 8 6 9 8 11 5 12 3 13 4 14
REMARK SMILES IDX 2 15 1 16 83 17 84 18 92 19 85 20 87 21 91 22 86 23 88 24
REMARK SMILES IDX 90 25 89 26 15 27 16 28 17 29 18 30 19 32 20 33 21 34 82 35
REMARK SMILES IDX 22 36 81 37 23 38 24 39 25 40 75 41 26 42 80 43 74 44 76 45
REMARK SMILES IDX 27 46 79 47 73 48 72 49 28 51 60 52 40 53 59 54 41 55 44 56
REMARK SMILES IDX 58 57 77 58 42 59 43 60 57 62 78 63 45 64 29 65 30 66 38 67
REMARK SMILES IDX 31 68 37 69 39 70 36 71 32 72 33 73 34 74 35 75 61 76 62 77
REMARK SMILES IDX 70 78 63 79 69 80 71 81 68 82 64 83 65 84 66 85 67 86 46 87
REMARK SMILES IDX 47 88 55 89 48 90 54 91 56 92 53 93 49 94 50 95 51 96 52 97
REMARK H PARENT 13 5 6 10 17 31 76 50 44 61
REMARK Flexibility Score: inf
ROOT
ATOM      1  C   UNL A   1      31.523  28.064  26.136  1.00  0.00     0.117 C 
ENDROOT
BRANCH   1   2
ATOM      2  N   UNL A   1      31.085  27.310  24.976  1.00  0.00    -0.356 N 
ATOM      3  C   UNL A   1      30.135  26.348  24.861  1.00  0.00     0.220 C 
ATOM      4  O   UNL A   1      29.601  26.196  23.761  1.00  0.00    -0.275 OA
ATOM      5  H   UNL A   1      31.552  27.533  24.138  1.00  0.00     0.163 HD
BRANCH   3   6
ATOM      6  C   UNL A   1      29.775  25.456  26.024  1.00  0.00     0.110 C 
BRANCH   6   7
ATOM      7  C   UNL A   1      30.904  24.560  26.516  1.00  0.00     0.110 C 
BRANCH   7   8
ATOM      8  C   UNL A   1      30.486  23.149  26.794  1.00  0.00     0.221 C 
ATOM      9  N   UNL A   1      31.119  22.063  26.294  1.00  0.00    -0.339 N 
ATOM     10  H   UNL A   1      30.860  21.238  26.766  1.00  0.00     0.164 HD
ATOM     11  O   UNL A   1      29.520  22.950  27.537  1.00  0.00    -0.275 OA
BRANCH   9  12
ATOM     12  C   UNL A   1      32.100  21.799  25.222  1.00  0.00     0.224 C 
BRANCH  12  13
ATOM     13  C   UNL A   1      32.612  20.405  24.745  1.00  0.00     0.333 C 
ATOM     14  O   UNL A   1      33.482  20.274  23.888  1.00  0.00    -0.249 OA
BRANCH  13  15
ATOM     15  O   UNL A   1      31.948  19.361  25.302  1.00  0.00    -0.467 OA
ATOM     16  C   UNL A   1      32.747  18.208  25.614  1.00  0.00     0.282 C 
ENDBRANCH  13  15
ENDBRANCH  12  13
BRANCH  12  17
ATOM     17  C   UNL A   1      33.142  22.906  25.065  1.00  0.00    -0.007 A 
ATOM     18  C   UNL A   1      34.188  22.912  26.007  1.00  0.00     0.007 A 
ATOM     19  C   UNL A   1      33.087  23.937  24.071  1.00  0.00    -0.013 A 
ATOM     20  C   UNL A   1      35.085  23.966  26.069  1.00  0.00     0.001 A 
ATOM     21  C   UNL A   1      33.994  25.019  24.170  1.00  0.00    -0.018 A 
ATOM     22  C   UNL A   1      32.217  23.947  22.954  1.00  0.00     0.009 A 
ATOM     23  C   UNL A   1      34.956  25.034  25.188  1.00  0.00     0.009 A 
ATOM     24  C   UNL A   1      33.958  26.066  23.234  1.00  0.00     0.009 A 
ATOM     25  C   UNL A   1      32.276  24.929  21.962  1.00  0.00     0.001 A 
ATOM     26  C   UNL A   1      33.130  26.007  22.117  1.00  0.00     0.001 A 
ENDBRANCH  12  17
ENDBRANCH   9  12
ENDBRANCH   7   8
ENDBRANCH   6   7
ENDBRANCH   3   6
ENDBRANCH   1   2
BRANCH   1  27
ATOM     27  C   UNL A   1      32.996  27.912  26.522  1.00  0.00     0.042 C 
BRANCH  27  28
ATOM     28  C   UNL A   1      33.974  28.916  25.930  1.00  0.00     0.118 C 
BRANCH  28  29
ATOM     29  N   UNL A   1      33.791  30.259  26.445  1.00  0.00    -0.352 N 
ATOM     30  C   UNL A   1      34.490  30.891  27.442  1.00  0.00     0.251 C 
ATOM     31  H   UNL A   1      33.073  30.787  26.024  1.00  0.00     0.163 HD
ATOM     32  O   UNL A   1      34.067  31.942  27.920  1.00  0.00    -0.269 OA
BRANCH  30  33
ATOM     33  C   UNL A   1      35.735  30.280  27.949  1.00  0.00     0.039 A 
ATOM     34  C   UNL A   1      36.915  30.424  27.219  1.00  0.00     0.014 A 
ATOM     35  C   UNL A   1      35.732  29.576  29.157  1.00  0.00     0.014 A 
ATOM     36  C   UNL A   1      38.107  29.898  27.725  1.00  0.00     0.010 A 
ATOM     37  C   UNL A   1      36.934  29.124  29.696  1.00  0.00     0.010 A 
ATOM     38  C   UNL A   1      38.133  29.263  28.979  1.00  0.00    -0.014 A 
BRANCH  38  39
ATOM     39  C   UNL A   1      39.390  28.689  29.532  1.00  0.00     0.031 A 
ATOM     40  C   UNL A   1      40.048  29.345  30.719  1.00  0.00     0.074 A 
ATOM     41  C   UNL A   1      39.965  27.618  28.950  1.00  0.00     0.049 A 
ATOM     42  N   UNL A   1      41.188  29.067  31.296  1.00  0.00    -0.248 NA
ATOM     43  C   UNL A   1      39.340  30.490  31.311  1.00  0.00     0.031 C 
ATOM     44  C   UNL A   1      39.441  26.907  27.782  1.00  0.00     0.029 A 
ATOM     45  N   UNL A   1      41.122  26.943  29.255  1.00  0.00    -0.354 N 
ATOM     46  C   UNL A   1      41.342  30.013  32.305  1.00  0.00     0.074 A 
ATOM     47  C   UNL A   1      40.214  30.912  32.210  1.00  0.00     0.031 C 
ATOM     48  C   UNL A   1      40.258  25.882  27.489  1.00  0.00     0.029 A 
ATOM     49  C   UNL A   1      41.392  25.892  28.409  1.00  0.00     0.049 A 
ATOM     50  H   UNL A   1      41.704  27.189  30.010  1.00  0.00     0.167 HD
ATOM     51  C   UNL A   1      42.319  30.107  33.241  1.00  0.00     0.034 A 
ATOM     52  C   UNL A   1      42.440  25.045  28.367  1.00  0.00     0.034 A 
ATOM     53  C   UNL A   1      43.431  29.192  33.331  1.00  0.00     0.049 A 
ATOM     54  C   UNL A   1      43.539  25.192  29.392  1.00  0.00     0.074 A 
ATOM     55  C   UNL A   1      44.452  29.165  34.264  1.00  0.00     0.029 A 
ATOM     56  N   UNL A   1      43.673  28.144  32.450  1.00  0.00    -0.354 N 
ATOM     57  N   UNL A   1      43.652  26.070  30.363  1.00  0.00    -0.248 NA
ATOM     58  C   UNL A   1      44.645  24.228  29.323  1.00  0.00     0.031 C 
ATOM     59  C   UNL A   1      45.351  28.156  33.904  1.00  0.00     0.029 A 
ATOM     60  C   UNL A   1      44.844  27.489  32.801  1.00  0.00     0.049 A 
ATOM     61  H   UNL A   1      43.097  27.903  31.689  1.00  0.00     0.167 HD
ATOM     62  C   UNL A   1      44.822  25.737  31.043  1.00  0.00     0.074 A 
ATOM     63  C   UNL A   1      45.371  24.575  30.376  1.00  0.00     0.031 C 
ATOM     64  C   UNL A   1      45.384  26.331  32.126  1.00  0.00     0.034 A 
BRANCH  51  65
ATOM     65  C   UNL A   1      42.239  31.258  34.217  1.00  0.00     0.023 A 
ATOM     66  C   UNL A   1      41.334  31.255  35.294  1.00  0.00     0.031 A 
ATOM     67  C   UNL A   1      43.051  32.394  34.049  1.00  0.00     0.131 A 
ATOM     68  C   UNL A   1      41.198  32.394  36.100  1.00  0.00     0.055 A 
ATOM     69  C   UNL A   1      42.977  33.488  34.915  1.00  0.00     0.041 A 
ATOM     70  F   UNL A   1      43.919  32.470  33.028  1.00  0.00    -0.206 F 
ATOM     71  C   UNL A   1      42.034  33.500  35.937  1.00  0.00     0.022 A 
BRANCH  68  72
ATOM     72  S   UNL A   1      39.798  32.474  37.252  1.00  0.00     0.124 S 
ATOM     73  O   UNL A   1      40.472  32.343  38.542  1.00  0.00    -0.237 OA
ATOM     74  O   UNL A   1      39.225  33.783  36.961  1.00  0.00    -0.237 OA
ATOM     75  O   UNL A   1      38.973  31.331  36.870  1.00  0.00    -0.744 OA
ENDBRANCH  68  72
ENDBRANCH  51  65
BRANCH  52  76
ATOM     76  C   UNL A   1      42.519  23.988  27.314  1.00  0.00     0.023 A 
ATOM     77  C   UNL A   1      41.692  22.854  27.361  1.00  0.00     0.031 A 
ATOM     78  C   UNL A   1      43.458  24.075  26.271  1.00  0.00     0.131 A 
ATOM     79  C   UNL A   1      41.851  21.832  26.412  1.00  0.00     0.055 A 
ATOM     80  C   UNL A   1      43.572  23.083  25.294  1.00  0.00     0.041 A 
ATOM     81  F   UNL A   1      44.274  25.136  26.177  1.00  0.00    -0.206 F 
ATOM     82  C   UNL A   1      42.775  21.946  25.370  1.00  0.00     0.022 A 
BRANCH  79  83
ATOM     83  S   UNL A   1      40.898  20.301  26.614  1.00  0.00     0.124 S 
ATOM     84  O   UNL A   1      39.594  20.694  26.093  1.00  0.00    -0.237 OA
ATOM     85  O   UNL A   1      41.659  19.361  25.797  1.00  0.00    -0.237 OA
ATOM     86  O   UNL A   1      40.949  20.056  28.054  1.00  0.00    -0.744 OA
ENDBRANCH  79  83
ENDBRANCH  52  76
BRANCH  64  87
ATOM     87  C   UNL A   1      46.628  25.695  32.700  1.00  0.00     0.023 A 
ATOM     88  C   UNL A   1      47.903  25.913  32.150  1.00  0.00     0.031 A 
ATOM     89  C   UNL A   1      46.531  24.859  33.829  1.00  0.00     0.131 A 
ATOM     90  C   UNL A   1      49.020  25.263  32.696  1.00  0.00     0.055 A 
ATOM     91  C   UNL A   1      47.655  24.269  34.408  1.00  0.00     0.041 A 
ATOM     92  F   UNL A   1      45.340  24.610  34.394  1.00  0.00    -0.206 F 
ATOM     93  C   UNL A   1      48.908  24.459  33.834  1.00  0.00     0.022 A 
BRANCH  90  94
ATOM     94  S   UNL A   1      50.616  25.405  31.843  1.00  0.00     0.124 S 
ATOM     95  O   UNL A   1      51.467  25.970  32.884  1.00  0.00    -0.237 OA
ATOM     96  O   UNL A   1      50.895  24.021  31.472  1.00  0.00    -0.237 OA
ATOM     97  O   UNL A   1      50.328  26.300  30.723  1.00  0.00    -0.744 OA
ENDBRANCH  90  94
ENDBRANCH  64  87
ENDBRANCH  38  39
ENDBRANCH  30  33
ENDBRANCH  28  29
ENDBRANCH  27  28
ENDBRANCH   1  27
TORSDOF 19
ENDMDL
MODEL 2
REMARK VINA RESULT:     -11.6      1.313      1.729
REMARK SMILES COC(=O)[C@@H](NC(=O)CCC(=O)NCCCNC(=O)c1ccc(-c2c3nc(c(-c4cc(S(=O)(=O)[O-])ccc4F)c4ccc([nH]4)c(-c4cc(S(=O)(=O)[O-])ccc4F)c4nc(c(-c5cc(S(=O)(=O)[O-])ccc5F)c5ccc2[nH]5)C=C4)C=C3)cc1)c1cccc2ccccc12
REMARK SMILES IDX 14 1 13 2 11 3 12 4 10 6 9 7 7 8 6 9 8 11 5 12 3 13 4 14
REMARK SMILES IDX 2 15 1 16 83 17 84 18 92 19 85 20 87 21 91 22 86 23 88 24
REMARK SMILES IDX 90 25 89 26 15 27 16 28 17 29 18 30 19 32 20 33 21 34 82 35
REMARK SMILES IDX 22 36 81 37 23 38 24 39 25 40 75 41 26 42 80 43 74 44 76 45
REMARK SMILES IDX 27 46 79 47 73 48 72 49 28 51 60 52 40 53 59 54 41 55 44 56
REMARK SMILES IDX 58 57 77 58 42 59 43 60 57 62 78 63 45 64 29 65 30 66 38 67
REMARK SMILES IDX 31 68 37 69 39 70 36 71 32 72 33 73 34 74 35 75 61 76 62 77
REMARK SMILES IDX 70 78 63 79 69 80 71 81 68 82 64 83 65 84 66 85 67 86 46 87
REMARK SMILES IDX 47 88 55 89 48 90 54 91 56 92 53 93 49 94 50 95 51 96 52 97
REMARK H PARENT 13 5 6 10 17 31 76 50 44 61
REMARK Flexibility Score: inf
ROOT
ATOM      1  C   UNL A   1      31.433  28.160  26.044  1.00  0.00     0.117 C 
ENDROOT
BRANCH   1   2
ATOM      2  N   UNL A   1      30.966  27.378  24.916  1.00  0.00    -0.356 N 
ATOM      3  C   UNL A   1      30.018  26.409  24.850  1.00  0.00     0.220 C 
ATOM      4  O   UNL A   1      29.453  26.229  23.770  1.00  0.00    -0.275 OA
ATOM      5  H   UNL A   1      31.408  27.582  24.060  1.00  0.00     0.163 HD
BRANCH   3   6
ATOM      6  C   UNL A   1      29.696  25.543  26.044  1.00  0.00     0.110 C 
BRANCH   6   7
ATOM      7  C   UNL A   1      30.809  24.592  26.463  1.00  0.00     0.110 C 
BRANCH   7   8
ATOM      8  C   UNL A   1      30.343  23.201  26.764  1.00  0.00     0.221 C 
ATOM      9  N   UNL A   1      30.930  22.086  26.271  1.00  0.00    -0.339 N 
ATOM     10  H   UNL A   1      30.646  21.277  26.756  1.00  0.00     0.164 HD
ATOM     11  O   UNL A   1      29.377  23.047  27.518  1.00  0.00    -0.275 OA
BRANCH   9  12
ATOM     12  C   UNL A   1      31.890  21.774  25.192  1.00  0.00     0.224 C 
BRANCH  12  13
ATOM     13  C   UNL A   1      32.284  20.356  24.674  1.00  0.00     0.333 C 
ATOM     14  O   UNL A   1      32.119  19.336  25.338  1.00  0.00    -0.249 OA
BRANCH  13  15
ATOM     15  O   UNL A   1      32.902  20.370  23.466  1.00  0.00    -0.467 OA
ATOM     16  C   UNL A   1      32.034  20.422  22.322  1.00  0.00     0.282 C 
ENDBRANCH  13  15
ENDBRANCH  12  13
BRANCH  12  17
ATOM     17  C   UNL A   1      33.022  22.793  25.071  1.00  0.00    -0.007 A 
ATOM     18  C   UNL A   1      34.090  22.645  25.977  1.00  0.00     0.007 A 
ATOM     19  C   UNL A   1      33.033  23.888  24.148  1.00  0.00    -0.013 A 
ATOM     20  C   UNL A   1      35.080  23.610  26.075  1.00  0.00     0.001 A 
ATOM     21  C   UNL A   1      34.035  24.877  24.285  1.00  0.00    -0.018 A 
ATOM     22  C   UNL A   1      32.136  24.049  23.063  1.00  0.00     0.009 A 
ATOM     23  C   UNL A   1      35.022  24.741  25.268  1.00  0.00     0.009 A 
ATOM     24  C   UNL A   1      34.067  25.983  23.419  1.00  0.00     0.009 A 
ATOM     25  C   UNL A   1      32.255  25.085  22.134  1.00  0.00     0.001 A 
ATOM     26  C   UNL A   1      33.206  26.071  22.328  1.00  0.00     0.001 A 
ENDBRANCH  12  17
ENDBRANCH   9  12
ENDBRANCH   7   8
ENDBRANCH   6   7
ENDBRANCH   3   6
ENDBRANCH   1   2
BRANCH   1  27
ATOM     27  C   UNL A   1      32.821  27.806  26.583  1.00  0.00     0.042 C 
BRANCH  27  28
ATOM     28  C   UNL A   1      33.974  28.710  26.174  1.00  0.00     0.118 C 
BRANCH  28  29
ATOM     29  N   UNL A   1      33.754  30.102  26.516  1.00  0.00    -0.352 N 
ATOM     30  C   UNL A   1      34.434  30.871  27.428  1.00  0.00     0.251 C 
ATOM     31  H   UNL A   1      33.025  30.554  26.032  1.00  0.00     0.163 HD
ATOM     32  O   UNL A   1      33.982  31.962  27.769  1.00  0.00    -0.269 OA
BRANCH  30  33
ATOM     33  C   UNL A   1      35.691  30.361  28.008  1.00  0.00     0.039 A 
ATOM     34  C   UNL A   1      35.663  29.716  29.245  1.00  0.00     0.014 A 
ATOM     35  C   UNL A   1      36.897  30.513  27.317  1.00  0.00     0.014 A 
ATOM     36  C   UNL A   1      36.842  29.181  29.770  1.00  0.00     0.010 A 
ATOM     37  C   UNL A   1      38.053  29.908  27.804  1.00  0.00     0.010 A 
ATOM     38  C   UNL A   1      38.044  29.250  29.045  1.00  0.00    -0.014 A 
BRANCH  38  39
ATOM     39  C   UNL A   1      39.313  28.693  29.590  1.00  0.00     0.031 A 
ATOM     40  C   UNL A   1      39.948  29.335  30.796  1.00  0.00     0.074 A 
ATOM     41  C   UNL A   1      39.918  27.652  28.984  1.00  0.00     0.049 A 
ATOM     42  N   UNL A   1      41.093  29.071  31.372  1.00  0.00    -0.248 NA
ATOM     43  C   UNL A   1      39.208  30.446  31.413  1.00  0.00     0.031 C 
ATOM     44  C   UNL A   1      39.417  26.959  27.795  1.00  0.00     0.029 A 
ATOM     45  N   UNL A   1      41.090  26.999  29.277  1.00  0.00    -0.354 N 
ATOM     46  C   UNL A   1      41.217  29.995  32.406  1.00  0.00     0.074 A 
ATOM     47  C   UNL A   1      40.067  30.868  32.328  1.00  0.00     0.031 C 
ATOM     48  C   UNL A   1      40.261  25.963  27.480  1.00  0.00     0.029 A 
ATOM     49  C   UNL A   1      41.391  25.978  28.406  1.00  0.00     0.049 A 
ATOM     50  H   UNL A   1      41.662  27.241  30.041  1.00  0.00     0.167 HD
ATOM     51  C   UNL A   1      42.188  30.090  33.349  1.00  0.00     0.034 A 
ATOM     52  C   UNL A   1      42.460  25.159  28.348  1.00  0.00     0.034 A 
ATOM     53  C   UNL A   1      43.322  29.201  33.421  1.00  0.00     0.049 A 
ATOM     54  C   UNL A   1      43.550  25.307  29.383  1.00  0.00     0.074 A 
ATOM     55  C   UNL A   1      44.339  29.176  34.359  1.00  0.00     0.029 A 
ATOM     56  N   UNL A   1      43.594  28.183  32.516  1.00  0.00    -0.354 N 
ATOM     57  N   UNL A   1      43.636  26.163  30.376  1.00  0.00    -0.248 NA
ATOM     58  C   UNL A   1      44.681  24.375  29.294  1.00  0.00     0.031 C 
ATOM     59  C   UNL A   1      45.265  28.200  33.978  1.00  0.00     0.029 A 
ATOM     60  C   UNL A   1      44.780  27.549  32.855  1.00  0.00     0.049 A 
ATOM     61  H   UNL A   1      43.028  27.946  31.745  1.00  0.00     0.167 HD
ATOM     62  C   UNL A   1      44.811  25.842  31.053  1.00  0.00     0.074 A 
ATOM     63  C   UNL A   1      45.393  24.712  30.359  1.00  0.00     0.031 C 
ATOM     64  C   UNL A   1      45.353  26.423  32.154  1.00  0.00     0.034 A 
BRANCH  51  65
ATOM     65  C   UNL A   1      42.073  31.213  34.354  1.00  0.00     0.023 A 
ATOM     66  C   UNL A   1      41.080  31.218  35.350  1.00  0.00     0.031 A 
ATOM     67  C   UNL A   1      42.945  32.316  34.294  1.00  0.00     0.131 A 
ATOM     68  C   UNL A   1      40.925  32.337  36.180  1.00  0.00     0.055 A 
ATOM     69  C   UNL A   1      42.844  33.384  35.187  1.00  0.00     0.041 A 
ATOM     70  F   UNL A   1      43.900  32.383  33.353  1.00  0.00    -0.206 F 
ATOM     71  C   UNL A   1      41.818  33.409  36.126  1.00  0.00     0.022 A 
BRANCH  68  72
ATOM     72  S   UNL A   1      39.436  32.446  37.212  1.00  0.00     0.124 S 
ATOM     73  O   UNL A   1      38.750  31.202  36.870  1.00  0.00    -0.237 OA
ATOM     74  O   UNL A   1      39.991  32.520  38.559  1.00  0.00    -0.237 OA
ATOM     75  O   UNL A   1      38.779  33.662  36.739  1.00  0.00    -0.744 OA
ENDBRANCH  68  72
ENDBRANCH  51  65
BRANCH  52  76
ATOM     76  C   UNL A   1      42.571  24.132  27.269  1.00  0.00     0.023 A 
ATOM     77  C   UNL A   1      41.952  22.878  27.395  1.00  0.00     0.031 A 
ATOM     78  C   UNL A   1      43.339  24.373  26.116  1.00  0.00     0.131 A 
ATOM     79  C   UNL A   1      42.149  21.897  26.409  1.00  0.00     0.055 A 
ATOM     80  C   UNL A   1      43.483  23.416  25.109  1.00  0.00     0.041 A 
ATOM     81  F   UNL A   1      43.953  25.554  25.943  1.00  0.00    -0.206 F 
ATOM     82  C   UNL A   1      42.898  22.163  25.260  1.00  0.00     0.022 A 
BRANCH  79  83
ATOM     83  S   UNL A   1      41.491  20.231  26.696  1.00  0.00     0.124 S 
ATOM     84  O   UNL A   1      41.769  19.580  25.420  1.00  0.00    -0.237 OA
ATOM     85  O   UNL A   1      42.289  19.782  27.832  1.00  0.00    -0.237 OA
ATOM     86  O   UNL A   1      40.078  20.467  26.983  1.00  0.00    -0.744 OA
ENDBRANCH  79  83
ENDBRANCH  52  76
BRANCH  64  87
ATOM     87  C   UNL A   1      46.610  25.804  32.719  1.00  0.00     0.023 A 
ATOM     88  C   UNL A   1      46.573  24.792  33.693  1.00  0.00     0.031 A 
ATOM     89  C   UNL A   1      47.870  26.234  32.262  1.00  0.00     0.131 A 
ATOM     90  C   UNL A   1      47.772  24.281  34.216  1.00  0.00     0.055 A 
ATOM     91  C   UNL A   1      49.056  25.675  32.736  1.00  0.00     0.041 A 
ATOM     92  F   UNL A   1      47.967  27.200  31.336  1.00  0.00    -0.206 F 
ATOM     93  C   UNL A   1      49.012  24.701  33.729  1.00  0.00     0.022 A 
BRANCH  90  94
ATOM     94  S   UNL A   1      47.692  23.124  35.611  1.00  0.00     0.124 S 
ATOM     95  O   UNL A   1      48.799  22.219  35.319  1.00  0.00    -0.237 OA
ATOM     96  O   UNL A   1      47.876  24.006  36.760  1.00  0.00    -0.237 OA
ATOM     97  O   UNL A   1      46.360  22.533  35.492  1.00  0.00    -0.744 OA
ENDBRANCH  90  94
ENDBRANCH  64  87
ENDBRANCH  38  39
ENDBRANCH  30  33
ENDBRANCH  28  29
ENDBRANCH  27  28
ENDBRANCH   1  27
TORSDOF 19
ENDMDL
MODEL 3
REMARK VINA RESULT:     -11.5      3.648      8.875
REMARK SMILES COC(=O)[C@@H](NC(=O)CCC(=O)NCCCNC(=O)c1ccc(-c2c3nc(c(-c4cc(S(=O)(=O)[O-])ccc4F)c4ccc([nH]4)c(-c4cc(S(=O)(=O)[O-])ccc4F)c4nc(c(-c5cc(S(=O)(=O)[O-])ccc5F)c5ccc2[nH]5)C=C4)C=C3)cc1)c1cccc2ccccc12
REMARK SMILES IDX 14 1 13 2 11 3 12 4 10 6 9 7 7 8 6 9 8 11 5 12 3 13 4 14
REMARK SMILES IDX 2 15 1 16 83 17 84 18 92 19 85 20 87 21 91 22 86 23 88 24
REMARK SMILES IDX 90 25 89 26 15 27 16 28 17 29 18 30 19 32 20 33 21 34 82 35
REMARK SMILES IDX 22 36 81 37 23 38 24 39 25 40 75 41 26 42 80 43 74 44 76 45
REMARK SMILES IDX 27 46 79 47 73 48 72 49 28 51 60 52 40 53 59 54 41 55 44 56
REMARK SMILES IDX 58 57 77 58 42 59 43 60 57 62 78 63 45 64 29 65 30 66 38 67
REMARK SMILES IDX 31 68 37 69 39 70 36 71 32 72 33 73 34 74 35 75 61 76 62 77
REMARK SMILES IDX 70 78 63 79 69 80 71 81 68 82 64 83 65 84 66 85 67 86 46 87
REMARK SMILES IDX 47 88 55 89 48 90 54 91 56 92 53 93 49 94 50 95 51 96 52 97
REMARK H PARENT 13 5 6 10 17 31 76 50 44 61
REMARK Flexibility Score: inf
ROOT
ATOM      1  C   UNL A   1      31.549  30.697  26.657  1.00  0.00     0.117 C 
ENDROOT
BRANCH   1   2
ATOM      2  N   UNL A   1      32.714  30.025  27.198  1.00  0.00    -0.356 N 
ATOM      3  C   UNL A   1      33.126  28.738  27.071  1.00  0.00     0.220 C 
ATOM      4  O   UNL A   1      34.330  28.505  27.188  1.00  0.00    -0.275 OA
ATOM      5  H   UNL A   1      33.302  30.595  27.747  1.00  0.00     0.163 HD
BRANCH   3   6
ATOM      6  C   UNL A   1      32.141  27.618  26.845  1.00  0.00     0.110 C 
BRANCH   6   7
ATOM      7  C   UNL A   1      32.693  26.429  26.068  1.00  0.00     0.110 C 
BRANCH   7   8
ATOM      8  C   UNL A   1      31.778  25.242  26.038  1.00  0.00     0.221 C 
ATOM      9  N   UNL A   1      32.007  24.133  25.298  1.00  0.00    -0.339 N 
ATOM     10  H   UNL A   1      31.440  23.380  25.582  1.00  0.00     0.164 HD
ATOM     11  O   UNL A   1      30.761  25.257  26.739  1.00  0.00    -0.275 OA
BRANCH   9  12
ATOM     12  C   UNL A   1      32.891  23.764  24.174  1.00  0.00     0.224 C 
BRANCH  12  13
ATOM     13  C   UNL A   1      32.828  24.315  22.716  1.00  0.00     0.333 C 
ATOM     14  O   UNL A   1      33.416  23.781  21.778  1.00  0.00    -0.249 OA
BRANCH  13  15
ATOM     15  O   UNL A   1      32.139  25.478  22.601  1.00  0.00    -0.467 OA
ATOM     16  C   UNL A   1      32.936  26.667  22.476  1.00  0.00     0.282 C 
ENDBRANCH  13  15
ENDBRANCH  12  13
BRANCH  12  17
ATOM     17  C   UNL A   1      33.406  22.327  24.250  1.00  0.00    -0.007 A 
ATOM     18  C   UNL A   1      32.434  21.314  24.141  1.00  0.00     0.007 A 
ATOM     19  C   UNL A   1      34.775  21.966  24.469  1.00  0.00    -0.013 A 
ATOM     20  C   UNL A   1      32.760  19.987  24.371  1.00  0.00     0.001 A 
ATOM     21  C   UNL A   1      35.081  20.610  24.732  1.00  0.00    -0.018 A 
ATOM     22  C   UNL A   1      35.873  22.857  24.405  1.00  0.00     0.009 A 
ATOM     23  C   UNL A   1      34.064  19.647  24.713  1.00  0.00     0.009 A 
ATOM     24  C   UNL A   1      36.406  20.214  24.981  1.00  0.00     0.009 A 
ATOM     25  C   UNL A   1      37.198  22.430  24.529  1.00  0.00     0.001 A 
ATOM     26  C   UNL A   1      37.464  21.110  24.846  1.00  0.00     0.001 A 
ENDBRANCH  12  17
ENDBRANCH   9  12
ENDBRANCH   7   8
ENDBRANCH   6   7
ENDBRANCH   3   6
ENDBRANCH   1   2
BRANCH   1  27
ATOM     27  C   UNL A   1      31.570  32.226  26.700  1.00  0.00     0.042 C 
BRANCH  27  28
ATOM     28  C   UNL A   1      32.846  32.887  27.199  1.00  0.00     0.118 C 
BRANCH  28  29
ATOM     29  N   UNL A   1      32.635  34.236  27.688  1.00  0.00    -0.352 N 
ATOM     30  C   UNL A   1      33.214  34.849  28.771  1.00  0.00     0.251 C 
ATOM     31  H   UNL A   1      31.994  34.783  27.177  1.00  0.00     0.163 HD
ATOM     32  O   UNL A   1      32.761  35.912  29.191  1.00  0.00    -0.269 OA
BRANCH  30  33
ATOM     33  C   UNL A   1      34.362  34.204  29.437  1.00  0.00     0.039 A 
ATOM     34  C   UNL A   1      35.659  34.551  29.056  1.00  0.00     0.014 A 
ATOM     35  C   UNL A   1      34.151  33.263  30.449  1.00  0.00     0.014 A 
ATOM     36  C   UNL A   1      36.748  33.987  29.723  1.00  0.00     0.010 A 
ATOM     37  C   UNL A   1      35.236  32.764  31.165  1.00  0.00     0.010 A 
ATOM     38  C   UNL A   1      36.549  33.106  30.801  1.00  0.00    -0.014 A 
BRANCH  38  39
ATOM     39  C   UNL A   1      37.695  32.487  31.520  1.00  0.00     0.031 A 
ATOM     40  C   UNL A   1      38.441  31.342  30.883  1.00  0.00     0.074 A 
ATOM     41  C   UNL A   1      38.038  32.911  32.753  1.00  0.00     0.049 A 
ATOM     42  N   UNL A   1      39.402  30.602  31.373  1.00  0.00    -0.248 NA
ATOM     43  C   UNL A   1      38.022  30.960  29.526  1.00  0.00     0.031 C 
ATOM     44  C   UNL A   1      37.380  33.994  33.487  1.00  0.00     0.029 A 
ATOM     45  N   UNL A   1      39.020  32.480  33.610  1.00  0.00    -0.354 N 
ATOM     46  C   UNL A   1      39.689  29.657  30.392  1.00  0.00     0.074 A 
ATOM     47  C   UNL A   1      38.750  29.875  29.314  1.00  0.00     0.031 C 
ATOM     48  C   UNL A   1      37.994  34.158  34.670  1.00  0.00     0.029 A 
ATOM     49  C   UNL A   1      39.052  33.160  34.806  1.00  0.00     0.049 A 
ATOM     50  H   UNL A   1      39.643  31.750  33.390  1.00  0.00     0.167 HD
ATOM     51  C   UNL A   1      40.661  28.711  30.379  1.00  0.00     0.034 A 
ATOM     52  C   UNL A   1      39.831  32.991  35.893  1.00  0.00     0.034 A 
ATOM     53  C   UNL A   1      41.600  28.516  31.457  1.00  0.00     0.049 A 
ATOM     54  C   UNL A   1      40.882  31.906  35.875  1.00  0.00     0.074 A 
ATOM     55  C   UNL A   1      42.653  27.622  31.532  1.00  0.00     0.029 A 
ATOM     56  N   UNL A   1      41.595  29.222  32.655  1.00  0.00    -0.354 N 
ATOM     57  N   UNL A   1      41.164  31.043  34.926  1.00  0.00    -0.248 NA
ATOM     58  C   UNL A   1      41.724  31.778  37.072  1.00  0.00     0.031 C 
ATOM     59  C   UNL A   1      43.233  27.730  32.800  1.00  0.00     0.029 A 
ATOM     60  C   UNL A   1      42.605  28.758  33.484  1.00  0.00     0.049 A 
ATOM     61  H   UNL A   1      40.967  29.945  32.881  1.00  0.00     0.167 HD
ATOM     62  C   UNL A   1      42.244  30.299  35.397  1.00  0.00     0.074 A 
ATOM     63  C   UNL A   1      42.564  30.820  36.709  1.00  0.00     0.031 C 
ATOM     64  C   UNL A   1      42.915  29.284  34.794  1.00  0.00     0.034 A 
BRANCH  51  65
ATOM     65  C   UNL A   1      40.733  27.802  29.174  1.00  0.00     0.023 A 
ATOM     66  C   UNL A   1      41.676  28.001  28.151  1.00  0.00     0.031 A 
ATOM     67  C   UNL A   1      39.819  26.743  29.024  1.00  0.00     0.131 A 
ATOM     68  C   UNL A   1      41.627  27.218  26.988  1.00  0.00     0.055 A 
ATOM     69  C   UNL A   1      39.838  25.906  27.907  1.00  0.00     0.041 A 
ATOM     70  F   UNL A   1      38.879  26.514  29.955  1.00  0.00    -0.206 F 
ATOM     71  C   UNL A   1      40.733  26.152  26.871  1.00  0.00     0.022 A 
BRANCH  68  72
ATOM     72  S   UNL A   1      42.632  27.722  25.564  1.00  0.00     0.124 S 
ATOM     73  O   UNL A   1      43.922  27.990  26.195  1.00  0.00    -0.237 OA
ATOM     74  O   UNL A   1      42.573  26.546  24.705  1.00  0.00    -0.237 OA
ATOM     75  O   UNL A   1      41.938  28.904  25.056  1.00  0.00    -0.744 OA
ENDBRANCH  68  72
ENDBRANCH  51  65
BRANCH  52  76
ATOM     76  C   UNL A   1      39.649  33.853  37.099  1.00  0.00     0.023 A 
ATOM     77  C   UNL A   1      39.021  33.361  38.254  1.00  0.00     0.031 A 
ATOM     78  C   UNL A   1      40.058  35.198  37.095  1.00  0.00     0.131 A 
ATOM     79  C   UNL A   1      38.778  34.218  39.339  1.00  0.00     0.055 A 
ATOM     80  C   UNL A   1      39.868  36.032  38.200  1.00  0.00     0.041 A 
ATOM     81  F   UNL A   1      40.663  35.722  36.017  1.00  0.00    -0.206 F 
ATOM     82  C   UNL A   1      39.212  35.546  39.325  1.00  0.00     0.022 A 
BRANCH  79  83
ATOM     83  S   UNL A   1      37.800  33.600  40.736  1.00  0.00     0.124 S 
ATOM     84  O   UNL A   1      36.577  33.163  40.070  1.00  0.00    -0.237 OA
ATOM     85  O   UNL A   1      38.657  32.542  41.261  1.00  0.00    -0.237 OA
ATOM     86  O   UNL A   1      37.658  34.771  41.598  1.00  0.00    -0.744 OA
ENDBRANCH  79  83
ENDBRANCH  52  76
BRANCH  64  87
ATOM     87  C   UNL A   1      44.109  28.712  35.522  1.00  0.00     0.023 A 
ATOM     88  C   UNL A   1      43.989  27.649  36.434  1.00  0.00     0.031 A 
ATOM     89  C   UNL A   1      45.392  29.239  35.288  1.00  0.00     0.131 A 
ATOM     90  C   UNL A   1      45.124  27.183  37.116  1.00  0.00     0.055 A 
ATOM     91  C   UNL A   1      46.526  28.727  35.918  1.00  0.00     0.041 A 
ATOM     92  F   UNL A   1      45.566  30.258  34.431  1.00  0.00    -0.206 F 
ATOM     93  C   UNL A   1      46.394  27.701  36.849  1.00  0.00     0.022 A 
BRANCH  90  94
ATOM     94  S   UNL A   1      44.908  25.951  38.430  1.00  0.00     0.124 S 
ATOM     95  O   UNL A   1      46.285  25.708  38.848  1.00  0.00    -0.237 OA
ATOM     96  O   UNL A   1      44.067  26.661  39.389  1.00  0.00    -0.237 OA
ATOM     97  O   UNL A   1      44.260  24.831  37.749  1.00  0.00    -0.744 OA
ENDBRANCH  90  94
ENDBRANCH  64  87
ENDBRANCH  38  39
ENDBRANCH  30  33
ENDBRANCH  28  29
ENDBRANCH  27  28
ENDBRANCH   1  27
TORSDOF 19
ENDMDL
