MODEL 1
REMARK VINA RESULT:     -12.1      0.000      0.000
REMARK SMILES O=C(NCCCNC(=O)c1cc(Cl)cn(Cc2ccc(Cl)cc2)c1=O)c1ccc(-c2c3nc(c(-c4cc(S(=O)(=O)[O-])ccc4F)c4ccc([nH]4)c(-c4cc(S(=O)(=O)[O-])ccc4F)c4nc(c(-c5cc(S(=O)(=O)[O-])ccc5F)c5ccc2[nH]5)C=C4)C=C3)cc1
REMARK SMILES IDX 4 1 3 2 1 3 2 4 26 6 27 7 88 8 28 9 87 10 29 11 30 12 31 13
REMARK SMILES IDX 81 14 32 15 86 16 80 17 82 18 33 19 85 20 79 21 78 22 34 24
REMARK SMILES IDX 66 25 46 26 65 27 47 28 50 29 64 30 83 31 48 32 49 33 63 35
REMARK SMILES IDX 84 36 51 37 35 38 36 39 44 40 37 41 43 42 45 43 42 44 38 45
REMARK SMILES IDX 39 46 40 47 41 48 67 49 68 50 76 51 69 52 75 53 77 54 74 55
REMARK SMILES IDX 70 56 71 57 72 58 73 59 52 60 53 61 61 62 54 63 60 64 62 65
REMARK SMILES IDX 59 66 55 67 56 68 57 69 58 70 5 71 6 72 7 73 8 74 9 76 10 77
REMARK SMILES IDX 11 78 24 79 12 80 15 81 25 82 13 83 14 84 16 85 17 86 18 87
REMARK SMILES IDX 23 88 19 89 22 90 20 91 21 92
REMARK H PARENT 3 5 82 23 50 34 7 75
REMARK Flexibility Score: inf
ROOT
ATOM      1  C   UNL A   1      31.967  30.825  26.514  1.00  0.00     0.118 C 
ENDROOT
BRANCH   1   2
ATOM      2  N   UNL A   1      32.007  32.263  26.727  1.00  0.00    -0.352 N 
ATOM      3  O   UNL A   1      32.549  34.214  27.673  1.00  0.00    -0.269 OA
ATOM      4  C   UNL A   1      32.865  33.045  27.459  1.00  0.00     0.251 C 
ATOM      5  H   UNL A   1      31.296  32.762  26.265  1.00  0.00     0.163 HD
BRANCH   4   6
ATOM      6  C   UNL A   1      34.154  32.529  27.977  1.00  0.00     0.039 A 
ATOM      7  C   UNL A   1      34.191  31.224  28.486  1.00  0.00     0.014 A 
ATOM      8  C   UNL A   1      35.285  33.342  28.085  1.00  0.00     0.014 A 
ATOM      9  C   UNL A   1      35.353  30.736  29.092  1.00  0.00     0.010 A 
ATOM     10  C   UNL A   1      36.464  32.833  28.629  1.00  0.00     0.010 A 
ATOM     11  C   UNL A   1      36.500  31.540  29.170  1.00  0.00    -0.014 A 
BRANCH  11  12
ATOM     12  C   UNL A   1      37.718  31.093  29.894  1.00  0.00     0.031 A 
ATOM     13  C   UNL A   1      38.620  30.072  29.253  1.00  0.00     0.074 A 
ATOM     14  C   UNL A   1      37.983  31.547  31.133  1.00  0.00     0.049 A 
ATOM     15  N   UNL A   1      39.638  29.433  29.764  1.00  0.00    -0.248 NA
ATOM     16  C   UNL A   1      38.322  29.707  27.857  1.00  0.00     0.031 C 
ATOM     17  C   UNL A   1      37.181  32.532  31.856  1.00  0.00     0.029 A 
ATOM     18  N   UNL A   1      38.987  31.220  32.014  1.00  0.00    -0.354 N 
ATOM     19  C   UNL A   1      40.082  28.570  28.769  1.00  0.00     0.074 A 
ATOM     20  C   UNL A   1      39.204  28.742  27.634  1.00  0.00     0.031 C 
ATOM     21  C   UNL A   1      37.718  32.725  33.072  1.00  0.00     0.029 A 
ATOM     22  C   UNL A   1      38.873  31.844  33.235  1.00  0.00     0.049 A 
ATOM     23  H   UNL A   1      39.718  30.600  31.791  1.00  0.00     0.167 HD
ATOM     24  C   UNL A   1      41.139  27.726  28.796  1.00  0.00     0.034 A 
ATOM     25  C   UNL A   1      39.597  31.703  34.367  1.00  0.00     0.034 A 
ATOM     26  C   UNL A   1      42.036  27.601  29.913  1.00  0.00     0.049 A 
ATOM     27  C   UNL A   1      40.776  30.758  34.370  1.00  0.00     0.074 A 
ATOM     28  C   UNL A   1      43.170  26.815  30.010  1.00  0.00     0.029 A 
ATOM     29  N   UNL A   1      41.917  28.287  31.112  1.00  0.00    -0.354 N 
ATOM     30  N   UNL A   1      41.219  29.994  33.400  1.00  0.00    -0.248 NA
ATOM     31  C   UNL A   1      41.559  30.657  35.611  1.00  0.00     0.031 C 
ATOM     32  C   UNL A   1      43.710  26.987  31.283  1.00  0.00     0.029 A 
ATOM     33  C   UNL A   1      42.948  27.927  31.961  1.00  0.00     0.049 A 
ATOM     34  H   UNL A   1      41.205  28.932  31.327  1.00  0.00     0.167 HD
ATOM     35  C   UNL A   1      42.344  29.345  33.902  1.00  0.00     0.074 A 
ATOM     36  C   UNL A   1      42.526  29.818  35.258  1.00  0.00     0.031 C 
ATOM     37  C   UNL A   1      43.147  28.435  33.297  1.00  0.00     0.034 A 
BRANCH  24  38
ATOM     38  C   UNL A   1      41.426  26.879  27.583  1.00  0.00     0.023 A 
ATOM     39  C   UNL A   1      41.109  25.508  27.595  1.00  0.00     0.031 A 
ATOM     40  C   UNL A   1      42.143  27.390  26.489  1.00  0.00     0.131 A 
ATOM     41  C   UNL A   1      41.546  24.686  26.550  1.00  0.00     0.055 A 
ATOM     42  C   UNL A   1      42.542  26.574  25.430  1.00  0.00     0.041 A 
ATOM     43  F   UNL A   1      42.468  28.693  26.434  1.00  0.00    -0.206 F 
ATOM     44  C   UNL A   1      42.255  25.211  25.465  1.00  0.00     0.022 A 
BRANCH  41  45
ATOM     45  S   UNL A   1      41.259  22.896  26.586  1.00  0.00     0.124 S 
ATOM     46  O   UNL A   1      39.807  22.819  26.429  1.00  0.00    -0.237 OA
ATOM     47  O   UNL A   1      42.035  22.441  25.436  1.00  0.00    -0.237 OA
ATOM     48  O   UNL A   1      41.761  22.485  27.892  1.00  0.00    -0.744 OA
ENDBRANCH  41  45
ENDBRANCH  24  38
BRANCH  25  49
ATOM     49  C   UNL A   1      39.232  32.507  35.570  1.00  0.00     0.023 A 
ATOM     50  C   UNL A   1      39.638  33.848  35.695  1.00  0.00     0.031 A 
ATOM     51  C   UNL A   1      38.554  31.920  36.652  1.00  0.00     0.131 A 
ATOM     52  C   UNL A   1      39.418  34.536  36.896  1.00  0.00     0.055 A 
ATOM     53  C   UNL A   1      38.277  32.630  37.822  1.00  0.00     0.041 A 
ATOM     54  F   UNL A   1      38.157  30.640  36.587  1.00  0.00    -0.206 F 
ATOM     55  C   UNL A   1      38.725  33.941  37.954  1.00  0.00     0.022 A 
BRANCH  52  56
ATOM     56  S   UNL A   1      40.145  36.177  37.173  1.00  0.00     0.124 S 
ATOM     57  O   UNL A   1      41.519  35.844  37.530  1.00  0.00    -0.237 OA
ATOM     58  O   UNL A   1      39.967  36.809  35.868  1.00  0.00    -0.237 OA
ATOM     59  O   UNL A   1      39.330  36.738  38.246  1.00  0.00    -0.744 OA
ENDBRANCH  52  56
ENDBRANCH  25  49
BRANCH  37  60
ATOM     60  C   UNL A   1      44.326  27.876  34.052  1.00  0.00     0.023 A 
ATOM     61  C   UNL A   1      44.158  26.736  34.864  1.00  0.00     0.031 A 
ATOM     62  C   UNL A   1      45.536  28.583  34.136  1.00  0.00     0.131 A 
ATOM     63  C   UNL A   1      45.162  26.373  35.769  1.00  0.00     0.055 A 
ATOM     64  C   UNL A   1      46.553  28.190  35.007  1.00  0.00     0.041 A 
ATOM     65  F   UNL A   1      45.735  29.683  33.391  1.00  0.00    -0.206 F 
ATOM     66  C   UNL A   1      46.361  27.091  35.841  1.00  0.00     0.022 A 
BRANCH  63  67
ATOM     67  S   UNL A   1      44.911  25.020  36.951  1.00  0.00     0.124 S 
ATOM     68  O   UNL A   1      46.285  24.626  37.256  1.00  0.00    -0.237 OA
ATOM     69  O   UNL A   1      44.200  25.689  38.037  1.00  0.00    -0.237 OA
ATOM     70  O   UNL A   1      44.136  24.036  36.203  1.00  0.00    -0.744 OA
ENDBRANCH  63  67
ENDBRANCH  37  60
ENDBRANCH  11  12
ENDBRANCH   4   6
ENDBRANCH   1   2
BRANCH   1  71
ATOM     71  C   UNL A   1      31.113  30.443  25.310  1.00  0.00     0.042 C 
BRANCH  71  72
ATOM     72  C   UNL A   1      31.641  29.264  24.502  1.00  0.00     0.118 C 
BRANCH  72  73
ATOM     73  N   UNL A   1      33.021  29.439  24.069  1.00  0.00    -0.352 N 
ATOM     74  C   UNL A   1      33.841  28.570  23.404  1.00  0.00     0.256 C 
ATOM     75  H   UNL A   1      33.422  30.311  24.289  1.00  0.00     0.163 HD
ATOM     76  O   UNL A   1      35.002  28.882  23.161  1.00  0.00    -0.269 OA
BRANCH  74  77
ATOM     77  C   UNL A   1      33.335  27.218  23.092  1.00  0.00     0.106 A 
ATOM     78  C   UNL A   1      33.146  26.934  21.792  1.00  0.00     0.041 A 
ATOM     79  C   UNL A   1      33.098  26.175  24.134  1.00  0.00     0.263 A 
ATOM     80  C   UNL A   1      32.797  25.599  21.383  1.00  0.00     0.058 A 
ATOM     81  N   UNL A   1      32.877  24.880  23.651  1.00  0.00    -0.309 N 
ATOM     82  O   UNL A   1      33.149  26.453  25.332  1.00  0.00    -0.268 OA
ATOM     83  Cl  UNL A   1      32.573  25.277  19.710  1.00  0.00    -0.083 Cl
ATOM     84  C   UNL A   1      32.719  24.622  22.295  1.00  0.00     0.110 A 
BRANCH  81  85
ATOM     85  C   UNL A   1      32.817  23.778  24.608  1.00  0.00     0.161 C 
BRANCH  85  86
ATOM     86  C   UNL A   1      34.080  22.947  24.642  1.00  0.00    -0.028 A 
ATOM     87  C   UNL A   1      34.022  21.562  24.858  1.00  0.00     0.007 A 
ATOM     88  C   UNL A   1      35.333  23.553  24.462  1.00  0.00     0.007 A 
ATOM     89  C   UNL A   1      35.190  20.797  24.895  1.00  0.00     0.021 A 
ATOM     90  C   UNL A   1      36.501  22.785  24.483  1.00  0.00     0.021 A 
ATOM     91  C   UNL A   1      36.424  21.412  24.703  1.00  0.00     0.041 A 
ATOM     92  Cl  UNL A   1      37.861  20.466  24.737  1.00  0.00    -0.084 Cl
ENDBRANCH  85  86
ENDBRANCH  81  85
ENDBRANCH  74  77
ENDBRANCH  72  73
ENDBRANCH  71  72
ENDBRANCH   1  71
TORSDOF 15
ENDMDL
MODEL 2
REMARK VINA RESULT:     -12.1      1.580      2.253
REMARK SMILES O=C(NCCCNC(=O)c1cc(Cl)cn(Cc2ccc(Cl)cc2)c1=O)c1ccc(-c2c3nc(c(-c4cc(S(=O)(=O)[O-])ccc4F)c4ccc([nH]4)c(-c4cc(S(=O)(=O)[O-])ccc4F)c4nc(c(-c5cc(S(=O)(=O)[O-])ccc5F)c5ccc2[nH]5)C=C4)C=C3)cc1
REMARK SMILES IDX 4 1 3 2 1 3 2 4 26 6 27 7 88 8 28 9 87 10 29 11 30 12 31 13
REMARK SMILES IDX 81 14 32 15 86 16 80 17 82 18 33 19 85 20 79 21 78 22 34 24
REMARK SMILES IDX 66 25 46 26 65 27 47 28 50 29 64 30 83 31 48 32 49 33 63 35
REMARK SMILES IDX 84 36 51 37 35 38 36 39 44 40 37 41 43 42 45 43 42 44 38 45
REMARK SMILES IDX 39 46 40 47 41 48 67 49 68 50 76 51 69 52 75 53 77 54 74 55
REMARK SMILES IDX 70 56 71 57 72 58 73 59 52 60 53 61 61 62 54 63 60 64 62 65
REMARK SMILES IDX 59 66 55 67 56 68 57 69 58 70 5 71 6 72 7 73 8 74 9 76 10 77
REMARK SMILES IDX 11 78 24 79 12 80 15 81 25 82 13 83 14 84 16 85 17 86 18 87
REMARK SMILES IDX 23 88 19 89 22 90 20 91 21 92
REMARK H PARENT 3 5 82 23 50 34 7 75
REMARK Flexibility Score: inf
ROOT
ATOM      1  C   UNL A   1      32.836  29.180  25.462  1.00  0.00     0.118 C 
ENDROOT
BRANCH   1   2
ATOM      2  N   UNL A   1      32.504  30.515  25.937  1.00  0.00    -0.352 N 
ATOM      3  O   UNL A   1      32.460  32.294  27.289  1.00  0.00    -0.269 OA
ATOM      4  C   UNL A   1      33.071  31.294  26.912  1.00  0.00     0.251 C 
ATOM      5  H   UNL A   1      31.740  30.931  25.477  1.00  0.00     0.163 HD
BRANCH   4   6
ATOM      6  C   UNL A   1      34.391  30.977  27.506  1.00  0.00     0.039 A 
ATOM      7  C   UNL A   1      34.609  29.680  27.989  1.00  0.00     0.014 A 
ATOM      8  C   UNL A   1      35.365  31.958  27.707  1.00  0.00     0.014 A 
ATOM      9  C   UNL A   1      35.794  29.367  28.662  1.00  0.00     0.010 A 
ATOM     10  C   UNL A   1      36.575  31.630  28.319  1.00  0.00     0.010 A 
ATOM     11  C   UNL A   1      36.787  30.343  28.834  1.00  0.00    -0.014 A 
BRANCH  11  12
ATOM     12  C   UNL A   1      38.013  30.076  29.630  1.00  0.00     0.031 A 
ATOM     13  C   UNL A   1      39.045  29.120  29.091  1.00  0.00     0.074 A 
ATOM     14  C   UNL A   1      38.176  30.632  30.845  1.00  0.00     0.049 A 
ATOM     15  N   UNL A   1      40.102  28.628  29.680  1.00  0.00    -0.248 NA
ATOM     16  C   UNL A   1      38.847  28.639  27.713  1.00  0.00     0.031 C 
ATOM     17  C   UNL A   1      37.245  31.569  31.471  1.00  0.00     0.029 A 
ATOM     18  N   UNL A   1      39.170  30.472  31.781  1.00  0.00    -0.354 N 
ATOM     19  C   UNL A   1      40.676  27.758  28.761  1.00  0.00     0.074 A 
ATOM     20  C   UNL A   1      39.834  27.762  27.587  1.00  0.00     0.031 C 
ATOM     21  C   UNL A   1      37.706  31.894  32.690  1.00  0.00     0.029 A 
ATOM     22  C   UNL A   1      38.939  31.154  32.952  1.00  0.00     0.049 A 
ATOM     23  H   UNL A   1      39.971  29.921  31.626  1.00  0.00     0.167 HD
ATOM     24  C   UNL A   1      41.814  27.035  28.883  1.00  0.00     0.034 A 
ATOM     25  C   UNL A   1      39.625  31.163  34.116  1.00  0.00     0.034 A 
ATOM     26  C   UNL A   1      42.670  27.079  30.036  1.00  0.00     0.049 A 
ATOM     27  C   UNL A   1      40.895  30.353  34.225  1.00  0.00     0.074 A 
ATOM     28  C   UNL A   1      43.875  26.426  30.226  1.00  0.00     0.029 A 
ATOM     29  N   UNL A   1      42.429  27.821  31.182  1.00  0.00    -0.354 N 
ATOM     30  N   UNL A   1      41.458  29.582  33.324  1.00  0.00    -0.248 NA
ATOM     31  C   UNL A   1      41.631  30.415  35.497  1.00  0.00     0.031 C 
ATOM     32  C   UNL A   1      44.339  26.735  31.504  1.00  0.00     0.029 A 
ATOM     33  C   UNL A   1      43.454  27.627  32.090  1.00  0.00     0.049 A 
ATOM     34  H   UNL A   1      41.644  28.398  31.328  1.00  0.00     0.167 HD
ATOM     35  C   UNL A   1      42.622  29.091  33.909  1.00  0.00     0.074 A 
ATOM     36  C   UNL A   1      42.695  29.665  35.235  1.00  0.00     0.031 C 
ATOM     37  C   UNL A   1      43.541  28.237  33.395  1.00  0.00     0.034 A 
BRANCH  24  38
ATOM     38  C   UNL A   1      42.240  26.150  27.740  1.00  0.00     0.023 A 
ATOM     39  C   UNL A   1      41.730  24.843  27.639  1.00  0.00     0.031 A 
ATOM     40  C   UNL A   1      43.253  26.544  26.849  1.00  0.00     0.131 A 
ATOM     41  C   UNL A   1      42.266  23.960  26.695  1.00  0.00     0.055 A 
ATOM     42  C   UNL A   1      43.756  25.672  25.883  1.00  0.00     0.041 A 
ATOM     43  F   UNL A   1      43.769  27.782  26.908  1.00  0.00    -0.206 F 
ATOM     44  C   UNL A   1      43.272  24.368  25.812  1.00  0.00     0.022 A 
BRANCH  41  45
ATOM     45  S   UNL A   1      41.719  22.233  26.612  1.00  0.00     0.124 S 
ATOM     46  O   UNL A   1      42.347  21.776  25.373  1.00  0.00    -0.237 OA
ATOM     47  O   UNL A   1      42.283  21.677  27.838  1.00  0.00    -0.237 OA
ATOM     48  O   UNL A   1      40.264  22.327  26.569  1.00  0.00    -0.744 OA
ENDBRANCH  41  45
ENDBRANCH  24  38
BRANCH  25  49
ATOM     49  C   UNL A   1      39.126  31.997  35.250  1.00  0.00     0.023 A 
ATOM     50  C   UNL A   1      39.591  33.311  35.442  1.00  0.00     0.031 A 
ATOM     51  C   UNL A   1      38.251  31.461  36.210  1.00  0.00     0.131 A 
ATOM     52  C   UNL A   1      39.228  34.020  36.595  1.00  0.00     0.055 A 
ATOM     53  C   UNL A   1      37.838  32.195  37.323  1.00  0.00     0.041 A 
ATOM     54  F   UNL A   1      37.789  30.208  36.078  1.00  0.00    -0.206 F 
ATOM     55  C   UNL A   1      38.341  33.476  37.529  1.00  0.00     0.022 A 
BRANCH  52  56
ATOM     56  S   UNL A   1      40.004  35.614  36.988  1.00  0.00     0.124 S 
ATOM     57  O   UNL A   1      39.367  35.957  38.254  1.00  0.00    -0.237 OA
ATOM     58  O   UNL A   1      41.416  35.248  37.072  1.00  0.00    -0.237 OA
ATOM     59  O   UNL A   1      39.652  36.458  35.851  1.00  0.00    -0.744 OA
ENDBRANCH  52  56
ENDBRANCH  25  49
BRANCH  37  60
ATOM     60  C   UNL A   1      44.740  27.856  34.228  1.00  0.00     0.023 A 
ATOM     61  C   UNL A   1      44.641  26.793  35.146  1.00  0.00     0.031 A 
ATOM     62  C   UNL A   1      45.884  28.668  34.265  1.00  0.00     0.131 A 
ATOM     63  C   UNL A   1      45.645  26.607  36.105  1.00  0.00     0.055 A 
ATOM     64  C   UNL A   1      46.904  28.449  35.193  1.00  0.00     0.041 A 
ATOM     65  F   UNL A   1      46.016  29.701  33.417  1.00  0.00    -0.206 F 
ATOM     66  C   UNL A   1      46.778  27.426  36.130  1.00  0.00     0.022 A 
BRANCH  63  67
ATOM     67  S   UNL A   1      45.470  25.361  37.412  1.00  0.00     0.124 S 
ATOM     68  O   UNL A   1      45.516  26.182  38.620  1.00  0.00    -0.237 OA
ATOM     69  O   UNL A   1      44.167  24.777  37.107  1.00  0.00    -0.237 OA
ATOM     70  O   UNL A   1      46.615  24.480  37.217  1.00  0.00    -0.744 OA
ENDBRANCH  63  67
ENDBRANCH  37  60
ENDBRANCH  11  12
ENDBRANCH   4   6
ENDBRANCH   1   2
BRANCH   1  71
ATOM     71  C   UNL A   1      31.911  28.115  26.040  1.00  0.00     0.042 C 
BRANCH  71  72
ATOM     72  C   UNL A   1      31.599  26.960  25.095  1.00  0.00     0.118 C 
BRANCH  72  73
ATOM     73  N   UNL A   1      32.295  27.061  23.820  1.00  0.00    -0.352 N 
ATOM     74  C   UNL A   1      33.138  26.170  23.216  1.00  0.00     0.256 C 
ATOM     75  H   UNL A   1      32.135  27.893  23.319  1.00  0.00     0.163 HD
ATOM     76  O   UNL A   1      33.670  26.452  22.148  1.00  0.00    -0.269 OA
BRANCH  74  77
ATOM     77  C   UNL A   1      33.478  24.923  23.930  1.00  0.00     0.106 A 
ATOM     78  C   UNL A   1      34.688  24.878  24.513  1.00  0.00     0.041 A 
ATOM     79  C   UNL A   1      32.529  23.778  24.074  1.00  0.00     0.263 A 
ATOM     80  C   UNL A   1      35.050  23.766  25.353  1.00  0.00     0.058 A 
ATOM     81  N   UNL A   1      32.906  22.795  24.996  1.00  0.00    -0.309 N 
ATOM     82  O   UNL A   1      31.470  23.752  23.449  1.00  0.00    -0.268 OA
ATOM     83  Cl  UNL A   1      36.604  23.752  26.086  1.00  0.00    -0.083 Cl
ATOM     84  C   UNL A   1      34.156  22.802  25.603  1.00  0.00     0.110 A 
BRANCH  81  85
ATOM     85  C   UNL A   1      31.948  21.741  25.323  1.00  0.00     0.161 C 
BRANCH  85  86
ATOM     86  C   UNL A   1      32.381  20.373  24.845  1.00  0.00    -0.028 A 
ATOM     87  C   UNL A   1      32.271  20.018  23.492  1.00  0.00     0.007 A 
ATOM     88  C   UNL A   1      32.898  19.435  25.752  1.00  0.00     0.007 A 
ATOM     89  C   UNL A   1      32.664  18.752  23.054  1.00  0.00     0.021 A 
ATOM     90  C   UNL A   1      33.307  18.174  25.311  1.00  0.00     0.021 A 
ATOM     91  C   UNL A   1      33.185  17.837  23.965  1.00  0.00     0.041 A 
ATOM     92  Cl  UNL A   1      33.682  16.282  23.421  1.00  0.00    -0.084 Cl
ENDBRANCH  85  86
ENDBRANCH  81  85
ENDBRANCH  74  77
ENDBRANCH  72  73
ENDBRANCH  71  72
ENDBRANCH   1  71
TORSDOF 15
ENDMDL
MODEL 3
REMARK VINA RESULT:     -12.1      5.201     10.209
REMARK SMILES O=C(NCCCNC(=O)c1cc(Cl)cn(Cc2ccc(Cl)cc2)c1=O)c1ccc(-c2c3nc(c(-c4cc(S(=O)(=O)[O-])ccc4F)c4ccc([nH]4)c(-c4cc(S(=O)(=O)[O-])ccc4F)c4nc(c(-c5cc(S(=O)(=O)[O-])ccc5F)c5ccc2[nH]5)C=C4)C=C3)cc1
REMARK SMILES IDX 4 1 3 2 1 3 2 4 26 6 27 7 88 8 28 9 87 10 29 11 30 12 31 13
REMARK SMILES IDX 81 14 32 15 86 16 80 17 82 18 33 19 85 20 79 21 78 22 34 24
REMARK SMILES IDX 66 25 46 26 65 27 47 28 50 29 64 30 83 31 48 32 49 33 63 35
REMARK SMILES IDX 84 36 51 37 35 38 36 39 44 40 37 41 43 42 45 43 42 44 38 45
REMARK SMILES IDX 39 46 40 47 41 48 67 49 68 50 76 51 69 52 75 53 77 54 74 55
REMARK SMILES IDX 70 56 71 57 72 58 73 59 52 60 53 61 61 62 54 63 60 64 62 65
REMARK SMILES IDX 59 66 55 67 56 68 57 69 58 70 5 71 6 72 7 73 8 74 9 76 10 77
REMARK SMILES IDX 11 78 24 79 12 80 15 81 25 82 13 83 14 84 16 85 17 86 18 87
REMARK SMILES IDX 23 88 19 89 22 90 20 91 21 92
REMARK H PARENT 3 5 82 23 50 34 7 75
REMARK Flexibility Score: inf
ROOT
ATOM      1  C   UNL A   1      36.706  22.326  25.325  1.00  0.00     0.118 C 
ENDROOT
BRANCH   1   2
ATOM      2  N   UNL A   1      37.708  21.313  25.620  1.00  0.00    -0.352 N 
ATOM      3  O   UNL A   1      39.718  20.432  26.039  1.00  0.00    -0.269 OA
ATOM      4  C   UNL A   1      38.989  21.421  26.097  1.00  0.00     0.251 C 
ATOM      5  H   UNL A   1      37.414  20.390  25.448  1.00  0.00     0.163 HD
BRANCH   4   6
ATOM      6  C   UNL A   1      39.507  22.677  26.688  1.00  0.00     0.039 A 
ATOM      7  C   UNL A   1      39.055  23.895  26.164  1.00  0.00     0.014 A 
ATOM      8  C   UNL A   1      40.514  22.677  27.657  1.00  0.00     0.014 A 
ATOM      9  C   UNL A   1      39.603  25.102  26.609  1.00  0.00     0.010 A 
ATOM     10  C   UNL A   1      41.012  23.883  28.149  1.00  0.00     0.010 A 
ATOM     11  C   UNL A   1      40.589  25.105  27.606  1.00  0.00    -0.014 A 
BRANCH  11  12
ATOM     12  C   UNL A   1      41.264  26.358  28.032  1.00  0.00     0.031 A 
ATOM     13  C   UNL A   1      40.464  27.420  28.738  1.00  0.00     0.074 A 
ATOM     14  C   UNL A   1      42.560  26.572  27.739  1.00  0.00     0.049 A 
ATOM     15  N   UNL A   1      40.808  28.640  29.055  1.00  0.00    -0.248 NA
ATOM     16  C   UNL A   1      39.084  27.069  29.117  1.00  0.00     0.031 C 
ATOM     17  C   UNL A   1      43.435  25.619  27.057  1.00  0.00     0.029 A 
ATOM     18  N   UNL A   1      43.362  27.667  27.954  1.00  0.00    -0.354 N 
ATOM     19  C   UNL A   1      39.684  29.210  29.640  1.00  0.00     0.074 A 
ATOM     20  C   UNL A   1      38.635  28.217  29.606  1.00  0.00     0.031 C 
ATOM     21  C   UNL A   1      44.648  26.173  26.902  1.00  0.00     0.029 A 
ATOM     22  C   UNL A   1      44.627  27.537  27.430  1.00  0.00     0.049 A 
ATOM     23  H   UNL A   1      43.059  28.469  28.438  1.00  0.00     0.167 HD
ATOM     24  C   UNL A   1      39.548  30.446  30.175  1.00  0.00     0.034 A 
ATOM     25  C   UNL A   1      45.645  28.421  27.356  1.00  0.00     0.034 A 
ATOM     26  C   UNL A   1      40.614  31.408  30.250  1.00  0.00     0.049 A 
ATOM     27  C   UNL A   1      45.471  29.792  27.965  1.00  0.00     0.074 A 
ATOM     28  C   UNL A   1      40.587  32.664  30.827  1.00  0.00     0.029 A 
ATOM     29  N   UNL A   1      41.895  31.219  29.753  1.00  0.00    -0.354 N 
ATOM     30  N   UNL A   1      44.421  30.295  28.569  1.00  0.00    -0.248 NA
ATOM     31  C   UNL A   1      46.614  30.715  27.893  1.00  0.00     0.031 C 
ATOM     32  C   UNL A   1      41.835  33.256  30.637  1.00  0.00     0.029 A 
ATOM     33  C   UNL A   1      42.661  32.345  29.995  1.00  0.00     0.049 A 
ATOM     34  H   UNL A   1      42.211  30.406  29.296  1.00  0.00     0.167 HD
ATOM     35  C   UNL A   1      44.784  31.578  28.972  1.00  0.00     0.074 A 
ATOM     36  C   UNL A   1      46.158  31.770  28.558  1.00  0.00     0.031 C 
ATOM     37  C   UNL A   1      44.043  32.512  29.617  1.00  0.00     0.034 A 
BRANCH  24  38
ATOM     38  C   UNL A   1      38.217  30.845  30.756  1.00  0.00     0.023 A 
ATOM     39  C   UNL A   1      37.275  31.516  29.955  1.00  0.00     0.031 A 
ATOM     40  C   UNL A   1      37.945  30.699  32.127  1.00  0.00     0.131 A 
ATOM     41  C   UNL A   1      36.123  32.054  30.540  1.00  0.00     0.055 A 
ATOM     42  C   UNL A   1      36.776  31.203  32.699  1.00  0.00     0.041 A 
ATOM     43  F   UNL A   1      38.815  30.066  32.931  1.00  0.00    -0.206 F 
ATOM     44  C   UNL A   1      35.865  31.896  31.906  1.00  0.00     0.022 A 
BRANCH  41  45
ATOM     45  S   UNL A   1      34.944  33.026  29.564  1.00  0.00     0.124 S 
ATOM     46  O   UNL A   1      34.028  33.513  30.594  1.00  0.00    -0.237 OA
ATOM     47  O   UNL A   1      35.808  34.041  28.968  1.00  0.00    -0.237 OA
ATOM     48  O   UNL A   1      34.372  32.057  28.637  1.00  0.00    -0.744 OA
ENDBRANCH  41  45
ENDBRANCH  24  38
BRANCH  25  49
ATOM     49  C   UNL A   1      46.923  28.008  26.703  1.00  0.00     0.023 A 
ATOM     50  C   UNL A   1      47.087  28.101  25.309  1.00  0.00     0.031 A 
ATOM     51  C   UNL A   1      47.960  27.426  27.451  1.00  0.00     0.131 A 
ATOM     52  C   UNL A   1      48.232  27.567  24.702  1.00  0.00     0.055 A 
ATOM     53  C   UNL A   1      49.129  26.956  26.850  1.00  0.00     0.041 A 
ATOM     54  F   UNL A   1      47.846  27.303  28.783  1.00  0.00    -0.206 F 
ATOM     55  C   UNL A   1      49.261  27.009  25.465  1.00  0.00     0.022 A 
BRANCH  52  56
ATOM     56  S   UNL A   1      48.358  27.453  22.894  1.00  0.00     0.124 S 
ATOM     57  O   UNL A   1      48.280  26.013  22.674  1.00  0.00    -0.237 OA
ATOM     58  O   UNL A   1      47.192  28.222  22.463  1.00  0.00    -0.237 OA
ATOM     59  O   UNL A   1      49.646  28.071  22.599  1.00  0.00    -0.744 OA
ENDBRANCH  52  56
ENDBRANCH  25  49
BRANCH  37  60
ATOM     60  C   UNL A   1      44.670  33.841  29.960  1.00  0.00     0.023 A 
ATOM     61  C   UNL A   1      44.686  34.872  29.000  1.00  0.00     0.031 A 
ATOM     62  C   UNL A   1      45.425  34.007  31.132  1.00  0.00     0.131 A 
ATOM     63  C   UNL A   1      45.491  36.000  29.204  1.00  0.00     0.055 A 
ATOM     64  C   UNL A   1      46.190  35.154  31.351  1.00  0.00     0.041 A 
ATOM     65  F   UNL A   1      45.450  33.044  32.068  1.00  0.00    -0.206 F 
ATOM     66  C   UNL A   1      46.239  36.148  30.377  1.00  0.00     0.022 A 
BRANCH  63  67
ATOM     67  S   UNL A   1      45.673  37.264  27.916  1.00  0.00     0.124 S 
ATOM     68  O   UNL A   1      44.296  37.426  27.454  1.00  0.00    -0.237 OA
ATOM     69  O   UNL A   1      46.214  38.393  28.668  1.00  0.00    -0.237 OA
ATOM     70  O   UNL A   1      46.583  36.657  26.951  1.00  0.00    -0.744 OA
ENDBRANCH  63  67
ENDBRANCH  37  60
ENDBRANCH  11  12
ENDBRANCH   4   6
ENDBRANCH   1   2
BRANCH   1  71
ATOM     71  C   UNL A   1      35.364  22.020  25.981  1.00  0.00     0.042 C 
BRANCH  71  72
ATOM     72  C   UNL A   1      34.167  22.712  25.338  1.00  0.00     0.118 C 
BRANCH  72  73
ATOM     73  N   UNL A   1      34.479  23.314  24.049  1.00  0.00    -0.352 N 
ATOM     74  C   UNL A   1      34.035  24.488  23.508  1.00  0.00     0.256 C 
ATOM     75  H   UNL A   1      35.101  22.799  23.485  1.00  0.00     0.163 HD
ATOM     76  O   UNL A   1      34.378  24.813  22.376  1.00  0.00    -0.269 OA
BRANCH  74  77
ATOM     77  C   UNL A   1      33.052  25.289  24.265  1.00  0.00     0.106 A 
ATOM     78  C   UNL A   1      33.550  26.143  25.176  1.00  0.00     0.041 A 
ATOM     79  C   UNL A   1      31.581  25.228  24.013  1.00  0.00     0.263 A 
ATOM     80  C   UNL A   1      32.681  27.068  25.855  1.00  0.00     0.058 A 
ATOM     81  N   UNL A   1      30.823  26.234  24.623  1.00  0.00    -0.309 N 
ATOM     82  O   UNL A   1      31.101  24.370  23.273  1.00  0.00    -0.268 OA
ATOM     83  Cl  UNL A   1      33.359  28.149  27.007  1.00  0.00    -0.083 Cl
ATOM     84  C   UNL A   1      31.382  27.119  25.536  1.00  0.00     0.110 A 
BRANCH  81  85
ATOM     85  C   UNL A   1      29.408  26.347  24.279  1.00  0.00     0.161 C 
BRANCH  85  86
ATOM     86  C   UNL A   1      29.083  27.596  23.492  1.00  0.00    -0.028 A 
ATOM     87  C   UNL A   1      27.786  28.131  23.498  1.00  0.00     0.007 A 
ATOM     88  C   UNL A   1      30.077  28.239  22.738  1.00  0.00     0.007 A 
ATOM     89  C   UNL A   1      27.486  29.281  22.766  1.00  0.00     0.021 A 
ATOM     90  C   UNL A   1      29.781  29.400  22.018  1.00  0.00     0.021 A 
ATOM     91  C   UNL A   1      28.486  29.913  22.032  1.00  0.00     0.041 A 
ATOM     92  Cl  UNL A   1      28.118  31.338  21.141  1.00  0.00    -0.084 Cl
ENDBRANCH  85  86
ENDBRANCH  81  85
ENDBRANCH  74  77
ENDBRANCH  72  73
ENDBRANCH  71  72
ENDBRANCH   1  71
TORSDOF 15
ENDMDL
