MODEL 1
REMARK VINA RESULT:     -11.6      0.000      0.000
REMARK SMILES COCC[C@H]([NH3+])C(=O)N1CC(n2cc(C(=O)NCCCNC(=O)c3ccc(-c4c5nc(c(-c6cc(S(=O)(=O)[O-])ccc6F)c6ccc([nH]6)c(-c6cc(S(=O)(=O)[O-])ccc6F)c6nc(c(-c7cc(S(=O)(=O)[O-])ccc7F)c7ccc4[nH]7)C=C6)C=C5)cc3)nn2)C1
REMARK SMILES IDX 18 1 17 2 15 3 16 4 14 6 12 7 13 8 88 9 87 10 11 11 7 12
REMARK SMILES IDX 8 13 9 14 10 15 89 16 5 17 4 18 3 19 2 20 1 21 6 22 19 26
REMARK SMILES IDX 20 27 21 28 22 29 23 31 24 32 25 33 86 34 26 35 85 36 27 37
REMARK SMILES IDX 28 38 29 39 79 40 30 41 84 42 78 43 80 44 31 45 83 46 77 47
REMARK SMILES IDX 76 48 32 50 64 51 44 52 63 53 45 54 48 55 62 56 81 57 46 58
REMARK SMILES IDX 47 59 61 61 82 62 49 63 33 64 34 65 42 66 35 67 41 68 43 69
REMARK SMILES IDX 40 70 36 71 37 72 38 73 39 74 65 75 66 76 74 77 67 78 73 79
REMARK SMILES IDX 75 80 72 81 68 82 69 83 70 84 71 85 50 86 51 87 59 88 52 89
REMARK SMILES IDX 58 90 60 91 57 92 53 93 54 94 55 95 56 96
REMARK H PARENT 17 5 6 23 6 24 6 25 21 30 80 49 48 60
REMARK Flexibility Score: inf
ROOT
ATOM      1  C   UNL A   1      36.753  21.827  25.775  1.00  0.00     0.118 C 
ENDROOT
BRANCH   1   2
ATOM      2  N   UNL A   1      36.081  20.589  25.420  1.00  0.00    -0.351 N 
ATOM      3  C   UNL A   1      34.771  20.351  25.052  1.00  0.00     0.273 C 
ATOM      4  O   UNL A   1      34.495  19.245  24.608  1.00  0.00    -0.267 OA
ATOM      5  H   UNL A   1      36.652  19.789  25.447  1.00  0.00     0.163 HD
BRANCH   3   6
ATOM      6  C   UNL A   1      33.771  21.408  25.170  1.00  0.00     0.170 A 
ATOM      7  N   UNL A   1      32.395  23.060  24.892  1.00  0.00    -0.245 N 
ATOM      8  C   UNL A   1      33.432  22.414  24.288  1.00  0.00     0.145 A 
ATOM      9  N   UNL A   1      32.125  22.539  26.093  1.00  0.00    -0.066 NA
ATOM     10  N   UNL A   1      32.988  21.551  26.297  1.00  0.00    -0.125 NA
BRANCH   7  11
ATOM     11  C   UNL A   1      31.646  24.087  24.248  1.00  0.00     0.148 C 
ATOM     12  C   UNL A   1      31.459  26.950  22.648  1.00  0.00     0.280 C 
ATOM     13  O   UNL A   1      30.940  26.840  21.534  1.00  0.00    -0.268 OA
ATOM     14  N   UNL A   1      31.945  25.856  23.302  1.00  0.00    -0.333 N 
ATOM     15  C   UNL A   1      32.074  24.479  22.832  1.00  0.00     0.149 C 
ATOM     16  C   UNL A   1      32.148  25.486  24.686  1.00  0.00     0.149 C 
BRANCH  12  17
ATOM     17  C   UNL A   1      31.685  28.352  23.255  1.00  0.00     0.273 C 
BRANCH  17  18
ATOM     18  C   UNL A   1      30.344  29.101  23.356  1.00  0.00     0.104 C 
BRANCH  18  19
ATOM     19  C   UNL A   1      30.135  30.078  22.193  1.00  0.00     0.166 C 
BRANCH  19  20
ATOM     20  O   UNL A   1      29.095  29.665  21.303  1.00  0.00    -0.384 OA
ATOM     21  C   UNL A   1      27.943  30.497  21.320  1.00  0.00     0.194 C 
ENDBRANCH  19  20
ENDBRANCH  18  19
ENDBRANCH  17  18
BRANCH  17  22
ATOM     22  N   UNL A   1      32.683  29.160  22.535  1.00  0.00    -0.347 N 
ATOM     23  H   UNL A   1      33.004  28.650  21.713  1.00  0.00     0.345 HD
ATOM     24  H   UNL A   1      33.475  29.348  23.150  1.00  0.00     0.345 HD
ATOM     25  H   UNL A   1      32.261  30.042  22.245  1.00  0.00     0.345 HD
ENDBRANCH  17  22
ENDBRANCH  12  17
ENDBRANCH   7  11
ENDBRANCH   3   6
ENDBRANCH   1   2
BRANCH   1  26
ATOM     26  C   UNL A   1      38.214  21.852  25.314  1.00  0.00     0.042 C 
BRANCH  26  27
ATOM     27  C   UNL A   1      39.160  22.328  26.409  1.00  0.00     0.118 C 
BRANCH  27  28
ATOM     28  N   UNL A   1      40.560  22.200  26.012  1.00  0.00    -0.352 N 
ATOM     29  C   UNL A   1      41.576  23.129  26.098  1.00  0.00     0.251 C 
ATOM     30  H   UNL A   1      40.815  21.329  25.630  1.00  0.00     0.163 HD
ATOM     31  O   UNL A   1      42.579  22.995  25.406  1.00  0.00    -0.269 OA
BRANCH  29  32
ATOM     32  C   UNL A   1      41.436  24.281  27.008  1.00  0.00     0.039 A 
ATOM     33  C   UNL A   1      42.331  24.461  28.068  1.00  0.00     0.014 A 
ATOM     34  C   UNL A   1      40.405  25.194  26.790  1.00  0.00     0.014 A 
ATOM     35  C   UNL A   1      42.239  25.614  28.845  1.00  0.00     0.010 A 
ATOM     36  C   UNL A   1      40.384  26.382  27.485  1.00  0.00     0.010 A 
ATOM     37  C   UNL A   1      41.278  26.588  28.532  1.00  0.00    -0.014 A 
BRANCH  37  38
ATOM     38  C   UNL A   1      41.330  27.913  29.158  1.00  0.00     0.031 A 
ATOM     39  C   UNL A   1      42.334  28.828  28.542  1.00  0.00     0.074 A 
ATOM     40  C   UNL A   1      40.375  28.371  29.997  1.00  0.00     0.049 A 
ATOM     41  N   UNL A   1      43.395  29.335  29.077  1.00  0.00    -0.248 NA
ATOM     42  C   UNL A   1      42.238  29.068  27.090  1.00  0.00     0.031 C 
ATOM     43  C   UNL A   1      39.154  27.675  30.414  1.00  0.00     0.029 A 
ATOM     44  N   UNL A   1      40.212  29.610  30.545  1.00  0.00    -0.354 N 
ATOM     45  C   UNL A   1      43.950  30.170  28.107  1.00  0.00     0.074 A 
ATOM     46  C   UNL A   1      43.354  29.763  26.867  1.00  0.00     0.031 C 
ATOM     47  C   UNL A   1      38.278  28.565  30.926  1.00  0.00     0.029 A 
ATOM     48  C   UNL A   1      38.924  29.862  31.019  1.00  0.00     0.049 A 
ATOM     49  H   UNL A   1      40.940  30.270  30.599  1.00  0.00     0.167 HD
ATOM     50  C   UNL A   1      44.624  31.304  28.456  1.00  0.00     0.034 A 
ATOM     51  C   UNL A   1      38.401  31.055  31.421  1.00  0.00     0.034 A 
ATOM     52  C   UNL A   1      44.996  31.258  29.858  1.00  0.00     0.049 A 
ATOM     53  C   UNL A   1      39.550  31.936  31.741  1.00  0.00     0.074 A 
ATOM     54  C   UNL A   1      45.726  30.381  30.639  1.00  0.00     0.029 A 
ATOM     55  N   UNL A   1      44.264  32.014  30.751  1.00  0.00    -0.354 N 
ATOM     56  N   UNL A   1      40.386  31.700  32.715  1.00  0.00    -0.248 NA
ATOM     57  C   UNL A   1      40.053  32.813  30.695  1.00  0.00     0.031 C 
ATOM     58  C   UNL A   1      45.025  30.316  31.880  1.00  0.00     0.029 A 
ATOM     59  C   UNL A   1      43.967  31.226  31.833  1.00  0.00     0.049 A 
ATOM     60  H   UNL A   1      44.001  32.956  30.632  1.00  0.00     0.167 HD
ATOM     61  C   UNL A   1      41.634  32.014  32.198  1.00  0.00     0.074 A 
ATOM     62  C   UNL A   1      41.355  32.799  30.997  1.00  0.00     0.031 C 
ATOM     63  C   UNL A   1      42.758  31.363  32.626  1.00  0.00     0.034 A 
BRANCH  50  64
ATOM     64  C   UNL A   1      44.556  32.622  27.684  1.00  0.00     0.023 A 
ATOM     65  C   UNL A   1      43.971  33.708  28.363  1.00  0.00     0.031 A 
ATOM     66  C   UNL A   1      44.723  32.809  26.295  1.00  0.00     0.131 A 
ATOM     67  C   UNL A   1      43.396  34.781  27.664  1.00  0.00     0.055 A 
ATOM     68  C   UNL A   1      44.206  33.914  25.606  1.00  0.00     0.041 A 
ATOM     69  F   UNL A   1      45.345  31.933  25.503  1.00  0.00    -0.206 F 
ATOM     70  C   UNL A   1      43.491  34.885  26.283  1.00  0.00     0.022 A 
BRANCH  67  71
ATOM     71  S   UNL A   1      42.327  35.910  28.590  1.00  0.00     0.124 S 
ATOM     72  O   UNL A   1      41.017  35.315  28.344  1.00  0.00    -0.237 OA
ATOM     73  O   UNL A   1      42.855  35.775  29.943  1.00  0.00    -0.237 OA
ATOM     74  O   UNL A   1      42.565  37.200  27.950  1.00  0.00    -0.744 OA
ENDBRANCH  67  71
ENDBRANCH  50  64
BRANCH  51  75
ATOM     75  C   UNL A   1      37.000  31.547  31.260  1.00  0.00     0.023 A 
ATOM     76  C   UNL A   1      36.279  32.178  32.300  1.00  0.00     0.031 A 
ATOM     77  C   UNL A   1      36.424  31.611  29.970  1.00  0.00     0.131 A 
ATOM     78  C   UNL A   1      35.049  32.829  32.027  1.00  0.00     0.055 A 
ATOM     79  C   UNL A   1      35.209  32.248  29.708  1.00  0.00     0.041 A 
ATOM     80  F   UNL A   1      37.068  31.127  28.896  1.00  0.00    -0.206 F 
ATOM     81  C   UNL A   1      34.520  32.870  30.736  1.00  0.00     0.022 A 
BRANCH  78  82
ATOM     82  S   UNL A   1      34.152  33.723  33.342  1.00  0.00     0.124 S 
ATOM     83  O   UNL A   1      34.158  35.094  32.845  1.00  0.00    -0.237 OA
ATOM     84  O   UNL A   1      32.862  33.045  33.361  1.00  0.00    -0.237 OA
ATOM     85  O   UNL A   1      34.977  33.499  34.531  1.00  0.00    -0.744 OA
ENDBRANCH  78  82
ENDBRANCH  51  75
BRANCH  63  86
ATOM     86  C   UNL A   1      42.692  30.565  33.914  1.00  0.00     0.023 A 
ATOM     87  C   UNL A   1      42.270  29.219  34.024  1.00  0.00     0.031 A 
ATOM     88  C   UNL A   1      43.194  31.185  35.072  1.00  0.00     0.131 A 
ATOM     89  C   UNL A   1      42.356  28.554  35.265  1.00  0.00     0.055 A 
ATOM     90  C   UNL A   1      43.298  30.517  36.291  1.00  0.00     0.041 A 
ATOM     91  F   UNL A   1      43.633  32.455  35.030  1.00  0.00    -0.206 F 
ATOM     92  C   UNL A   1      42.873  29.199  36.392  1.00  0.00     0.022 A 
BRANCH  89  93
ATOM     93  S   UNL A   1      41.776  26.835  35.445  1.00  0.00     0.124 S 
ATOM     94  O   UNL A   1      40.805  26.684  34.369  1.00  0.00    -0.237 OA
ATOM     95  O   UNL A   1      43.011  26.068  35.306  1.00  0.00    -0.237 OA
ATOM     96  O   UNL A   1      41.199  26.812  36.792  1.00  0.00    -0.744 OA
ENDBRANCH  89  93
ENDBRANCH  63  86
ENDBRANCH  37  38
ENDBRANCH  29  32
ENDBRANCH  27  28
ENDBRANCH  26  27
ENDBRANCH   1  26
TORSDOF 19
ENDMDL
MODEL 2
REMARK VINA RESULT:     -11.6      3.150      9.594
REMARK SMILES COCC[C@H]([NH3+])C(=O)N1CC(n2cc(C(=O)NCCCNC(=O)c3ccc(-c4c5nc(c(-c6cc(S(=O)(=O)[O-])ccc6F)c6ccc([nH]6)c(-c6cc(S(=O)(=O)[O-])ccc6F)c6nc(c(-c7cc(S(=O)(=O)[O-])ccc7F)c7ccc4[nH]7)C=C6)C=C5)cc3)nn2)C1
REMARK SMILES IDX 18 1 17 2 15 3 16 4 14 6 12 7 13 8 88 9 87 10 11 11 7 12
REMARK SMILES IDX 8 13 9 14 10 15 89 16 5 17 4 18 3 19 2 20 1 21 6 22 19 26
REMARK SMILES IDX 20 27 21 28 22 29 23 31 24 32 25 33 86 34 26 35 85 36 27 37
REMARK SMILES IDX 28 38 29 39 79 40 30 41 84 42 78 43 80 44 31 45 83 46 77 47
REMARK SMILES IDX 76 48 32 50 64 51 44 52 63 53 45 54 48 55 62 56 81 57 46 58
REMARK SMILES IDX 47 59 61 61 82 62 49 63 33 64 34 65 42 66 35 67 41 68 43 69
REMARK SMILES IDX 40 70 36 71 37 72 38 73 39 74 65 75 66 76 74 77 67 78 73 79
REMARK SMILES IDX 75 80 72 81 68 82 69 83 70 84 71 85 50 86 51 87 59 88 52 89
REMARK SMILES IDX 58 90 60 91 57 92 53 93 54 94 55 95 56 96
REMARK H PARENT 17 5 6 23 6 24 6 25 21 30 80 49 48 60
REMARK Flexibility Score: inf
ROOT
ATOM      1  C   UNL A   1      32.972  29.608  25.622  1.00  0.00     0.118 C 
ENDROOT
BRANCH   1   2
ATOM      2  N   UNL A   1      31.873  29.964  24.741  1.00  0.00    -0.351 N 
ATOM      3  C   UNL A   1      30.893  29.180  24.165  1.00  0.00     0.273 C 
ATOM      4  O   UNL A   1      29.958  29.746  23.616  1.00  0.00    -0.267 OA
ATOM      5  H   UNL A   1      31.819  30.920  24.517  1.00  0.00     0.163 HD
BRANCH   3   6
ATOM      6  C   UNL A   1      30.975  27.724  24.245  1.00  0.00     0.170 A 
ATOM      7  N   UNL A   1      31.416  25.614  24.019  1.00  0.00    -0.245 N 
ATOM      8  C   UNL A   1      31.634  26.825  23.432  1.00  0.00     0.145 A 
ATOM      9  N   UNL A   1      30.633  25.724  25.096  1.00  0.00    -0.066 NA
ATOM     10  N   UNL A   1      30.318  27.007  25.225  1.00  0.00    -0.125 NA
BRANCH   7  11
ATOM     11  C   UNL A   1      32.050  24.417  23.575  1.00  0.00     0.148 C 
ATOM     12  C   UNL A   1      32.895  21.271  24.004  1.00  0.00     0.280 C 
ATOM     13  O   UNL A   1      32.452  20.534  23.119  1.00  0.00    -0.268 OA
ATOM     14  N   UNL A   1      32.371  22.515  24.203  1.00  0.00    -0.333 N 
ATOM     15  C   UNL A   1      31.207  23.139  23.579  1.00  0.00     0.149 C 
ATOM     16  C   UNL A   1      32.864  23.771  24.725  1.00  0.00     0.149 C 
BRANCH  12  17
ATOM     17  C   UNL A   1      33.962  20.738  24.985  1.00  0.00     0.273 C 
BRANCH  17  18
ATOM     18  C   UNL A   1      35.330  21.367  24.665  1.00  0.00     0.104 C 
BRANCH  18  19
ATOM     19  C   UNL A   1      35.887  22.175  25.844  1.00  0.00     0.166 C 
BRANCH  19  20
ATOM     20  O   UNL A   1      37.314  22.126  25.923  1.00  0.00    -0.384 OA
ATOM     21  C   UNL A   1      37.947  23.398  25.896  1.00  0.00     0.194 C 
ENDBRANCH  19  20
ENDBRANCH  18  19
ENDBRANCH  17  18
BRANCH  17  22
ATOM     22  N   UNL A   1      34.057  19.269  25.022  1.00  0.00    -0.347 N 
ATOM     23  H   UNL A   1      33.298  18.894  25.590  1.00  0.00     0.345 HD
ATOM     24  H   UNL A   1      34.952  18.997  25.429  1.00  0.00     0.345 HD
ATOM     25  H   UNL A   1      33.988  18.899  24.074  1.00  0.00     0.345 HD
ENDBRANCH  17  22
ENDBRANCH  12  17
ENDBRANCH   7  11
ENDBRANCH   3   6
ENDBRANCH   1   2
BRANCH   1  26
ATOM     26  C   UNL A   1      32.978  30.437  26.911  1.00  0.00     0.042 C 
BRANCH  26  27
ATOM     27  C   UNL A   1      34.366  30.532  27.532  1.00  0.00     0.118 C 
BRANCH  27  28
ATOM     28  N   UNL A   1      34.399  31.476  28.647  1.00  0.00    -0.352 N 
ATOM     29  C   UNL A   1      35.312  31.572  29.677  1.00  0.00     0.251 C 
ATOM     30  H   UNL A   1      33.668  32.136  28.666  1.00  0.00     0.163 HD
ATOM     31  O   UNL A   1      35.005  32.166  30.704  1.00  0.00    -0.269 OA
BRANCH  29  32
ATOM     32  C   UNL A   1      36.639  30.943  29.537  1.00  0.00     0.039 A 
ATOM     33  C   UNL A   1      37.803  31.687  29.756  1.00  0.00     0.014 A 
ATOM     34  C   UNL A   1      36.715  29.594  29.195  1.00  0.00     0.014 A 
ATOM     35  C   UNL A   1      39.037  31.041  29.722  1.00  0.00     0.010 A 
ATOM     36  C   UNL A   1      37.921  28.935  29.270  1.00  0.00     0.010 A 
ATOM     37  C   UNL A   1      39.090  29.655  29.505  1.00  0.00    -0.014 A 
BRANCH  37  38
ATOM     38  C   UNL A   1      40.336  28.915  29.724  1.00  0.00     0.031 A 
ATOM     39  C   UNL A   1      40.664  28.704  31.164  1.00  0.00     0.074 A 
ATOM     40  C   UNL A   1      40.969  28.229  28.746  1.00  0.00     0.049 A 
ATOM     41  N   UNL A   1      41.669  29.161  31.835  1.00  0.00    -0.248 NA
ATOM     42  C   UNL A   1      39.647  28.047  32.006  1.00  0.00     0.031 C 
ATOM     43  C   UNL A   1      40.549  28.087  27.348  1.00  0.00     0.029 A 
ATOM     44  N   UNL A   1      42.045  27.393  28.819  1.00  0.00    -0.354 N 
ATOM     45  C   UNL A   1      41.548  28.623  33.116  1.00  0.00     0.074 A 
ATOM     46  C   UNL A   1      40.187  28.181  33.217  1.00  0.00     0.031 C 
ATOM     47  C   UNL A   1      41.195  27.045  26.785  1.00  0.00     0.029 A 
ATOM     48  C   UNL A   1      42.184  26.541  27.721  1.00  0.00     0.049 A 
ATOM     49  H   UNL A   1      42.669  27.390  29.580  1.00  0.00     0.167 HD
ATOM     50  C   UNL A   1      42.652  28.330  33.864  1.00  0.00     0.034 A 
ATOM     51  C   UNL A   1      43.017  25.470  27.598  1.00  0.00     0.034 A 
ATOM     52  C   UNL A   1      43.818  29.006  33.327  1.00  0.00     0.049 A 
ATOM     53  C   UNL A   1      44.092  25.649  28.603  1.00  0.00     0.074 A 
ATOM     54  C   UNL A   1      44.138  30.326  33.064  1.00  0.00     0.029 A 
ATOM     55  N   UNL A   1      44.725  28.262  32.600  1.00  0.00    -0.354 N 
ATOM     56  N   UNL A   1      44.954  26.628  28.566  1.00  0.00    -0.248 NA
ATOM     57  C   UNL A   1      43.921  25.026  29.907  1.00  0.00     0.031 C 
ATOM     58  C   UNL A   1      44.861  30.295  31.835  1.00  0.00     0.029 A 
ATOM     59  C   UNL A   1      45.034  28.960  31.461  1.00  0.00     0.049 A 
ATOM     60  H   UNL A   1      45.088  27.383  32.855  1.00  0.00     0.167 HD
ATOM     61  C   UNL A   1      45.089  27.034  29.885  1.00  0.00     0.074 A 
ATOM     62  C   UNL A   1      44.522  25.941  30.674  1.00  0.00     0.031 C 
ATOM     63  C   UNL A   1      45.377  28.335  30.197  1.00  0.00     0.034 A 
BRANCH  50  64
ATOM     64  C   UNL A   1      42.777  27.111  34.777  1.00  0.00     0.023 A 
ATOM     65  C   UNL A   1      43.646  26.094  34.337  1.00  0.00     0.031 A 
ATOM     66  C   UNL A   1      41.919  26.743  35.836  1.00  0.00     0.131 A 
ATOM     67  C   UNL A   1      43.493  24.766  34.768  1.00  0.00     0.055 A 
ATOM     68  C   UNL A   1      41.813  25.430  36.312  1.00  0.00     0.041 A 
ATOM     69  F   UNL A   1      41.096  27.598  36.448  1.00  0.00    -0.206 F 
ATOM     70  C   UNL A   1      42.566  24.420  35.742  1.00  0.00     0.022 A 
BRANCH  67  71
ATOM     71  S   UNL A   1      44.378  23.479  33.855  1.00  0.00     0.124 S 
ATOM     72  O   UNL A   1      45.521  24.233  33.351  1.00  0.00    -0.237 OA
ATOM     73  O   UNL A   1      44.657  22.508  34.908  1.00  0.00    -0.237 OA
ATOM     74  O   UNL A   1      43.409  23.053  32.850  1.00  0.00    -0.744 OA
ENDBRANCH  67  71
ENDBRANCH  50  64
BRANCH  51  75
ATOM     75  C   UNL A   1      42.767  24.189  26.872  1.00  0.00     0.023 A 
ATOM     76  C   UNL A   1      43.712  23.594  26.005  1.00  0.00     0.031 A 
ATOM     77  C   UNL A   1      41.650  23.394  27.220  1.00  0.00     0.131 A 
ATOM     78  C   UNL A   1      43.519  22.273  25.529  1.00  0.00     0.055 A 
ATOM     79  C   UNL A   1      41.461  22.094  26.743  1.00  0.00     0.041 A 
ATOM     80  F   UNL A   1      40.741  23.823  28.108  1.00  0.00    -0.206 F 
ATOM     81  C   UNL A   1      42.402  21.524  25.902  1.00  0.00     0.022 A 
BRANCH  78  82
ATOM     82  S   UNL A   1      44.774  21.462  24.481  1.00  0.00     0.124 S 
ATOM     83  O   UNL A   1      44.309  20.081  24.450  1.00  0.00    -0.237 OA
ATOM     84  O   UNL A   1      44.675  22.210  23.234  1.00  0.00    -0.237 OA
ATOM     85  O   UNL A   1      46.022  21.671  25.219  1.00  0.00    -0.744 OA
ENDBRANCH  78  82
ENDBRANCH  51  75
BRANCH  63  86
ATOM     86  C   UNL A   1      45.906  29.245  29.105  1.00  0.00     0.023 A 
ATOM     87  C   UNL A   1      45.159  30.244  28.438  1.00  0.00     0.031 A 
ATOM     88  C   UNL A   1      47.279  29.156  28.813  1.00  0.00     0.131 A 
ATOM     89  C   UNL A   1      45.795  31.100  27.514  1.00  0.00     0.055 A 
ATOM     90  C   UNL A   1      47.908  30.019  27.917  1.00  0.00     0.041 A 
ATOM     91  F   UNL A   1      48.050  28.245  29.430  1.00  0.00    -0.206 F 
ATOM     92  C   UNL A   1      47.165  30.990  27.259  1.00  0.00     0.022 A 
BRANCH  89  93
ATOM     93  S   UNL A   1      44.848  32.364  26.606  1.00  0.00     0.124 S 
ATOM     94  O   UNL A   1      44.299  33.208  27.660  1.00  0.00    -0.237 OA
ATOM     95  O   UNL A   1      45.869  32.978  25.761  1.00  0.00    -0.237 OA
ATOM     96  O   UNL A   1      43.849  31.580  25.875  1.00  0.00    -0.744 OA
ENDBRANCH  89  93
ENDBRANCH  63  86
ENDBRANCH  37  38
ENDBRANCH  29  32
ENDBRANCH  27  28
ENDBRANCH  26  27
ENDBRANCH   1  26
TORSDOF 19
ENDMDL
MODEL 3
REMARK VINA RESULT:     -11.5      3.116      8.352
REMARK SMILES COCC[C@H]([NH3+])C(=O)N1CC(n2cc(C(=O)NCCCNC(=O)c3ccc(-c4c5nc(c(-c6cc(S(=O)(=O)[O-])ccc6F)c6ccc([nH]6)c(-c6cc(S(=O)(=O)[O-])ccc6F)c6nc(c(-c7cc(S(=O)(=O)[O-])ccc7F)c7ccc4[nH]7)C=C6)C=C5)cc3)nn2)C1
REMARK SMILES IDX 18 1 17 2 15 3 16 4 14 6 12 7 13 8 88 9 87 10 11 11 7 12
REMARK SMILES IDX 8 13 9 14 10 15 89 16 5 17 4 18 3 19 2 20 1 21 6 22 19 26
REMARK SMILES IDX 20 27 21 28 22 29 23 31 24 32 25 33 86 34 26 35 85 36 27 37
REMARK SMILES IDX 28 38 29 39 79 40 30 41 84 42 78 43 80 44 31 45 83 46 77 47
REMARK SMILES IDX 76 48 32 50 64 51 44 52 63 53 45 54 48 55 62 56 81 57 46 58
REMARK SMILES IDX 47 59 61 61 82 62 49 63 33 64 34 65 42 66 35 67 41 68 43 69
REMARK SMILES IDX 40 70 36 71 37 72 38 73 39 74 65 75 66 76 74 77 67 78 73 79
REMARK SMILES IDX 75 80 72 81 68 82 69 83 70 84 71 85 50 86 51 87 59 88 52 89
REMARK SMILES IDX 58 90 60 91 57 92 53 93 54 94 55 95 56 96
REMARK H PARENT 17 5 6 23 6 24 6 25 21 30 80 49 48 60
REMARK Flexibility Score: inf
ROOT
ATOM      1  C   UNL A   1      31.763  30.140  25.833  1.00  0.00     0.118 C 
ENDROOT
BRANCH   1   2
ATOM      2  N   UNL A   1      31.079  30.032  24.556  1.00  0.00    -0.351 N 
ATOM      3  C   UNL A   1      30.664  28.920  23.850  1.00  0.00     0.273 C 
ATOM      4  O   UNL A   1      29.930  29.096  22.887  1.00  0.00    -0.267 OA
ATOM      5  H   UNL A   1      30.879  30.892  24.123  1.00  0.00     0.163 HD
BRANCH   3   6
ATOM      6  C   UNL A   1      31.076  27.585  24.273  1.00  0.00     0.170 A 
ATOM      7  N   UNL A   1      32.095  25.818  25.007  1.00  0.00    -0.245 N 
ATOM      8  C   UNL A   1      32.315  27.118  24.662  1.00  0.00     0.145 A 
ATOM      9  N   UNL A   1      30.822  25.465  24.805  1.00  0.00    -0.066 NA
ATOM     10  N   UNL A   1      30.192  26.526  24.315  1.00  0.00    -0.125 NA
BRANCH   7  11
ATOM     11  C   UNL A   1      33.095  25.000  25.608  1.00  0.00     0.148 C 
ATOM     12  C   UNL A   1      34.936  22.280  25.681  1.00  0.00     0.280 C 
ATOM     13  O   UNL A   1      36.146  22.522  25.651  1.00  0.00    -0.268 OA
ATOM     14  N   UNL A   1      34.026  23.224  25.304  1.00  0.00    -0.333 N 
ATOM     15  C   UNL A   1      34.251  24.541  24.714  1.00  0.00     0.149 C 
ATOM     16  C   UNL A   1      32.648  23.517  25.629  1.00  0.00     0.149 C 
BRANCH  12  17
ATOM     17  C   UNL A   1      34.447  20.854  26.018  1.00  0.00     0.273 C 
BRANCH  17  18
ATOM     18  C   UNL A   1      33.965  20.149  24.738  1.00  0.00     0.104 C 
BRANCH  18  19
ATOM     19  C   UNL A   1      32.447  19.935  24.728  1.00  0.00     0.166 C 
BRANCH  19  20
ATOM     20  O   UNL A   1      32.070  18.618  25.139  1.00  0.00    -0.384 OA
ATOM     21  C   UNL A   1      32.762  17.574  24.469  1.00  0.00     0.194 C 
ENDBRANCH  19  20
ENDBRANCH  18  19
ENDBRANCH  17  18
BRANCH  17  22
ATOM     22  N   UNL A   1      33.410  20.810  27.062  1.00  0.00    -0.347 N 
ATOM     23  H   UNL A   1      33.315  19.854  27.405  1.00  0.00     0.345 HD
ATOM     24  H   UNL A   1      32.521  21.120  26.670  1.00  0.00     0.345 HD
ATOM     25  H   UNL A   1      33.675  21.424  27.832  1.00  0.00     0.345 HD
ENDBRANCH  17  22
ENDBRANCH  12  17
ENDBRANCH   7  11
ENDBRANCH   3   6
ENDBRANCH   1   2
BRANCH   1  26
ATOM     26  C   UNL A   1      31.436  31.448  26.563  1.00  0.00     0.042 C 
BRANCH  26  27
ATOM     27  C   UNL A   1      32.677  32.116  27.139  1.00  0.00     0.118 C 
BRANCH  27  28
ATOM     28  N   UNL A   1      32.437  33.520  27.466  1.00  0.00    -0.352 N 
ATOM     29  C   UNL A   1      33.097  34.325  28.370  1.00  0.00     0.251 C 
ATOM     30  H   UNL A   1      31.702  33.950  26.973  1.00  0.00     0.163 HD
ATOM     31  O   UNL A   1      32.554  35.346  28.780  1.00  0.00    -0.269 OA
BRANCH  29  32
ATOM     32  C   UNL A   1      34.439  33.942  28.847  1.00  0.00     0.039 A 
ATOM     33  C   UNL A   1      34.610  33.403  30.126  1.00  0.00     0.014 A 
ATOM     34  C   UNL A   1      35.532  34.114  28.000  1.00  0.00     0.014 A 
ATOM     35  C   UNL A   1      35.872  32.952  30.509  1.00  0.00     0.010 A 
ATOM     36  C   UNL A   1      36.751  33.569  28.334  1.00  0.00     0.010 A 
ATOM     37  C   UNL A   1      36.937  33.011  29.597  1.00  0.00    -0.014 A 
BRANCH  37  38
ATOM     38  C   UNL A   1      38.194  32.311  29.875  1.00  0.00     0.031 A 
ATOM     39  C   UNL A   1      38.194  30.884  29.443  1.00  0.00     0.074 A 
ATOM     40  C   UNL A   1      39.338  32.951  30.206  1.00  0.00     0.049 A 
ATOM     41  N   UNL A   1      38.286  29.822  30.173  1.00  0.00    -0.248 NA
ATOM     42  C   UNL A   1      37.873  30.599  28.032  1.00  0.00     0.031 C 
ATOM     43  C   UNL A   1      39.540  34.398  30.333  1.00  0.00     0.029 A 
ATOM     44  N   UNL A   1      40.602  32.460  30.360  1.00  0.00    -0.354 N 
ATOM     45  C   UNL A   1      38.303  28.748  29.284  1.00  0.00     0.074 A 
ATOM     46  C   UNL A   1      37.795  29.268  28.047  1.00  0.00     0.031 C 
ATOM     47  C   UNL A   1      40.860  34.676  30.291  1.00  0.00     0.029 A 
ATOM     48  C   UNL A   1      41.605  33.429  30.294  1.00  0.00     0.049 A 
ATOM     49  H   UNL A   1      40.791  31.505  30.503  1.00  0.00     0.167 HD
ATOM     50  C   UNL A   1      39.004  27.611  29.566  1.00  0.00     0.034 A 
ATOM     51  C   UNL A   1      42.950  33.233  30.202  1.00  0.00     0.034 A 
ATOM     52  C   UNL A   1      39.325  27.556  30.980  1.00  0.00     0.049 A 
ATOM     53  C   UNL A   1      43.212  31.854  30.680  1.00  0.00     0.074 A 
ATOM     54  C   UNL A   1      38.580  27.589  32.146  1.00  0.00     0.029 A 
ATOM     55  N   UNL A   1      40.616  27.854  31.368  1.00  0.00    -0.354 N 
ATOM     56  N   UNL A   1      42.995  31.465  31.907  1.00  0.00    -0.248 NA
ATOM     57  C   UNL A   1      43.258  30.785  29.693  1.00  0.00     0.031 C 
ATOM     58  C   UNL A   1      39.344  28.384  33.051  1.00  0.00     0.029 A 
ATOM     59  C   UNL A   1      40.554  28.711  32.436  1.00  0.00     0.049 A 
ATOM     60  H   UNL A   1      41.439  27.510  30.949  1.00  0.00     0.167 HD
ATOM     61  C   UNL A   1      42.441  30.200  31.788  1.00  0.00     0.074 A 
ATOM     62  C   UNL A   1      42.734  29.790  30.415  1.00  0.00     0.031 C 
ATOM     63  C   UNL A   1      41.550  29.731  32.713  1.00  0.00     0.034 A 
BRANCH  50  64
ATOM     64  C   UNL A   1      39.779  26.795  28.533  1.00  0.00     0.023 A 
ATOM     65  C   UNL A   1      40.930  27.404  27.998  1.00  0.00     0.031 A 
ATOM     66  C   UNL A   1      39.329  25.654  27.832  1.00  0.00     0.131 A 
ATOM     67  C   UNL A   1      41.435  27.034  26.741  1.00  0.00     0.055 A 
ATOM     68  C   UNL A   1      39.876  25.244  26.609  1.00  0.00     0.041 A 
ATOM     69  F   UNL A   1      38.315  24.890  28.243  1.00  0.00    -0.206 F 
ATOM     70  C   UNL A   1      40.903  25.967  26.029  1.00  0.00     0.022 A 
BRANCH  67  71
ATOM     71  S   UNL A   1      42.649  28.128  25.967  1.00  0.00     0.124 S 
ATOM     72  O   UNL A   1      42.344  27.926  24.554  1.00  0.00    -0.237 OA
ATOM     73  O   UNL A   1      42.281  29.423  26.530  1.00  0.00    -0.237 OA
ATOM     74  O   UNL A   1      43.927  27.588  26.421  1.00  0.00    -0.744 OA
ENDBRANCH  67  71
ENDBRANCH  50  64
BRANCH  51  75
ATOM     75  C   UNL A   1      43.953  34.057  29.463  1.00  0.00     0.023 A 
ATOM     76  C   UNL A   1      44.503  33.673  28.218  1.00  0.00     0.031 A 
ATOM     77  C   UNL A   1      44.210  35.385  29.878  1.00  0.00     0.131 A 
ATOM     78  C   UNL A   1      45.266  34.593  27.457  1.00  0.00     0.055 A 
ATOM     79  C   UNL A   1      44.968  36.285  29.126  1.00  0.00     0.041 A 
ATOM     80  F   UNL A   1      43.660  35.883  30.996  1.00  0.00    -0.206 F 
ATOM     81  C   UNL A   1      45.492  35.896  27.905  1.00  0.00     0.022 A 
BRANCH  78  82
ATOM     82  S   UNL A   1      45.907  34.139  25.808  1.00  0.00     0.124 S 
ATOM     83  O   UNL A   1      47.104  33.376  26.139  1.00  0.00    -0.237 OA
ATOM     84  O   UNL A   1      44.797  33.390  25.234  1.00  0.00    -0.237 OA
ATOM     85  O   UNL A   1      46.163  35.434  25.173  1.00  0.00    -0.744 OA
ENDBRANCH  78  82
ENDBRANCH  51  75
BRANCH  63  86
ATOM     86  C   UNL A   1      41.447  30.440  34.050  1.00  0.00     0.023 A 
ATOM     87  C   UNL A   1      40.518  31.458  34.368  1.00  0.00     0.031 A 
ATOM     88  C   UNL A   1      42.273  29.967  35.085  1.00  0.00     0.131 A 
ATOM     89  C   UNL A   1      40.452  31.965  35.683  1.00  0.00     0.055 A 
ATOM     90  C   UNL A   1      42.189  30.454  36.388  1.00  0.00     0.041 A 
ATOM     91  F   UNL A   1      43.160  28.984  34.855  1.00  0.00    -0.206 F 
ATOM     92  C   UNL A   1      41.281  31.460  36.690  1.00  0.00     0.022 A 
BRANCH  89  93
ATOM     93  S   UNL A   1      39.298  33.309  36.110  1.00  0.00     0.124 S 
ATOM     94  O   UNL A   1      39.667  34.383  35.196  1.00  0.00    -0.237 OA
ATOM     95  O   UNL A   1      37.995  32.692  35.881  1.00  0.00    -0.237 OA
ATOM     96  O   UNL A   1      39.599  33.580  37.518  1.00  0.00    -0.744 OA
ENDBRANCH  89  93
ENDBRANCH  63  86
ENDBRANCH  37  38
ENDBRANCH  29  32
ENDBRANCH  27  28
ENDBRANCH  26  27
ENDBRANCH   1  26
TORSDOF 19
ENDMDL
