MODEL 1
REMARK VINA RESULT:     -11.0      0.000      0.000
REMARK SMILES CCOC(=O)NC(=O)C[N@H+]1CC[C@@H](C(=O)NCCCNC(=O)c2ccc(-c3c4nc(c(-c5cc(S(=O)(=O)[O-])ccc5F)c5ccc([nH]5)c(-c5cc(S(=O)(=O)[O-])ccc5F)c5nc(c(-c6cc(S(=O)(=O)[O-])ccc6F)c6ccc3[nH]6)C=C5)C=C4)cc2)[C@@H]1C
REMARK SMILES IDX 17 1 16 2 14 3 15 4 13 6 10 7 11 8 86 9 12 11 87 12 9 13
REMARK SMILES IDX 7 14 4 15 5 16 6 17 8 19 3 20 2 21 1 22 18 23 19 24 20 25
REMARK SMILES IDX 21 26 22 28 23 29 24 30 85 31 25 32 84 33 26 34 27 35 28 36
REMARK SMILES IDX 78 37 29 38 83 39 77 40 79 41 30 42 82 43 76 44 75 45 31 47
REMARK SMILES IDX 63 48 43 49 62 50 44 51 47 52 61 53 80 54 45 55 46 56 60 58
REMARK SMILES IDX 81 59 48 60 32 61 33 62 41 63 34 64 40 65 42 66 39 67 35 68
REMARK SMILES IDX 36 69 37 70 38 71 64 72 65 73 73 74 66 75 72 76 74 77 71 78
REMARK SMILES IDX 67 79 68 80 69 81 70 82 49 83 50 84 58 85 51 86 57 87 59 88
REMARK SMILES IDX 56 89 52 90 53 91 54 92 55 93
REMARK H PARENT 16 5 10 10 6 18 20 27 79 46 47 57
REMARK Flexibility Score: inf
ROOT
ATOM      1  C   UNL A   1      31.369  27.594  26.094  1.00  0.00     0.117 C 
ENDROOT
BRANCH   1   2
ATOM      2  N   UNL A   1      30.637  26.437  26.574  1.00  0.00    -0.356 N 
ATOM      3  C   UNL A   1      30.693  25.128  26.211  1.00  0.00     0.229 C 
ATOM      4  O   UNL A   1      29.918  24.352  26.777  1.00  0.00    -0.275 OA
ATOM      5  H   UNL A   1      29.988  26.634  27.288  1.00  0.00     0.163 HD
BRANCH   3   6
ATOM      6  C   UNL A   1      31.685  24.600  25.184  1.00  0.00     0.142 C 
ATOM      7  N   UNL A   1      33.248  22.740  25.239  1.00  0.00    -0.324 N 
ATOM      8  C   UNL A   1      32.179  22.415  24.296  1.00  0.00     0.263 C 
ATOM      9  C   UNL A   1      33.009  24.097  25.771  1.00  0.00     0.194 C 
ATOM     10  H   UNL A   1      34.139  22.746  24.743  1.00  0.00     0.348 HD
ATOM     11  C   UNL A   1      31.112  23.486  24.336  1.00  0.00     0.081 C 
ATOM     12  C   UNL A   1      34.170  24.990  25.320  1.00  0.00     0.076 C 
BRANCH   7  13
ATOM     13  C   UNL A   1      33.464  21.708  26.272  1.00  0.00     0.364 C 
BRANCH  13  14
ATOM     14  C   UNL A   1      33.684  20.326  25.667  1.00  0.00     0.284 C 
ATOM     15  C   UNL A   1      36.165  20.527  25.141  1.00  0.00     0.414 C 
ATOM     16  O   UNL A   1      37.123  19.936  24.658  1.00  0.00    -0.224 OA
ATOM     17  N   UNL A   1      34.901  19.981  25.117  1.00  0.00    -0.256 N 
ATOM     18  H   UNL A   1      34.856  19.154  24.585  1.00  0.00     0.176 HD
ATOM     19  O   UNL A   1      32.768  19.499  25.618  1.00  0.00    -0.268 OA
BRANCH  15  20
ATOM     20  O   UNL A   1      36.246  21.718  25.773  1.00  0.00    -0.450 OA
BRANCH  20  21
ATOM     21  C   UNL A   1      36.949  22.769  25.094  1.00  0.00     0.231 C 
ATOM     22  C   UNL A   1      37.942  23.442  26.027  1.00  0.00     0.049 C 
ENDBRANCH  20  21
ENDBRANCH  15  20
ENDBRANCH  13  14
ENDBRANCH   7  13
ENDBRANCH   3   6
ENDBRANCH   1   2
BRANCH   1  23
ATOM     23  C   UNL A   1      31.970  28.398  27.235  1.00  0.00     0.042 C 
BRANCH  23  24
ATOM     24  C   UNL A   1      33.345  28.951  26.921  1.00  0.00     0.118 C 
BRANCH  24  25
ATOM     25  N   UNL A   1      33.405  30.388  27.124  1.00  0.00    -0.352 N 
ATOM     26  C   UNL A   1      34.311  31.136  27.833  1.00  0.00     0.251 C 
ATOM     27  H   UNL A   1      32.687  30.903  26.689  1.00  0.00     0.163 HD
ATOM     28  O   UNL A   1      34.036  32.302  28.101  1.00  0.00    -0.269 OA
BRANCH  26  29
ATOM     29  C   UNL A   1      35.592  30.541  28.279  1.00  0.00     0.039 A 
ATOM     30  C   UNL A   1      35.609  29.759  29.436  1.00  0.00     0.014 A 
ATOM     31  C   UNL A   1      36.784  30.785  27.591  1.00  0.00     0.014 A 
ATOM     32  C   UNL A   1      36.812  29.211  29.884  1.00  0.00     0.010 A 
ATOM     33  C   UNL A   1      37.954  30.139  27.966  1.00  0.00     0.010 A 
ATOM     34  C   UNL A   1      37.993  29.383  29.144  1.00  0.00    -0.014 A 
BRANCH  34  35
ATOM     35  C   UNL A   1      39.294  28.862  29.634  1.00  0.00     0.031 A 
ATOM     36  C   UNL A   1      39.957  29.514  30.821  1.00  0.00     0.074 A 
ATOM     37  C   UNL A   1      39.888  27.833  29.000  1.00  0.00     0.049 A 
ATOM     38  N   UNL A   1      41.107  29.244  31.383  1.00  0.00    -0.248 NA
ATOM     39  C   UNL A   1      39.250  30.651  31.433  1.00  0.00     0.031 C 
ATOM     40  C   UNL A   1      39.362  27.154  27.813  1.00  0.00     0.029 A 
ATOM     41  N   UNL A   1      41.059  27.174  29.267  1.00  0.00    -0.354 N 
ATOM     42  C   UNL A   1      41.264  30.183  32.398  1.00  0.00     0.074 A 
ATOM     43  C   UNL A   1      40.136  31.083  32.315  1.00  0.00     0.031 C 
ATOM     44  C   UNL A   1      40.188  26.149  27.481  1.00  0.00     0.029 A 
ATOM     45  C   UNL A   1      41.320  26.137  28.401  1.00  0.00     0.049 A 
ATOM     46  H   UNL A   1      41.658  27.418  30.009  1.00  0.00     0.167 HD
ATOM     47  C   UNL A   1      42.241  30.269  33.335  1.00  0.00     0.034 A 
ATOM     48  C   UNL A   1      42.356  25.276  28.357  1.00  0.00     0.034 A 
ATOM     49  C   UNL A   1      43.347  29.348  33.412  1.00  0.00     0.049 A 
ATOM     50  C   UNL A   1      43.430  25.389  29.410  1.00  0.00     0.074 A 
ATOM     51  C   UNL A   1      44.376  29.308  34.337  1.00  0.00     0.029 A 
ATOM     52  N   UNL A   1      43.571  28.300  32.526  1.00  0.00    -0.354 N 
ATOM     53  N   UNL A   1      43.541  26.255  30.393  1.00  0.00    -0.248 NA
ATOM     54  C   UNL A   1      44.504  24.390  29.361  1.00  0.00     0.031 C 
ATOM     55  C   UNL A   1      45.254  28.282  33.972  1.00  0.00     0.029 A 
ATOM     56  C   UNL A   1      44.730  27.623  32.871  1.00  0.00     0.049 A 
ATOM     57  H   UNL A   1      42.990  28.073  31.764  1.00  0.00     0.167 HD
ATOM     58  C   UNL A   1      44.679  25.877  31.103  1.00  0.00     0.074 A 
ATOM     59  C   UNL A   1      45.200  24.696  30.445  1.00  0.00     0.031 C 
ATOM     60  C   UNL A   1      45.239  26.449  32.200  1.00  0.00     0.034 A 
BRANCH  47  61
ATOM     61  C   UNL A   1      42.152  31.407  34.328  1.00  0.00     0.023 A 
ATOM     62  C   UNL A   1      41.227  31.395  35.388  1.00  0.00     0.031 A 
ATOM     63  C   UNL A   1      42.973  32.540  34.189  1.00  0.00     0.131 A 
ATOM     64  C   UNL A   1      41.080  32.526  36.206  1.00  0.00     0.055 A 
ATOM     65  C   UNL A   1      42.887  33.624  35.066  1.00  0.00     0.041 A 
ATOM     66  F   UNL A   1      43.859  32.625  33.185  1.00  0.00    -0.206 F 
ATOM     67  C   UNL A   1      41.923  33.630  36.071  1.00  0.00     0.022 A 
BRANCH  64  68
ATOM     68  S   UNL A   1      39.663  32.599  37.337  1.00  0.00     0.124 S 
ATOM     69  O   UNL A   1      40.327  32.575  38.640  1.00  0.00    -0.237 OA
ATOM     70  O   UNL A   1      39.026  33.856  36.969  1.00  0.00    -0.237 OA
ATOM     71  O   UNL A   1      38.903  31.393  37.013  1.00  0.00    -0.744 OA
ENDBRANCH  64  68
ENDBRANCH  47  61
BRANCH  48  72
ATOM     72  C   UNL A   1      42.427  24.228  27.299  1.00  0.00     0.023 A 
ATOM     73  C   UNL A   1      41.714  23.024  27.424  1.00  0.00     0.031 A 
ATOM     74  C   UNL A   1      43.245  24.393  26.167  1.00  0.00     0.131 A 
ATOM     75  C   UNL A   1      41.877  22.010  26.466  1.00  0.00     0.055 A 
ATOM     76  C   UNL A   1      43.357  23.406  25.187  1.00  0.00     0.041 A 
ATOM     77  F   UNL A   1      43.943  25.527  25.994  1.00  0.00    -0.206 F 
ATOM     78  C   UNL A   1      42.683  22.199  25.342  1.00  0.00     0.022 A 
BRANCH  75  79
ATOM     79  S   UNL A   1      41.092  20.402  26.763  1.00  0.00     0.124 S 
ATOM     80  O   UNL A   1      40.948  20.405  28.213  1.00  0.00    -0.237 OA
ATOM     81  O   UNL A   1      39.857  20.521  25.995  1.00  0.00    -0.237 OA
ATOM     82  O   UNL A   1      42.063  19.448  26.232  1.00  0.00    -0.744 OA
ENDBRANCH  75  79
ENDBRANCH  48  72
BRANCH  60  83
ATOM     83  C   UNL A   1      46.447  25.757  32.788  1.00  0.00     0.023 A 
ATOM     84  C   UNL A   1      46.336  24.820  33.829  1.00  0.00     0.031 A 
ATOM     85  C   UNL A   1      47.737  26.077  32.323  1.00  0.00     0.131 A 
ATOM     86  C   UNL A   1      47.493  24.303  34.430  1.00  0.00     0.055 A 
ATOM     87  C   UNL A   1      48.881  25.497  32.872  1.00  0.00     0.041 A 
ATOM     88  F   UNL A   1      47.907  26.966  31.332  1.00  0.00    -0.206 F 
ATOM     89  C   UNL A   1      48.764  24.621  33.947  1.00  0.00     0.022 A 
BRANCH  86  90
ATOM     90  S   UNL A   1      47.318  23.321  35.947  1.00  0.00     0.124 S 
ATOM     91  O   UNL A   1      48.710  23.046  36.290  1.00  0.00    -0.237 OA
ATOM     92  O   UNL A   1      46.613  24.241  36.833  1.00  0.00    -0.237 OA
ATOM     93  O   UNL A   1      46.544  22.159  35.515  1.00  0.00    -0.744 OA
ENDBRANCH  86  90
ENDBRANCH  60  83
ENDBRANCH  34  35
ENDBRANCH  26  29
ENDBRANCH  24  25
ENDBRANCH  23  24
ENDBRANCH   1  23
TORSDOF 17
ENDMDL
MODEL 2
REMARK VINA RESULT:     -10.9      1.789      2.086
REMARK SMILES CCOC(=O)NC(=O)C[N@H+]1CC[C@@H](C(=O)NCCCNC(=O)c2ccc(-c3c4nc(c(-c5cc(S(=O)(=O)[O-])ccc5F)c5ccc([nH]5)c(-c5cc(S(=O)(=O)[O-])ccc5F)c5nc(c(-c6cc(S(=O)(=O)[O-])ccc6F)c6ccc3[nH]6)C=C5)C=C4)cc2)[C@@H]1C
REMARK SMILES IDX 17 1 16 2 14 3 15 4 13 6 10 7 11 8 86 9 12 11 87 12 9 13
REMARK SMILES IDX 7 14 4 15 5 16 6 17 8 19 3 20 2 21 1 22 18 23 19 24 20 25
REMARK SMILES IDX 21 26 22 28 23 29 24 30 85 31 25 32 84 33 26 34 27 35 28 36
REMARK SMILES IDX 78 37 29 38 83 39 77 40 79 41 30 42 82 43 76 44 75 45 31 47
REMARK SMILES IDX 63 48 43 49 62 50 44 51 47 52 61 53 80 54 45 55 46 56 60 58
REMARK SMILES IDX 81 59 48 60 32 61 33 62 41 63 34 64 40 65 42 66 39 67 35 68
REMARK SMILES IDX 36 69 37 70 38 71 64 72 65 73 73 74 66 75 72 76 74 77 71 78
REMARK SMILES IDX 67 79 68 80 69 81 70 82 49 83 50 84 58 85 51 86 57 87 59 88
REMARK SMILES IDX 56 89 52 90 53 91 54 92 55 93
REMARK H PARENT 16 5 10 10 6 18 20 27 79 46 47 57
REMARK Flexibility Score: inf
ROOT
ATOM      1  C   UNL A   1      31.535  27.569  26.127  1.00  0.00     0.117 C 
ENDROOT
BRANCH   1   2
ATOM      2  N   UNL A   1      30.756  26.429  26.573  1.00  0.00    -0.356 N 
ATOM      3  C   UNL A   1      30.765  25.128  26.177  1.00  0.00     0.229 C 
ATOM      4  O   UNL A   1      29.957  24.368  26.718  1.00  0.00    -0.275 OA
ATOM      5  H   UNL A   1      30.109  26.632  27.286  1.00  0.00     0.163 HD
BRANCH   3   6
ATOM      6  C   UNL A   1      31.744  24.589  25.144  1.00  0.00     0.142 C 
ATOM      7  N   UNL A   1      33.311  22.732  25.202  1.00  0.00    -0.324 N 
ATOM      8  C   UNL A   1      32.230  22.394  24.276  1.00  0.00     0.263 C 
ATOM      9  C   UNL A   1      33.077  24.095  25.720  1.00  0.00     0.194 C 
ATOM     10  H   UNL A   1      34.196  22.732  24.694  1.00  0.00     0.348 HD
ATOM     11  C   UNL A   1      31.162  23.464  24.316  1.00  0.00     0.081 C 
ATOM     12  C   UNL A   1      34.230  24.983  25.244  1.00  0.00     0.076 C 
BRANCH   7  13
ATOM     13  C   UNL A   1      33.541  21.712  26.244  1.00  0.00     0.364 C 
BRANCH  13  14
ATOM     14  C   UNL A   1      33.810  20.334  25.651  1.00  0.00     0.284 C 
ATOM     15  C   UNL A   1      36.284  20.612  25.134  1.00  0.00     0.414 C 
ATOM     16  O   UNL A   1      37.263  20.049  24.659  1.00  0.00    -0.224 OA
ATOM     17  N   UNL A   1      35.039  20.025  25.109  1.00  0.00    -0.256 N 
ATOM     18  H   UNL A   1      35.023  19.193  24.583  1.00  0.00     0.176 HD
ATOM     19  O   UNL A   1      32.921  19.477  25.605  1.00  0.00    -0.268 OA
BRANCH  15  20
ATOM     20  O   UNL A   1      36.324  21.810  25.756  1.00  0.00    -0.450 OA
BRANCH  20  21
ATOM     21  C   UNL A   1      37.107  22.840  25.136  1.00  0.00     0.231 C 
ATOM     22  C   UNL A   1      38.032  23.495  26.149  1.00  0.00     0.049 C 
ENDBRANCH  20  21
ENDBRANCH  15  20
ENDBRANCH  13  14
ENDBRANCH   7  13
ENDBRANCH   3   6
ENDBRANCH   1   2
BRANCH   1  23
ATOM     23  C   UNL A   1      32.147  28.328  27.294  1.00  0.00     0.042 C 
BRANCH  23  24
ATOM     24  C   UNL A   1      33.595  28.711  27.067  1.00  0.00     0.118 C 
BRANCH  24  25
ATOM     25  N   UNL A   1      33.767  30.153  27.021  1.00  0.00    -0.352 N 
ATOM     26  C   UNL A   1      34.750  30.936  27.572  1.00  0.00     0.251 C 
ATOM     27  H   UNL A   1      33.073  30.642  26.521  1.00  0.00     0.163 HD
ATOM     28  O   UNL A   1      34.571  32.149  27.643  1.00  0.00    -0.269 OA
BRANCH  26  29
ATOM     29  C   UNL A   1      35.998  30.327  28.083  1.00  0.00     0.039 A 
ATOM     30  C   UNL A   1      35.986  29.710  29.337  1.00  0.00     0.014 A 
ATOM     31  C   UNL A   1      37.191  30.397  27.357  1.00  0.00     0.014 A 
ATOM     32  C   UNL A   1      37.161  29.152  29.845  1.00  0.00     0.010 A 
ATOM     33  C   UNL A   1      38.325  29.734  27.808  1.00  0.00     0.010 A 
ATOM     34  C   UNL A   1      38.337  29.145  29.078  1.00  0.00    -0.014 A 
BRANCH  34  35
ATOM     35  C   UNL A   1      39.612  28.613  29.623  1.00  0.00     0.031 A 
ATOM     36  C   UNL A   1      40.261  29.298  30.799  1.00  0.00     0.074 A 
ATOM     37  C   UNL A   1      40.193  27.543  29.049  1.00  0.00     0.049 A 
ATOM     38  N   UNL A   1      41.390  29.023  31.402  1.00  0.00    -0.248 NA
ATOM     39  C   UNL A   1      39.568  30.477  31.344  1.00  0.00     0.031 C 
ATOM     40  C   UNL A   1      39.680  26.828  27.878  1.00  0.00     0.029 A 
ATOM     41  N   UNL A   1      41.340  26.867  29.373  1.00  0.00    -0.354 N 
ATOM     42  C   UNL A   1      41.545  30.001  32.380  1.00  0.00     0.074 A 
ATOM     43  C   UNL A   1      40.443  30.924  32.229  1.00  0.00     0.031 C 
ATOM     44  C   UNL A   1      40.487  25.788  27.610  1.00  0.00     0.029 A 
ATOM     45  C   UNL A   1      41.596  25.787  28.559  1.00  0.00     0.049 A 
ATOM     46  H   UNL A   1      41.926  27.127  30.120  1.00  0.00     0.167 HD
ATOM     47  C   UNL A   1      42.500  30.101  33.338  1.00  0.00     0.034 A 
ATOM     48  C   UNL A   1      42.609  24.900  28.578  1.00  0.00     0.034 A 
ATOM     49  C   UNL A   1      43.580  29.157  33.483  1.00  0.00     0.049 A 
ATOM     50  C   UNL A   1      43.659  25.030  29.653  1.00  0.00     0.074 A 
ATOM     51  C   UNL A   1      44.583  29.131  34.435  1.00  0.00     0.029 A 
ATOM     52  N   UNL A   1      43.798  28.068  32.647  1.00  0.00    -0.354 N 
ATOM     53  N   UNL A   1      43.768  25.934  30.601  1.00  0.00    -0.248 NA
ATOM     54  C   UNL A   1      44.708  24.004  29.674  1.00  0.00     0.031 C 
ATOM     55  C   UNL A   1      45.443  28.069  34.136  1.00  0.00     0.029 A 
ATOM     56  C   UNL A   1      44.930  27.377  33.051  1.00  0.00     0.049 A 
ATOM     57  H   UNL A   1      43.231  27.823  31.880  1.00  0.00     0.167 HD
ATOM     58  C   UNL A   1      44.877  25.559  31.357  1.00  0.00     0.074 A 
ATOM     59  C   UNL A   1      45.384  24.338  30.763  1.00  0.00     0.031 C 
ATOM     60  C   UNL A   1      45.425  26.162  32.443  1.00  0.00     0.034 A 
BRANCH  47  61
ATOM     61  C   UNL A   1      42.416  31.282  34.279  1.00  0.00     0.023 A 
ATOM     62  C   UNL A   1      41.482  31.328  35.331  1.00  0.00     0.031 A 
ATOM     63  C   UNL A   1      43.251  32.400  34.099  1.00  0.00     0.131 A 
ATOM     64  C   UNL A   1      41.341  32.495  36.097  1.00  0.00     0.055 A 
ATOM     65  C   UNL A   1      43.170  33.522  34.927  1.00  0.00     0.041 A 
ATOM     66  F   UNL A   1      44.147  32.431  33.100  1.00  0.00    -0.206 F 
ATOM     67  C   UNL A   1      42.198  33.582  35.922  1.00  0.00     0.022 A 
BRANCH  64  68
ATOM     68  S   UNL A   1      39.916  32.632  37.212  1.00  0.00     0.124 S 
ATOM     69  O   UNL A   1      40.570  32.679  38.519  1.00  0.00    -0.237 OA
ATOM     70  O   UNL A   1      39.285  33.869  36.769  1.00  0.00    -0.237 OA
ATOM     71  O   UNL A   1      39.155  31.412  36.949  1.00  0.00    -0.744 OA
ENDBRANCH  64  68
ENDBRANCH  47  61
BRANCH  48  72
ATOM     72  C   UNL A   1      42.680  23.806  27.568  1.00  0.00     0.023 A 
ATOM     73  C   UNL A   1      43.721  23.757  26.627  1.00  0.00     0.031 A 
ATOM     74  C   UNL A   1      41.682  22.817  27.497  1.00  0.00     0.131 A 
ATOM     75  C   UNL A   1      43.711  22.777  25.621  1.00  0.00     0.055 A 
ATOM     76  C   UNL A   1      41.708  21.810  26.531  1.00  0.00     0.041 A 
ATOM     77  F   UNL A   1      40.667  22.813  28.376  1.00  0.00    -0.206 F 
ATOM     78  C   UNL A   1      42.719  21.795  25.576  1.00  0.00     0.022 A 
BRANCH  75  79
ATOM     79  S   UNL A   1      44.964  22.864  24.312  1.00  0.00     0.124 S 
ATOM     80  O   UNL A   1      44.250  22.292  23.177  1.00  0.00    -0.237 OA
ATOM     81  O   UNL A   1      45.234  24.297  24.245  1.00  0.00    -0.237 OA
ATOM     82  O   UNL A   1      46.059  22.050  24.837  1.00  0.00    -0.744 OA
ENDBRANCH  75  79
ENDBRANCH  48  72
BRANCH  60  83
ATOM     83  C   UNL A   1      46.600  25.466  33.091  1.00  0.00     0.023 A 
ATOM     84  C   UNL A   1      47.925  25.720  32.698  1.00  0.00     0.031 A 
ATOM     85  C   UNL A   1      46.381  24.499  34.089  1.00  0.00     0.131 A 
ATOM     86  C   UNL A   1      48.971  24.956  33.234  1.00  0.00     0.055 A 
ATOM     87  C   UNL A   1      47.435  23.798  34.677  1.00  0.00     0.041 A 
ATOM     88  F   UNL A   1      45.138  24.212  34.505  1.00  0.00    -0.206 F 
ATOM     89  C   UNL A   1      48.737  24.009  34.235  1.00  0.00     0.022 A 
BRANCH  86  90
ATOM     90  S   UNL A   1      50.624  25.113  32.503  1.00  0.00     0.124 S 
ATOM     91  O   UNL A   1      50.731  23.880  31.729  1.00  0.00    -0.237 OA
ATOM     92  O   UNL A   1      50.505  26.343  31.727  1.00  0.00    -0.237 OA
ATOM     93  O   UNL A   1      51.507  25.195  33.665  1.00  0.00    -0.744 OA
ENDBRANCH  86  90
ENDBRANCH  60  83
ENDBRANCH  34  35
ENDBRANCH  26  29
ENDBRANCH  24  25
ENDBRANCH  23  24
ENDBRANCH   1  23
TORSDOF 17
ENDMDL
MODEL 3
REMARK VINA RESULT:     -10.8      3.548      8.996
REMARK SMILES CCOC(=O)NC(=O)C[N@H+]1CC[C@@H](C(=O)NCCCNC(=O)c2ccc(-c3c4nc(c(-c5cc(S(=O)(=O)[O-])ccc5F)c5ccc([nH]5)c(-c5cc(S(=O)(=O)[O-])ccc5F)c5nc(c(-c6cc(S(=O)(=O)[O-])ccc6F)c6ccc3[nH]6)C=C5)C=C4)cc2)[C@@H]1C
REMARK SMILES IDX 17 1 16 2 14 3 15 4 13 6 10 7 11 8 86 9 12 11 87 12 9 13
REMARK SMILES IDX 7 14 4 15 5 16 6 17 8 19 3 20 2 21 1 22 18 23 19 24 20 25
REMARK SMILES IDX 21 26 22 28 23 29 24 30 85 31 25 32 84 33 26 34 27 35 28 36
REMARK SMILES IDX 78 37 29 38 83 39 77 40 79 41 30 42 82 43 76 44 75 45 31 47
REMARK SMILES IDX 63 48 43 49 62 50 44 51 47 52 61 53 80 54 45 55 46 56 60 58
REMARK SMILES IDX 81 59 48 60 32 61 33 62 41 63 34 64 40 65 42 66 39 67 35 68
REMARK SMILES IDX 36 69 37 70 38 71 64 72 65 73 73 74 66 75 72 76 74 77 71 78
REMARK SMILES IDX 67 79 68 80 69 81 70 82 49 83 50 84 58 85 51 86 57 87 59 88
REMARK SMILES IDX 56 89 52 90 53 91 54 92 55 93
REMARK H PARENT 16 5 10 10 6 18 20 27 79 46 47 57
REMARK Flexibility Score: inf
ROOT
ATOM      1  C   UNL A   1      31.687  30.471  26.198  1.00  0.00     0.117 C 
ENDROOT
BRANCH   1   2
ATOM      2  N   UNL A   1      31.038  30.158  24.940  1.00  0.00    -0.356 N 
ATOM      3  C   UNL A   1      31.402  29.330  23.925  1.00  0.00     0.229 C 
ATOM      4  O   UNL A   1      30.658  29.281  22.941  1.00  0.00    -0.275 OA
ATOM      5  H   UNL A   1      30.184  30.627  24.795  1.00  0.00     0.163 HD
BRANCH   3   6
ATOM      6  C   UNL A   1      32.645  28.453  23.984  1.00  0.00     0.142 C 
ATOM      7  N   UNL A   1      32.949  26.049  23.803  1.00  0.00    -0.324 N 
ATOM      8  C   UNL A   1      33.512  26.675  22.608  1.00  0.00     0.263 C 
ATOM      9  C   UNL A   1      32.449  27.111  24.699  1.00  0.00     0.194 C 
ATOM     10  H   UNL A   1      33.687  25.542  24.292  1.00  0.00     0.348 HD
ATOM     11  C   UNL A   1      33.219  28.159  22.615  1.00  0.00     0.081 C 
ATOM     12  C   UNL A   1      33.274  27.064  25.989  1.00  0.00     0.076 C 
BRANCH   7  13
ATOM     13  C   UNL A   1      31.970  24.984  23.510  1.00  0.00     0.364 C 
BRANCH  13  14
ATOM     14  C   UNL A   1      30.599  25.283  24.106  1.00  0.00     0.284 C 
ATOM     15  C   UNL A   1      30.825  23.966  26.270  1.00  0.00     0.414 C 
ATOM     16  O   UNL A   1      30.238  23.645  27.297  1.00  0.00    -0.224 OA
ATOM     17  N   UNL A   1      30.193  24.684  25.279  1.00  0.00    -0.256 N 
ATOM     18  H   UNL A   1      29.229  24.795  25.448  1.00  0.00     0.176 HD
ATOM     19  O   UNL A   1      29.805  26.036  23.532  1.00  0.00    -0.268 OA
BRANCH  15  20
ATOM     20  O   UNL A   1      32.125  23.700  26.023  1.00  0.00    -0.450 OA
BRANCH  20  21
ATOM     21  C   UNL A   1      32.546  22.334  26.144  1.00  0.00     0.231 C 
ATOM     22  C   UNL A   1      32.075  21.519  24.951  1.00  0.00     0.049 C 
ENDBRANCH  20  21
ENDBRANCH  15  20
ENDBRANCH  13  14
ENDBRANCH   7  13
ENDBRANCH   3   6
ENDBRANCH   1   2
BRANCH   1  23
ATOM     23  C   UNL A   1      31.607  31.954  26.525  1.00  0.00     0.042 C 
BRANCH  23  24
ATOM     24  C   UNL A   1      32.857  32.491  27.190  1.00  0.00     0.118 C 
BRANCH  24  25
ATOM     25  N   UNL A   1      32.703  33.883  27.577  1.00  0.00    -0.352 N 
ATOM     26  C   UNL A   1      33.244  34.562  28.639  1.00  0.00     0.251 C 
ATOM     27  H   UNL A   1      32.123  34.419  26.988  1.00  0.00     0.163 HD
ATOM     28  O   UNL A   1      32.782  35.660  28.938  1.00  0.00    -0.269 OA
BRANCH  26  29
ATOM     29  C   UNL A   1      34.356  33.974  29.420  1.00  0.00     0.039 A 
ATOM     30  C   UNL A   1      35.671  34.286  29.065  1.00  0.00     0.014 A 
ATOM     31  C   UNL A   1      34.116  33.083  30.470  1.00  0.00     0.014 A 
ATOM     32  C   UNL A   1      36.732  33.722  29.775  1.00  0.00     0.010 A 
ATOM     33  C   UNL A   1      35.166  32.623  31.252  1.00  0.00     0.010 A 
ATOM     34  C   UNL A   1      36.489  32.898  30.886  1.00  0.00    -0.014 A 
BRANCH  34  35
ATOM     35  C   UNL A   1      37.601  32.238  31.616  1.00  0.00     0.031 A 
ATOM     36  C   UNL A   1      38.374  31.128  30.949  1.00  0.00     0.074 A 
ATOM     37  C   UNL A   1      37.893  32.613  32.876  1.00  0.00     0.049 A 
ATOM     38  N   UNL A   1      39.350  30.395  31.421  1.00  0.00    -0.248 NA
ATOM     39  C   UNL A   1      37.966  30.766  29.581  1.00  0.00     0.031 C 
ATOM     40  C   UNL A   1      37.183  33.642  33.638  1.00  0.00     0.029 A 
ATOM     41  N   UNL A   1      38.866  32.176  33.736  1.00  0.00    -0.354 N 
ATOM     42  C   UNL A   1      39.658  29.482  30.417  1.00  0.00     0.074 A 
ATOM     43  C   UNL A   1      38.706  29.695  29.350  1.00  0.00     0.031 C 
ATOM     44  C   UNL A   1      37.772  33.785  34.837  1.00  0.00     0.029 A 
ATOM     45  C   UNL A   1      38.871  32.832  34.946  1.00  0.00     0.049 A 
ATOM     46  H   UNL A   1      39.504  31.461  33.510  1.00  0.00     0.167 HD
ATOM     47  C   UNL A   1      40.662  28.571  30.373  1.00  0.00     0.034 A 
ATOM     48  C   UNL A   1      39.672  32.680  36.018  1.00  0.00     0.034 A 
ATOM     49  C   UNL A   1      41.613  28.389  31.442  1.00  0.00     0.049 A 
ATOM     50  C   UNL A   1      40.783  31.662  35.947  1.00  0.00     0.074 A 
ATOM     51  C   UNL A   1      42.695  27.528  31.498  1.00  0.00     0.029 A 
ATOM     52  N   UNL A   1      41.595  29.082  32.647  1.00  0.00    -0.354 N 
ATOM     53  N   UNL A   1      41.091  30.836  34.972  1.00  0.00    -0.248 NA
ATOM     54  C   UNL A   1      41.670  31.577  37.113  1.00  0.00     0.031 C 
ATOM     55  C   UNL A   1      43.288  27.653  32.759  1.00  0.00     0.029 A 
ATOM     56  C   UNL A   1      42.633  28.653  33.459  1.00  0.00     0.049 A 
ATOM     57  H   UNL A   1      40.939  29.776  32.888  1.00  0.00     0.167 HD
ATOM     58  C   UNL A   1      42.234  30.161  35.395  1.00  0.00     0.074 A 
ATOM     59  C   UNL A   1      42.566  30.694  36.700  1.00  0.00     0.031 C 
ATOM     60  C   UNL A   1      42.948  29.194  34.762  1.00  0.00     0.034 A 
BRANCH  47  61
ATOM     61  C   UNL A   1      40.758  27.702  29.139  1.00  0.00     0.023 A 
ATOM     62  C   UNL A   1      41.707  27.951  28.129  1.00  0.00     0.031 A 
ATOM     63  C   UNL A   1      39.862  26.636  28.944  1.00  0.00     0.131 A 
ATOM     64  C   UNL A   1      41.677  27.210  26.938  1.00  0.00     0.055 A 
ATOM     65  C   UNL A   1      39.900  25.841  27.796  1.00  0.00     0.041 A 
ATOM     66  F   UNL A   1      38.918  26.361  29.857  1.00  0.00    -0.206 F 
ATOM     67  C   UNL A   1      40.799  26.138  26.776  1.00  0.00     0.022 A 
BRANCH  64  68
ATOM     68  S   UNL A   1      42.689  27.774  25.541  1.00  0.00     0.124 S 
ATOM     69  O   UNL A   1      41.927  28.933  25.076  1.00  0.00    -0.237 OA
ATOM     70  O   UNL A   1      43.969  28.065  26.174  1.00  0.00    -0.237 OA
ATOM     71  O   UNL A   1      42.686  26.631  24.631  1.00  0.00    -0.744 OA
ENDBRANCH  64  68
ENDBRANCH  47  61
BRANCH  48  72
ATOM     72  C   UNL A   1      39.471  33.511  37.240  1.00  0.00     0.023 A 
ATOM     73  C   UNL A   1      40.212  34.686  37.445  1.00  0.00     0.031 A 
ATOM     74  C   UNL A   1      38.567  33.119  38.243  1.00  0.00     0.131 A 
ATOM     75  C   UNL A   1      40.079  35.396  38.649  1.00  0.00     0.055 A 
ATOM     76  C   UNL A   1      38.396  33.861  39.413  1.00  0.00     0.041 A 
ATOM     77  F   UNL A   1      37.828  32.008  38.095  1.00  0.00    -0.206 F 
ATOM     78  C   UNL A   1      39.166  34.999  39.628  1.00  0.00     0.022 A 
BRANCH  75  79
ATOM     79  S   UNL A   1      41.191  36.796  38.957  1.00  0.00     0.124 S 
ATOM     80  O   UNL A   1      41.972  36.313  40.089  1.00  0.00    -0.237 OA
ATOM     81  O   UNL A   1      41.901  36.905  37.686  1.00  0.00    -0.237 OA
ATOM     82  O   UNL A   1      40.276  37.897  39.252  1.00  0.00    -0.744 OA
ENDBRANCH  75  79
ENDBRANCH  48  72
BRANCH  60  83
ATOM     83  C   UNL A   1      44.195  28.701  35.458  1.00  0.00     0.023 A 
ATOM     84  C   UNL A   1      44.165  27.638  36.377  1.00  0.00     0.031 A 
ATOM     85  C   UNL A   1      45.428  29.338  35.227  1.00  0.00     0.131 A 
ATOM     86  C   UNL A   1      45.321  27.302  37.096  1.00  0.00     0.055 A 
ATOM     87  C   UNL A   1      46.594  28.946  35.887  1.00  0.00     0.041 A 
ATOM     88  F   UNL A   1      45.520  30.360  34.362  1.00  0.00    -0.206 F 
ATOM     89  C   UNL A   1      46.540  27.936  36.843  1.00  0.00     0.022 A 
BRANCH  86  90
ATOM     90  S   UNL A   1      45.179  26.123  38.468  1.00  0.00     0.124 S 
ATOM     91  O   UNL A   1      44.374  25.062  37.872  1.00  0.00    -0.237 OA
ATOM     92  O   UNL A   1      46.573  25.790  38.737  1.00  0.00    -0.237 OA
ATOM     93  O   UNL A   1      44.512  26.895  39.515  1.00  0.00    -0.744 OA
ENDBRANCH  86  90
ENDBRANCH  60  83
ENDBRANCH  34  35
ENDBRANCH  26  29
ENDBRANCH  24  25
ENDBRANCH  23  24
ENDBRANCH   1  23
TORSDOF 17
ENDMDL
