MODEL 1
REMARK VINA RESULT:     -12.2      0.000      0.000
REMARK SMILES O=C(NCCCNC(=O)[C@@H]1C=C[C@@H]([NH+]2CC3(CCOCC3)C2)C1)c1ccc(-c2c3nc(c(-c4cc(S(=O)(=O)[O-])ccc4F)c4ccc([nH]4)c(-c4cc(S(=O)(=O)[O-])ccc4F)c4nc(c(-c5cc(S(=O)(=O)[O-])ccc5F)c5ccc2[nH]5)C=C4)C=C3)cc1
REMARK SMILES IDX 4 1 3 2 1 3 2 4 24 6 25 7 86 8 26 9 85 10 27 11 28 12 29 13
REMARK SMILES IDX 79 14 30 15 84 16 78 17 80 18 31 19 83 20 77 21 76 22 32 24
REMARK SMILES IDX 64 25 44 26 63 27 45 28 48 29 62 30 81 31 46 32 47 33 61 35
REMARK SMILES IDX 82 36 49 37 33 38 34 39 42 40 35 41 41 42 43 43 40 44 36 45
REMARK SMILES IDX 37 46 38 47 39 48 65 49 66 50 74 51 67 52 73 53 75 54 72 55
REMARK SMILES IDX 68 56 69 57 70 58 71 59 50 60 51 61 59 62 52 63 58 64 60 65
REMARK SMILES IDX 57 66 53 67 54 68 55 69 56 70 5 71 6 72 7 73 8 74 9 76 10 77
REMARK SMILES IDX 11 78 23 79 12 80 13 81 14 82 15 83 22 84 16 86 17 87 21 88
REMARK SMILES IDX 18 89 20 90 19 91
REMARK H PARENT 3 5 80 23 48 34 7 75 14 85
REMARK Flexibility Score: inf
ROOT
ATOM      1  C   UNL A   1      32.594  32.278  27.020  1.00  0.00     0.118 C 
ENDROOT
BRANCH   1   2
ATOM      2  N   UNL A   1      32.500  33.680  27.410  1.00  0.00    -0.352 N 
ATOM      3  O   UNL A   1      32.785  35.448  28.773  1.00  0.00    -0.269 OA
ATOM      4  C   UNL A   1      33.171  34.346  28.404  1.00  0.00     0.251 C 
ATOM      5  H   UNL A   1      31.867  34.224  26.888  1.00  0.00     0.163 HD
BRANCH   4   6
ATOM      6  C   UNL A   1      34.357  33.716  29.016  1.00  0.00     0.039 A 
ATOM      7  C   UNL A   1      35.639  34.166  28.685  1.00  0.00     0.014 A 
ATOM      8  C   UNL A   1      34.185  32.679  29.933  1.00  0.00     0.014 A 
ATOM      9  C   UNL A   1      36.752  33.494  29.167  1.00  0.00     0.010 A 
ATOM     10  C   UNL A   1      35.307  32.069  30.494  1.00  0.00     0.010 A 
ATOM     11  C   UNL A   1      36.598  32.461  30.101  1.00  0.00    -0.014 A 
BRANCH  11  12
ATOM     12  C   UNL A   1      37.800  31.850  30.720  1.00  0.00     0.031 A 
ATOM     13  C   UNL A   1      38.593  30.809  29.990  1.00  0.00     0.074 A 
ATOM     14  C   UNL A   1      38.147  32.232  31.964  1.00  0.00     0.049 A 
ATOM     15  N   UNL A   1      39.611  30.103  30.411  1.00  0.00    -0.248 NA
ATOM     16  C   UNL A   1      38.179  30.511  28.613  1.00  0.00     0.031 C 
ATOM     17  C   UNL A   1      37.441  33.238  32.761  1.00  0.00     0.029 A 
ATOM     18  N   UNL A   1      39.165  31.816  32.780  1.00  0.00    -0.354 N 
ATOM     19  C   UNL A   1      39.948  29.259  29.360  1.00  0.00     0.074 A 
ATOM     20  C   UNL A   1      38.998  29.519  28.298  1.00  0.00     0.031 C 
ATOM     21  C   UNL A   1      38.054  33.370  33.945  1.00  0.00     0.029 A 
ATOM     22  C   UNL A   1      39.139  32.400  34.024  1.00  0.00     0.049 A 
ATOM     23  H   UNL A   1      39.849  31.164  32.504  1.00  0.00     0.167 HD
ATOM     24  C   UNL A   1      40.960  28.357  29.295  1.00  0.00     0.034 A 
ATOM     25  C   UNL A   1      39.867  32.150  35.128  1.00  0.00     0.034 A 
ATOM     26  C   UNL A   1      41.881  28.113  30.381  1.00  0.00     0.049 A 
ATOM     27  C   UNL A   1      40.938  31.097  35.061  1.00  0.00     0.074 A 
ATOM     28  C   UNL A   1      42.967  27.256  30.415  1.00  0.00     0.029 A 
ATOM     29  N   UNL A   1      41.809  28.708  31.638  1.00  0.00    -0.354 N 
ATOM     30  N   UNL A   1      41.268  30.323  34.053  1.00  0.00    -0.248 NA
ATOM     31  C   UNL A   1      41.737  30.885  36.273  1.00  0.00     0.031 C 
ATOM     32  C   UNL A   1      43.492  27.264  31.712  1.00  0.00     0.029 A 
ATOM     33  C   UNL A   1      42.801  28.200  32.465  1.00  0.00     0.049 A 
ATOM     34  H   UNL A   1      41.149  29.389  31.902  1.00  0.00     0.167 HD
ATOM     35  C   UNL A   1      42.332  29.549  34.501  1.00  0.00     0.074 A 
ATOM     36  C   UNL A   1      42.589  29.952  35.870  1.00  0.00     0.031 C 
ATOM     37  C   UNL A   1      43.039  28.600  33.835  1.00  0.00     0.034 A 
BRANCH  24  38
ATOM     38  C   UNL A   1      41.072  27.529  28.034  1.00  0.00     0.023 A 
ATOM     39  C   UNL A   1      40.684  26.178  27.993  1.00  0.00     0.031 A 
ATOM     40  C   UNL A   1      41.627  28.083  26.867  1.00  0.00     0.131 A 
ATOM     41  C   UNL A   1      40.951  25.405  26.853  1.00  0.00     0.055 A 
ATOM     42  C   UNL A   1      41.801  27.333  25.701  1.00  0.00     0.041 A 
ATOM     43  F   UNL A   1      42.039  29.362  26.843  1.00  0.00    -0.206 F 
ATOM     44  C   UNL A   1      41.483  25.979  25.697  1.00  0.00     0.022 A 
BRANCH  41  45
ATOM     45  S   UNL A   1      40.781  23.602  26.976  1.00  0.00     0.124 S 
ATOM     46  O   UNL A   1      41.310  23.344  28.314  1.00  0.00    -0.237 OA
ATOM     47  O   UNL A   1      39.346  23.409  26.810  1.00  0.00    -0.237 OA
ATOM     48  O   UNL A   1      41.612  23.103  25.882  1.00  0.00    -0.744 OA
ENDBRANCH  41  45
ENDBRANCH  24  38
BRANCH  25  49
ATOM     49  C   UNL A   1      39.554  32.873  36.391  1.00  0.00     0.023 A 
ATOM     50  C   UNL A   1      38.633  32.365  37.317  1.00  0.00     0.031 A 
ATOM     51  C   UNL A   1      40.205  34.084  36.699  1.00  0.00     0.131 A 
ATOM     52  C   UNL A   1      38.371  33.076  38.500  1.00  0.00     0.055 A 
ATOM     53  C   UNL A   1      39.981  34.758  37.900  1.00  0.00     0.041 A 
ATOM     54  F   UNL A   1      41.102  34.608  35.848  1.00  0.00    -0.206 F 
ATOM     55  C   UNL A   1      39.052  34.257  38.804  1.00  0.00     0.022 A 
BRANCH  52  56
ATOM     56  S   UNL A   1      37.081  32.460  39.615  1.00  0.00     0.124 S 
ATOM     57  O   UNL A   1      37.498  31.077  39.815  1.00  0.00    -0.237 OA
ATOM     58  O   UNL A   1      37.224  33.348  40.764  1.00  0.00    -0.237 OA
ATOM     59  O   UNL A   1      35.852  32.636  38.843  1.00  0.00    -0.744 OA
ENDBRANCH  52  56
ENDBRANCH  25  49
BRANCH  37  60
ATOM     60  C   UNL A   1      44.201  27.968  34.560  1.00  0.00     0.023 A 
ATOM     61  C   UNL A   1      44.065  26.781  35.301  1.00  0.00     0.031 A 
ATOM     62  C   UNL A   1      45.477  28.555  34.478  1.00  0.00     0.131 A 
ATOM     63  C   UNL A   1      45.180  26.237  35.957  1.00  0.00     0.055 A 
ATOM     64  C   UNL A   1      46.593  27.977  35.083  1.00  0.00     0.041 A 
ATOM     65  F   UNL A   1      45.662  29.693  33.790  1.00  0.00    -0.206 F 
ATOM     66  C   UNL A   1      46.446  26.816  35.834  1.00  0.00     0.022 A 
BRANCH  63  67
ATOM     67  S   UNL A   1      44.948  24.795  37.032  1.00  0.00     0.124 S 
ATOM     68  O   UNL A   1      46.240  24.709  37.706  1.00  0.00    -0.237 OA
ATOM     69  O   UNL A   1      43.820  25.201  37.864  1.00  0.00    -0.237 OA
ATOM     70  O   UNL A   1      44.665  23.710  36.093  1.00  0.00    -0.744 OA
ENDBRANCH  63  67
ENDBRANCH  37  60
ENDBRANCH  11  12
ENDBRANCH   4   6
ENDBRANCH   1   2
BRANCH   1  71
ATOM     71  C   UNL A   1      31.333  31.806  26.310  1.00  0.00     0.042 C 
BRANCH  71  72
ATOM     72  C   UNL A   1      31.505  30.425  25.697  1.00  0.00     0.117 C 
BRANCH  72  73
ATOM     73  N   UNL A   1      30.654  30.291  24.528  1.00  0.00    -0.356 N 
ATOM     74  C   UNL A   1      30.781  29.391  23.509  1.00  0.00     0.227 C 
ATOM     75  H   UNL A   1      29.899  30.920  24.464  1.00  0.00     0.163 HD
ATOM     76  O   UNL A   1      30.212  29.620  22.444  1.00  0.00    -0.274 OA
BRANCH  74  77
ATOM     77  C   UNL A   1      31.540  28.103  23.800  1.00  0.00     0.107 C 
ATOM     78  C   UNL A   1      32.904  27.933  23.226  1.00  0.00    -0.012 C 
ATOM     79  C   UNL A   1      30.763  26.927  23.226  1.00  0.00     0.087 C 
ATOM     80  C   UNL A   1      32.984  26.859  22.429  1.00  0.00     0.033 C 
ATOM     81  C   UNL A   1      31.651  26.208  22.203  1.00  0.00     0.208 C 
BRANCH  81  82
ATOM     82  N   UNL A   1      31.678  24.738  22.205  1.00  0.00    -0.328 N 
ATOM     83  C   UNL A   1      30.892  24.157  23.309  1.00  0.00     0.275 C 
ATOM     84  C   UNL A   1      32.914  24.128  22.705  1.00  0.00     0.275 C 
ATOM     85  H   UNL A   1      31.416  24.569  21.233  1.00  0.00     0.348 HD
ATOM     86  C   UNL A   1      32.196  23.708  24.034  1.00  0.00     0.073 C 
ATOM     87  C   UNL A   1      32.390  22.205  24.284  1.00  0.00     0.047 C 
ATOM     88  C   UNL A   1      32.527  24.485  25.324  1.00  0.00     0.047 C 
ATOM     89  C   UNL A   1      31.653  21.778  25.545  1.00  0.00     0.161 C 
ATOM     90  C   UNL A   1      31.824  23.893  26.535  1.00  0.00     0.161 C 
ATOM     91  O   UNL A   1      32.133  22.512  26.670  1.00  0.00    -0.381 OA
ENDBRANCH  81  82
ENDBRANCH  74  77
ENDBRANCH  72  73
ENDBRANCH  71  72
ENDBRANCH   1  71
TORSDOF 14
ENDMDL
MODEL 2
REMARK VINA RESULT:     -12.2      1.405      1.740
REMARK SMILES O=C(NCCCNC(=O)[C@@H]1C=C[C@@H]([NH+]2CC3(CCOCC3)C2)C1)c1ccc(-c2c3nc(c(-c4cc(S(=O)(=O)[O-])ccc4F)c4ccc([nH]4)c(-c4cc(S(=O)(=O)[O-])ccc4F)c4nc(c(-c5cc(S(=O)(=O)[O-])ccc5F)c5ccc2[nH]5)C=C4)C=C3)cc1
REMARK SMILES IDX 4 1 3 2 1 3 2 4 24 6 25 7 86 8 26 9 85 10 27 11 28 12 29 13
REMARK SMILES IDX 79 14 30 15 84 16 78 17 80 18 31 19 83 20 77 21 76 22 32 24
REMARK SMILES IDX 64 25 44 26 63 27 45 28 48 29 62 30 81 31 46 32 47 33 61 35
REMARK SMILES IDX 82 36 49 37 33 38 34 39 42 40 35 41 41 42 43 43 40 44 36 45
REMARK SMILES IDX 37 46 38 47 39 48 65 49 66 50 74 51 67 52 73 53 75 54 72 55
REMARK SMILES IDX 68 56 69 57 70 58 71 59 50 60 51 61 59 62 52 63 58 64 60 65
REMARK SMILES IDX 57 66 53 67 54 68 55 69 56 70 5 71 6 72 7 73 8 74 9 76 10 77
REMARK SMILES IDX 11 78 23 79 12 80 13 81 14 82 15 83 22 84 16 86 17 87 21 88
REMARK SMILES IDX 18 89 20 90 19 91
REMARK H PARENT 3 5 80 23 48 34 7 75 14 85
REMARK Flexibility Score: inf
ROOT
ATOM      1  C   UNL A   1      32.763  32.129  27.203  1.00  0.00     0.118 C 
ENDROOT
BRANCH   1   2
ATOM      2  N   UNL A   1      32.606  33.543  27.519  1.00  0.00    -0.352 N 
ATOM      3  O   UNL A   1      32.787  35.387  28.798  1.00  0.00    -0.269 OA
ATOM      4  C   UNL A   1      33.225  34.284  28.494  1.00  0.00     0.251 C 
ATOM      5  H   UNL A   1      31.966  34.036  26.955  1.00  0.00     0.163 HD
BRANCH   4   6
ATOM      6  C   UNL A   1      34.417  33.732  29.167  1.00  0.00     0.039 A 
ATOM      7  C   UNL A   1      34.275  32.741  30.142  1.00  0.00     0.014 A 
ATOM      8  C   UNL A   1      35.682  34.200  28.810  1.00  0.00     0.014 A 
ATOM      9  C   UNL A   1      35.384  32.312  30.857  1.00  0.00     0.010 A 
ATOM     10  C   UNL A   1      36.807  33.694  29.462  1.00  0.00     0.010 A 
ATOM     11  C   UNL A   1      36.664  32.760  30.502  1.00  0.00    -0.014 A 
BRANCH  11  12
ATOM     12  C   UNL A   1      37.852  32.183  31.175  1.00  0.00     0.031 A 
ATOM     13  C   UNL A   1      38.614  31.053  30.551  1.00  0.00     0.074 A 
ATOM     14  C   UNL A   1      38.217  32.677  32.373  1.00  0.00     0.049 A 
ATOM     15  N   UNL A   1      39.615  30.366  31.037  1.00  0.00    -0.248 NA
ATOM     16  C   UNL A   1      38.184  30.629  29.212  1.00  0.00     0.031 C 
ATOM     17  C   UNL A   1      37.542  33.777  33.067  1.00  0.00     0.029 A 
ATOM     18  N   UNL A   1      39.228  32.318  33.224  1.00  0.00    -0.354 N 
ATOM     19  C   UNL A   1      39.924  29.411  30.075  1.00  0.00     0.074 A 
ATOM     20  C   UNL A   1      38.975  29.589  28.995  1.00  0.00     0.031 C 
ATOM     21  C   UNL A   1      38.165  34.010  34.231  1.00  0.00     0.029 A 
ATOM     22  C   UNL A   1      39.224  33.025  34.403  1.00  0.00     0.049 A 
ATOM     23  H   UNL A   1      39.893  31.624  33.013  1.00  0.00     0.167 HD
ATOM     24  C   UNL A   1      40.911  28.481  30.098  1.00  0.00     0.034 A 
ATOM     25  C   UNL A   1      39.952  32.867  35.524  1.00  0.00     0.034 A 
ATOM     26  C   UNL A   1      41.832  28.322  31.200  1.00  0.00     0.049 A 
ATOM     27  C   UNL A   1      40.995  31.784  35.560  1.00  0.00     0.074 A 
ATOM     28  C   UNL A   1      42.895  27.444  31.317  1.00  0.00     0.029 A 
ATOM     29  N   UNL A   1      41.782  29.041  32.391  1.00  0.00    -0.354 N 
ATOM     30  N   UNL A   1      41.298  30.905  34.634  1.00  0.00    -0.248 NA
ATOM     31  C   UNL A   1      41.795  31.673  36.785  1.00  0.00     0.031 C 
ATOM     32  C   UNL A   1      43.427  27.568  32.604  1.00  0.00     0.029 A 
ATOM     33  C   UNL A   1      42.765  28.593  33.262  1.00  0.00     0.049 A 
ATOM     34  H   UNL A   1      41.142  29.763  32.587  1.00  0.00     0.167 HD
ATOM     35  C   UNL A   1      42.344  30.151  35.154  1.00  0.00     0.074 A 
ATOM     36  C   UNL A   1      42.620  30.682  36.475  1.00  0.00     0.031 C 
ATOM     37  C   UNL A   1      43.022  29.122  34.584  1.00  0.00     0.034 A 
BRANCH  24  38
ATOM     38  C   UNL A   1      40.994  27.528  28.926  1.00  0.00     0.023 A 
ATOM     39  C   UNL A   1      41.980  27.657  27.931  1.00  0.00     0.031 A 
ATOM     40  C   UNL A   1      40.040  26.507  28.770  1.00  0.00     0.131 A 
ATOM     41  C   UNL A   1      41.926  26.854  26.781  1.00  0.00     0.055 A 
ATOM     42  C   UNL A   1      40.051  25.646  27.670  1.00  0.00     0.041 A 
ATOM     43  F   UNL A   1      39.059  26.342  29.672  1.00  0.00    -0.206 F 
ATOM     44  C   UNL A   1      40.984  25.831  26.655  1.00  0.00     0.022 A 
BRANCH  41  45
ATOM     45  S   UNL A   1      42.975  27.300  25.369  1.00  0.00     0.124 S 
ATOM     46  O   UNL A   1      44.191  27.762  26.036  1.00  0.00    -0.237 OA
ATOM     47  O   UNL A   1      43.084  26.039  24.646  1.00  0.00    -0.237 OA
ATOM     48  O   UNL A   1      42.213  28.348  24.691  1.00  0.00    -0.744 OA
ENDBRANCH  41  45
ENDBRANCH  24  38
BRANCH  25  49
ATOM     49  C   UNL A   1      39.665  33.721  36.710  1.00  0.00     0.023 A 
ATOM     50  C   UNL A   1      39.037  33.204  37.850  1.00  0.00     0.031 A 
ATOM     51  C   UNL A   1      40.049  35.077  36.720  1.00  0.00     0.131 A 
ATOM     52  C   UNL A   1      38.791  34.043  38.949  1.00  0.00     0.055 A 
ATOM     53  C   UNL A   1      39.850  35.891  37.835  1.00  0.00     0.041 A 
ATOM     54  F   UNL A   1      40.661  35.618  35.654  1.00  0.00    -0.206 F 
ATOM     55  C   UNL A   1      39.209  35.376  38.955  1.00  0.00     0.022 A 
BRANCH  52  56
ATOM     56  S   UNL A   1      37.861  33.379  40.357  1.00  0.00     0.124 S 
ATOM     57  O   UNL A   1      37.815  34.531  41.251  1.00  0.00    -0.237 OA
ATOM     58  O   UNL A   1      36.597  32.998  39.735  1.00  0.00    -0.237 OA
ATOM     59  O   UNL A   1      38.689  32.265  40.816  1.00  0.00    -0.744 OA
ENDBRANCH  52  56
ENDBRANCH  25  49
BRANCH  37  60
ATOM     60  C   UNL A   1      44.171  28.534  35.365  1.00  0.00     0.023 A 
ATOM     61  C   UNL A   1      43.984  27.535  36.336  1.00  0.00     0.031 A 
ATOM     62  C   UNL A   1      45.484  28.967  35.106  1.00  0.00     0.131 A 
ATOM     63  C   UNL A   1      45.089  27.025  37.034  1.00  0.00     0.055 A 
ATOM     64  C   UNL A   1      46.584  28.414  35.761  1.00  0.00     0.041 A 
ATOM     65  F   UNL A   1      45.720  29.925  34.195  1.00  0.00    -0.206 F 
ATOM     66  C   UNL A   1      46.389  27.443  36.736  1.00  0.00     0.022 A 
BRANCH  63  67
ATOM     67  S   UNL A   1      44.806  25.850  38.387  1.00  0.00     0.124 S 
ATOM     68  O   UNL A   1      46.143  25.717  38.956  1.00  0.00    -0.237 OA
ATOM     69  O   UNL A   1      43.828  26.552  39.213  1.00  0.00    -0.237 OA
ATOM     70  O   UNL A   1      44.299  24.660  37.707  1.00  0.00    -0.744 OA
ENDBRANCH  63  67
ENDBRANCH  37  60
ENDBRANCH  11  12
ENDBRANCH   4   6
ENDBRANCH   1   2
BRANCH   1  71
ATOM     71  C   UNL A   1      31.512  31.556  26.549  1.00  0.00     0.042 C 
BRANCH  71  72
ATOM     72  C   UNL A   1      31.809  30.294  25.755  1.00  0.00     0.117 C 
BRANCH  72  73
ATOM     73  N   UNL A   1      30.890  30.184  24.636  1.00  0.00    -0.356 N 
ATOM     74  C   UNL A   1      30.946  29.292  23.604  1.00  0.00     0.227 C 
ATOM     75  H   UNL A   1      30.143  30.824  24.622  1.00  0.00     0.163 HD
ATOM     76  O   UNL A   1      30.319  29.541  22.575  1.00  0.00    -0.274 OA
BRANCH  74  77
ATOM     77  C   UNL A   1      31.701  27.991  23.838  1.00  0.00     0.107 C 
ATOM     78  C   UNL A   1      33.045  27.825  23.217  1.00  0.00    -0.012 C 
ATOM     79  C   UNL A   1      30.896  26.836  23.259  1.00  0.00     0.087 C 
ATOM     80  C   UNL A   1      33.090  26.770  22.392  1.00  0.00     0.033 C 
ATOM     81  C   UNL A   1      31.744  26.136  22.191  1.00  0.00     0.208 C 
BRANCH  81  82
ATOM     82  N   UNL A   1      31.758  24.667  22.156  1.00  0.00    -0.328 N 
ATOM     83  C   UNL A   1      31.006  24.065  23.272  1.00  0.00     0.275 C 
ATOM     84  C   UNL A   1      33.005  24.034  22.596  1.00  0.00     0.275 C 
ATOM     85  H   UNL A   1      31.460  24.525  21.190  1.00  0.00     0.348 HD
ATOM     86  C   UNL A   1      32.331  23.587  23.939  1.00  0.00     0.073 C 
ATOM     87  C   UNL A   1      32.520  22.076  24.145  1.00  0.00     0.047 C 
ATOM     88  C   UNL A   1      32.714  24.328  25.235  1.00  0.00     0.047 C 
ATOM     89  C   UNL A   1      31.824  21.624  25.420  1.00  0.00     0.161 C 
ATOM     90  C   UNL A   1      32.050  23.712  26.455  1.00  0.00     0.161 C 
ATOM     91  O   UNL A   1      32.350  22.325  26.545  1.00  0.00    -0.381 OA
ENDBRANCH  81  82
ENDBRANCH  74  77
ENDBRANCH  72  73
ENDBRANCH  71  72
ENDBRANCH   1  71
TORSDOF 14
ENDMDL
MODEL 3
REMARK VINA RESULT:     -12.1      1.781      2.187
REMARK SMILES O=C(NCCCNC(=O)[C@@H]1C=C[C@@H]([NH+]2CC3(CCOCC3)C2)C1)c1ccc(-c2c3nc(c(-c4cc(S(=O)(=O)[O-])ccc4F)c4ccc([nH]4)c(-c4cc(S(=O)(=O)[O-])ccc4F)c4nc(c(-c5cc(S(=O)(=O)[O-])ccc5F)c5ccc2[nH]5)C=C4)C=C3)cc1
REMARK SMILES IDX 4 1 3 2 1 3 2 4 24 6 25 7 86 8 26 9 85 10 27 11 28 12 29 13
REMARK SMILES IDX 79 14 30 15 84 16 78 17 80 18 31 19 83 20 77 21 76 22 32 24
REMARK SMILES IDX 64 25 44 26 63 27 45 28 48 29 62 30 81 31 46 32 47 33 61 35
REMARK SMILES IDX 82 36 49 37 33 38 34 39 42 40 35 41 41 42 43 43 40 44 36 45
REMARK SMILES IDX 37 46 38 47 39 48 65 49 66 50 74 51 67 52 73 53 75 54 72 55
REMARK SMILES IDX 68 56 69 57 70 58 71 59 50 60 51 61 59 62 52 63 58 64 60 65
REMARK SMILES IDX 57 66 53 67 54 68 55 69 56 70 5 71 6 72 7 73 8 74 9 76 10 77
REMARK SMILES IDX 11 78 23 79 12 80 13 81 14 82 15 83 22 84 16 86 17 87 21 88
REMARK SMILES IDX 18 89 20 90 19 91
REMARK H PARENT 3 5 80 23 48 34 7 75 14 85
REMARK Flexibility Score: inf
ROOT
ATOM      1  C   UNL A   1      32.790  32.776  27.337  1.00  0.00     0.118 C 
ENDROOT
BRANCH   1   2
ATOM      2  N   UNL A   1      32.590  34.154  27.770  1.00  0.00    -0.352 N 
ATOM      3  O   UNL A   1      32.690  35.882  29.209  1.00  0.00    -0.269 OA
ATOM      4  C   UNL A   1      33.163  34.819  28.825  1.00  0.00     0.251 C 
ATOM      5  H   UNL A   1      31.956  34.680  27.232  1.00  0.00     0.163 HD
BRANCH   4   6
ATOM      6  C   UNL A   1      34.348  34.237  29.483  1.00  0.00     0.039 A 
ATOM      7  C   UNL A   1      34.192  33.391  30.585  1.00  0.00     0.014 A 
ATOM      8  C   UNL A   1      35.619  34.529  28.987  1.00  0.00     0.014 A 
ATOM      9  C   UNL A   1      35.309  32.944  31.275  1.00  0.00     0.010 A 
ATOM     10  C   UNL A   1      36.740  33.996  29.624  1.00  0.00     0.010 A 
ATOM     11  C   UNL A   1      36.593  33.215  30.783  1.00  0.00    -0.014 A 
BRANCH  11  12
ATOM     12  C   UNL A   1      37.772  32.607  31.446  1.00  0.00     0.031 A 
ATOM     13  C   UNL A   1      38.503  31.462  30.813  1.00  0.00     0.074 A 
ATOM     14  C   UNL A   1      38.157  33.089  32.643  1.00  0.00     0.049 A 
ATOM     15  N   UNL A   1      39.491  30.749  31.290  1.00  0.00    -0.248 NA
ATOM     16  C   UNL A   1      38.053  31.052  29.476  1.00  0.00     0.031 C 
ATOM     17  C   UNL A   1      37.513  34.203  33.345  1.00  0.00     0.029 A 
ATOM     18  N   UNL A   1      39.166  32.704  33.485  1.00  0.00    -0.354 N 
ATOM     19  C   UNL A   1      39.770  29.791  30.323  1.00  0.00     0.074 A 
ATOM     20  C   UNL A   1      38.817  29.995  29.250  1.00  0.00     0.031 C 
ATOM     21  C   UNL A   1      38.150  34.418  34.504  1.00  0.00     0.029 A 
ATOM     22  C   UNL A   1      39.187  33.407  34.666  1.00  0.00     0.049 A 
ATOM     23  H   UNL A   1      39.812  31.995  33.267  1.00  0.00     0.167 HD
ATOM     24  C   UNL A   1      40.735  28.837  30.337  1.00  0.00     0.034 A 
ATOM     25  C   UNL A   1      39.919  33.229  35.782  1.00  0.00     0.034 A 
ATOM     26  C   UNL A   1      41.659  28.654  31.431  1.00  0.00     0.049 A 
ATOM     27  C   UNL A   1      40.935  32.122  35.807  1.00  0.00     0.074 A 
ATOM     28  C   UNL A   1      42.702  27.750  31.538  1.00  0.00     0.029 A 
ATOM     29  N   UNL A   1      41.636  29.370  32.624  1.00  0.00    -0.354 N 
ATOM     30  N   UNL A   1      41.211  31.238  34.876  1.00  0.00    -0.248 NA
ATOM     31  C   UNL A   1      41.742  31.988  37.026  1.00  0.00     0.031 C 
ATOM     32  C   UNL A   1      43.246  27.857  32.822  1.00  0.00     0.029 A 
ATOM     33  C   UNL A   1      42.614  28.896  33.487  1.00  0.00     0.049 A 
ATOM     34  H   UNL A   1      41.014  30.106  32.827  1.00  0.00     0.167 HD
ATOM     35  C   UNL A   1      42.243  30.458  35.386  1.00  0.00     0.074 A 
ATOM     36  C   UNL A   1      42.540  30.979  36.707  1.00  0.00     0.031 C 
ATOM     37  C   UNL A   1      42.892  29.415  34.809  1.00  0.00     0.034 A 
BRANCH  24  38
ATOM     38  C   UNL A   1      40.787  27.886  29.161  1.00  0.00     0.023 A 
ATOM     39  C   UNL A   1      41.729  28.033  28.127  1.00  0.00     0.031 A 
ATOM     40  C   UNL A   1      39.846  26.848  29.043  1.00  0.00     0.131 A 
ATOM     41  C   UNL A   1      41.642  27.230  26.979  1.00  0.00     0.055 A 
ATOM     42  C   UNL A   1      39.827  25.988  27.943  1.00  0.00     0.041 A 
ATOM     43  F   UNL A   1      38.905  26.666  29.984  1.00  0.00    -0.206 F 
ATOM     44  C   UNL A   1      40.715  26.190  26.891  1.00  0.00     0.022 A 
BRANCH  41  45
ATOM     45  S   UNL A   1      42.625  27.695  25.526  1.00  0.00     0.124 S 
ATOM     46  O   UNL A   1      43.943  27.917  26.118  1.00  0.00    -0.237 OA
ATOM     47  O   UNL A   1      42.500  26.520  24.672  1.00  0.00    -0.237 OA
ATOM     48  O   UNL A   1      41.962  28.901  25.034  1.00  0.00    -0.744 OA
ENDBRANCH  41  45
ENDBRANCH  24  38
BRANCH  25  49
ATOM     49  C   UNL A   1      39.660  34.086  36.972  1.00  0.00     0.023 A 
ATOM     50  C   UNL A   1      39.045  33.575  38.122  1.00  0.00     0.031 A 
ATOM     51  C   UNL A   1      40.060  35.437  36.976  1.00  0.00     0.131 A 
ATOM     52  C   UNL A   1      38.825  34.417  39.225  1.00  0.00     0.055 A 
ATOM     53  C   UNL A   1      39.888  36.253  38.094  1.00  0.00     0.041 A 
ATOM     54  F   UNL A   1      40.662  35.971  35.901  1.00  0.00    -0.206 F 
ATOM     55  C   UNL A   1      39.259  35.745  39.224  1.00  0.00     0.022 A 
BRANCH  52  56
ATOM     56  S   UNL A   1      37.910  33.764  40.647  1.00  0.00     0.124 S 
ATOM     57  O   UNL A   1      38.897  32.876  41.251  1.00  0.00    -0.237 OA
ATOM     58  O   UNL A   1      37.597  34.979  41.391  1.00  0.00    -0.237 OA
ATOM     59  O   UNL A   1      36.762  33.097  40.035  1.00  0.00    -0.744 OA
ENDBRANCH  52  56
ENDBRANCH  25  49
BRANCH  37  60
ATOM     60  C   UNL A   1      44.032  28.798  35.580  1.00  0.00     0.023 A 
ATOM     61  C   UNL A   1      43.845  27.714  36.456  1.00  0.00     0.031 A 
ATOM     62  C   UNL A   1      45.339  29.291  35.408  1.00  0.00     0.131 A 
ATOM     63  C   UNL A   1      44.942  27.180  37.149  1.00  0.00     0.055 A 
ATOM     64  C   UNL A   1      46.433  28.718  36.055  1.00  0.00     0.041 A 
ATOM     65  F   UNL A   1      45.573  30.331  34.591  1.00  0.00    -0.206 F 
ATOM     66  C   UNL A   1      46.237  27.661  36.936  1.00  0.00     0.022 A 
BRANCH  63  67
ATOM     67  S   UNL A   1      44.652  25.886  38.386  1.00  0.00     0.124 S 
ATOM     68  O   UNL A   1      46.001  25.382  38.619  1.00  0.00    -0.237 OA
ATOM     69  O   UNL A   1      44.051  26.633  39.487  1.00  0.00    -0.237 OA
ATOM     70  O   UNL A   1      43.751  24.957  37.706  1.00  0.00    -0.744 OA
ENDBRANCH  63  67
ENDBRANCH  37  60
ENDBRANCH  11  12
ENDBRANCH   4   6
ENDBRANCH   1   2
BRANCH   1  71
ATOM     71  C   UNL A   1      31.588  32.248  26.567  1.00  0.00     0.042 C 
BRANCH  71  72
ATOM     72  C   UNL A   1      31.569  30.729  26.507  1.00  0.00     0.117 C 
BRANCH  72  73
ATOM     73  N   UNL A   1      31.463  30.288  25.128  1.00  0.00    -0.356 N 
ATOM     74  C   UNL A   1      31.716  29.039  24.636  1.00  0.00     0.227 C 
ATOM     75  H   UNL A   1      31.175  30.964  24.475  1.00  0.00     0.163 HD
ATOM     76  O   UNL A   1      31.918  28.910  23.430  1.00  0.00    -0.274 OA
BRANCH  74  77
ATOM     77  C   UNL A   1      31.627  27.870  25.607  1.00  0.00     0.107 C 
ATOM     78  C   UNL A   1      32.891  27.264  26.112  1.00  0.00    -0.012 C 
ATOM     79  C   UNL A   1      30.925  26.706  24.922  1.00  0.00     0.087 C 
ATOM     80  C   UNL A   1      32.984  25.963  25.804  1.00  0.00     0.033 C 
ATOM     81  C   UNL A   1      31.876  25.504  24.901  1.00  0.00     0.208 C 
BRANCH  81  82
ATOM     82  N   UNL A   1      31.336  24.175  25.222  1.00  0.00    -0.328 N 
ATOM     83  C   UNL A   1      32.293  23.338  25.969  1.00  0.00     0.275 C 
ATOM     84  C   UNL A   1      31.303  23.220  24.110  1.00  0.00     0.275 C 
ATOM     85  H   UNL A   1      30.449  24.456  25.642  1.00  0.00     0.348 HD
ATOM     86  C   UNL A   1      32.508  22.427  24.724  1.00  0.00     0.073 C 
ATOM     87  C   UNL A   1      32.145  20.940  24.859  1.00  0.00     0.047 C 
ATOM     88  C   UNL A   1      33.889  22.554  24.052  1.00  0.00     0.047 C 
ATOM     89  C   UNL A   1      33.290  20.172  25.502  1.00  0.00     0.161 C 
ATOM     90  C   UNL A   1      34.921  21.652  24.708  1.00  0.00     0.161 C 
ATOM     91  O   UNL A   1      34.474  20.302  24.718  1.00  0.00    -0.381 OA
ENDBRANCH  81  82
ENDBRANCH  74  77
ENDBRANCH  72  73
ENDBRANCH  71  72
ENDBRANCH   1  71
TORSDOF 14
ENDMDL
