MODEL 1
REMARK VINA RESULT:     -11.8      0.000      0.000
REMARK SMILES CC[NH+]1CCC([N@@H+]2CCO[C@H](CC(=O)NCCCNC(=O)c3ccc(-c4c5nc(c(-c6cc(S(=O)(=O)[O-])ccc6F)c6ccc([nH]6)c(-c6cc(S(=O)(=O)[O-])ccc6F)c6nc(c(-c7cc(S(=O)(=O)[O-])ccc7F)c7ccc4[nH]7)C=C6)C=C5)cc3)C2)CC1
REMARK SMILES IDX 17 1 16 2 15 3 13 4 14 5 12 7 11 8 7 9 8 10 85 11 9 13 10 14
REMARK SMILES IDX 6 15 3 16 4 17 87 18 5 20 86 21 2 22 1 23 18 24 19 25 20 26
REMARK SMILES IDX 21 28 22 29 23 30 84 31 24 32 83 33 25 34 26 35 27 36 77 37
REMARK SMILES IDX 28 38 82 39 76 40 78 41 29 42 81 43 75 44 74 45 30 47 62 48
REMARK SMILES IDX 42 49 61 50 43 51 46 52 60 53 79 54 44 55 45 56 59 58 80 59
REMARK SMILES IDX 47 60 31 61 32 62 40 63 33 64 39 65 41 66 38 67 34 68 35 69
REMARK SMILES IDX 36 70 37 71 63 72 64 73 72 74 65 75 71 76 73 77 70 78 66 79
REMARK SMILES IDX 67 80 68 81 69 82 48 83 49 84 57 85 50 86 56 87 58 88 55 89
REMARK SMILES IDX 51 90 52 91 53 92 54 93
REMARK H PARENT 15 6 7 12 3 19 19 27 78 46 46 57
REMARK Flexibility Score: inf
ROOT
ATOM      1  C   UNL A   1      32.514  28.953  23.682  1.00  0.00     0.042 C 
ENDROOT
BRANCH   1   2
ATOM      2  C   UNL A   1      33.668  28.539  22.773  1.00  0.00     0.117 C 
BRANCH   2   3
ATOM      3  N   UNL A   1      33.243  27.574  21.770  1.00  0.00    -0.356 N 
ATOM      4  C   UNL A   1      33.306  26.226  21.634  1.00  0.00     0.222 C 
ATOM      5  O   UNL A   1      32.891  25.797  20.547  1.00  0.00    -0.275 OA
ATOM      6  H   UNL A   1      32.801  28.006  21.003  1.00  0.00     0.163 HD
BRANCH   4   7
ATOM      7  C   UNL A   1      33.654  25.231  22.725  1.00  0.00     0.138 C 
BRANCH   7   8
ATOM      8  C   UNL A   1      33.005  25.193  24.117  1.00  0.00     0.182 C 
ATOM      9  N   UNL A   1      32.567  22.743  24.637  1.00  0.00    -0.328 N 
ATOM     10  C   UNL A   1      31.144  23.021  24.472  1.00  0.00     0.291 C 
ATOM     11  C   UNL A   1      33.357  23.930  24.936  1.00  0.00     0.295 C 
ATOM     12  H   UNL A   1      32.610  22.216  25.510  1.00  0.00     0.348 HD
ATOM     13  C   UNL A   1      30.720  24.448  24.032  1.00  0.00     0.222 C 
ATOM     14  O   UNL A   1      31.630  25.520  24.236  1.00  0.00    -0.366 OA
BRANCH   9  15
ATOM     15  C   UNL A   1      33.184  21.565  23.994  1.00  0.00     0.195 C 
ATOM     16  N   UNL A   1      32.671  18.791  24.654  1.00  0.00    -0.335 N 
ATOM     17  C   UNL A   1      34.011  19.261  25.001  1.00  0.00     0.268 C 
ATOM     18  C   UNL A   1      32.418  19.202  23.267  1.00  0.00     0.268 C 
ATOM     19  H   UNL A   1      31.978  19.201  25.279  1.00  0.00     0.348 HD
ATOM     20  C   UNL A   1      34.110  20.778  24.929  1.00  0.00     0.126 C 
ATOM     21  C   UNL A   1      32.153  20.705  23.227  1.00  0.00     0.126 C 
BRANCH  16  22
ATOM     22  C   UNL A   1      32.542  17.337  24.820  1.00  0.00     0.258 C 
ATOM     23  C   UNL A   1      33.857  16.597  24.572  1.00  0.00     0.071 C 
ENDBRANCH  16  22
ENDBRANCH   9  15
ENDBRANCH   7   8
ENDBRANCH   4   7
ENDBRANCH   2   3
ENDBRANCH   1   2
BRANCH   1  24
ATOM     24  C   UNL A   1      32.975  29.244  25.100  1.00  0.00     0.118 C 
BRANCH  24  25
ATOM     25  N   UNL A   1      32.380  30.466  25.625  1.00  0.00    -0.352 N 
ATOM     26  C   UNL A   1      32.683  31.203  26.747  1.00  0.00     0.251 C 
ATOM     27  H   UNL A   1      31.637  30.824  25.087  1.00  0.00     0.163 HD
ATOM     28  O   UNL A   1      31.879  32.059  27.122  1.00  0.00    -0.269 OA
BRANCH  26  29
ATOM     29  C   UNL A   1      33.925  30.966  27.521  1.00  0.00     0.039 A 
ATOM     30  C   UNL A   1      34.728  32.053  27.887  1.00  0.00     0.014 A 
ATOM     31  C   UNL A   1      34.342  29.678  27.852  1.00  0.00     0.014 A 
ATOM     32  C   UNL A   1      35.903  31.845  28.622  1.00  0.00     0.010 A 
ATOM     33  C   UNL A   1      35.424  29.484  28.703  1.00  0.00     0.010 A 
ATOM     34  C   UNL A   1      36.247  30.557  29.065  1.00  0.00    -0.014 A 
BRANCH  34  35
ATOM     35  C   UNL A   1      37.494  30.281  29.831  1.00  0.00     0.031 A 
ATOM     36  C   UNL A   1      38.562  29.403  29.220  1.00  0.00     0.074 A 
ATOM     37  C   UNL A   1      37.636  30.734  31.093  1.00  0.00     0.049 A 
ATOM     38  N   UNL A   1      39.643  28.903  29.762  1.00  0.00    -0.248 NA
ATOM     39  C   UNL A   1      38.350  28.984  27.825  1.00  0.00     0.031 C 
ATOM     40  C   UNL A   1      36.654  31.543  31.819  1.00  0.00     0.029 A 
ATOM     41  N   UNL A   1      38.656  30.567  31.996  1.00  0.00    -0.354 N 
ATOM     42  C   UNL A   1      40.206  28.075  28.794  1.00  0.00     0.074 A 
ATOM     43  C   UNL A   1      39.306  28.084  27.662  1.00  0.00     0.031 C 
ATOM     44  C   UNL A   1      37.132  31.824  33.041  1.00  0.00     0.029 A 
ATOM     45  C   UNL A   1      38.429  31.177  33.208  1.00  0.00     0.049 A 
ATOM     46  H   UNL A   1      39.474  30.059  31.795  1.00  0.00     0.167 HD
ATOM     47  C   UNL A   1      41.381  27.397  28.829  1.00  0.00     0.034 A 
ATOM     48  C   UNL A   1      39.175  31.201  34.331  1.00  0.00     0.034 A 
ATOM     49  C   UNL A   1      42.294  27.453  29.942  1.00  0.00     0.049 A 
ATOM     50  C   UNL A   1      40.497  30.475  34.337  1.00  0.00     0.074 A 
ATOM     51  C   UNL A   1      43.550  26.885  30.059  1.00  0.00     0.029 A 
ATOM     52  N   UNL A   1      42.049  28.124  31.135  1.00  0.00    -0.354 N 
ATOM     53  N   UNL A   1      41.042  29.742  33.392  1.00  0.00    -0.248 NA
ATOM     54  C   UNL A   1      41.311  30.593  35.553  1.00  0.00     0.031 C 
ATOM     55  C   UNL A   1      44.039  27.163  31.340  1.00  0.00     0.029 A 
ATOM     56  C   UNL A   1      43.120  27.964  31.999  1.00  0.00     0.049 A 
ATOM     57  H   UNL A   1      41.233  28.637  31.336  1.00  0.00     0.167 HD
ATOM     58  C   UNL A   1      42.275  29.334  33.893  1.00  0.00     0.074 A 
ATOM     59  C   UNL A   1      42.399  29.918  35.214  1.00  0.00     0.031 C 
ATOM     60  C   UNL A   1      43.220  28.549  33.316  1.00  0.00     0.034 A 
BRANCH  47  61
ATOM     61  C   UNL A   1      41.727  26.537  27.634  1.00  0.00     0.023 A 
ATOM     62  C   UNL A   1      41.407  25.168  27.586  1.00  0.00     0.031 A 
ATOM     63  C   UNL A   1      42.428  27.082  26.543  1.00  0.00     0.131 A 
ATOM     64  C   UNL A   1      41.872  24.373  26.527  1.00  0.00     0.055 A 
ATOM     65  C   UNL A   1      42.804  26.304  25.444  1.00  0.00     0.041 A 
ATOM     66  F   UNL A   1      42.778  28.378  26.532  1.00  0.00    -0.206 F 
ATOM     67  C   UNL A   1      42.545  24.937  25.441  1.00  0.00     0.022 A 
BRANCH  64  68
ATOM     68  S   UNL A   1      41.731  22.570  26.670  1.00  0.00     0.124 S 
ATOM     69  O   UNL A   1      42.279  22.132  25.386  1.00  0.00    -0.237 OA
ATOM     70  O   UNL A   1      42.554  22.282  27.843  1.00  0.00    -0.237 OA
ATOM     71  O   UNL A   1      40.301  22.347  26.839  1.00  0.00    -0.744 OA
ENDBRANCH  64  68
ENDBRANCH  47  61
BRANCH  48  72
ATOM     72  C   UNL A   1      38.697  31.932  35.539  1.00  0.00     0.023 A 
ATOM     73  C   UNL A   1      38.152  31.244  36.634  1.00  0.00     0.031 A 
ATOM     74  C   UNL A   1      38.756  33.336  35.607  1.00  0.00     0.131 A 
ATOM     75  C   UNL A   1      37.650  31.959  37.732  1.00  0.00     0.055 A 
ATOM     76  C   UNL A   1      38.299  34.041  36.722  1.00  0.00     0.041 A 
ATOM     77  F   UNL A   1      39.276  34.044  34.591  1.00  0.00    -0.206 F 
ATOM     78  C   UNL A   1      37.731  33.352  37.789  1.00  0.00     0.022 A 
BRANCH  75  79
ATOM     79  S   UNL A   1      36.819  31.044  39.060  1.00  0.00     0.124 S 
ATOM     80  O   UNL A   1      37.787  31.149  40.146  1.00  0.00    -0.237 OA
ATOM     81  O   UNL A   1      35.585  31.805  39.224  1.00  0.00    -0.237 OA
ATOM     82  O   UNL A   1      36.652  29.705  38.499  1.00  0.00    -0.744 OA
ENDBRANCH  75  79
ENDBRANCH  48  72
BRANCH  60  83
ATOM     83  C   UNL A   1      44.488  28.318  34.099  1.00  0.00     0.023 A 
ATOM     84  C   UNL A   1      44.630  27.224  34.970  1.00  0.00     0.031 A 
ATOM     85  C   UNL A   1      45.568  29.211  33.974  1.00  0.00     0.131 A 
ATOM     86  C   UNL A   1      45.803  27.081  35.726  1.00  0.00     0.055 A 
ATOM     87  C   UNL A   1      46.756  29.030  34.683  1.00  0.00     0.041 A 
ATOM     88  F   UNL A   1      45.484  30.273  33.157  1.00  0.00    -0.206 F 
ATOM     89  C   UNL A   1      46.873  27.967  35.574  1.00  0.00     0.022 A 
BRANCH  86  90
ATOM     90  S   UNL A   1      45.878  25.772  36.977  1.00  0.00     0.124 S 
ATOM     91  O   UNL A   1      46.261  24.611  36.179  1.00  0.00    -0.237 OA
ATOM     92  O   UNL A   1      46.893  26.276  37.897  1.00  0.00    -0.237 OA
ATOM     93  O   UNL A   1      44.519  25.733  37.516  1.00  0.00    -0.744 OA
ENDBRANCH  86  90
ENDBRANCH  60  83
ENDBRANCH  34  35
ENDBRANCH  26  29
ENDBRANCH  24  25
ENDBRANCH   1  24
TORSDOF 16
ENDMDL
MODEL 2
REMARK VINA RESULT:     -11.8      2.745      8.165
REMARK SMILES CC[NH+]1CCC([N@@H+]2CCO[C@H](CC(=O)NCCCNC(=O)c3ccc(-c4c5nc(c(-c6cc(S(=O)(=O)[O-])ccc6F)c6ccc([nH]6)c(-c6cc(S(=O)(=O)[O-])ccc6F)c6nc(c(-c7cc(S(=O)(=O)[O-])ccc7F)c7ccc4[nH]7)C=C6)C=C5)cc3)C2)CC1
REMARK SMILES IDX 17 1 16 2 15 3 13 4 14 5 12 7 11 8 7 9 8 10 85 11 9 13 10 14
REMARK SMILES IDX 6 15 3 16 4 17 87 18 5 20 86 21 2 22 1 23 18 24 19 25 20 26
REMARK SMILES IDX 21 28 22 29 23 30 84 31 24 32 83 33 25 34 26 35 27 36 77 37
REMARK SMILES IDX 28 38 82 39 76 40 78 41 29 42 81 43 75 44 74 45 30 47 62 48
REMARK SMILES IDX 42 49 61 50 43 51 46 52 60 53 79 54 44 55 45 56 59 58 80 59
REMARK SMILES IDX 47 60 31 61 32 62 40 63 33 64 39 65 41 66 38 67 34 68 35 69
REMARK SMILES IDX 36 70 37 71 63 72 64 73 72 74 65 75 71 76 73 77 70 78 66 79
REMARK SMILES IDX 67 80 68 81 69 82 48 83 49 84 57 85 50 86 56 87 58 88 55 89
REMARK SMILES IDX 51 90 52 91 53 92 54 93
REMARK H PARENT 15 6 7 12 3 19 19 27 78 46 46 57
REMARK Flexibility Score: inf
ROOT
ATOM      1  C   UNL A   1      32.022  28.926  27.543  1.00  0.00     0.042 C 
ENDROOT
BRANCH   1   2
ATOM      2  C   UNL A   1      31.443  27.808  26.680  1.00  0.00     0.117 C 
BRANCH   2   3
ATOM      3  N   UNL A   1      32.415  26.750  26.449  1.00  0.00    -0.356 N 
ATOM      4  C   UNL A   1      32.358  25.443  26.092  1.00  0.00     0.222 C 
ATOM      5  O   UNL A   1      33.452  24.859  26.094  1.00  0.00    -0.275 OA
ATOM      6  H   UNL A   1      33.340  27.059  26.584  1.00  0.00     0.163 HD
BRANCH   4   7
ATOM      7  C   UNL A   1      31.147  24.718  25.536  1.00  0.00     0.138 C 
BRANCH   7   8
ATOM      8  C   UNL A   1      30.472  25.039  24.193  1.00  0.00     0.182 C 
ATOM      9  N   UNL A   1      31.883  23.922  22.397  1.00  0.00    -0.328 N 
ATOM     10  C   UNL A   1      32.317  25.255  21.989  1.00  0.00     0.291 C 
ATOM     11  C   UNL A   1      30.626  23.925  23.134  1.00  0.00     0.295 C 
ATOM     12  H   UNL A   1      31.629  23.472  21.517  1.00  0.00     0.348 HD
ATOM     13  C   UNL A   1      31.828  26.473  22.818  1.00  0.00     0.222 C 
ATOM     14  O   UNL A   1      30.667  26.325  23.624  1.00  0.00    -0.366 OA
BRANCH   9  15
ATOM     15  C   UNL A   1      32.864  22.833  22.575  1.00  0.00     0.195 C 
ATOM     16  N   UNL A   1      34.099  22.033  25.070  1.00  0.00    -0.335 N 
ATOM     17  C   UNL A   1      35.011  22.654  24.111  1.00  0.00     0.268 C 
ATOM     18  C   UNL A   1      33.346  21.005  24.341  1.00  0.00     0.268 C 
ATOM     19  H   UNL A   1      33.465  22.730  25.459  1.00  0.00     0.348 HD
ATOM     20  C   UNL A   1      34.257  23.331  22.976  1.00  0.00     0.126 C 
ATOM     21  C   UNL A   1      32.313  21.678  23.441  1.00  0.00     0.126 C 
BRANCH  16  22
ATOM     22  C   UNL A   1      34.817  21.467  26.219  1.00  0.00     0.258 C 
ATOM     23  C   UNL A   1      34.144  21.791  27.553  1.00  0.00     0.071 C 
ENDBRANCH  16  22
ENDBRANCH   9  15
ENDBRANCH   7   8
ENDBRANCH   4   7
ENDBRANCH   2   3
ENDBRANCH   1   2
BRANCH   1  24
ATOM     24  C   UNL A   1      33.345  29.442  27.005  1.00  0.00     0.118 C 
BRANCH  24  25
ATOM     25  N   UNL A   1      33.497  30.876  27.214  1.00  0.00    -0.352 N 
ATOM     26  C   UNL A   1      34.432  31.587  27.929  1.00  0.00     0.251 C 
ATOM     27  H   UNL A   1      32.814  31.429  26.768  1.00  0.00     0.163 HD
ATOM     28  O   UNL A   1      34.209  32.775  28.169  1.00  0.00    -0.269 OA
BRANCH  26  29
ATOM     29  C   UNL A   1      35.669  30.948  28.441  1.00  0.00     0.039 A 
ATOM     30  C   UNL A   1      35.575  29.928  29.394  1.00  0.00     0.014 A 
ATOM     31  C   UNL A   1      36.931  31.376  28.034  1.00  0.00     0.014 A 
ATOM     32  C   UNL A   1      36.735  29.313  29.885  1.00  0.00     0.010 A 
ATOM     33  C   UNL A   1      38.069  30.671  28.407  1.00  0.00     0.010 A 
ATOM     34  C   UNL A   1      37.995  29.658  29.371  1.00  0.00    -0.014 A 
BRANCH  34  35
ATOM     35  C   UNL A   1      39.258  29.049  29.873  1.00  0.00     0.031 A 
ATOM     36  C   UNL A   1      39.970  29.678  31.049  1.00  0.00     0.074 A 
ATOM     37  C   UNL A   1      39.813  28.000  29.233  1.00  0.00     0.049 A 
ATOM     38  N   UNL A   1      41.152  29.417  31.547  1.00  0.00    -0.248 NA
ATOM     39  C   UNL A   1      39.278  30.792  31.718  1.00  0.00     0.031 C 
ATOM     40  C   UNL A   1      39.257  27.338  28.051  1.00  0.00     0.029 A 
ATOM     41  N   UNL A   1      40.977  27.315  29.477  1.00  0.00    -0.354 N 
ATOM     42  C   UNL A   1      41.361  30.365  32.546  1.00  0.00     0.074 A 
ATOM     43  C   UNL A   1      40.217  31.249  32.530  1.00  0.00     0.031 C 
ATOM     44  C   UNL A   1      40.064  26.327  27.692  1.00  0.00     0.029 A 
ATOM     45  C   UNL A   1      41.219  26.298  28.583  1.00  0.00     0.049 A 
ATOM     46  H   UNL A   1      41.582  27.531  30.222  1.00  0.00     0.167 HD
ATOM     47  C   UNL A   1      42.394  30.469  33.420  1.00  0.00     0.034 A 
ATOM     48  C   UNL A   1      42.260  25.446  28.485  1.00  0.00     0.034 A 
ATOM     49  C   UNL A   1      43.494  29.539  33.461  1.00  0.00     0.049 A 
ATOM     50  C   UNL A   1      43.378  25.551  29.491  1.00  0.00     0.074 A 
ATOM     51  C   UNL A   1      44.549  29.486  34.354  1.00  0.00     0.029 A 
ATOM     52  N   UNL A   1      43.677  28.489  32.568  1.00  0.00    -0.354 N 
ATOM     53  N   UNL A   1      43.535  26.418  30.465  1.00  0.00    -0.248 NA
ATOM     54  C   UNL A   1      44.452  24.554  29.394  1.00  0.00     0.031 C 
ATOM     55  C   UNL A   1      45.399  28.445  33.967  1.00  0.00     0.029 A 
ATOM     56  C   UNL A   1      44.839  27.800  32.877  1.00  0.00     0.049 A 
ATOM     57  H   UNL A   1      43.070  28.268  31.825  1.00  0.00     0.167 HD
ATOM     58  C   UNL A   1      44.712  26.053  31.112  1.00  0.00     0.074 A 
ATOM     59  C   UNL A   1      45.213  24.878  30.428  1.00  0.00     0.031 C 
ATOM     60  C   UNL A   1      45.325  26.634  32.175  1.00  0.00     0.034 A 
BRANCH  47  61
ATOM     61  C   UNL A   1      42.377  31.633  34.386  1.00  0.00     0.023 A 
ATOM     62  C   UNL A   1      41.653  31.590  35.590  1.00  0.00     0.031 A 
ATOM     63  C   UNL A   1      43.059  32.824  34.077  1.00  0.00     0.131 A 
ATOM     64  C   UNL A   1      41.543  32.739  36.388  1.00  0.00     0.055 A 
ATOM     65  C   UNL A   1      43.025  33.935  34.924  1.00  0.00     0.041 A 
ATOM     66  F   UNL A   1      43.756  32.938  32.935  1.00  0.00    -0.206 F 
ATOM     67  C   UNL A   1      42.247  33.904  36.077  1.00  0.00     0.022 A 
BRANCH  64  68
ATOM     68  S   UNL A   1      40.337  32.743  37.743  1.00  0.00     0.124 S 
ATOM     69  O   UNL A   1      39.977  34.158  37.811  1.00  0.00    -0.237 OA
ATOM     70  O   UNL A   1      39.298  31.846  37.241  1.00  0.00    -0.237 OA
ATOM     71  O   UNL A   1      41.096  32.244  38.883  1.00  0.00    -0.744 OA
ENDBRANCH  64  68
ENDBRANCH  47  61
BRANCH  48  72
ATOM     72  C   UNL A   1      42.297  24.422  27.402  1.00  0.00     0.023 A 
ATOM     73  C   UNL A   1      41.515  23.259  27.477  1.00  0.00     0.031 A 
ATOM     74  C   UNL A   1      43.136  24.579  26.284  1.00  0.00     0.131 A 
ATOM     75  C   UNL A   1      41.616  22.280  26.477  1.00  0.00     0.055 A 
ATOM     76  C   UNL A   1      43.198  23.625  25.267  1.00  0.00     0.041 A 
ATOM     77  F   UNL A   1      43.899  25.677  26.157  1.00  0.00    -0.206 F 
ATOM     78  C   UNL A   1      42.442  22.461  25.366  1.00  0.00     0.022 A 
BRANCH  75  79
ATOM     79  S   UNL A   1      40.702  20.727  26.684  1.00  0.00     0.124 S 
ATOM     80  O   UNL A   1      40.778  20.527  28.127  1.00  0.00    -0.237 OA
ATOM     81  O   UNL A   1      39.389  21.075  26.152  1.00  0.00    -0.237 OA
ATOM     82  O   UNL A   1      41.464  19.773  25.880  1.00  0.00    -0.744 OA
ENDBRANCH  75  79
ENDBRANCH  48  72
BRANCH  60  83
ATOM     83  C   UNL A   1      46.581  25.974  32.685  1.00  0.00     0.023 A 
ATOM     84  C   UNL A   1      47.811  26.115  32.022  1.00  0.00     0.031 A 
ATOM     85  C   UNL A   1      46.541  25.186  33.850  1.00  0.00     0.131 A 
ATOM     86  C   UNL A   1      48.942  25.434  32.496  1.00  0.00     0.055 A 
ATOM     87  C   UNL A   1      47.682  24.559  34.351  1.00  0.00     0.041 A 
ATOM     88  F   UNL A   1      45.391  25.016  34.521  1.00  0.00    -0.206 F 
ATOM     89  C   UNL A   1      48.889  24.671  33.666  1.00  0.00     0.022 A 
BRANCH  86  90
ATOM     90  S   UNL A   1      50.464  25.484  31.513  1.00  0.00     0.124 S 
ATOM     91  O   UNL A   1      51.333  26.313  32.342  1.00  0.00    -0.237 OA
ATOM     92  O   UNL A   1      50.825  24.073  31.424  1.00  0.00    -0.237 OA
ATOM     93  O   UNL A   1      50.040  26.095  30.254  1.00  0.00    -0.744 OA
ENDBRANCH  86  90
ENDBRANCH  60  83
ENDBRANCH  34  35
ENDBRANCH  26  29
ENDBRANCH  24  25
ENDBRANCH   1  24
TORSDOF 16
ENDMDL
MODEL 3
REMARK VINA RESULT:     -11.7      2.389      8.045
REMARK SMILES CC[NH+]1CCC([N@@H+]2CCO[C@H](CC(=O)NCCCNC(=O)c3ccc(-c4c5nc(c(-c6cc(S(=O)(=O)[O-])ccc6F)c6ccc([nH]6)c(-c6cc(S(=O)(=O)[O-])ccc6F)c6nc(c(-c7cc(S(=O)(=O)[O-])ccc7F)c7ccc4[nH]7)C=C6)C=C5)cc3)C2)CC1
REMARK SMILES IDX 17 1 16 2 15 3 13 4 14 5 12 7 11 8 7 9 8 10 85 11 9 13 10 14
REMARK SMILES IDX 6 15 3 16 4 17 87 18 5 20 86 21 2 22 1 23 18 24 19 25 20 26
REMARK SMILES IDX 21 28 22 29 23 30 84 31 24 32 83 33 25 34 26 35 27 36 77 37
REMARK SMILES IDX 28 38 82 39 76 40 78 41 29 42 81 43 75 44 74 45 30 47 62 48
REMARK SMILES IDX 42 49 61 50 43 51 46 52 60 53 79 54 44 55 45 56 59 58 80 59
REMARK SMILES IDX 47 60 31 61 32 62 40 63 33 64 39 65 41 66 38 67 34 68 35 69
REMARK SMILES IDX 36 70 37 71 63 72 64 73 72 74 65 75 71 76 73 77 70 78 66 79
REMARK SMILES IDX 67 80 68 81 69 82 48 83 49 84 57 85 50 86 56 87 58 88 55 89
REMARK SMILES IDX 51 90 52 91 53 92 54 93
REMARK H PARENT 15 6 7 12 3 19 19 27 78 46 46 57
REMARK Flexibility Score: inf
ROOT
ATOM      1  C   UNL A   1      32.697  28.194  27.003  1.00  0.00     0.042 C 
ENDROOT
BRANCH   1   2
ATOM      2  C   UNL A   1      31.674  27.538  26.081  1.00  0.00     0.117 C 
BRANCH   2   3
ATOM      3  N   UNL A   1      31.207  26.267  26.614  1.00  0.00    -0.356 N 
ATOM      4  C   UNL A   1      31.685  24.999  26.655  1.00  0.00     0.222 C 
ATOM      5  O   UNL A   1      30.904  24.168  27.142  1.00  0.00    -0.275 OA
ATOM      6  H   UNL A   1      30.328  26.348  27.051  1.00  0.00     0.163 HD
BRANCH   4   7
ATOM      7  C   UNL A   1      33.104  24.566  26.340  1.00  0.00     0.138 C 
BRANCH   7   8
ATOM      8  C   UNL A   1      33.774  24.687  24.962  1.00  0.00     0.182 C 
ATOM      9  N   UNL A   1      33.659  22.379  23.903  1.00  0.00    -0.328 N 
ATOM     10  C   UNL A   1      35.102  22.279  24.101  1.00  0.00     0.291 C 
ATOM     11  C   UNL A   1      33.171  23.752  23.891  1.00  0.00     0.295 C 
ATOM     12  H   UNL A   1      33.526  22.081  22.936  1.00  0.00     0.348 HD
ATOM     13  C   UNL A   1      35.825  23.438  24.838  1.00  0.00     0.222 C 
ATOM     14  O   UNL A   1      35.191  24.708  24.894  1.00  0.00    -0.366 OA
BRANCH   9  15
ATOM     15  C   UNL A   1      32.769  21.261  24.281  1.00  0.00     0.195 C 
ATOM     16  N   UNL A   1      33.383  18.439  24.066  1.00  0.00    -0.335 N 
ATOM     17  C   UNL A   1      32.349  18.908  23.145  1.00  0.00     0.268 C 
ATOM     18  C   UNL A   1      33.031  18.943  25.399  1.00  0.00     0.268 C 
ATOM     19  H   UNL A   1      34.296  18.790  23.782  1.00  0.00     0.348 HD
ATOM     20  C   UNL A   1      32.302  20.427  23.082  1.00  0.00     0.126 C 
ATOM     21  C   UNL A   1      33.324  20.440  25.466  1.00  0.00     0.126 C 
BRANCH  16  22
ATOM     22  C   UNL A   1      33.501  16.974  24.055  1.00  0.00     0.258 C 
ATOM     23  C   UNL A   1      34.775  16.481  24.739  1.00  0.00     0.071 C 
ENDBRANCH  16  22
ENDBRANCH   9  15
ENDBRANCH   7   8
ENDBRANCH   4   7
ENDBRANCH   2   3
ENDBRANCH   1   2
BRANCH   1  24
ATOM     24  C   UNL A   1      33.739  28.989  26.235  1.00  0.00     0.118 C 
BRANCH  24  25
ATOM     25  N   UNL A   1      33.746  30.393  26.621  1.00  0.00    -0.352 N 
ATOM     26  C   UNL A   1      34.546  31.079  27.505  1.00  0.00     0.251 C 
ATOM     27  H   UNL A   1      33.063  30.944  26.172  1.00  0.00     0.163 HD
ATOM     28  O   UNL A   1      34.200  32.210  27.854  1.00  0.00    -0.269 OA
BRANCH  26  29
ATOM     29  C   UNL A   1      35.780  30.477  28.066  1.00  0.00     0.039 A 
ATOM     30  C   UNL A   1      35.712  29.756  29.263  1.00  0.00     0.014 A 
ATOM     31  C   UNL A   1      37.019  30.656  27.454  1.00  0.00     0.014 A 
ATOM     32  C   UNL A   1      36.870  29.179  29.803  1.00  0.00     0.010 A 
ATOM     33  C   UNL A   1      38.136  29.963  27.909  1.00  0.00     0.010 A 
ATOM     34  C   UNL A   1      38.090  29.250  29.112  1.00  0.00    -0.014 A 
BRANCH  34  35
ATOM     35  C   UNL A   1      39.352  28.671  29.654  1.00  0.00     0.031 A 
ATOM     36  C   UNL A   1      40.031  29.338  30.827  1.00  0.00     0.074 A 
ATOM     37  C   UNL A   1      39.932  27.615  29.050  1.00  0.00     0.049 A 
ATOM     38  N   UNL A   1      41.207  29.106  31.354  1.00  0.00    -0.248 NA
ATOM     39  C   UNL A   1      39.312  30.459  31.455  1.00  0.00     0.031 C 
ATOM     40  C   UNL A   1      39.408  26.916  27.874  1.00  0.00     0.029 A 
ATOM     41  N   UNL A   1      41.101  26.952  29.333  1.00  0.00    -0.354 N 
ATOM     42  C   UNL A   1      41.384  30.080  32.333  1.00  0.00     0.074 A 
ATOM     43  C   UNL A   1      40.229  30.948  32.273  1.00  0.00     0.031 C 
ATOM     44  C   UNL A   1      40.236  25.908  27.556  1.00  0.00     0.029 A 
ATOM     45  C   UNL A   1      41.374  25.917  28.469  1.00  0.00     0.049 A 
ATOM     46  H   UNL A   1      41.689  27.195  30.084  1.00  0.00     0.167 HD
ATOM     47  C   UNL A   1      42.398  30.220  33.224  1.00  0.00     0.034 A 
ATOM     48  C   UNL A   1      42.427  25.077  28.412  1.00  0.00     0.034 A 
ATOM     49  C   UNL A   1      43.509  29.307  33.309  1.00  0.00     0.049 A 
ATOM     50  C   UNL A   1      43.525  25.222  29.437  1.00  0.00     0.074 A 
ATOM     51  C   UNL A   1      44.547  29.291  34.223  1.00  0.00     0.029 A 
ATOM     52  N   UNL A   1      43.724  28.239  32.445  1.00  0.00    -0.354 N 
ATOM     53  N   UNL A   1      43.650  26.115  30.392  1.00  0.00    -0.248 NA
ATOM     54  C   UNL A   1      44.613  24.238  29.384  1.00  0.00     0.031 C 
ATOM     55  C   UNL A   1      45.419  28.252  33.878  1.00  0.00     0.029 A 
ATOM     56  C   UNL A   1      44.889  27.573  32.793  1.00  0.00     0.049 A 
ATOM     57  H   UNL A   1      43.134  27.991  31.697  1.00  0.00     0.167 HD
ATOM     58  C   UNL A   1      44.820  25.782  31.070  1.00  0.00     0.074 A 
ATOM     59  C   UNL A   1      45.349  24.598  30.425  1.00  0.00     0.031 C 
ATOM     60  C   UNL A   1      45.404  26.397  32.130  1.00  0.00     0.034 A 
BRANCH  47  61
ATOM     61  C   UNL A   1      42.347  31.408  34.160  1.00  0.00     0.023 A 
ATOM     62  C   UNL A   1      41.516  31.425  35.295  1.00  0.00     0.031 A 
ATOM     63  C   UNL A   1      43.106  32.560  33.890  1.00  0.00     0.131 A 
ATOM     64  C   UNL A   1      41.387  32.596  36.055  1.00  0.00     0.055 A 
ATOM     65  C   UNL A   1      43.046  33.692  34.707  1.00  0.00     0.041 A 
ATOM     66  F   UNL A   1      43.907  32.616  32.814  1.00  0.00    -0.206 F 
ATOM     67  C   UNL A   1      42.168  33.723  35.786  1.00  0.00     0.022 A 
BRANCH  64  68
ATOM     68  S   UNL A   1      40.066  32.684  37.295  1.00  0.00     0.124 S 
ATOM     69  O   UNL A   1      40.831  32.649  38.541  1.00  0.00    -0.237 OA
ATOM     70  O   UNL A   1      39.423  33.958  36.980  1.00  0.00    -0.237 OA
ATOM     71  O   UNL A   1      39.263  31.498  37.030  1.00  0.00    -0.744 OA
ENDBRANCH  64  68
ENDBRANCH  47  61
BRANCH  48  72
ATOM     72  C   UNL A   1      42.500  24.028  27.355  1.00  0.00     0.023 A 
ATOM     73  C   UNL A   1      41.867  22.786  27.523  1.00  0.00     0.031 A 
ATOM     74  C   UNL A   1      43.224  24.242  26.169  1.00  0.00     0.131 A 
ATOM     75  C   UNL A   1      42.004  21.792  26.542  1.00  0.00     0.055 A 
ATOM     76  C   UNL A   1      43.317  23.267  25.174  1.00  0.00     0.041 A 
ATOM     77  F   UNL A   1      43.841  25.415  25.953  1.00  0.00    -0.206 F 
ATOM     78  C   UNL A   1      42.714  22.028  25.363  1.00  0.00     0.022 A 
BRANCH  75  79
ATOM     79  S   UNL A   1      41.298  20.151  26.863  1.00  0.00     0.124 S 
ATOM     80  O   UNL A   1      40.858  20.281  28.248  1.00  0.00    -0.237 OA
ATOM     81  O   UNL A   1      40.242  20.076  25.859  1.00  0.00    -0.237 OA
ATOM     82  O   UNL A   1      42.425  19.247  26.647  1.00  0.00    -0.744 OA
ENDBRANCH  75  79
ENDBRANCH  48  72
BRANCH  60  83
ATOM     83  C   UNL A   1      46.658  25.767  32.680  1.00  0.00     0.023 A 
ATOM     84  C   UNL A   1      46.614  24.791  33.689  1.00  0.00     0.031 A 
ATOM     85  C   UNL A   1      47.918  26.156  32.188  1.00  0.00     0.131 A 
ATOM     86  C   UNL A   1      47.808  24.276  34.215  1.00  0.00     0.055 A 
ATOM     87  C   UNL A   1      49.100  25.596  32.672  1.00  0.00     0.041 A 
ATOM     88  F   UNL A   1      48.017  27.086  31.224  1.00  0.00    -0.206 F 
ATOM     89  C   UNL A   1      49.050  24.659  33.701  1.00  0.00     0.022 A 
BRANCH  86  90
ATOM     90  S   UNL A   1      47.721  23.163  35.643  1.00  0.00     0.124 S 
ATOM     91  O   UNL A   1      46.653  23.767  36.434  1.00  0.00    -0.237 OA
ATOM     92  O   UNL A   1      47.407  21.881  35.022  1.00  0.00    -0.237 OA
ATOM     93  O   UNL A   1      49.057  23.254  36.232  1.00  0.00    -0.744 OA
ENDBRANCH  86  90
ENDBRANCH  60  83
ENDBRANCH  34  35
ENDBRANCH  26  29
ENDBRANCH  24  25
ENDBRANCH   1  24
TORSDOF 16
ENDMDL
