MODEL 1
REMARK VINA RESULT:     -11.3      0.000      0.000
REMARK SMILES O=C(C[C@@H]1CN(C(=O)NCc2cccs2)CCO1)NCCCNC(=O)c1ccc(-c2c3nc(c(-c4cc(S(=O)(=O)[O-])ccc4F)c4ccc([nH]4)c(-c4cc(S(=O)(=O)[O-])ccc4F)c4nc(c(-c5cc(S(=O)(=O)[O-])ccc5F)c5ccc2[nH]5)C=C4)C=C3)cc1
REMARK SMILES IDX 20 1 19 2 1 3 2 4 3 6 4 7 5 8 18 9 6 10 17 11 16 12 7 13
REMARK SMILES IDX 8 14 9 15 10 17 11 18 12 19 15 20 13 21 14 22 21 23 22 24
REMARK SMILES IDX 23 25 24 26 25 28 26 29 27 30 88 31 28 32 87 33 29 34 30 35
REMARK SMILES IDX 31 36 81 37 32 38 86 39 80 40 82 41 33 42 85 43 79 44 78 45
REMARK SMILES IDX 34 47 66 48 46 49 65 50 47 51 50 52 64 53 83 54 48 55 49 56
REMARK SMILES IDX 63 58 84 59 51 60 35 61 36 62 44 63 37 64 43 65 45 66 42 67
REMARK SMILES IDX 38 68 39 69 40 70 41 71 67 72 68 73 76 74 69 75 75 76 77 77
REMARK SMILES IDX 74 78 70 79 71 80 72 81 73 82 52 83 53 84 61 85 54 86 60 87
REMARK SMILES IDX 62 88 59 89 55 90 56 91 57 92 58 93
REMARK H PARENT 19 5 9 16 23 27 82 46 50 57
REMARK Flexibility Score: inf
ROOT
ATOM      1  C   UNL A   1      33.045  28.466  23.613  1.00  0.00     0.117 C 
ENDROOT
BRANCH   1   2
ATOM      2  N   UNL A   1      32.411  27.177  23.440  1.00  0.00    -0.356 N 
ATOM      3  O   UNL A   1      33.973  26.304  21.997  1.00  0.00    -0.275 OA
ATOM      4  C   UNL A   1      32.945  26.183  22.654  1.00  0.00     0.222 C 
ATOM      5  H   UNL A   1      31.561  27.004  23.905  1.00  0.00     0.163 HD
BRANCH   4   6
ATOM      6  C   UNL A   1      32.132  24.909  22.639  1.00  0.00     0.133 C 
BRANCH   6   7
ATOM      7  C   UNL A   1      32.309  24.128  23.943  1.00  0.00     0.147 C 
ATOM      8  C   UNL A   1      31.575  22.776  23.892  1.00  0.00     0.154 C 
ATOM      9  O   UNL A   1      31.796  24.943  25.019  1.00  0.00    -0.374 OA
ATOM     10  N   UNL A   1      31.713  22.084  25.175  1.00  0.00    -0.320 N 
ATOM     11  C   UNL A   1      31.944  24.278  26.285  1.00  0.00     0.182 C 
ATOM     12  C   UNL A   1      31.226  22.923  26.285  1.00  0.00     0.150 C 
BRANCH  10  13
ATOM     13  C   UNL A   1      32.333  20.918  25.491  1.00  0.00     0.317 C 
ATOM     14  O   UNL A   1      31.908  19.832  25.075  1.00  0.00    -0.249 OA
ATOM     15  N   UNL A   1      33.425  20.810  26.254  1.00  0.00    -0.333 N 
ATOM     16  H   UNL A   1      33.648  19.863  26.403  1.00  0.00     0.165 HD
BRANCH  15  17
ATOM     17  C   UNL A   1      34.379  21.663  26.928  1.00  0.00     0.164 C 
BRANCH  17  18
ATOM     18  C   UNL A   1      35.423  22.093  25.943  1.00  0.00     0.024 A 
ATOM     19  C   UNL A   1      36.201  21.293  25.125  1.00  0.00     0.017 A 
ATOM     20  S   UNL A   1      35.782  23.749  25.706  1.00  0.00    -0.147 S 
ATOM     21  C   UNL A   1      37.091  22.048  24.308  1.00  0.00     0.012 A 
ATOM     22  C   UNL A   1      36.967  23.402  24.526  1.00  0.00     0.065 A 
ENDBRANCH  17  18
ENDBRANCH  15  17
ENDBRANCH  10  13
ENDBRANCH   6   7
ENDBRANCH   4   6
ENDBRANCH   1   2
BRANCH   1  23
ATOM     23  C   UNL A   1      34.130  28.431  24.681  1.00  0.00     0.042 C 
BRANCH  23  24
ATOM     24  C   UNL A   1      33.618  28.658  26.101  1.00  0.00     0.118 C 
BRANCH  24  25
ATOM     25  N   UNL A   1      33.500  30.064  26.448  1.00  0.00    -0.352 N 
ATOM     26  C   UNL A   1      34.276  30.840  27.275  1.00  0.00     0.251 C 
ATOM     27  H   UNL A   1      32.747  30.535  26.024  1.00  0.00     0.163 HD
ATOM     28  O   UNL A   1      33.899  31.977  27.547  1.00  0.00    -0.269 OA
BRANCH  26  29
ATOM     29  C   UNL A   1      35.533  30.314  27.857  1.00  0.00     0.039 A 
ATOM     30  C   UNL A   1      35.488  29.730  29.126  1.00  0.00     0.014 A 
ATOM     31  C   UNL A   1      36.755  30.422  27.187  1.00  0.00     0.014 A 
ATOM     32  C   UNL A   1      36.654  29.212  29.699  1.00  0.00     0.010 A 
ATOM     33  C   UNL A   1      37.900  29.832  27.724  1.00  0.00     0.010 A 
ATOM     34  C   UNL A   1      37.867  29.234  28.992  1.00  0.00    -0.014 A 
BRANCH  34  35
ATOM     35  C   UNL A   1      39.110  28.668  29.583  1.00  0.00     0.031 A 
ATOM     36  C   UNL A   1      39.663  29.236  30.865  1.00  0.00     0.074 A 
ATOM     37  C   UNL A   1      39.761  27.669  28.954  1.00  0.00     0.049 A 
ATOM     38  N   UNL A   1      40.756  28.916  31.511  1.00  0.00    -0.248 NA
ATOM     39  C   UNL A   1      38.900  30.329  31.485  1.00  0.00     0.031 C 
ATOM     40  C   UNL A   1      39.347  27.056  27.691  1.00  0.00     0.029 A 
ATOM     41  N   UNL A   1      40.911  26.995  29.285  1.00  0.00    -0.354 N 
ATOM     42  C   UNL A   1      40.816  29.774  32.604  1.00  0.00     0.074 A 
ATOM     43  C   UNL A   1      39.687  30.672  32.493  1.00  0.00     0.031 C 
ATOM     44  C   UNL A   1      40.210  26.078  27.371  1.00  0.00     0.029 A 
ATOM     45  C   UNL A   1      41.267  26.024  28.378  1.00  0.00     0.049 A 
ATOM     46  H   UNL A   1      41.433  27.190  30.098  1.00  0.00     0.167 HD
ATOM     47  C   UNL A   1      41.714  29.795  33.622  1.00  0.00     0.034 A 
ATOM     48  C   UNL A   1      42.327  25.192  28.352  1.00  0.00     0.034 A 
ATOM     49  C   UNL A   1      42.830  28.886  33.726  1.00  0.00     0.049 A 
ATOM     50  C   UNL A   1      43.329  25.252  29.480  1.00  0.00     0.074 A 
ATOM     51  C   UNL A   1      43.773  28.790  34.735  1.00  0.00     0.029 A 
ATOM     52  N   UNL A   1      43.159  27.918  32.785  1.00  0.00    -0.354 N 
ATOM     53  N   UNL A   1      43.345  26.040  30.531  1.00  0.00    -0.248 NA
ATOM     54  C   UNL A   1      44.446  24.300  29.424  1.00  0.00     0.031 C 
ATOM     55  C   UNL A   1      44.711  27.818  34.369  1.00  0.00     0.029 A 
ATOM     56  C   UNL A   1      44.307  27.243  33.176  1.00  0.00     0.049 A 
ATOM     57  H   UNL A   1      42.652  27.737  31.960  1.00  0.00     0.167 HD
ATOM     58  C   UNL A   1      44.453  25.649  31.280  1.00  0.00     0.074 A 
ATOM     59  C   UNL A   1      45.068  24.549  30.566  1.00  0.00     0.031 C 
ATOM     60  C   UNL A   1      44.916  26.149  32.454  1.00  0.00     0.034 A 
BRANCH  47  61
ATOM     61  C   UNL A   1      41.534  30.855  34.686  1.00  0.00     0.023 A 
ATOM     62  C   UNL A   1      40.406  30.876  35.525  1.00  0.00     0.031 A 
ATOM     63  C   UNL A   1      42.489  31.875  34.846  1.00  0.00     0.131 A 
ATOM     64  C   UNL A   1      40.220  31.939  36.424  1.00  0.00     0.055 A 
ATOM     65  C   UNL A   1      42.342  32.879  35.805  1.00  0.00     0.041 A 
ATOM     66  F   UNL A   1      43.578  31.922  34.062  1.00  0.00    -0.206 F 
ATOM     67  C   UNL A   1      41.193  32.925  36.589  1.00  0.00     0.022 A 
BRANCH  64  68
ATOM     68  S   UNL A   1      38.615  32.095  37.256  1.00  0.00     0.124 S 
ATOM     69  O   UNL A   1      39.024  32.289  38.646  1.00  0.00    -0.237 OA
ATOM     70  O   UNL A   1      38.029  33.255  36.595  1.00  0.00    -0.237 OA
ATOM     71  O   UNL A   1      37.960  30.819  36.979  1.00  0.00    -0.744 OA
ENDBRANCH  64  68
ENDBRANCH  47  61
BRANCH  48  72
ATOM     72  C   UNL A   1      42.509  24.230  27.226  1.00  0.00     0.023 A 
ATOM     73  C   UNL A   1      41.917  22.957  27.257  1.00  0.00     0.031 A 
ATOM     74  C   UNL A   1      43.322  24.551  26.124  1.00  0.00     0.131 A 
ATOM     75  C   UNL A   1      42.187  22.034  26.234  1.00  0.00     0.055 A 
ATOM     76  C   UNL A   1      43.541  23.650  25.081  1.00  0.00     0.041 A 
ATOM     77  F   UNL A   1      43.911  25.755  26.042  1.00  0.00    -0.206 F 
ATOM     78  C   UNL A   1      42.983  22.376  25.139  1.00  0.00     0.022 A 
BRANCH  75  79
ATOM     79  S   UNL A   1      41.561  20.340  26.406  1.00  0.00     0.124 S 
ATOM     80  O   UNL A   1      41.966  20.010  27.767  1.00  0.00    -0.237 OA
ATOM     81  O   UNL A   1      40.130  20.523  26.187  1.00  0.00    -0.237 OA
ATOM     82  O   UNL A   1      42.262  19.610  25.351  1.00  0.00    -0.744 OA
ENDBRANCH  75  79
ENDBRANCH  48  72
BRANCH  60  83
ATOM     83  C   UNL A   1      46.115  25.467  33.071  1.00  0.00     0.023 A 
ATOM     84  C   UNL A   1      45.980  24.440  34.022  1.00  0.00     0.031 A 
ATOM     85  C   UNL A   1      47.414  25.864  32.708  1.00  0.00     0.131 A 
ATOM     86  C   UNL A   1      47.124  23.891  34.623  1.00  0.00     0.055 A 
ATOM     87  C   UNL A   1      48.548  25.266  33.259  1.00  0.00     0.041 A 
ATOM     88  F   UNL A   1      47.604  26.841  31.806  1.00  0.00    -0.206 F 
ATOM     89  C   UNL A   1      48.406  24.284  34.234  1.00  0.00     0.022 A 
BRANCH  86  90
ATOM     90  S   UNL A   1      46.911  22.727  35.999  1.00  0.00     0.124 S 
ATOM     91  O   UNL A   1      48.151  21.961  35.943  1.00  0.00    -0.237 OA
ATOM     92  O   UNL A   1      46.764  23.621  37.143  1.00  0.00    -0.237 OA
ATOM     93  O   UNL A   1      45.706  21.984  35.635  1.00  0.00    -0.744 OA
ENDBRANCH  86  90
ENDBRANCH  60  83
ENDBRANCH  34  35
ENDBRANCH  26  29
ENDBRANCH  24  25
ENDBRANCH  23  24
ENDBRANCH   1  23
TORSDOF 17
ENDMDL
MODEL 2
REMARK VINA RESULT:     -11.2      2.266      2.924
REMARK SMILES O=C(C[C@@H]1CN(C(=O)NCc2cccs2)CCO1)NCCCNC(=O)c1ccc(-c2c3nc(c(-c4cc(S(=O)(=O)[O-])ccc4F)c4ccc([nH]4)c(-c4cc(S(=O)(=O)[O-])ccc4F)c4nc(c(-c5cc(S(=O)(=O)[O-])ccc5F)c5ccc2[nH]5)C=C4)C=C3)cc1
REMARK SMILES IDX 20 1 19 2 1 3 2 4 3 6 4 7 5 8 18 9 6 10 17 11 16 12 7 13
REMARK SMILES IDX 8 14 9 15 10 17 11 18 12 19 15 20 13 21 14 22 21 23 22 24
REMARK SMILES IDX 23 25 24 26 25 28 26 29 27 30 88 31 28 32 87 33 29 34 30 35
REMARK SMILES IDX 31 36 81 37 32 38 86 39 80 40 82 41 33 42 85 43 79 44 78 45
REMARK SMILES IDX 34 47 66 48 46 49 65 50 47 51 50 52 64 53 83 54 48 55 49 56
REMARK SMILES IDX 63 58 84 59 51 60 35 61 36 62 44 63 37 64 43 65 45 66 42 67
REMARK SMILES IDX 38 68 39 69 40 70 41 71 67 72 68 73 76 74 69 75 75 76 77 77
REMARK SMILES IDX 74 78 70 79 71 80 72 81 73 82 52 83 53 84 61 85 54 86 60 87
REMARK SMILES IDX 62 88 59 89 55 90 56 91 57 92 58 93
REMARK H PARENT 19 5 9 16 23 27 82 46 50 57
REMARK Flexibility Score: inf
ROOT
ATOM      1  C   UNL A   1      31.782  27.696  26.813  1.00  0.00     0.117 C 
ENDROOT
BRANCH   1   2
ATOM      2  N   UNL A   1      31.886  26.254  26.877  1.00  0.00    -0.356 N 
ATOM      3  O   UNL A   1      30.132  25.797  25.464  1.00  0.00    -0.275 OA
ATOM      4  C   UNL A   1      31.055  25.414  26.172  1.00  0.00     0.222 C 
ATOM      5  H   UNL A   1      32.580  25.857  27.451  1.00  0.00     0.163 HD
BRANCH   4   6
ATOM      6  C   UNL A   1      31.360  23.947  26.365  1.00  0.00     0.133 C 
BRANCH   6   7
ATOM      7  C   UNL A   1      32.628  23.543  25.610  1.00  0.00     0.147 C 
ATOM      8  C   UNL A   1      33.720  23.041  26.572  1.00  0.00     0.154 C 
ATOM      9  O   UNL A   1      33.091  24.698  24.876  1.00  0.00    -0.374 OA
ATOM     10  N   UNL A   1      34.937  22.723  25.824  1.00  0.00    -0.320 N 
ATOM     11  C   UNL A   1      34.278  24.390  24.125  1.00  0.00     0.182 C 
ATOM     12  C   UNL A   1      35.398  23.885  25.043  1.00  0.00     0.150 C 
BRANCH  10  13
ATOM     13  C   UNL A   1      35.576  21.540  25.632  1.00  0.00     0.317 C 
ATOM     14  O   UNL A   1      36.783  21.415  25.880  1.00  0.00    -0.249 OA
ATOM     15  N   UNL A   1      35.003  20.423  25.174  1.00  0.00    -0.333 N 
ATOM     16  H   UNL A   1      35.677  19.718  25.049  1.00  0.00     0.165 HD
BRANCH  15  17
ATOM     17  C   UNL A   1      33.691  19.936  24.805  1.00  0.00     0.164 C 
BRANCH  17  18
ATOM     18  C   UNL A   1      33.736  18.441  24.724  1.00  0.00     0.024 A 
ATOM     19  C   UNL A   1      34.657  17.653  24.059  1.00  0.00     0.017 A 
ATOM     20  S   UNL A   1      32.561  17.481  25.515  1.00  0.00    -0.147 S 
ATOM     21  C   UNL A   1      34.391  16.260  24.202  1.00  0.00     0.012 A 
ATOM     22  C   UNL A   1      33.274  16.027  24.971  1.00  0.00     0.065 A 
ENDBRANCH  17  18
ENDBRANCH  15  17
ENDBRANCH  10  13
ENDBRANCH   6   7
ENDBRANCH   4   6
ENDBRANCH   1   2
BRANCH   1  23
ATOM     23  C   UNL A   1      32.580  28.275  25.653  1.00  0.00     0.042 C 
BRANCH  23  24
ATOM     24  C   UNL A   1      33.883  28.955  26.067  1.00  0.00     0.118 C 
BRANCH  24  25
ATOM     25  N   UNL A   1      33.677  30.252  26.691  1.00  0.00    -0.352 N 
ATOM     26  C   UNL A   1      34.399  30.886  27.673  1.00  0.00     0.251 C 
ATOM     27  H   UNL A   1      32.899  30.754  26.358  1.00  0.00     0.163 HD
ATOM     28  O   UNL A   1      33.952  31.919  28.164  1.00  0.00    -0.269 OA
BRANCH  26  29
ATOM     29  C   UNL A   1      35.682  30.326  28.159  1.00  0.00     0.039 A 
ATOM     30  C   UNL A   1      36.819  30.470  27.359  1.00  0.00     0.014 A 
ATOM     31  C   UNL A   1      35.771  29.634  29.370  1.00  0.00     0.014 A 
ATOM     32  C   UNL A   1      38.048  29.964  27.793  1.00  0.00     0.010 A 
ATOM     33  C   UNL A   1      37.012  29.203  29.839  1.00  0.00     0.010 A 
ATOM     34  C   UNL A   1      38.163  29.350  29.050  1.00  0.00    -0.014 A 
BRANCH  34  35
ATOM     35  C   UNL A   1      39.470  28.825  29.532  1.00  0.00     0.031 A 
ATOM     36  C   UNL A   1      40.195  29.523  30.654  1.00  0.00     0.074 A 
ATOM     37  C   UNL A   1      40.022  27.746  28.943  1.00  0.00     0.049 A 
ATOM     38  N   UNL A   1      41.363  29.254  31.181  1.00  0.00    -0.248 NA
ATOM     39  C   UNL A   1      39.532  30.698  31.238  1.00  0.00     0.031 C 
ATOM     40  C   UNL A   1      39.436  27.001  27.827  1.00  0.00     0.029 A 
ATOM     41  N   UNL A   1      41.200  27.087  29.195  1.00  0.00    -0.354 N 
ATOM     42  C   UNL A   1      41.577  30.230  32.149  1.00  0.00     0.074 A 
ATOM     43  C   UNL A   1      40.451  31.137  32.084  1.00  0.00     0.031 C 
ATOM     44  C   UNL A   1      40.240  25.973  27.512  1.00  0.00     0.029 A 
ATOM     45  C   UNL A   1      41.422  26.010  28.369  1.00  0.00     0.049 A 
ATOM     46  H   UNL A   1      41.828  27.361  29.903  1.00  0.00     0.167 HD
ATOM     47  C   UNL A   1      42.604  30.346  33.029  1.00  0.00     0.034 A 
ATOM     48  C   UNL A   1      42.462  25.154  28.300  1.00  0.00     0.034 A 
ATOM     49  C   UNL A   1      43.716  29.428  33.089  1.00  0.00     0.049 A 
ATOM     50  C   UNL A   1      43.607  25.320  29.269  1.00  0.00     0.074 A 
ATOM     51  C   UNL A   1      44.786  29.426  33.968  1.00  0.00     0.029 A 
ATOM     52  N   UNL A   1      43.907  28.351  32.232  1.00  0.00    -0.354 N 
ATOM     53  N   UNL A   1      43.772  26.223  30.209  1.00  0.00    -0.248 NA
ATOM     54  C   UNL A   1      44.698  24.341  29.177  1.00  0.00     0.031 C 
ATOM     55  C   UNL A   1      45.657  28.397  33.598  1.00  0.00     0.029 A 
ATOM     56  C   UNL A   1      45.091  27.698  32.544  1.00  0.00     0.049 A 
ATOM     57  H   UNL A   1      43.292  28.089  31.510  1.00  0.00     0.167 HD
ATOM     58  C   UNL A   1      44.967  25.894  30.845  1.00  0.00     0.074 A 
ATOM     59  C   UNL A   1      45.471  24.704  30.190  1.00  0.00     0.031 C 
ATOM     60  C   UNL A   1      45.588  26.514  31.881  1.00  0.00     0.034 A 
BRANCH  47  61
ATOM     61  C   UNL A   1      42.578  31.525  33.976  1.00  0.00     0.023 A 
ATOM     62  C   UNL A   1      42.011  31.431  35.259  1.00  0.00     0.031 A 
ATOM     63  C   UNL A   1      43.102  32.769  33.582  1.00  0.00     0.131 A 
ATOM     64  C   UNL A   1      41.905  32.574  36.066  1.00  0.00     0.055 A 
ATOM     65  C   UNL A   1      43.075  33.881  34.425  1.00  0.00     0.041 A 
ATOM     66  F   UNL A   1      43.638  32.930  32.361  1.00  0.00    -0.206 F 
ATOM     67  C   UNL A   1      42.458  33.793  35.669  1.00  0.00     0.022 A 
BRANCH  64  68
ATOM     68  S   UNL A   1      40.895  32.481  37.570  1.00  0.00     0.124 S 
ATOM     69  O   UNL A   1      40.676  33.896  37.865  1.00  0.00    -0.237 OA
ATOM     70  O   UNL A   1      39.727  31.734  37.120  1.00  0.00    -0.237 OA
ATOM     71  O   UNL A   1      41.758  31.781  38.519  1.00  0.00    -0.744 OA
ENDBRANCH  64  68
ENDBRANCH  47  61
BRANCH  48  72
ATOM     72  C   UNL A   1      42.482  24.065  27.280  1.00  0.00     0.023 A 
ATOM     73  C   UNL A   1      41.800  22.857  27.496  1.00  0.00     0.031 A 
ATOM     74  C   UNL A   1      43.228  24.198  26.095  1.00  0.00     0.131 A 
ATOM     75  C   UNL A   1      41.920  21.810  26.568  1.00  0.00     0.055 A 
ATOM     76  C   UNL A   1      43.296  23.175  25.147  1.00  0.00     0.041 A 
ATOM     77  F   UNL A   1      43.898  25.333  25.836  1.00  0.00    -0.206 F 
ATOM     78  C   UNL A   1      42.651  21.966  25.388  1.00  0.00     0.022 A 
BRANCH  75  79
ATOM     79  S   UNL A   1      41.184  20.202  26.973  1.00  0.00     0.124 S 
ATOM     80  O   UNL A   1      40.827  20.384  28.376  1.00  0.00    -0.237 OA
ATOM     81  O   UNL A   1      40.071  20.132  26.032  1.00  0.00    -0.237 OA
ATOM     82  O   UNL A   1      42.271  19.258  26.722  1.00  0.00    -0.744 OA
ENDBRANCH  75  79
ENDBRANCH  48  72
BRANCH  60  83
ATOM     83  C   UNL A   1      46.854  25.878  32.408  1.00  0.00     0.023 A 
ATOM     84  C   UNL A   1      48.110  26.125  31.827  1.00  0.00     0.031 A 
ATOM     85  C   UNL A   1      46.794  24.998  33.504  1.00  0.00     0.131 A 
ATOM     86  C   UNL A   1      49.245  25.450  32.304  1.00  0.00     0.055 A 
ATOM     87  C   UNL A   1      47.937  24.383  34.017  1.00  0.00     0.041 A 
ATOM     88  F   UNL A   1      45.622  24.723  34.097  1.00  0.00    -0.206 F 
ATOM     89  C   UNL A   1      49.169  24.596  33.407  1.00  0.00     0.022 A 
BRANCH  86  90
ATOM     90  S   UNL A   1      50.807  25.623  31.397  1.00  0.00     0.124 S 
ATOM     91  O   UNL A   1      51.746  24.936  32.276  1.00  0.00    -0.237 OA
ATOM     92  O   UNL A   1      50.509  24.957  30.134  1.00  0.00    -0.237 OA
ATOM     93  O   UNL A   1      50.990  27.071  31.304  1.00  0.00    -0.744 OA
ENDBRANCH  86  90
ENDBRANCH  60  83
ENDBRANCH  34  35
ENDBRANCH  26  29
ENDBRANCH  24  25
ENDBRANCH  23  24
ENDBRANCH   1  23
TORSDOF 17
ENDMDL
MODEL 3
REMARK VINA RESULT:     -11.2      5.122     10.150
REMARK SMILES O=C(C[C@@H]1CN(C(=O)NCc2cccs2)CCO1)NCCCNC(=O)c1ccc(-c2c3nc(c(-c4cc(S(=O)(=O)[O-])ccc4F)c4ccc([nH]4)c(-c4cc(S(=O)(=O)[O-])ccc4F)c4nc(c(-c5cc(S(=O)(=O)[O-])ccc5F)c5ccc2[nH]5)C=C4)C=C3)cc1
REMARK SMILES IDX 20 1 19 2 1 3 2 4 3 6 4 7 5 8 18 9 6 10 17 11 16 12 7 13
REMARK SMILES IDX 8 14 9 15 10 17 11 18 12 19 15 20 13 21 14 22 21 23 22 24
REMARK SMILES IDX 23 25 24 26 25 28 26 29 27 30 88 31 28 32 87 33 29 34 30 35
REMARK SMILES IDX 31 36 81 37 32 38 86 39 80 40 82 41 33 42 85 43 79 44 78 45
REMARK SMILES IDX 34 47 66 48 46 49 65 50 47 51 50 52 64 53 83 54 48 55 49 56
REMARK SMILES IDX 63 58 84 59 51 60 35 61 36 62 44 63 37 64 43 65 45 66 42 67
REMARK SMILES IDX 38 68 39 69 40 70 41 71 67 72 68 73 76 74 69 75 75 76 77 77
REMARK SMILES IDX 74 78 70 79 71 80 72 81 73 82 52 83 53 84 61 85 54 86 60 87
REMARK SMILES IDX 62 88 59 89 55 90 56 91 57 92 58 93
REMARK H PARENT 19 5 9 16 23 27 82 46 50 57
REMARK Flexibility Score: inf
ROOT
ATOM      1  C   UNL A   1      35.507  22.673  23.676  1.00  0.00     0.117 C 
ENDROOT
BRANCH   1   2
ATOM      2  N   UNL A   1      34.079  22.434  23.669  1.00  0.00    -0.356 N 
ATOM      3  O   UNL A   1      33.665  23.357  21.605  1.00  0.00    -0.275 OA
ATOM      4  C   UNL A   1      33.270  22.781  22.612  1.00  0.00     0.222 C 
ATOM      5  H   UNL A   1      33.670  22.005  24.454  1.00  0.00     0.163 HD
BRANCH   4   6
ATOM      6  C   UNL A   1      31.817  22.413  22.805  1.00  0.00     0.133 C 
BRANCH   6   7
ATOM      7  C   UNL A   1      31.106  23.431  23.699  1.00  0.00     0.147 C 
ATOM      8  C   UNL A   1      31.399  24.875  23.250  1.00  0.00     0.154 C 
ATOM      9  O   UNL A   1      31.558  23.221  25.054  1.00  0.00    -0.374 OA
ATOM     10  N   UNL A   1      30.754  25.822  24.162  1.00  0.00    -0.320 N 
ATOM     11  C   UNL A   1      30.917  24.136  25.960  1.00  0.00     0.182 C 
ATOM     12  C   UNL A   1      31.181  25.591  25.554  1.00  0.00     0.150 C 
BRANCH  10  13
ATOM     13  C   UNL A   1      29.762  26.723  23.948  1.00  0.00     0.317 C 
ATOM     14  O   UNL A   1      28.581  26.451  24.204  1.00  0.00    -0.249 OA
ATOM     15  N   UNL A   1      29.935  27.956  23.459  1.00  0.00    -0.333 N 
ATOM     16  H   UNL A   1      29.066  28.396  23.324  1.00  0.00     0.165 HD
BRANCH  15  17
ATOM     17  C   UNL A   1      31.013  28.837  23.068  1.00  0.00     0.164 C 
BRANCH  17  18
ATOM     18  C   UNL A   1      31.810  29.196  24.285  1.00  0.00     0.024 A 
ATOM     19  C   UNL A   1      31.440  30.024  25.329  1.00  0.00     0.017 A 
ATOM     20  S   UNL A   1      33.381  28.563  24.528  1.00  0.00    -0.147 S 
ATOM     21  C   UNL A   1      32.453  30.134  26.326  1.00  0.00     0.012 A 
ATOM     22  C   UNL A   1      33.566  29.388  26.011  1.00  0.00     0.065 A 
ENDBRANCH  17  18
ENDBRANCH  15  17
ENDBRANCH  10  13
ENDBRANCH   6   7
ENDBRANCH   4   6
ENDBRANCH   1   2
BRANCH   1  23
ATOM     23  C   UNL A   1      35.902  23.739  24.689  1.00  0.00     0.042 C 
BRANCH  23  24
ATOM     24  C   UNL A   1      36.173  23.200  26.091  1.00  0.00     0.118 C 
BRANCH  24  25
ATOM     25  N   UNL A   1      37.282  22.261  26.138  1.00  0.00    -0.352 N 
ATOM     26  C   UNL A   1      38.617  22.479  26.379  1.00  0.00     0.251 C 
ATOM     27  H   UNL A   1      37.038  21.322  25.971  1.00  0.00     0.163 HD
ATOM     28  O   UNL A   1      39.407  21.553  26.216  1.00  0.00    -0.269 OA
BRANCH  26  29
ATOM     29  C   UNL A   1      39.109  23.811  26.802  1.00  0.00     0.039 A 
ATOM     30  C   UNL A   1      39.636  24.667  25.831  1.00  0.00     0.014 A 
ATOM     31  C   UNL A   1      39.089  24.211  28.141  1.00  0.00     0.014 A 
ATOM     32  C   UNL A   1      40.097  25.936  26.194  1.00  0.00     0.010 A 
ATOM     33  C   UNL A   1      39.473  25.506  28.488  1.00  0.00     0.010 A 
ATOM     34  C   UNL A   1      39.996  26.379  27.523  1.00  0.00    -0.014 A 
BRANCH  34  35
ATOM     35  C   UNL A   1      40.464  27.735  27.918  1.00  0.00     0.031 A 
ATOM     36  C   UNL A   1      41.916  28.107  27.762  1.00  0.00     0.074 A 
ATOM     37  C   UNL A   1      39.596  28.621  28.448  1.00  0.00     0.049 A 
ATOM     38  N   UNL A   1      42.529  29.216  28.093  1.00  0.00    -0.248 NA
ATOM     39  C   UNL A   1      42.801  27.084  27.186  1.00  0.00     0.031 C 
ATOM     40  C   UNL A   1      38.173  28.370  28.680  1.00  0.00     0.029 A 
ATOM     41  N   UNL A   1      39.781  29.908  28.890  1.00  0.00    -0.354 N 
ATOM     42  C   UNL A   1      43.869  29.019  27.775  1.00  0.00     0.074 A 
ATOM     43  C   UNL A   1      43.988  27.660  27.292  1.00  0.00     0.031 C 
ATOM     44  C   UNL A   1      37.609  29.476  29.193  1.00  0.00     0.029 A 
ATOM     45  C   UNL A   1      38.636  30.499  29.372  1.00  0.00     0.049 A 
ATOM     46  H   UNL A   1      40.653  30.364  28.865  1.00  0.00     0.167 HD
ATOM     47  C   UNL A   1      44.901  29.897  27.853  1.00  0.00     0.034 A 
ATOM     48  C   UNL A   1      38.436  31.721  29.905  1.00  0.00     0.034 A 
ATOM     49  C   UNL A   1      44.765  31.253  28.328  1.00  0.00     0.049 A 
ATOM     50  C   UNL A   1      39.604  32.671  30.010  1.00  0.00     0.074 A 
ATOM     51  C   UNL A   1      45.734  32.239  28.407  1.00  0.00     0.029 A 
ATOM     52  N   UNL A   1      43.590  31.814  28.811  1.00  0.00    -0.354 N 
ATOM     53  N   UNL A   1      40.857  32.484  29.661  1.00  0.00    -0.248 NA
ATOM     54  C   UNL A   1      39.326  34.002  30.564  1.00  0.00     0.031 C 
ATOM     55  C   UNL A   1      45.163  33.369  29.004  1.00  0.00     0.029 A 
ATOM     56  C   UNL A   1      43.817  33.122  29.217  1.00  0.00     0.049 A 
ATOM     57  H   UNL A   1      42.722  31.352  28.858  1.00  0.00     0.167 HD
ATOM     58  C   UNL A   1      41.506  33.689  29.920  1.00  0.00     0.074 A 
ATOM     59  C   UNL A   1      40.503  34.596  30.439  1.00  0.00     0.031 C 
ATOM     60  C   UNL A   1      42.810  34.018  29.738  1.00  0.00     0.034 A 
BRANCH  47  61
ATOM     61  C   UNL A   1      46.269  29.401  27.440  1.00  0.00     0.023 A 
ATOM     62  C   UNL A   1      46.541  28.996  26.121  1.00  0.00     0.031 A 
ATOM     63  C   UNL A   1      47.308  29.305  28.382  1.00  0.00     0.131 A 
ATOM     64  C   UNL A   1      47.788  28.436  25.802  1.00  0.00     0.055 A 
ATOM     65  C   UNL A   1      48.576  28.833  28.036  1.00  0.00     0.041 A 
ATOM     66  F   UNL A   1      47.107  29.657  29.662  1.00  0.00    -0.206 F 
ATOM     67  C   UNL A   1      48.817  28.378  26.743  1.00  0.00     0.022 A 
BRANCH  64  68
ATOM     68  S   UNL A   1      47.991  27.643  24.182  1.00  0.00     0.124 S 
ATOM     69  O   UNL A   1      47.267  28.566  23.311  1.00  0.00    -0.237 OA
ATOM     70  O   UNL A   1      49.441  27.619  24.023  1.00  0.00    -0.237 OA
ATOM     71  O   UNL A   1      47.358  26.338  24.359  1.00  0.00    -0.744 OA
ENDBRANCH  64  68
ENDBRANCH  47  61
BRANCH  48  72
ATOM     72  C   UNL A   1      37.083  32.125  30.388  1.00  0.00     0.023 A 
ATOM     73  C   UNL A   1      36.169  32.764  29.535  1.00  0.00     0.031 A 
ATOM     74  C   UNL A   1      36.703  31.924  31.728  1.00  0.00     0.131 A 
ATOM     75  C   UNL A   1      34.944  33.226  30.042  1.00  0.00     0.055 A 
ATOM     76  C   UNL A   1      35.460  32.333  32.212  1.00  0.00     0.041 A 
ATOM     77  F   UNL A   1      37.537  31.315  32.587  1.00  0.00    -0.206 F 
ATOM     78  C   UNL A   1      34.577  33.002  31.370  1.00  0.00     0.022 A 
BRANCH  75  79
ATOM     79  S   UNL A   1      33.875  34.215  28.959  1.00  0.00     0.124 S 
ATOM     80  O   UNL A   1      34.816  35.191  28.422  1.00  0.00    -0.237 OA
ATOM     81  O   UNL A   1      33.385  33.211  28.020  1.00  0.00    -0.237 OA
ATOM     82  O   UNL A   1      32.870  34.753  29.874  1.00  0.00    -0.744 OA
ENDBRANCH  75  79
ENDBRANCH  48  72
BRANCH  60  83
ATOM     83  C   UNL A   1      43.213  35.442  30.047  1.00  0.00     0.023 A 
ATOM     84  C   UNL A   1      43.080  36.475  29.104  1.00  0.00     0.031 A 
ATOM     85  C   UNL A   1      43.753  35.762  31.306  1.00  0.00     0.131 A 
ATOM     86  C   UNL A   1      43.540  37.766  29.412  1.00  0.00     0.055 A 
ATOM     87  C   UNL A   1      44.146  37.061  31.630  1.00  0.00     0.041 A 
ATOM     88  F   UNL A   1      43.906  34.815  32.245  1.00  0.00    -0.206 F 
ATOM     89  C   UNL A   1      44.054  38.068  30.675  1.00  0.00     0.022 A 
BRANCH  86  90
ATOM     90  S   UNL A   1      43.555  39.021  28.102  1.00  0.00     0.124 S 
ATOM     91  O   UNL A   1      44.249  38.326  27.023  1.00  0.00    -0.237 OA
ATOM     92  O   UNL A   1      42.132  39.268  27.891  1.00  0.00    -0.237 OA
ATOM     93  O   UNL A   1      44.294  40.132  28.700  1.00  0.00    -0.744 OA
ENDBRANCH  86  90
ENDBRANCH  60  83
ENDBRANCH  34  35
ENDBRANCH  26  29
ENDBRANCH  24  25
ENDBRANCH  23  24
ENDBRANCH   1  23
TORSDOF 17
ENDMDL
