MODEL 1
REMARK VINA RESULT:     -12.7      0.000      0.000
REMARK SMILES Cc1cc(CNS(=O)(=O)c2ccc(C(=O)NCCCNC(=O)c3ccc(-c4c5nc(c(-c6cc(S(=O)(=O)[O-])ccc6F)c6ccc([nH]6)c(-c6cc(S(=O)(=O)[O-])ccc6F)c6nc(c(-c7cc(S(=O)(=O)[O-])ccc7F)c7ccc4[nH]7)C=C6)C=C5)cc3)cc2F)no1
REMARK SMILES IDX 17 1 16 2 14 3 15 4 13 6 10 7 11 8 87 9 12 10 86 11 88 12
REMARK SMILES IDX 7 13 8 14 9 15 6 16 5 18 4 19 1 20 2 21 3 22 90 23 89 24
REMARK SMILES IDX 18 25 19 26 20 27 21 28 22 30 23 31 24 32 85 33 25 34 84 35
REMARK SMILES IDX 26 36 27 37 28 38 78 39 29 40 83 41 77 42 79 43 30 44 82 45
REMARK SMILES IDX 76 46 75 47 31 49 63 50 43 51 62 52 44 53 47 54 61 55 80 56
REMARK SMILES IDX 45 57 46 58 60 60 81 61 48 62 32 63 33 64 41 65 34 66 40 67
REMARK SMILES IDX 42 68 39 69 35 70 36 71 37 72 38 73 64 74 65 75 73 76 66 77
REMARK SMILES IDX 72 78 74 79 71 80 67 81 68 82 69 83 70 84 49 85 50 86 58 87
REMARK SMILES IDX 51 88 57 89 59 90 56 91 52 92 53 93 54 94 55 95
REMARK H PARENT 16 5 6 17 20 29 79 48 47 59
REMARK Flexibility Score: inf
ROOT
ATOM      1  C   UNL A   1      32.440  28.737  22.879  1.00  0.00     0.118 C 
ENDROOT
BRANCH   1   2
ATOM      2  N   UNL A   1      32.860  27.750  21.900  1.00  0.00    -0.352 N 
ATOM      3  C   UNL A   1      32.949  26.384  21.924  1.00  0.00     0.251 C 
ATOM      4  O   UNL A   1      33.283  25.822  20.880  1.00  0.00    -0.269 OA
ATOM      5  H   UNL A   1      33.138  28.145  21.042  1.00  0.00     0.163 HD
BRANCH   3   6
ATOM      6  C   UNL A   1      32.639  25.541  23.115  1.00  0.00     0.042 A 
ATOM      7  C   UNL A   1      31.875  23.870  25.241  1.00  0.00     0.118 A 
ATOM      8  C   UNL A   1      30.948  24.184  24.248  1.00  0.00     0.026 A 
ATOM      9  C   UNL A   1      33.163  24.379  25.173  1.00  0.00     0.144 A 
ATOM     10  C   UNL A   1      31.331  25.024  23.199  1.00  0.00     0.015 A 
ATOM     11  C   UNL A   1      33.558  25.181  24.102  1.00  0.00     0.054 A 
ATOM     12  F   UNL A   1      34.071  24.084  26.113  1.00  0.00    -0.205 F 
BRANCH   7  13
ATOM     13  S   UNL A   1      31.433  22.774  26.546  1.00  0.00     0.243 S 
ATOM     14  O   UNL A   1      29.999  22.886  26.729  1.00  0.00    -0.207 OA
ATOM     15  O   UNL A   1      32.354  23.014  27.630  1.00  0.00    -0.207 OA
BRANCH  13  16
ATOM     16  N   UNL A   1      31.723  21.238  25.955  1.00  0.00    -0.205 NA
ATOM     17  H   UNL A   1      31.172  20.588  26.516  1.00  0.00     0.141 HD
BRANCH  16  18
ATOM     18  C   UNL A   1      33.106  20.747  25.953  1.00  0.00     0.158 C 
BRANCH  18  19
ATOM     19  C   UNL A   1      33.148  19.447  25.223  1.00  0.00     0.099 A 
ATOM     20  C   UNL A   1      34.292  16.557  23.279  1.00  0.00     0.091 C 
ATOM     21  C   UNL A   1      33.732  17.671  24.063  1.00  0.00     0.133 A 
ATOM     22  C   UNL A   1      34.230  18.863  24.527  1.00  0.00     0.073 A 
ATOM     23  O   UNL A   1      32.433  17.547  24.448  1.00  0.00    -0.361 OA
ATOM     24  N   UNL A   1      32.061  18.662  25.179  1.00  0.00    -0.083 NA
ENDBRANCH  18  19
ENDBRANCH  16  18
ENDBRANCH  13  16
ENDBRANCH   7  13
ENDBRANCH   3   6
ENDBRANCH   1   2
BRANCH   1  25
ATOM     25  C   UNL A   1      33.559  29.051  23.873  1.00  0.00     0.042 C 
BRANCH  25  26
ATOM     26  C   UNL A   1      33.101  29.037  25.332  1.00  0.00     0.118 C 
BRANCH  26  27
ATOM     27  N   UNL A   1      32.597  30.336  25.752  1.00  0.00    -0.352 N 
ATOM     28  C   UNL A   1      32.994  31.140  26.792  1.00  0.00     0.251 C 
ATOM     29  H   UNL A   1      31.859  30.693  25.207  1.00  0.00     0.163 HD
ATOM     30  O   UNL A   1      32.284  32.089  27.114  1.00  0.00    -0.269 OA
BRANCH  28  31
ATOM     31  C   UNL A   1      34.251  30.870  27.526  1.00  0.00     0.039 A 
ATOM     32  C   UNL A   1      35.167  31.913  27.696  1.00  0.00     0.014 A 
ATOM     33  C   UNL A   1      34.559  29.589  27.994  1.00  0.00     0.014 A 
ATOM     34  C   UNL A   1      36.366  31.685  28.378  1.00  0.00     0.010 A 
ATOM     35  C   UNL A   1      35.731  29.375  28.719  1.00  0.00     0.010 A 
ATOM     36  C   UNL A   1      36.646  30.420  28.918  1.00  0.00    -0.014 A 
BRANCH  36  37
ATOM     37  C   UNL A   1      37.890  30.169  29.690  1.00  0.00     0.031 A 
ATOM     38  C   UNL A   1      38.978  29.307  29.110  1.00  0.00     0.074 A 
ATOM     39  C   UNL A   1      38.017  30.671  30.933  1.00  0.00     0.049 A 
ATOM     40  N   UNL A   1      40.073  28.866  29.673  1.00  0.00    -0.248 NA
ATOM     41  C   UNL A   1      38.796  28.862  27.719  1.00  0.00     0.031 C 
ATOM     42  C   UNL A   1      37.029  31.513  31.609  1.00  0.00     0.029 A 
ATOM     43  N   UNL A   1      39.027  30.540  31.853  1.00  0.00    -0.354 N 
ATOM     44  C   UNL A   1      40.703  28.079  28.717  1.00  0.00     0.074 A 
ATOM     45  C   UNL A   1      39.848  28.074  27.547  1.00  0.00     0.031 C 
ATOM     46  C   UNL A   1      37.491  31.841  32.827  1.00  0.00     0.029 A 
ATOM     47  C   UNL A   1      38.784  31.197  33.037  1.00  0.00     0.049 A 
ATOM     48  H   UNL A   1      39.849  30.025  31.682  1.00  0.00     0.167 HD
ATOM     49  C   UNL A   1      41.890  27.430  28.801  1.00  0.00     0.034 A 
ATOM     50  C   UNL A   1      39.511  31.259  34.170  1.00  0.00     0.034 A 
ATOM     51  C   UNL A   1      42.746  27.460  29.961  1.00  0.00     0.049 A 
ATOM     52  C   UNL A   1      40.816  30.517  34.248  1.00  0.00     0.074 A 
ATOM     53  C   UNL A   1      43.984  26.866  30.135  1.00  0.00     0.029 A 
ATOM     54  N   UNL A   1      42.457  28.127  31.144  1.00  0.00    -0.354 N 
ATOM     55  N   UNL A   1      41.386  29.758  33.341  1.00  0.00    -0.248 NA
ATOM     56  C   UNL A   1      41.573  30.636  35.500  1.00  0.00     0.031 C 
ATOM     57  C   UNL A   1      44.422  27.133  31.436  1.00  0.00     0.029 A 
ATOM     58  C   UNL A   1      43.484  27.943  32.056  1.00  0.00     0.049 A 
ATOM     59  H   UNL A   1      41.642  28.653  31.310  1.00  0.00     0.167 HD
ATOM     60  C   UNL A   1      42.577  29.320  33.910  1.00  0.00     0.074 A 
ATOM     61  C   UNL A   1      42.647  29.904  35.235  1.00  0.00     0.031 C 
ATOM     62  C   UNL A   1      43.529  28.514  33.380  1.00  0.00     0.034 A 
BRANCH  49  63
ATOM     63  C   UNL A   1      42.320  26.609  27.614  1.00  0.00     0.023 A 
ATOM     64  C   UNL A   1      41.938  25.265  27.471  1.00  0.00     0.031 A 
ATOM     65  C   UNL A   1      43.120  27.181  26.609  1.00  0.00     0.131 A 
ATOM     66  C   UNL A   1      42.399  24.521  26.376  1.00  0.00     0.055 A 
ATOM     67  C   UNL A   1      43.523  26.454  25.487  1.00  0.00     0.041 A 
ATOM     68  F   UNL A   1      43.528  28.457  26.704  1.00  0.00    -0.206 F 
ATOM     69  C   UNL A   1      43.169  25.112  25.371  1.00  0.00     0.022 A 
BRANCH  66  70
ATOM     70  S   UNL A   1      42.048  22.743  26.321  1.00  0.00     0.124 S 
ATOM     71  O   UNL A   1      42.685  22.282  27.551  1.00  0.00    -0.237 OA
ATOM     72  O   UNL A   1      40.590  22.706  26.304  1.00  0.00    -0.237 OA
ATOM     73  O   UNL A   1      42.696  22.304  25.086  1.00  0.00    -0.744 OA
ENDBRANCH  66  70
ENDBRANCH  49  63
BRANCH  50  74
ATOM     74  C   UNL A   1      39.007  32.042  35.330  1.00  0.00     0.023 A 
ATOM     75  C   UNL A   1      38.364  31.406  36.401  1.00  0.00     0.031 A 
ATOM     76  C   UNL A   1      39.171  33.437  35.384  1.00  0.00     0.131 A 
ATOM     77  C   UNL A   1      37.888  32.167  37.479  1.00  0.00     0.055 A 
ATOM     78  C   UNL A   1      38.725  34.186  36.474  1.00  0.00     0.041 A 
ATOM     79  F   UNL A   1      39.792  34.086  34.388  1.00  0.00    -0.206 F 
ATOM     80  C   UNL A   1      38.074  33.551  37.528  1.00  0.00     0.022 A 
BRANCH  77  81
ATOM     81  S   UNL A   1      37.004  31.323  38.819  1.00  0.00     0.124 S 
ATOM     82  O   UNL A   1      35.755  32.074  38.868  1.00  0.00    -0.237 OA
ATOM     83  O   UNL A   1      36.914  29.957  38.314  1.00  0.00    -0.237 OA
ATOM     84  O   UNL A   1      37.886  31.501  39.972  1.00  0.00    -0.744 OA
ENDBRANCH  77  81
ENDBRANCH  50  74
BRANCH  62  85
ATOM     85  C   UNL A   1      44.743  28.237  34.225  1.00  0.00     0.023 A 
ATOM     86  C   UNL A   1      44.815  27.108  35.057  1.00  0.00     0.031 A 
ATOM     87  C   UNL A   1      45.851  29.100  34.170  1.00  0.00     0.131 A 
ATOM     88  C   UNL A   1      45.964  26.886  35.829  1.00  0.00     0.055 A 
ATOM     89  C   UNL A   1      47.009  28.851  34.908  1.00  0.00     0.041 A 
ATOM     90  F   UNL A   1      45.829  30.189  33.387  1.00  0.00    -0.206 F 
ATOM     91  C   UNL A   1      47.067  27.742  35.749  1.00  0.00     0.022 A 
BRANCH  88  92
ATOM     92  S   UNL A   1      45.994  25.475  36.968  1.00  0.00     0.124 S 
ATOM     93  O   UNL A   1      47.141  24.717  36.479  1.00  0.00    -0.237 OA
ATOM     94  O   UNL A   1      46.164  26.120  38.267  1.00  0.00    -0.237 OA
ATOM     95  O   UNL A   1      44.695  24.839  36.760  1.00  0.00    -0.744 OA
ENDBRANCH  88  92
ENDBRANCH  62  85
ENDBRANCH  36  37
ENDBRANCH  28  31
ENDBRANCH  26  27
ENDBRANCH  25  26
ENDBRANCH   1  25
TORSDOF 17
ENDMDL
MODEL 2
REMARK VINA RESULT:     -12.5      3.105      4.649
REMARK SMILES Cc1cc(CNS(=O)(=O)c2ccc(C(=O)NCCCNC(=O)c3ccc(-c4c5nc(c(-c6cc(S(=O)(=O)[O-])ccc6F)c6ccc([nH]6)c(-c6cc(S(=O)(=O)[O-])ccc6F)c6nc(c(-c7cc(S(=O)(=O)[O-])ccc7F)c7ccc4[nH]7)C=C6)C=C5)cc3)cc2F)no1
REMARK SMILES IDX 17 1 16 2 14 3 15 4 13 6 10 7 11 8 87 9 12 10 86 11 88 12
REMARK SMILES IDX 7 13 8 14 9 15 6 16 5 18 4 19 1 20 2 21 3 22 90 23 89 24
REMARK SMILES IDX 18 25 19 26 20 27 21 28 22 30 23 31 24 32 85 33 25 34 84 35
REMARK SMILES IDX 26 36 27 37 28 38 78 39 29 40 83 41 77 42 79 43 30 44 82 45
REMARK SMILES IDX 76 46 75 47 31 49 63 50 43 51 62 52 44 53 47 54 61 55 80 56
REMARK SMILES IDX 45 57 46 58 60 60 81 61 48 62 32 63 33 64 41 65 34 66 40 67
REMARK SMILES IDX 42 68 39 69 35 70 36 71 37 72 38 73 64 74 65 75 73 76 66 77
REMARK SMILES IDX 72 78 74 79 71 80 67 81 68 82 69 83 70 84 49 85 50 86 58 87
REMARK SMILES IDX 51 88 57 89 59 90 56 91 52 92 53 93 54 94 55 95
REMARK H PARENT 16 5 6 17 20 29 79 48 47 59
REMARK Flexibility Score: inf
ROOT
ATOM      1  C   UNL A   1      31.808  30.555  26.900  1.00  0.00     0.118 C 
ENDROOT
BRANCH   1   2
ATOM      2  N   UNL A   1      33.135  30.216  27.383  1.00  0.00    -0.352 N 
ATOM      3  C   UNL A   1      34.066  29.289  26.996  1.00  0.00     0.251 C 
ATOM      4  O   UNL A   1      35.151  29.302  27.579  1.00  0.00    -0.269 OA
ATOM      5  H   UNL A   1      33.425  30.767  28.146  1.00  0.00     0.163 HD
BRANCH   3   6
ATOM      6  C   UNL A   1      33.860  28.295  25.903  1.00  0.00     0.042 A 
ATOM      7  C   UNL A   1      33.377  26.285  24.001  1.00  0.00     0.118 A 
ATOM      8  C   UNL A   1      33.374  25.961  25.357  1.00  0.00     0.026 A 
ATOM      9  C   UNL A   1      33.615  27.591  23.600  1.00  0.00     0.144 A 
ATOM     10  C   UNL A   1      33.625  26.964  26.297  1.00  0.00     0.015 A 
ATOM     11  C   UNL A   1      33.822  28.600  24.541  1.00  0.00     0.054 A 
ATOM     12  F   UNL A   1      33.616  27.924  22.303  1.00  0.00    -0.205 F 
BRANCH   7  13
ATOM     13  S   UNL A   1      33.014  25.051  22.798  1.00  0.00     0.243 S 
ATOM     14  O   UNL A   1      33.052  23.771  23.476  1.00  0.00    -0.207 OA
ATOM     15  O   UNL A   1      33.842  25.323  21.649  1.00  0.00    -0.207 OA
BRANCH  13  16
ATOM     16  N   UNL A   1      31.422  25.313  22.358  1.00  0.00    -0.205 NA
ATOM     17  H   UNL A   1      31.421  26.037  21.639  1.00  0.00     0.141 HD
BRANCH  16  18
ATOM     18  C   UNL A   1      30.478  25.734  23.400  1.00  0.00     0.158 C 
BRANCH  18  19
ATOM     19  C   UNL A   1      29.888  27.046  23.004  1.00  0.00     0.099 A 
ATOM     20  C   UNL A   1      27.737  30.010  22.830  1.00  0.00     0.091 C 
ATOM     21  C   UNL A   1      28.660  28.862  22.816  1.00  0.00     0.133 A 
ATOM     22  C   UNL A   1      28.736  27.684  23.518  1.00  0.00     0.073 A 
ATOM     23  O   UNL A   1      29.693  28.927  21.933  1.00  0.00    -0.361 OA
ATOM     24  N   UNL A   1      30.469  27.787  22.048  1.00  0.00    -0.083 NA
ENDBRANCH  18  19
ENDBRANCH  16  18
ENDBRANCH  13  16
ENDBRANCH   7  13
ENDBRANCH   3   6
ENDBRANCH   1   2
BRANCH   1  25
ATOM     25  C   UNL A   1      31.600  32.069  26.852  1.00  0.00     0.042 C 
BRANCH  25  26
ATOM     26  C   UNL A   1      32.882  32.868  27.089  1.00  0.00     0.118 C 
BRANCH  26  27
ATOM     27  N   UNL A   1      32.601  34.195  27.616  1.00  0.00    -0.352 N 
ATOM     28  C   UNL A   1      33.117  34.832  28.718  1.00  0.00     0.251 C 
ATOM     29  H   UNL A   1      31.942  34.717  27.103  1.00  0.00     0.163 HD
ATOM     30  O   UNL A   1      32.574  35.859  29.119  1.00  0.00    -0.269 OA
BRANCH  28  31
ATOM     31  C   UNL A   1      34.300  34.293  29.425  1.00  0.00     0.039 A 
ATOM     32  C   UNL A   1      34.104  33.549  30.593  1.00  0.00     0.014 A 
ATOM     33  C   UNL A   1      35.598  34.562  28.981  1.00  0.00     0.014 A 
ATOM     34  C   UNL A   1      35.203  33.033  31.285  1.00  0.00     0.010 A 
ATOM     35  C   UNL A   1      36.692  34.005  29.644  1.00  0.00     0.010 A 
ATOM     36  C   UNL A   1      36.505  33.235  30.802  1.00  0.00    -0.014 A 
BRANCH  36  37
ATOM     37  C   UNL A   1      37.684  32.654  31.494  1.00  0.00     0.031 A 
ATOM     38  C   UNL A   1      38.453  31.527  30.860  1.00  0.00     0.074 A 
ATOM     39  C   UNL A   1      38.029  33.104  32.716  1.00  0.00     0.049 A 
ATOM     40  N   UNL A   1      39.423  30.805  31.359  1.00  0.00    -0.248 NA
ATOM     41  C   UNL A   1      38.061  31.147  29.494  1.00  0.00     0.031 C 
ATOM     42  C   UNL A   1      37.357  34.184  33.439  1.00  0.00     0.029 A 
ATOM     43  N   UNL A   1      39.027  32.703  33.569  1.00  0.00    -0.354 N 
ATOM     44  C   UNL A   1      39.747  29.874  30.378  1.00  0.00     0.074 A 
ATOM     45  C   UNL A   1      38.844  30.102  29.269  1.00  0.00     0.031 C 
ATOM     46  C   UNL A   1      37.975  34.375  34.616  1.00  0.00     0.029 A 
ATOM     47  C   UNL A   1      39.054  33.402  34.753  1.00  0.00     0.049 A 
ATOM     48  H   UNL A   1      39.663  31.983  33.354  1.00  0.00     0.167 HD
ATOM     49  C   UNL A   1      40.715  28.926  30.397  1.00  0.00     0.034 A 
ATOM     50  C   UNL A   1      39.847  33.266  35.833  1.00  0.00     0.034 A 
ATOM     51  C   UNL A   1      41.625  28.723  31.496  1.00  0.00     0.049 A 
ATOM     52  C   UNL A   1      40.904  32.195  35.839  1.00  0.00     0.074 A 
ATOM     53  C   UNL A   1      42.664  27.813  31.599  1.00  0.00     0.029 A 
ATOM     54  N   UNL A   1      41.612  29.444  32.682  1.00  0.00    -0.354 N 
ATOM     55  N   UNL A   1      41.180  31.308  34.913  1.00  0.00    -0.248 NA
ATOM     56  C   UNL A   1      41.749  32.104  37.036  1.00  0.00     0.031 C 
ATOM     57  C   UNL A   1      43.247  27.952  32.862  1.00  0.00     0.029 A 
ATOM     58  C   UNL A   1      42.611  28.988  33.528  1.00  0.00     0.049 A 
ATOM     59  H   UNL A   1      40.984  30.174  32.892  1.00  0.00     0.167 HD
ATOM     60  C   UNL A   1      42.244  30.562  35.410  1.00  0.00     0.074 A 
ATOM     61  C   UNL A   1      42.562  31.106  36.715  1.00  0.00     0.031 C 
ATOM     62  C   UNL A   1      42.902  29.526  34.833  1.00  0.00     0.034 A 
BRANCH  49  63
ATOM     63  C   UNL A   1      40.822  28.018  29.200  1.00  0.00     0.023 A 
ATOM     64  C   UNL A   1      41.778  28.235  28.195  1.00  0.00     0.031 A 
ATOM     65  C   UNL A   1      39.956  26.917  29.066  1.00  0.00     0.131 A 
ATOM     66  C   UNL A   1      41.814  27.395  27.072  1.00  0.00     0.055 A 
ATOM     67  C   UNL A   1      40.039  26.046  27.978  1.00  0.00     0.041 A 
ATOM     68  F   UNL A   1      39.013  26.674  29.989  1.00  0.00    -0.206 F 
ATOM     69  C   UNL A   1      40.967  26.289  26.967  1.00  0.00     0.022 A 
BRANCH  66  70
ATOM     70  S   UNL A   1      42.928  27.816  25.704  1.00  0.00     0.124 S 
ATOM     71  O   UNL A   1      43.923  28.642  26.382  1.00  0.00    -0.237 OA
ATOM     72  O   UNL A   1      43.385  26.507  25.252  1.00  0.00    -0.237 OA
ATOM     73  O   UNL A   1      42.064  28.531  24.767  1.00  0.00    -0.744 OA
ENDBRANCH  66  70
ENDBRANCH  49  63
BRANCH  50  74
ATOM     74  C   UNL A   1      39.658  34.157  37.008  1.00  0.00     0.023 A 
ATOM     75  C   UNL A   1      39.047  33.684  38.179  1.00  0.00     0.031 A 
ATOM     76  C   UNL A   1      40.094  35.493  36.977  1.00  0.00     0.131 A 
ATOM     77  C   UNL A   1      38.870  34.548  39.270  1.00  0.00     0.055 A 
ATOM     78  C   UNL A   1      39.945  36.340  38.077  1.00  0.00     0.041 A 
ATOM     79  F   UNL A   1      40.695  35.986  35.883  1.00  0.00    -0.206 F 
ATOM     80  C   UNL A   1      39.324  35.868  39.231  1.00  0.00     0.022 A 
BRANCH  77  81
ATOM     81  S   UNL A   1      38.019  33.925  40.745  1.00  0.00     0.124 S 
ATOM     82  O   UNL A   1      37.672  35.164  41.432  1.00  0.00    -0.237 OA
ATOM     83  O   UNL A   1      36.908  33.177  40.166  1.00  0.00    -0.237 OA
ATOM     84  O   UNL A   1      39.038  33.109  41.404  1.00  0.00    -0.744 OA
ENDBRANCH  77  81
ENDBRANCH  50  74
BRANCH  62  85
ATOM     85  C   UNL A   1      44.049  28.929  35.601  1.00  0.00     0.023 A 
ATOM     86  C   UNL A   1      43.872  27.814  36.436  1.00  0.00     0.031 A 
ATOM     87  C   UNL A   1      45.341  29.469  35.470  1.00  0.00     0.131 A 
ATOM     88  C   UNL A   1      44.969  27.287  37.134  1.00  0.00     0.055 A 
ATOM     89  C   UNL A   1      46.436  28.915  36.135  1.00  0.00     0.041 A 
ATOM     90  F   UNL A   1      45.558  30.533  34.682  1.00  0.00    -0.206 F 
ATOM     91  C   UNL A   1      46.251  27.822  36.977  1.00  0.00     0.022 A 
BRANCH  88  92
ATOM     92  S   UNL A   1      44.696  25.907  38.279  1.00  0.00     0.124 S 
ATOM     93  O   UNL A   1      46.039  25.680  38.803  1.00  0.00    -0.237 OA
ATOM     94  O   UNL A   1      43.730  26.464  39.222  1.00  0.00    -0.237 OA
ATOM     95  O   UNL A   1      44.177  24.846  37.419  1.00  0.00    -0.744 OA
ENDBRANCH  88  92
ENDBRANCH  62  85
ENDBRANCH  36  37
ENDBRANCH  28  31
ENDBRANCH  26  27
ENDBRANCH  25  26
ENDBRANCH   1  25
TORSDOF 17
ENDMDL
MODEL 3
REMARK VINA RESULT:     -12.5      2.206      2.896
REMARK SMILES Cc1cc(CNS(=O)(=O)c2ccc(C(=O)NCCCNC(=O)c3ccc(-c4c5nc(c(-c6cc(S(=O)(=O)[O-])ccc6F)c6ccc([nH]6)c(-c6cc(S(=O)(=O)[O-])ccc6F)c6nc(c(-c7cc(S(=O)(=O)[O-])ccc7F)c7ccc4[nH]7)C=C6)C=C5)cc3)cc2F)no1
REMARK SMILES IDX 17 1 16 2 14 3 15 4 13 6 10 7 11 8 87 9 12 10 86 11 88 12
REMARK SMILES IDX 7 13 8 14 9 15 6 16 5 18 4 19 1 20 2 21 3 22 90 23 89 24
REMARK SMILES IDX 18 25 19 26 20 27 21 28 22 30 23 31 24 32 85 33 25 34 84 35
REMARK SMILES IDX 26 36 27 37 28 38 78 39 29 40 83 41 77 42 79 43 30 44 82 45
REMARK SMILES IDX 76 46 75 47 31 49 63 50 43 51 62 52 44 53 47 54 61 55 80 56
REMARK SMILES IDX 45 57 46 58 60 60 81 61 48 62 32 63 33 64 41 65 34 66 40 67
REMARK SMILES IDX 42 68 39 69 35 70 36 71 37 72 38 73 64 74 65 75 73 76 66 77
REMARK SMILES IDX 72 78 74 79 71 80 67 81 68 82 69 83 70 84 49 85 50 86 58 87
REMARK SMILES IDX 51 88 57 89 59 90 56 91 52 92 53 93 54 94 55 95
REMARK H PARENT 16 5 6 17 20 29 79 48 47 59
REMARK Flexibility Score: inf
ROOT
ATOM      1  C   UNL A   1      31.517  30.356  26.222  1.00  0.00     0.118 C 
ENDROOT
BRANCH   1   2
ATOM      2  N   UNL A   1      31.438  30.024  24.810  1.00  0.00    -0.352 N 
ATOM      3  C   UNL A   1      31.415  28.838  24.126  1.00  0.00     0.251 C 
ATOM      4  O   UNL A   1      31.267  28.895  22.904  1.00  0.00    -0.269 OA
ATOM      5  H   UNL A   1      31.391  30.815  24.225  1.00  0.00     0.163 HD
BRANCH   3   6
ATOM      6  C   UNL A   1      31.525  27.495  24.764  1.00  0.00     0.042 A 
ATOM      7  C   UNL A   1      31.533  24.910  25.864  1.00  0.00     0.118 A 
ATOM      8  C   UNL A   1      30.340  25.446  25.382  1.00  0.00     0.026 A 
ATOM      9  C   UNL A   1      32.703  25.650  25.797  1.00  0.00     0.144 A 
ATOM     10  C   UNL A   1      30.341  26.736  24.845  1.00  0.00     0.015 A 
ATOM     11  C   UNL A   1      32.712  26.921  25.221  1.00  0.00     0.054 A 
ATOM     12  F   UNL A   1      33.861  25.152  26.249  1.00  0.00    -0.205 F 
BRANCH   7  13
ATOM     13  S   UNL A   1      31.570  23.268  26.499  1.00  0.00     0.243 S 
ATOM     14  O   UNL A   1      30.216  22.755  26.433  1.00  0.00    -0.207 OA
ATOM     15  O   UNL A   1      32.302  23.311  27.741  1.00  0.00    -0.207 OA
BRANCH  13  16
ATOM     16  N   UNL A   1      32.471  22.386  25.401  1.00  0.00    -0.205 NA
ATOM     17  H   UNL A   1      31.815  21.870  24.815  1.00  0.00     0.141 HD
BRANCH  16  18
ATOM     18  C   UNL A   1      33.441  21.417  25.924  1.00  0.00     0.158 C 
BRANCH  18  19
ATOM     19  C   UNL A   1      33.245  20.119  25.214  1.00  0.00     0.099 A 
ATOM     20  C   UNL A   1      33.857  16.952  23.471  1.00  0.00     0.091 C 
ATOM     21  C   UNL A   1      33.503  18.205  24.161  1.00  0.00     0.133 A 
ATOM     22  C   UNL A   1      34.224  19.250  24.683  1.00  0.00     0.073 A 
ATOM     23  O   UNL A   1      32.176  18.432  24.358  1.00  0.00    -0.361 OA
ATOM     24  N   UNL A   1      32.008  19.635  25.022  1.00  0.00    -0.083 NA
ENDBRANCH  18  19
ENDBRANCH  16  18
ENDBRANCH  13  16
ENDBRANCH   7  13
ENDBRANCH   3   6
ENDBRANCH   1   2
BRANCH   1  25
ATOM     25  C   UNL A   1      31.455  31.867  26.445  1.00  0.00     0.042 C 
BRANCH  25  26
ATOM     26  C   UNL A   1      32.691  32.431  27.148  1.00  0.00     0.118 C 
BRANCH  26  27
ATOM     27  N   UNL A   1      32.507  33.822  27.532  1.00  0.00    -0.352 N 
ATOM     28  C   UNL A   1      33.115  34.549  28.526  1.00  0.00     0.251 C 
ATOM     29  H   UNL A   1      31.846  34.319  26.997  1.00  0.00     0.163 HD
ATOM     30  O   UNL A   1      32.647  35.643  28.833  1.00  0.00    -0.269 OA
BRANCH  28  31
ATOM     31  C   UNL A   1      34.307  34.028  29.230  1.00  0.00     0.039 A 
ATOM     32  C   UNL A   1      34.124  33.172  30.321  1.00  0.00     0.014 A 
ATOM     33  C   UNL A   1      35.598  34.419  28.861  1.00  0.00     0.014 A 
ATOM     34  C   UNL A   1      35.233  32.670  31.009  1.00  0.00     0.010 A 
ATOM     35  C   UNL A   1      36.705  33.878  29.515  1.00  0.00     0.010 A 
ATOM     36  C   UNL A   1      36.533  32.998  30.595  1.00  0.00    -0.014 A 
BRANCH  36  37
ATOM     37  C   UNL A   1      37.726  32.437  31.280  1.00  0.00     0.031 A 
ATOM     38  C   UNL A   1      38.481  31.291  30.664  1.00  0.00     0.074 A 
ATOM     39  C   UNL A   1      38.096  32.922  32.481  1.00  0.00     0.049 A 
ATOM     40  N   UNL A   1      39.461  30.583  31.164  1.00  0.00    -0.248 NA
ATOM     41  C   UNL A   1      38.061  30.871  29.318  1.00  0.00     0.031 C 
ATOM     42  C   UNL A   1      37.439  34.024  33.185  1.00  0.00     0.029 A 
ATOM     43  N   UNL A   1      39.110  32.546  33.325  1.00  0.00    -0.354 N 
ATOM     44  C   UNL A   1      39.764  29.623  30.205  1.00  0.00     0.074 A 
ATOM     45  C   UNL A   1      38.839  29.819  29.108  1.00  0.00     0.031 C 
ATOM     46  C   UNL A   1      38.081  34.249  34.344  1.00  0.00     0.029 A 
ATOM     47  C   UNL A   1      39.162  33.280  34.487  1.00  0.00     0.049 A 
ATOM     48  H   UNL A   1      39.742  31.819  33.119  1.00  0.00     0.167 HD
ATOM     49  C   UNL A   1      40.732  28.675  30.232  1.00  0.00     0.034 A 
ATOM     50  C   UNL A   1      39.977  33.174  35.555  1.00  0.00     0.034 A 
ATOM     51  C   UNL A   1      41.665  28.503  31.318  1.00  0.00     0.049 A 
ATOM     52  C   UNL A   1      41.033  32.103  35.571  1.00  0.00     0.074 A 
ATOM     53  C   UNL A   1      42.705  27.596  31.427  1.00  0.00     0.029 A 
ATOM     54  N   UNL A   1      41.675  29.260  32.482  1.00  0.00    -0.354 N 
ATOM     55  N   UNL A   1      41.290  31.189  34.665  1.00  0.00    -0.248 NA
ATOM     56  C   UNL A   1      41.902  32.046  36.753  1.00  0.00     0.031 C 
ATOM     57  C   UNL A   1      43.313  27.772  32.674  1.00  0.00     0.029 A 
ATOM     58  C   UNL A   1      42.691  28.827  33.321  1.00  0.00     0.049 A 
ATOM     59  H   UNL A   1      41.052  29.995  32.683  1.00  0.00     0.167 HD
ATOM     60  C   UNL A   1      42.363  30.457  35.163  1.00  0.00     0.074 A 
ATOM     61  C   UNL A   1      42.708  31.039  36.445  1.00  0.00     0.031 C 
ATOM     62  C   UNL A   1      43.008  29.403  34.604  1.00  0.00     0.034 A 
BRANCH  49  63
ATOM     63  C   UNL A   1      40.814  27.732  29.061  1.00  0.00     0.023 A 
ATOM     64  C   UNL A   1      41.735  27.931  28.019  1.00  0.00     0.031 A 
ATOM     65  C   UNL A   1      39.961  26.616  28.988  1.00  0.00     0.131 A 
ATOM     66  C   UNL A   1      41.747  27.057  26.922  1.00  0.00     0.055 A 
ATOM     67  C   UNL A   1      40.022  25.713  27.925  1.00  0.00     0.041 A 
ATOM     68  F   UNL A   1      39.051  26.388  29.948  1.00  0.00    -0.206 F 
ATOM     69  C   UNL A   1      40.914  25.937  26.878  1.00  0.00     0.022 A 
BRANCH  66  70
ATOM     70  S   UNL A   1      42.811  27.451  25.507  1.00  0.00     0.124 S 
ATOM     71  O   UNL A   1      44.074  27.762  26.169  1.00  0.00    -0.237 OA
ATOM     72  O   UNL A   1      42.782  26.215  24.733  1.00  0.00    -0.237 OA
ATOM     73  O   UNL A   1      42.142  28.591  24.883  1.00  0.00    -0.744 OA
ENDBRANCH  66  70
ENDBRANCH  49  63
BRANCH  50  74
ATOM     74  C   UNL A   1      39.811  34.100  36.706  1.00  0.00     0.023 A 
ATOM     75  C   UNL A   1      39.265  33.651  37.917  1.00  0.00     0.031 A 
ATOM     76  C   UNL A   1      40.207  35.446  36.612  1.00  0.00     0.131 A 
ATOM     77  C   UNL A   1      39.109  34.546  38.986  1.00  0.00     0.055 A 
ATOM     78  C   UNL A   1      40.081  36.325  37.689  1.00  0.00     0.041 A 
ATOM     79  F   UNL A   1      40.747  35.916  35.478  1.00  0.00    -0.206 F 
ATOM     80  C   UNL A   1      39.523  35.877  38.884  1.00  0.00     0.022 A 
BRANCH  77  81
ATOM     81  S   UNL A   1      38.340  33.952  40.516  1.00  0.00     0.124 S 
ATOM     82  O   UNL A   1      39.357  33.037  41.023  1.00  0.00    -0.237 OA
ATOM     83  O   UNL A   1      38.156  35.189  41.268  1.00  0.00    -0.237 OA
ATOM     84  O   UNL A   1      37.106  33.320  40.052  1.00  0.00    -0.744 OA
ENDBRANCH  77  81
ENDBRANCH  50  74
BRANCH  62  85
ATOM     85  C   UNL A   1      44.171  28.828  35.366  1.00  0.00     0.023 A 
ATOM     86  C   UNL A   1      44.002  27.770  36.273  1.00  0.00     0.031 A 
ATOM     87  C   UNL A   1      45.468  29.329  35.155  1.00  0.00     0.131 A 
ATOM     88  C   UNL A   1      45.112  27.261  36.963  1.00  0.00     0.055 A 
ATOM     89  C   UNL A   1      46.575  28.792  35.814  1.00  0.00     0.041 A 
ATOM     90  F   UNL A   1      45.678  30.338  34.296  1.00  0.00    -0.206 F 
ATOM     91  C   UNL A   1      46.399  27.756  36.728  1.00  0.00     0.022 A 
BRANCH  88  92
ATOM     92  S   UNL A   1      44.854  25.960  38.199  1.00  0.00     0.124 S 
ATOM     93  O   UNL A   1      46.222  25.649  38.600  1.00  0.00    -0.237 OA
ATOM     94  O   UNL A   1      44.034  26.634  39.202  1.00  0.00    -0.237 OA
ATOM     95  O   UNL A   1      44.171  24.907  37.451  1.00  0.00    -0.744 OA
ENDBRANCH  88  92
ENDBRANCH  62  85
ENDBRANCH  36  37
ENDBRANCH  28  31
ENDBRANCH  26  27
ENDBRANCH  25  26
ENDBRANCH   1  25
TORSDOF 17
ENDMDL
