MODEL 1
REMARK VINA RESULT:     -11.8      0.000      0.000
REMARK SMILES COCCn1cc(NC(=O)N[C@H]2C=C[C@H](C(=O)NCCCNC(=O)c3ccc(-c4c5nc(c(-c6cc(S(=O)(=O)[O-])ccc6F)c6ccc([nH]6)c(-c6cc(S(=O)(=O)[O-])ccc6F)c6nc(c(-c7cc(S(=O)(=O)[O-])ccc7F)c7ccc4[nH]7)C=C6)C=C5)cc3)C2)cn1
REMARK SMILES IDX 19 1 18 2 16 3 17 4 15 6 12 7 13 8 88 9 14 10 11 11 8 12
REMARK SMILES IDX 9 13 10 15 7 17 5 18 6 19 90 20 89 21 4 22 3 23 2 24 1 25
REMARK SMILES IDX 20 26 21 27 22 28 23 29 24 31 25 32 26 33 87 34 27 35 86 36
REMARK SMILES IDX 28 37 29 38 30 39 80 40 31 41 85 42 79 43 81 44 32 45 84 46
REMARK SMILES IDX 78 47 77 48 33 50 65 51 45 52 64 53 46 54 49 55 63 56 82 57
REMARK SMILES IDX 47 58 48 59 62 61 83 62 50 63 34 64 35 65 43 66 36 67 42 68
REMARK SMILES IDX 44 69 41 70 37 71 38 72 39 73 40 74 66 75 67 76 75 77 68 78
REMARK SMILES IDX 74 79 76 80 73 81 69 82 70 83 71 84 72 85 51 86 52 87 60 88
REMARK SMILES IDX 53 89 59 90 61 91 58 92 54 93 55 94 56 95 57 96
REMARK H PARENT 18 5 8 14 11 16 22 30 81 49 49 60
REMARK Flexibility Score: inf
ROOT
ATOM      1  C   UNL A   1      33.474  28.891  27.312  1.00  0.00     0.117 C 
ENDROOT
BRANCH   1   2
ATOM      2  N   UNL A   1      33.747  28.361  25.990  1.00  0.00    -0.356 N 
ATOM      3  C   UNL A   1      32.964  27.618  25.165  1.00  0.00     0.227 C 
ATOM      4  O   UNL A   1      33.537  26.973  24.279  1.00  0.00    -0.274 OA
ATOM      5  H   UNL A   1      34.641  28.573  25.635  1.00  0.00     0.163 HD
BRANCH   3   6
ATOM      6  C   UNL A   1      31.422  27.599  25.227  1.00  0.00     0.103 C 
ATOM      7  C   UNL A   1      30.907  25.285  25.733  1.00  0.00     0.107 C 
ATOM      8  C   UNL A   1      30.333  25.692  24.403  1.00  0.00    -0.006 C 
ATOM      9  C   UNL A   1      31.031  26.668  26.383  1.00  0.00     0.047 C 
ATOM     10  C   UNL A   1      30.613  26.976  24.132  1.00  0.00    -0.016 C 
BRANCH   7  11
ATOM     11  N   UNL A   1      30.009  24.345  26.370  1.00  0.00    -0.332 N 
ATOM     12  N   UNL A   1      31.455  22.576  26.967  1.00  0.00    -0.305 N 
ATOM     13  C   UNL A   1      30.231  23.157  26.982  1.00  0.00     0.319 C 
ATOM     14  H   UNL A   1      31.753  22.169  27.812  1.00  0.00     0.171 HD
ATOM     15  O   UNL A   1      29.327  22.681  27.671  1.00  0.00    -0.248 OA
ATOM     16  H   UNL A   1      29.063  24.618  26.354  1.00  0.00     0.165 HD
BRANCH  12  17
ATOM     17  C   UNL A   1      32.330  22.490  25.908  1.00  0.00     0.081 A 
ATOM     18  N   UNL A   1      34.027  22.939  24.606  1.00  0.00    -0.268 N 
ATOM     19  C   UNL A   1      33.620  22.967  25.920  1.00  0.00     0.135 A 
ATOM     20  N   UNL A   1      33.212  22.194  23.836  1.00  0.00    -0.179 NA
ATOM     21  C   UNL A   1      32.154  21.969  24.614  1.00  0.00     0.161 A 
BRANCH  18  22
ATOM     22  C   UNL A   1      35.083  23.764  24.038  1.00  0.00     0.172 C 
BRANCH  22  23
ATOM     23  C   UNL A   1      36.476  23.145  23.937  1.00  0.00     0.183 C 
BRANCH  23  24
ATOM     24  O   UNL A   1      36.878  22.398  25.090  1.00  0.00    -0.383 OA
ATOM     25  C   UNL A   1      37.175  21.035  24.824  1.00  0.00     0.194 C 
ENDBRANCH  23  24
ENDBRANCH  22  23
ENDBRANCH  18  22
ENDBRANCH  12  17
ENDBRANCH   7  11
ENDBRANCH   3   6
ENDBRANCH   1   2
BRANCH   1  26
ATOM     26  C   UNL A   1      33.105  30.375  27.236  1.00  0.00     0.042 C 
BRANCH  26  27
ATOM     27  C   UNL A   1      34.337  31.243  27.434  1.00  0.00     0.118 C 
BRANCH  27  28
ATOM     28  N   UNL A   1      34.282  31.948  28.713  1.00  0.00    -0.352 N 
ATOM     29  C   UNL A   1      35.079  31.779  29.826  1.00  0.00     0.251 C 
ATOM     30  H   UNL A   1      33.583  32.636  28.790  1.00  0.00     0.163 HD
ATOM     31  O   UNL A   1      34.706  32.186  30.912  1.00  0.00    -0.269 OA
BRANCH  29  32
ATOM     32  C   UNL A   1      36.368  31.078  29.675  1.00  0.00     0.039 A 
ATOM     33  C   UNL A   1      37.556  31.807  29.590  1.00  0.00     0.014 A 
ATOM     34  C   UNL A   1      36.381  29.685  29.647  1.00  0.00     0.014 A 
ATOM     35  C   UNL A   1      38.766  31.118  29.565  1.00  0.00     0.010 A 
ATOM     36  C   UNL A   1      37.576  29.012  29.750  1.00  0.00     0.010 A 
ATOM     37  C   UNL A   1      38.774  29.717  29.674  1.00  0.00    -0.014 A 
BRANCH  37  38
ATOM     38  C   UNL A   1      40.038  29.004  29.853  1.00  0.00     0.031 A 
ATOM     39  C   UNL A   1      40.404  28.728  31.269  1.00  0.00     0.074 A 
ATOM     40  C   UNL A   1      40.731  28.430  28.847  1.00  0.00     0.049 A 
ATOM     41  N   UNL A   1      41.394  29.224  31.933  1.00  0.00    -0.248 NA
ATOM     42  C   UNL A   1      39.488  27.919  32.089  1.00  0.00     0.031 C 
ATOM     43  C   UNL A   1      40.368  28.350  27.430  1.00  0.00     0.029 A 
ATOM     44  N   UNL A   1      41.860  27.669  28.910  1.00  0.00    -0.354 N 
ATOM     45  C   UNL A   1      41.376  28.600  33.177  1.00  0.00     0.074 A 
ATOM     46  C   UNL A   1      40.082  27.982  33.284  1.00  0.00     0.031 C 
ATOM     47  C   UNL A   1      41.102  27.389  26.830  1.00  0.00     0.029 A 
ATOM     48  C   UNL A   1      42.095  26.903  27.772  1.00  0.00     0.049 A 
ATOM     49  H   UNL A   1      42.458  27.663  29.692  1.00  0.00     0.167 HD
ATOM     50  C   UNL A   1      42.519  28.449  33.904  1.00  0.00     0.034 A 
ATOM     51  C   UNL A   1      43.011  25.910  27.620  1.00  0.00     0.034 A 
ATOM     52  C   UNL A   1      43.569  29.314  33.407  1.00  0.00     0.049 A 
ATOM     53  C   UNL A   1      44.079  26.162  28.621  1.00  0.00     0.074 A 
ATOM     54  C   UNL A   1      43.664  30.675  33.173  1.00  0.00     0.029 A 
ATOM     55  N   UNL A   1      44.597  28.752  32.681  1.00  0.00    -0.354 N 
ATOM     56  N   UNL A   1      44.849  27.217  28.591  1.00  0.00    -0.248 NA
ATOM     57  C   UNL A   1      43.973  25.516  29.920  1.00  0.00     0.031 C 
ATOM     58  C   UNL A   1      44.352  30.781  31.928  1.00  0.00     0.029 A 
ATOM     59  C   UNL A   1      44.728  29.496  31.532  1.00  0.00     0.049 A 
ATOM     60  H   UNL A   1      45.135  27.969  32.936  1.00  0.00     0.167 HD
ATOM     61  C   UNL A   1      44.943  27.628  29.912  1.00  0.00     0.074 A 
ATOM     62  C   UNL A   1      44.481  26.481  30.694  1.00  0.00     0.031 C 
ATOM     63  C   UNL A   1      45.108  28.944  30.243  1.00  0.00     0.034 A 
BRANCH  50  64
ATOM     64  C   UNL A   1      42.818  27.277  34.817  1.00  0.00     0.023 A 
ATOM     65  C   UNL A   1      43.639  26.254  34.303  1.00  0.00     0.031 A 
ATOM     66  C   UNL A   1      42.129  26.965  36.011  1.00  0.00     0.131 A 
ATOM     67  C   UNL A   1      43.654  24.976  34.886  1.00  0.00     0.055 A 
ATOM     68  C   UNL A   1      42.208  25.713  36.630  1.00  0.00     0.041 A 
ATOM     69  F   UNL A   1      41.271  27.806  36.596  1.00  0.00    -0.206 F 
ATOM     70  C   UNL A   1      42.944  24.697  36.049  1.00  0.00     0.022 A 
BRANCH  67  71
ATOM     71  S   UNL A   1      44.459  23.631  33.977  1.00  0.00     0.124 S 
ATOM     72  O   UNL A   1      45.758  24.223  33.673  1.00  0.00    -0.237 OA
ATOM     73  O   UNL A   1      44.455  22.557  34.965  1.00  0.00    -0.237 OA
ATOM     74  O   UNL A   1      43.581  23.426  32.827  1.00  0.00    -0.744 OA
ENDBRANCH  67  71
ENDBRANCH  50  64
BRANCH  51  75
ATOM     75  C   UNL A   1      42.848  24.643  26.853  1.00  0.00     0.023 A 
ATOM     76  C   UNL A   1      43.859  24.115  26.022  1.00  0.00     0.031 A 
ATOM     77  C   UNL A   1      41.745  23.796  27.115  1.00  0.00     0.131 A 
ATOM     78  C   UNL A   1      43.739  22.806  25.493  1.00  0.00     0.055 A 
ATOM     79  C   UNL A   1      41.627  22.511  26.582  1.00  0.00     0.041 A 
ATOM     80  F   UNL A   1      40.777  24.154  27.973  1.00  0.00    -0.206 F 
ATOM     81  C   UNL A   1      42.630  22.005  25.775  1.00  0.00     0.022 A 
BRANCH  78  82
ATOM     82  S   UNL A   1      45.089  22.075  24.511  1.00  0.00     0.124 S 
ATOM     83  O   UNL A   1      46.097  21.797  25.527  1.00  0.00    -0.237 OA
ATOM     84  O   UNL A   1      44.445  20.917  23.900  1.00  0.00    -0.237 OA
ATOM     85  O   UNL A   1      45.441  23.141  23.570  1.00  0.00    -0.744 OA
ENDBRANCH  78  82
ENDBRANCH  51  75
BRANCH  63  86
ATOM     86  C   UNL A   1      45.484  29.940  29.159  1.00  0.00     0.023 A 
ATOM     87  C   UNL A   1      46.806  30.237  28.752  1.00  0.00     0.031 A 
ATOM     88  C   UNL A   1      44.435  30.513  28.415  1.00  0.00     0.131 A 
ATOM     89  C   UNL A   1      47.033  31.087  27.648  1.00  0.00     0.055 A 
ATOM     90  C   UNL A   1      44.663  31.331  27.309  1.00  0.00     0.041 A 
ATOM     91  F   UNL A   1      43.155  30.253  28.730  1.00  0.00    -0.206 F 
ATOM     92  C   UNL A   1      45.965  31.626  26.925  1.00  0.00     0.022 A 
BRANCH  89  93
ATOM     93  S   UNL A   1      48.728  31.524  27.140  1.00  0.00     0.124 S 
ATOM     94  O   UNL A   1      49.355  31.964  28.381  1.00  0.00    -0.237 OA
ATOM     95  O   UNL A   1      49.225  30.271  26.580  1.00  0.00    -0.237 OA
ATOM     96  O   UNL A   1      48.521  32.588  26.154  1.00  0.00    -0.744 OA
ENDBRANCH  89  93
ENDBRANCH  63  86
ENDBRANCH  37  38
ENDBRANCH  29  32
ENDBRANCH  27  28
ENDBRANCH  26  27
ENDBRANCH   1  26
TORSDOF 18
ENDMDL
MODEL 2
REMARK VINA RESULT:     -11.7      3.651      9.367
REMARK SMILES COCCn1cc(NC(=O)N[C@H]2C=C[C@H](C(=O)NCCCNC(=O)c3ccc(-c4c5nc(c(-c6cc(S(=O)(=O)[O-])ccc6F)c6ccc([nH]6)c(-c6cc(S(=O)(=O)[O-])ccc6F)c6nc(c(-c7cc(S(=O)(=O)[O-])ccc7F)c7ccc4[nH]7)C=C6)C=C5)cc3)C2)cn1
REMARK SMILES IDX 19 1 18 2 16 3 17 4 15 6 12 7 13 8 88 9 14 10 11 11 8 12
REMARK SMILES IDX 9 13 10 15 7 17 5 18 6 19 90 20 89 21 4 22 3 23 2 24 1 25
REMARK SMILES IDX 20 26 21 27 22 28 23 29 24 31 25 32 26 33 87 34 27 35 86 36
REMARK SMILES IDX 28 37 29 38 30 39 80 40 31 41 85 42 79 43 81 44 32 45 84 46
REMARK SMILES IDX 78 47 77 48 33 50 65 51 45 52 64 53 46 54 49 55 63 56 82 57
REMARK SMILES IDX 47 58 48 59 62 61 83 62 50 63 34 64 35 65 43 66 36 67 42 68
REMARK SMILES IDX 44 69 41 70 37 71 38 72 39 73 40 74 66 75 67 76 75 77 68 78
REMARK SMILES IDX 74 79 76 80 73 81 69 82 70 83 71 84 72 85 51 86 52 87 60 88
REMARK SMILES IDX 53 89 59 90 61 91 58 92 54 93 55 94 56 95 57 96
REMARK H PARENT 18 5 8 14 11 16 22 30 81 49 49 60
REMARK Flexibility Score: inf
ROOT
ATOM      1  C   UNL A   1      36.128  21.946  25.754  1.00  0.00     0.117 C 
ENDROOT
BRANCH   1   2
ATOM      2  N   UNL A   1      35.083  22.804  26.280  1.00  0.00    -0.356 N 
ATOM      3  C   UNL A   1      33.912  23.203  25.720  1.00  0.00     0.227 C 
ATOM      4  O   UNL A   1      33.383  24.217  26.188  1.00  0.00    -0.274 OA
ATOM      5  H   UNL A   1      35.250  23.152  27.186  1.00  0.00     0.163 HD
BRANCH   3   6
ATOM      6  C   UNL A   1      33.184  22.427  24.601  1.00  0.00     0.103 C 
ATOM      7  C   UNL A   1      32.835  24.105  22.886  1.00  0.00     0.107 C 
ATOM      8  C   UNL A   1      31.525  23.571  23.399  1.00  0.00    -0.006 C 
ATOM      9  C   UNL A   1      33.747  22.931  23.265  1.00  0.00     0.047 C 
ATOM     10  C   UNL A   1      31.725  22.636  24.341  1.00  0.00    -0.016 C 
BRANCH   7  11
ATOM     11  N   UNL A   1      32.707  24.401  21.475  1.00  0.00    -0.332 N 
ATOM     12  N   UNL A   1      32.919  26.752  21.421  1.00  0.00    -0.305 N 
ATOM     13  C   UNL A   1      32.799  25.562  20.784  1.00  0.00     0.319 C 
ATOM     14  H   UNL A   1      33.561  27.389  21.033  1.00  0.00     0.171 HD
ATOM     15  O   UNL A   1      32.910  25.501  19.558  1.00  0.00    -0.248 OA
ATOM     16  H   UNL A   1      32.518  23.614  20.915  1.00  0.00     0.165 HD
BRANCH  12  17
ATOM     17  C   UNL A   1      32.249  27.172  22.547  1.00  0.00     0.081 A 
ATOM     18  N   UNL A   1      31.885  27.755  24.622  1.00  0.00    -0.268 N 
ATOM     19  C   UNL A   1      32.845  27.763  23.636  1.00  0.00     0.135 A 
ATOM     20  N   UNL A   1      30.657  27.497  24.135  1.00  0.00    -0.179 NA
ATOM     21  C   UNL A   1      30.887  27.089  22.887  1.00  0.00     0.161 A 
BRANCH  18  22
ATOM     22  C   UNL A   1      32.152  27.810  26.052  1.00  0.00     0.172 C 
BRANCH  22  23
ATOM     23  C   UNL A   1      33.607  27.671  26.497  1.00  0.00     0.183 C 
BRANCH  23  24
ATOM     24  O   UNL A   1      34.051  28.688  27.399  1.00  0.00    -0.383 OA
ATOM     25  C   UNL A   1      33.574  29.989  27.088  1.00  0.00     0.194 C 
ENDBRANCH  23  24
ENDBRANCH  22  23
ENDBRANCH  18  22
ENDBRANCH  12  17
ENDBRANCH   7  11
ENDBRANCH   3   6
ENDBRANCH   1   2
BRANCH   1  26
ATOM     26  C   UNL A   1      37.202  22.773  25.043  1.00  0.00     0.042 C 
BRANCH  26  27
ATOM     27  C   UNL A   1      38.080  23.492  26.055  1.00  0.00     0.118 C 
BRANCH  27  28
ATOM     28  N   UNL A   1      39.305  22.738  26.317  1.00  0.00    -0.352 N 
ATOM     29  C   UNL A   1      40.496  23.187  26.849  1.00  0.00     0.251 C 
ATOM     30  H   UNL A   1      39.275  21.783  26.082  1.00  0.00     0.163 HD
ATOM     31  O   UNL A   1      41.516  22.540  26.692  1.00  0.00    -0.269 OA
BRANCH  29  32
ATOM     32  C   UNL A   1      40.508  24.468  27.580  1.00  0.00     0.039 A 
ATOM     33  C   UNL A   1      41.665  24.888  28.238  1.00  0.00     0.014 A 
ATOM     34  C   UNL A   1      39.360  25.257  27.579  1.00  0.00     0.014 A 
ATOM     35  C   UNL A   1      41.684  26.152  28.822  1.00  0.00     0.010 A 
ATOM     36  C   UNL A   1      39.422  26.551  28.044  1.00  0.00     0.010 A 
ATOM     37  C   UNL A   1      40.567  26.995  28.698  1.00  0.00    -0.014 A 
BRANCH  37  38
ATOM     38  C   UNL A   1      40.651  28.391  29.127  1.00  0.00     0.031 A 
ATOM     39  C   UNL A   1      41.747  29.173  28.495  1.00  0.00     0.074 A 
ATOM     40  C   UNL A   1      39.703  29.015  29.858  1.00  0.00     0.049 A 
ATOM     41  N   UNL A   1      42.794  29.662  29.071  1.00  0.00    -0.248 NA
ATOM     42  C   UNL A   1      41.760  29.312  27.030  1.00  0.00     0.031 C 
ATOM     43  C   UNL A   1      38.419  28.481  30.318  1.00  0.00     0.029 A 
ATOM     44  N   UNL A   1      39.634  30.323  30.232  1.00  0.00    -0.354 N 
ATOM     45  C   UNL A   1      43.472  30.383  28.093  1.00  0.00     0.074 A 
ATOM     46  C   UNL A   1      42.911  29.961  26.839  1.00  0.00     0.031 C 
ATOM     47  C   UNL A   1      37.607  29.499  30.672  1.00  0.00     0.029 A 
ATOM     48  C   UNL A   1      38.364  30.739  30.621  1.00  0.00     0.049 A 
ATOM     49  H   UNL A   1      40.415  30.922  30.228  1.00  0.00     0.167 HD
ATOM     50  C   UNL A   1      44.267  31.440  28.425  1.00  0.00     0.034 A 
ATOM     51  C   UNL A   1      37.944  32.011  30.848  1.00  0.00     0.034 A 
ATOM     52  C   UNL A   1      44.581  31.431  29.839  1.00  0.00     0.049 A 
ATOM     53  C   UNL A   1      39.156  32.804  31.180  1.00  0.00     0.074 A 
ATOM     54  C   UNL A   1      45.131  30.494  30.697  1.00  0.00     0.029 A 
ATOM     55  N   UNL A   1      43.950  32.342  30.659  1.00  0.00    -0.354 N 
ATOM     56  N   UNL A   1      39.879  32.587  32.246  1.00  0.00    -0.248 NA
ATOM     57  C   UNL A   1      39.845  33.495  30.101  1.00  0.00     0.031 C 
ATOM     58  C   UNL A   1      44.346  30.586  31.884  1.00  0.00     0.029 A 
ATOM     59  C   UNL A   1      43.440  31.637  31.723  1.00  0.00     0.049 A 
ATOM     60  H   UNL A   1      43.878  33.312  30.511  1.00  0.00     0.167 HD
ATOM     61  C   UNL A   1      41.193  32.686  31.814  1.00  0.00     0.074 A 
ATOM     62  C   UNL A   1      41.109  33.357  30.517  1.00  0.00     0.031 C 
ATOM     63  C   UNL A   1      42.196  31.964  32.398  1.00  0.00     0.034 A 
BRANCH  50  64
ATOM     64  C   UNL A   1      44.466  32.677  27.573  1.00  0.00     0.023 A 
ATOM     65  C   UNL A   1      43.804  33.852  27.979  1.00  0.00     0.031 A 
ATOM     66  C   UNL A   1      45.004  32.701  26.266  1.00  0.00     0.131 A 
ATOM     67  C   UNL A   1      43.593  34.913  27.082  1.00  0.00     0.055 A 
ATOM     68  C   UNL A   1      44.857  33.791  25.402  1.00  0.00     0.041 A 
ATOM     69  F   UNL A   1      45.614  31.649  25.711  1.00  0.00    -0.206 F 
ATOM     70  C   UNL A   1      44.117  34.892  25.794  1.00  0.00     0.022 A 
BRANCH  67  71
ATOM     71  S   UNL A   1      42.447  36.229  27.569  1.00  0.00     0.124 S 
ATOM     72  O   UNL A   1      41.167  35.530  27.526  1.00  0.00    -0.237 OA
ATOM     73  O   UNL A   1      42.944  36.584  28.894  1.00  0.00    -0.237 OA
ATOM     74  O   UNL A   1      42.640  37.245  26.537  1.00  0.00    -0.744 OA
ENDBRANCH  67  71
ENDBRANCH  50  64
BRANCH  51  75
ATOM     75  C   UNL A   1      36.613  32.595  30.520  1.00  0.00     0.023 A 
ATOM     76  C   UNL A   1      35.912  33.448  31.399  1.00  0.00     0.031 A 
ATOM     77  C   UNL A   1      36.104  32.494  29.203  1.00  0.00     0.131 A 
ATOM     78  C   UNL A   1      34.763  34.146  30.953  1.00  0.00     0.055 A 
ATOM     79  C   UNL A   1      34.964  33.176  28.772  1.00  0.00     0.041 A 
ATOM     80  F   UNL A   1      36.748  31.794  28.256  1.00  0.00    -0.206 F 
ATOM     81  C   UNL A   1      34.293  34.014  29.644  1.00  0.00     0.022 A 
BRANCH  78  82
ATOM     82  S   UNL A   1      33.917  35.334  32.046  1.00  0.00     0.124 S 
ATOM     83  O   UNL A   1      35.020  35.871  32.834  1.00  0.00    -0.237 OA
ATOM     84  O   UNL A   1      33.292  36.248  31.096  1.00  0.00    -0.237 OA
ATOM     85  O   UNL A   1      32.976  34.497  32.793  1.00  0.00    -0.744 OA
ENDBRANCH  78  82
ENDBRANCH  51  75
BRANCH  63  86
ATOM     86  C   UNL A   1      41.933  31.266  33.721  1.00  0.00     0.023 A 
ATOM     87  C   UNL A   1      41.896  29.864  33.908  1.00  0.00     0.031 A 
ATOM     88  C   UNL A   1      41.850  32.073  34.872  1.00  0.00     0.131 A 
ATOM     89  C   UNL A   1      41.766  29.325  35.205  1.00  0.00     0.055 A 
ATOM     90  C   UNL A   1      41.748  31.536  36.155  1.00  0.00     0.041 A 
ATOM     91  F   UNL A   1      41.904  33.411  34.771  1.00  0.00    -0.206 F 
ATOM     92  C   UNL A   1      41.700  30.159  36.326  1.00  0.00     0.022 A 
BRANCH  89  93
ATOM     93  S   UNL A   1      41.663  27.523  35.462  1.00  0.00     0.124 S 
ATOM     94  O   UNL A   1      41.195  27.399  36.837  1.00  0.00    -0.237 OA
ATOM     95  O   UNL A   1      40.723  27.108  34.425  1.00  0.00    -0.237 OA
ATOM     96  O   UNL A   1      43.040  27.072  35.247  1.00  0.00    -0.744 OA
ENDBRANCH  89  93
ENDBRANCH  63  86
ENDBRANCH  37  38
ENDBRANCH  29  32
ENDBRANCH  27  28
ENDBRANCH  26  27
ENDBRANCH   1  26
TORSDOF 18
ENDMDL
MODEL 3
REMARK VINA RESULT:     -11.7      1.709      2.446
REMARK SMILES COCCn1cc(NC(=O)N[C@H]2C=C[C@H](C(=O)NCCCNC(=O)c3ccc(-c4c5nc(c(-c6cc(S(=O)(=O)[O-])ccc6F)c6ccc([nH]6)c(-c6cc(S(=O)(=O)[O-])ccc6F)c6nc(c(-c7cc(S(=O)(=O)[O-])ccc7F)c7ccc4[nH]7)C=C6)C=C5)cc3)C2)cn1
REMARK SMILES IDX 19 1 18 2 16 3 17 4 15 6 12 7 13 8 88 9 14 10 11 11 8 12
REMARK SMILES IDX 9 13 10 15 7 17 5 18 6 19 90 20 89 21 4 22 3 23 2 24 1 25
REMARK SMILES IDX 20 26 21 27 22 28 23 29 24 31 25 32 26 33 87 34 27 35 86 36
REMARK SMILES IDX 28 37 29 38 30 39 80 40 31 41 85 42 79 43 81 44 32 45 84 46
REMARK SMILES IDX 78 47 77 48 33 50 65 51 45 52 64 53 46 54 49 55 63 56 82 57
REMARK SMILES IDX 47 58 48 59 62 61 83 62 50 63 34 64 35 65 43 66 36 67 42 68
REMARK SMILES IDX 44 69 41 70 37 71 38 72 39 73 40 74 66 75 67 76 75 77 68 78
REMARK SMILES IDX 74 79 76 80 73 81 69 82 70 83 71 84 72 85 51 86 52 87 60 88
REMARK SMILES IDX 53 89 59 90 61 91 58 92 54 93 55 94 56 95 57 96
REMARK H PARENT 18 5 8 14 11 16 22 30 81 49 49 60
REMARK Flexibility Score: inf
ROOT
ATOM      1  C   UNL A   1      32.406  29.682  27.210  1.00  0.00     0.117 C 
ENDROOT
BRANCH   1   2
ATOM      2  N   UNL A   1      31.916  28.421  26.687  1.00  0.00    -0.356 N 
ATOM      3  C   UNL A   1      31.460  28.105  25.447  1.00  0.00     0.227 C 
ATOM      4  O   UNL A   1      30.750  27.097  25.351  1.00  0.00    -0.274 OA
ATOM      5  H   UNL A   1      31.913  27.677  27.333  1.00  0.00     0.163 HD
BRANCH   3   6
ATOM      6  C   UNL A   1      31.836  28.880  24.167  1.00  0.00     0.103 C 
ATOM      7  C   UNL A   1      32.822  27.179  22.747  1.00  0.00     0.107 C 
ATOM      8  C   UNL A   1      33.817  28.260  23.073  1.00  0.00    -0.006 C 
ATOM      9  C   UNL A   1      31.522  27.962  22.977  1.00  0.00     0.047 C 
ATOM     10  C   UNL A   1      33.263  29.203  23.851  1.00  0.00    -0.016 C 
BRANCH   7  11
ATOM     11  N   UNL A   1      33.063  26.701  21.402  1.00  0.00    -0.332 N 
ATOM     12  N   UNL A   1      32.431  24.430  21.542  1.00  0.00    -0.305 N 
ATOM     13  C   UNL A   1      32.844  25.499  20.819  1.00  0.00     0.319 C 
ATOM     14  H   UNL A   1      31.734  23.870  21.131  1.00  0.00     0.171 HD
ATOM     15  O   UNL A   1      32.897  25.432  19.589  1.00  0.00    -0.248 OA
ATOM     16  H   UNL A   1      33.461  27.372  20.802  1.00  0.00     0.165 HD
BRANCH  12  17
ATOM     17  C   UNL A   1      32.871  24.039  22.786  1.00  0.00     0.081 A 
ATOM     18  N   UNL A   1      34.090  23.072  24.322  1.00  0.00    -0.268 N 
ATOM     19  C   UNL A   1      34.156  23.638  23.069  1.00  0.00     0.135 A 
ATOM     20  N   UNL A   1      32.943  23.376  24.957  1.00  0.00    -0.179 NA
ATOM     21  C   UNL A   1      32.182  23.915  24.005  1.00  0.00     0.161 A 
BRANCH  18  22
ATOM     22  C   UNL A   1      35.029  22.094  24.850  1.00  0.00     0.172 C 
BRANCH  22  23
ATOM     23  C   UNL A   1      35.989  22.566  25.942  1.00  0.00     0.183 C 
BRANCH  23  24
ATOM     24  O   UNL A   1      37.293  22.919  25.473  1.00  0.00    -0.383 OA
ATOM     25  C   UNL A   1      38.257  21.884  25.601  1.00  0.00     0.194 C 
ENDBRANCH  23  24
ENDBRANCH  22  23
ENDBRANCH  18  22
ENDBRANCH  12  17
ENDBRANCH   7  11
ENDBRANCH   3   6
ENDBRANCH   1   2
BRANCH   1  26
ATOM     26  C   UNL A   1      33.881  29.568  27.606  1.00  0.00     0.042 C 
BRANCH  26  27
ATOM     27  C   UNL A   1      34.610  30.874  27.333  1.00  0.00     0.118 C 
BRANCH  27  28
ATOM     28  N   UNL A   1      34.580  31.746  28.506  1.00  0.00    -0.352 N 
ATOM     29  C   UNL A   1      35.400  31.727  29.615  1.00  0.00     0.251 C 
ATOM     30  H   UNL A   1      33.882  32.440  28.503  1.00  0.00     0.163 HD
ATOM     31  O   UNL A   1      35.048  32.278  30.643  1.00  0.00    -0.269 OA
BRANCH  29  32
ATOM     32  C   UNL A   1      36.686  31.010  29.534  1.00  0.00     0.039 A 
ATOM     33  C   UNL A   1      37.886  31.724  29.516  1.00  0.00     0.014 A 
ATOM     34  C   UNL A   1      36.683  29.617  29.503  1.00  0.00     0.014 A 
ATOM     35  C   UNL A   1      39.087  31.019  29.556  1.00  0.00     0.010 A 
ATOM     36  C   UNL A   1      37.862  28.929  29.671  1.00  0.00     0.010 A 
ATOM     37  C   UNL A   1      39.071  29.618  29.662  1.00  0.00    -0.014 A 
BRANCH  37  38
ATOM     38  C   UNL A   1      40.314  28.888  29.910  1.00  0.00     0.031 A 
ATOM     39  C   UNL A   1      40.597  28.605  31.342  1.00  0.00     0.074 A 
ATOM     40  C   UNL A   1      41.054  28.308  28.942  1.00  0.00     0.049 A 
ATOM     41  N   UNL A   1      41.555  29.086  32.062  1.00  0.00    -0.248 NA
ATOM     42  C   UNL A   1      39.627  27.806  32.108  1.00  0.00     0.031 C 
ATOM     43  C   UNL A   1      40.770  28.236  27.506  1.00  0.00     0.029 A 
ATOM     44  N   UNL A   1      42.168  27.533  29.065  1.00  0.00    -0.354 N 
ATOM     45  C   UNL A   1      41.459  28.461  33.301  1.00  0.00     0.074 A 
ATOM     46  C   UNL A   1      40.154  27.858  33.334  1.00  0.00     0.031 C 
ATOM     47  C   UNL A   1      41.524  27.267  26.945  1.00  0.00     0.029 A 
ATOM     48  C   UNL A   1      42.457  26.766  27.940  1.00  0.00     0.049 A 
ATOM     49  H   UNL A   1      42.722  27.517  29.879  1.00  0.00     0.167 HD
ATOM     50  C   UNL A   1      42.558  28.293  34.090  1.00  0.00     0.034 A 
ATOM     51  C   UNL A   1      43.367  25.762  27.836  1.00  0.00     0.034 A 
ATOM     52  C   UNL A   1      43.646  29.146  33.655  1.00  0.00     0.049 A 
ATOM     53  C   UNL A   1      44.381  25.998  28.895  1.00  0.00     0.074 A 
ATOM     54  C   UNL A   1      43.770  30.506  33.430  1.00  0.00     0.029 A 
ATOM     55  N   UNL A   1      44.705  28.572  32.985  1.00  0.00    -0.354 N 
ATOM     56  N   UNL A   1      45.165  27.043  28.912  1.00  0.00    -0.248 NA
ATOM     57  C   UNL A   1      44.194  25.350  30.185  1.00  0.00     0.031 C 
ATOM     58  C   UNL A   1      44.528  30.606  32.226  1.00  0.00     0.029 A 
ATOM     59  C   UNL A   1      44.909  29.316  31.847  1.00  0.00     0.049 A 
ATOM     60  H   UNL A   1      45.218  27.782  33.268  1.00  0.00     0.167 HD
ATOM     61  C   UNL A   1      45.190  27.450  30.237  1.00  0.00     0.074 A 
ATOM     62  C   UNL A   1      44.671  26.308  30.988  1.00  0.00     0.031 C 
ATOM     63  C   UNL A   1      45.353  28.763  30.580  1.00  0.00     0.034 A 
BRANCH  50  64
ATOM     64  C   UNL A   1      42.791  27.115  35.015  1.00  0.00     0.023 A 
ATOM     65  C   UNL A   1      43.610  26.074  34.537  1.00  0.00     0.031 A 
ATOM     66  C   UNL A   1      42.045  26.820  36.178  1.00  0.00     0.131 A 
ATOM     67  C   UNL A   1      43.571  24.796  35.120  1.00  0.00     0.055 A 
ATOM     68  C   UNL A   1      42.069  25.568  36.800  1.00  0.00     0.041 A 
ATOM     69  F   UNL A   1      41.182  27.681  36.727  1.00  0.00    -0.206 F 
ATOM     70  C   UNL A   1      42.806  24.534  36.251  1.00  0.00     0.022 A 
BRANCH  67  71
ATOM     71  S   UNL A   1      44.384  23.432  34.245  1.00  0.00     0.124 S 
ATOM     72  O   UNL A   1      43.459  23.205  33.139  1.00  0.00    -0.237 OA
ATOM     73  O   UNL A   1      45.671  24.025  33.898  1.00  0.00    -0.237 OA
ATOM     74  O   UNL A   1      44.435  22.370  35.247  1.00  0.00    -0.744 OA
ENDBRANCH  67  71
ENDBRANCH  50  64
BRANCH  51  75
ATOM     75  C   UNL A   1      43.231  24.498  27.057  1.00  0.00     0.023 A 
ATOM     76  C   UNL A   1      44.163  24.099  26.076  1.00  0.00     0.031 A 
ATOM     77  C   UNL A   1      42.272  23.532  27.443  1.00  0.00     0.131 A 
ATOM     78  C   UNL A   1      44.107  22.795  25.526  1.00  0.00     0.055 A 
ATOM     79  C   UNL A   1      42.215  22.251  26.889  1.00  0.00     0.041 A 
ATOM     80  F   UNL A   1      41.404  23.767  28.440  1.00  0.00    -0.206 F 
ATOM     81  C   UNL A   1      43.141  21.873  25.933  1.00  0.00     0.022 A 
BRANCH  78  82
ATOM     82  S   UNL A   1      45.373  22.233  24.340  1.00  0.00     0.124 S 
ATOM     83  O   UNL A   1      44.571  21.560  23.325  1.00  0.00    -0.237 OA
ATOM     84  O   UNL A   1      46.010  23.484  23.942  1.00  0.00    -0.237 OA
ATOM     85  O   UNL A   1      46.221  21.348  25.142  1.00  0.00    -0.744 OA
ENDBRANCH  78  82
ENDBRANCH  51  75
BRANCH  63  86
ATOM     86  C   UNL A   1      45.801  29.756  29.521  1.00  0.00     0.023 A 
ATOM     87  C   UNL A   1      44.956  30.354  28.557  1.00  0.00     0.031 A 
ATOM     88  C   UNL A   1      47.131  30.214  29.587  1.00  0.00     0.131 A 
ATOM     89  C   UNL A   1      45.457  31.357  27.701  1.00  0.00     0.055 A 
ATOM     90  C   UNL A   1      47.616  31.224  28.757  1.00  0.00     0.041 A 
ATOM     91  F   UNL A   1      47.981  29.708  30.496  1.00  0.00    -0.206 F 
ATOM     92  C   UNL A   1      46.781  31.796  27.806  1.00  0.00     0.022 A 
BRANCH  89  93
ATOM     93  S   UNL A   1      44.400  32.103  26.416  1.00  0.00     0.124 S 
ATOM     94  O   UNL A   1      45.338  32.437  25.352  1.00  0.00    -0.237 OA
ATOM     95  O   UNL A   1      43.453  31.030  26.124  1.00  0.00    -0.237 OA
ATOM     96  O   UNL A   1      43.811  33.261  27.094  1.00  0.00    -0.744 OA
ENDBRANCH  89  93
ENDBRANCH  63  86
ENDBRANCH  37  38
ENDBRANCH  29  32
ENDBRANCH  27  28
ENDBRANCH  26  27
ENDBRANCH   1  26
TORSDOF 18
ENDMDL
