MODEL 1
REMARK VINA RESULT:     -12.6      0.000      0.000
REMARK SMILES C[C@H]1[C@H](C(=O)NCCCNC(=O)c2ccc(-c3c4nc(c(-c5cc(S(=O)(=O)[O-])ccc5F)c5ccc([nH]5)c(-c5cc(S(=O)(=O)[O-])ccc5F)c5nc(c(-c6cc(S(=O)(=O)[O-])ccc6F)c6ccc3[nH]6)C=C5)C=C4)cc2)CC[N@@H+]1[C@@H](c1ccccc1)c1ccco1
REMARK SMILES IDX 8 1 7 2 6 3 4 4 5 5 3 7 1 8 2 9 78 10 76 11 77 12 79 14
REMARK SMILES IDX 80 15 81 16 85 17 82 18 84 19 83 20 86 21 87 22 90 23 88 24
REMARK SMILES IDX 89 25 9 26 10 27 11 28 12 30 13 31 14 32 75 33 15 34 74 35
REMARK SMILES IDX 16 36 17 37 18 38 68 39 19 40 73 41 67 42 69 43 20 44 72 45
REMARK SMILES IDX 66 46 65 47 21 49 53 50 33 51 52 52 34 53 37 54 51 55 70 56
REMARK SMILES IDX 35 57 36 58 50 60 71 61 38 62 22 63 23 64 31 65 24 66 30 67
REMARK SMILES IDX 32 68 29 69 25 70 26 71 27 72 28 73 54 74 55 75 63 76 56 77
REMARK SMILES IDX 62 78 64 79 61 80 57 81 58 82 59 83 60 84 39 85 40 86 48 87
REMARK SMILES IDX 41 88 47 89 49 90 46 91 42 92 43 93 44 94 45 95
REMARK H PARENT 6 6 78 13 10 29 69 48 37 59
REMARK Flexibility Score: inf
ROOT
ATOM      1  C   UNL A   1      34.743  21.866  27.069  1.00  0.00     0.042 C 
ENDROOT
BRANCH   1   2
ATOM      2  C   UNL A   1      33.311  21.617  26.613  1.00  0.00     0.117 C 
BRANCH   2   3
ATOM      3  N   UNL A   1      32.378  22.596  27.116  1.00  0.00    -0.356 N 
ATOM      4  C   UNL A   1      31.930  23.743  26.543  1.00  0.00     0.229 C 
ATOM      5  O   UNL A   1      31.027  24.340  27.142  1.00  0.00    -0.275 OA
ATOM      6  H   UNL A   1      32.009  22.403  28.009  1.00  0.00     0.163 HD
BRANCH   4   7
ATOM      7  C   UNL A   1      32.428  24.288  25.201  1.00  0.00     0.142 C 
ATOM      8  C   UNL A   1      30.895  24.319  23.221  1.00  0.00     0.076 C 
ATOM      9  C   UNL A   1      31.480  25.169  24.360  1.00  0.00     0.194 C 
ATOM     10  N   UNL A   1      32.313  26.246  23.772  1.00  0.00    -0.319 N 
ATOM     11  C   UNL A   1      33.728  25.074  25.273  1.00  0.00     0.081 C 
ATOM     12  C   UNL A   1      33.708  25.888  23.984  1.00  0.00     0.264 C 
ATOM     13  H   UNL A   1      32.149  26.283  22.766  1.00  0.00     0.349 HD
BRANCH  10  14
ATOM     14  C   UNL A   1      31.891  27.654  24.009  1.00  0.00     0.283 C 
BRANCH  14  15
ATOM     15  C   UNL A   1      30.596  28.198  23.382  1.00  0.00     0.017 A 
ATOM     16  C   UNL A   1      30.681  29.303  22.512  1.00  0.00     0.010 A 
ATOM     17  C   UNL A   1      29.306  27.754  23.721  1.00  0.00     0.010 A 
ATOM     18  C   UNL A   1      29.539  29.861  21.933  1.00  0.00     0.001 A 
ATOM     19  C   UNL A   1      28.165  28.282  23.109  1.00  0.00     0.001 A 
ATOM     20  C   UNL A   1      28.284  29.328  22.205  1.00  0.00     0.000 A 
ENDBRANCH  14  15
BRANCH  14  21
ATOM     21  C   UNL A   1      31.976  28.060  25.467  1.00  0.00     0.165 A 
ATOM     22  C   UNL A   1      31.240  27.724  26.588  1.00  0.00     0.052 A 
ATOM     23  O   UNL A   1      33.073  28.786  25.851  1.00  0.00    -0.463 OA
ATOM     24  C   UNL A   1      31.962  28.215  27.707  1.00  0.00     0.042 A 
ATOM     25  C   UNL A   1      33.075  28.842  27.203  1.00  0.00     0.195 A 
ENDBRANCH  14  21
ENDBRANCH  10  14
ENDBRANCH   4   7
ENDBRANCH   2   3
ENDBRANCH   1   2
BRANCH   1  26
ATOM     26  C   UNL A   1      35.700  22.213  25.935  1.00  0.00     0.118 C 
BRANCH  26  27
ATOM     27  N   UNL A   1      36.692  21.175  25.663  1.00  0.00    -0.352 N 
ATOM     28  C   UNL A   1      38.065  21.168  25.670  1.00  0.00     0.251 C 
ATOM     29  H   UNL A   1      36.296  20.304  25.426  1.00  0.00     0.163 HD
ATOM     30  O   UNL A   1      38.649  20.158  25.268  1.00  0.00    -0.269 OA
BRANCH  28  31
ATOM     31  C   UNL A   1      38.859  22.339  26.101  1.00  0.00     0.039 A 
ATOM     32  C   UNL A   1      40.005  22.136  26.882  1.00  0.00     0.014 A 
ATOM     33  C   UNL A   1      38.463  23.639  25.797  1.00  0.00     0.014 A 
ATOM     34  C   UNL A   1      40.772  23.227  27.304  1.00  0.00     0.010 A 
ATOM     35  C   UNL A   1      39.290  24.712  26.110  1.00  0.00     0.010 A 
ATOM     36  C   UNL A   1      40.437  24.526  26.893  1.00  0.00    -0.014 A 
BRANCH  36  37
ATOM     37  C   UNL A   1      41.214  25.722  27.320  1.00  0.00     0.031 A 
ATOM     38  C   UNL A   1      40.546  26.766  28.181  1.00  0.00     0.074 A 
ATOM     39  C   UNL A   1      42.468  25.916  26.868  1.00  0.00     0.049 A 
ATOM     40  N   UNL A   1      40.961  27.961  28.514  1.00  0.00    -0.248 NA
ATOM     41  C   UNL A   1      39.205  26.435  28.691  1.00  0.00     0.031 C 
ATOM     42  C   UNL A   1      43.209  24.996  26.003  1.00  0.00     0.029 A 
ATOM     43  N   UNL A   1      43.336  26.962  27.059  1.00  0.00    -0.354 N 
ATOM     44  C   UNL A   1      39.922  28.533  29.242  1.00  0.00     0.074 A 
ATOM     45  C   UNL A   1      38.831  27.584  29.229  1.00  0.00     0.031 C 
ATOM     46  C   UNL A   1      44.424  25.509  25.754  1.00  0.00     0.029 A 
ATOM     47  C   UNL A   1      44.530  26.818  26.391  1.00  0.00     0.049 A 
ATOM     48  H   UNL A   1      43.123  27.742  27.620  1.00  0.00     0.167 HD
ATOM     49  C   UNL A   1      39.890  29.726  29.888  1.00  0.00     0.034 A 
ATOM     50  C   UNL A   1      45.581  27.655  26.285  1.00  0.00     0.034 A 
ATOM     51  C   UNL A   1      41.003  30.644  29.911  1.00  0.00     0.049 A 
ATOM     52  C   UNL A   1      45.523  28.983  27.000  1.00  0.00     0.074 A 
ATOM     53  C   UNL A   1      41.108  31.856  30.571  1.00  0.00     0.029 A 
ATOM     54  N   UNL A   1      42.206  30.451  29.243  1.00  0.00    -0.354 N 
ATOM     55  N   UNL A   1      44.546  29.497  27.712  1.00  0.00    -0.248 NA
ATOM     56  C   UNL A   1      46.715  29.834  26.908  1.00  0.00     0.031 C 
ATOM     57  C   UNL A   1      42.343  32.426  30.246  1.00  0.00     0.029 A 
ATOM     58  C   UNL A   1      43.048  31.533  29.454  1.00  0.00     0.049 A 
ATOM     59  H   UNL A   1      42.429  29.661  28.699  1.00  0.00     0.167 HD
ATOM     60  C   UNL A   1      45.019  30.722  28.176  1.00  0.00     0.074 A 
ATOM     61  C   UNL A   1      46.376  30.853  27.683  1.00  0.00     0.031 C 
ATOM     62  C   UNL A   1      44.393  31.654  28.941  1.00  0.00     0.034 A 
BRANCH  49  63
ATOM     63  C   UNL A   1      38.609  30.100  30.599  1.00  0.00     0.023 A 
ATOM     64  C   UNL A   1      37.582  30.808  29.949  1.00  0.00     0.031 A 
ATOM     65  C   UNL A   1      38.425  29.782  31.956  1.00  0.00     0.131 A 
ATOM     66  C   UNL A   1      36.467  31.255  30.675  1.00  0.00     0.055 A 
ATOM     67  C   UNL A   1      37.267  30.146  32.649  1.00  0.00     0.041 A 
ATOM     68  F   UNL A   1      39.376  29.126  32.641  1.00  0.00    -0.206 F 
ATOM     69  C   UNL A   1      36.288  30.904  32.014  1.00  0.00     0.022 A 
BRANCH  66  70
ATOM     70  S   UNL A   1      35.343  32.441  29.888  1.00  0.00     0.124 S 
ATOM     71  O   UNL A   1      34.400  32.714  30.970  1.00  0.00    -0.237 OA
ATOM     72  O   UNL A   1      36.239  33.534  29.529  1.00  0.00    -0.237 OA
ATOM     73  O   UNL A   1      34.789  31.692  28.762  1.00  0.00    -0.744 OA
ENDBRANCH  66  70
ENDBRANCH  49  63
BRANCH  50  74
ATOM     74  C   UNL A   1      46.768  27.278  25.464  1.00  0.00     0.023 A 
ATOM     75  C   UNL A   1      46.936  27.777  24.162  1.00  0.00     0.031 A 
ATOM     76  C   UNL A   1      47.739  26.387  25.957  1.00  0.00     0.131 A 
ATOM     77  C   UNL A   1      48.021  27.347  23.380  1.00  0.00     0.055 A 
ATOM     78  C   UNL A   1      48.847  26.007  25.197  1.00  0.00     0.041 A 
ATOM     79  F   UNL A   1      47.631  25.882  27.196  1.00  0.00    -0.206 F 
ATOM     80  C   UNL A   1      48.985  26.477  23.894  1.00  0.00     0.022 A 
BRANCH  77  81
ATOM     81  S   UNL A   1      48.105  27.872  21.646  1.00  0.00     0.124 S 
ATOM     82  O   UNL A   1      48.278  26.598  20.958  1.00  0.00    -0.237 OA
ATOM     83  O   UNL A   1      46.815  28.529  21.467  1.00  0.00    -0.237 OA
ATOM     84  O   UNL A   1      49.264  28.761  21.616  1.00  0.00    -0.744 OA
ENDBRANCH  77  81
ENDBRANCH  50  74
BRANCH  62  85
ATOM     85  C   UNL A   1      45.195  32.875  29.321  1.00  0.00     0.023 A 
ATOM     86  C   UNL A   1      45.187  34.040  28.534  1.00  0.00     0.031 A 
ATOM     87  C   UNL A   1      46.001  32.863  30.474  1.00  0.00     0.131 A 
ATOM     88  C   UNL A   1      46.024  35.115  28.868  1.00  0.00     0.055 A 
ATOM     89  C   UNL A   1      46.774  33.965  30.844  1.00  0.00     0.041 A 
ATOM     90  F   UNL A   1      46.051  31.778  31.263  1.00  0.00    -0.206 F 
ATOM     91  C   UNL A   1      46.803  35.093  30.028  1.00  0.00     0.022 A 
BRANCH  88  92
ATOM     92  S   UNL A   1      46.177  36.491  27.698  1.00  0.00     0.124 S 
ATOM     93  O   UNL A   1      47.084  37.389  28.405  1.00  0.00    -0.237 OA
ATOM     94  O   UNL A   1      46.724  35.836  26.514  1.00  0.00    -0.237 OA
ATOM     95  O   UNL A   1      44.806  36.977  27.559  1.00  0.00    -0.744 OA
ENDBRANCH  88  92
ENDBRANCH  62  85
ENDBRANCH  36  37
ENDBRANCH  28  31
ENDBRANCH  26  27
ENDBRANCH   1  26
TORSDOF 16
ENDMDL
MODEL 2
REMARK VINA RESULT:     -12.3      1.383      1.684
REMARK SMILES C[C@H]1[C@H](C(=O)NCCCNC(=O)c2ccc(-c3c4nc(c(-c5cc(S(=O)(=O)[O-])ccc5F)c5ccc([nH]5)c(-c5cc(S(=O)(=O)[O-])ccc5F)c5nc(c(-c6cc(S(=O)(=O)[O-])ccc6F)c6ccc3[nH]6)C=C5)C=C4)cc2)CC[N@@H+]1[C@@H](c1ccccc1)c1ccco1
REMARK SMILES IDX 8 1 7 2 6 3 4 4 5 5 3 7 1 8 2 9 78 10 76 11 77 12 79 14
REMARK SMILES IDX 80 15 81 16 85 17 82 18 84 19 83 20 86 21 87 22 90 23 88 24
REMARK SMILES IDX 89 25 9 26 10 27 11 28 12 30 13 31 14 32 75 33 15 34 74 35
REMARK SMILES IDX 16 36 17 37 18 38 68 39 19 40 73 41 67 42 69 43 20 44 72 45
REMARK SMILES IDX 66 46 65 47 21 49 53 50 33 51 52 52 34 53 37 54 51 55 70 56
REMARK SMILES IDX 35 57 36 58 50 60 71 61 38 62 22 63 23 64 31 65 24 66 30 67
REMARK SMILES IDX 32 68 29 69 25 70 26 71 27 72 28 73 54 74 55 75 63 76 56 77
REMARK SMILES IDX 62 78 64 79 61 80 57 81 58 82 59 83 60 84 39 85 40 86 48 87
REMARK SMILES IDX 41 88 47 89 49 90 46 91 42 92 43 93 44 94 45 95
REMARK H PARENT 6 6 78 13 10 29 69 48 37 59
REMARK Flexibility Score: inf
ROOT
ATOM      1  C   UNL A   1      34.713  21.963  27.138  1.00  0.00     0.042 C 
ENDROOT
BRANCH   1   2
ATOM      2  C   UNL A   1      33.308  21.818  26.569  1.00  0.00     0.117 C 
BRANCH   2   3
ATOM      3  N   UNL A   1      32.377  22.781  27.108  1.00  0.00    -0.356 N 
ATOM      4  C   UNL A   1      31.878  23.913  26.548  1.00  0.00     0.229 C 
ATOM      5  O   UNL A   1      30.990  24.495  27.184  1.00  0.00    -0.275 OA
ATOM      6  H   UNL A   1      32.055  22.586  28.018  1.00  0.00     0.163 HD
BRANCH   4   7
ATOM      7  C   UNL A   1      32.300  24.458  25.180  1.00  0.00     0.142 C 
ATOM      8  C   UNL A   1      30.685  24.416  23.267  1.00  0.00     0.076 C 
ATOM      9  C   UNL A   1      31.290  25.297  24.372  1.00  0.00     0.194 C 
ATOM     10  N   UNL A   1      32.061  26.394  23.738  1.00  0.00    -0.319 N 
ATOM     11  C   UNL A   1      33.575  25.286  25.189  1.00  0.00     0.081 C 
ATOM     12  C   UNL A   1      33.474  26.084  23.894  1.00  0.00     0.264 C 
ATOM     13  H   UNL A   1      31.854  26.413  22.739  1.00  0.00     0.349 HD
BRANCH  10  14
ATOM     14  C   UNL A   1      31.604  27.791  23.977  1.00  0.00     0.283 C 
BRANCH  14  15
ATOM     15  C   UNL A   1      30.186  28.228  23.574  1.00  0.00     0.017 A 
ATOM     16  C   UNL A   1      29.978  29.568  23.190  1.00  0.00     0.010 A 
ATOM     17  C   UNL A   1      29.044  27.416  23.690  1.00  0.00     0.010 A 
ATOM     18  C   UNL A   1      28.708  30.034  22.841  1.00  0.00     0.001 A 
ATOM     19  C   UNL A   1      27.780  27.868  23.299  1.00  0.00     0.001 A 
ATOM     20  C   UNL A   1      27.615  29.174  22.862  1.00  0.00     0.000 A 
ENDBRANCH  14  15
BRANCH  14  21
ATOM     21  C   UNL A   1      31.928  28.287  25.372  1.00  0.00     0.165 A 
ATOM     22  C   UNL A   1      31.450  27.963  26.629  1.00  0.00     0.052 A 
ATOM     23  O   UNL A   1      33.009  29.119  25.504  1.00  0.00    -0.463 OA
ATOM     24  C   UNL A   1      32.325  28.574  27.564  1.00  0.00     0.042 A 
ATOM     25  C   UNL A   1      33.262  29.255  26.827  1.00  0.00     0.195 A 
ENDBRANCH  14  21
ENDBRANCH  10  14
ENDBRANCH   4   7
ENDBRANCH   2   3
ENDBRANCH   1   2
BRANCH   1  26
ATOM     26  C   UNL A   1      35.756  22.376  26.106  1.00  0.00     0.118 C 
BRANCH  26  27
ATOM     27  N   UNL A   1      36.737  21.334  25.809  1.00  0.00    -0.352 N 
ATOM     28  C   UNL A   1      38.109  21.316  25.803  1.00  0.00     0.251 C 
ATOM     29  H   UNL A   1      36.331  20.471  25.562  1.00  0.00     0.163 HD
ATOM     30  O   UNL A   1      38.681  20.307  25.380  1.00  0.00    -0.269 OA
BRANCH  28  31
ATOM     31  C   UNL A   1      38.917  22.473  26.245  1.00  0.00     0.039 A 
ATOM     32  C   UNL A   1      39.988  22.261  27.125  1.00  0.00     0.014 A 
ATOM     33  C   UNL A   1      38.604  23.771  25.853  1.00  0.00     0.014 A 
ATOM     34  C   UNL A   1      40.766  23.339  27.559  1.00  0.00     0.010 A 
ATOM     35  C   UNL A   1      39.450  24.824  26.184  1.00  0.00     0.010 A 
ATOM     36  C   UNL A   1      40.523  24.630  27.065  1.00  0.00    -0.014 A 
BRANCH  36  37
ATOM     37  C   UNL A   1      41.314  25.812  27.500  1.00  0.00     0.031 A 
ATOM     38  C   UNL A   1      40.659  26.863  28.362  1.00  0.00     0.074 A 
ATOM     39  C   UNL A   1      42.574  25.990  27.054  1.00  0.00     0.049 A 
ATOM     40  N   UNL A   1      41.090  28.051  28.702  1.00  0.00    -0.248 NA
ATOM     41  C   UNL A   1      39.311  26.550  28.865  1.00  0.00     0.031 C 
ATOM     42  C   UNL A   1      43.305  25.063  26.189  1.00  0.00     0.029 A 
ATOM     43  N   UNL A   1      43.456  27.022  27.253  1.00  0.00    -0.354 N 
ATOM     44  C   UNL A   1      40.055  28.635  29.427  1.00  0.00     0.074 A 
ATOM     45  C   UNL A   1      38.951  27.702  29.406  1.00  0.00     0.031 C 
ATOM     46  C   UNL A   1      44.529  25.558  25.947  1.00  0.00     0.029 A 
ATOM     47  C   UNL A   1      44.651  26.863  26.590  1.00  0.00     0.049 A 
ATOM     48  H   UNL A   1      43.252  27.803  27.817  1.00  0.00     0.167 HD
ATOM     49  C   UNL A   1      40.038  29.826  30.077  1.00  0.00     0.034 A 
ATOM     50  C   UNL A   1      45.715  27.685  26.492  1.00  0.00     0.034 A 
ATOM     51  C   UNL A   1      41.164  30.727  30.109  1.00  0.00     0.049 A 
ATOM     52  C   UNL A   1      45.672  29.011  27.212  1.00  0.00     0.074 A 
ATOM     53  C   UNL A   1      41.284  31.935  30.774  1.00  0.00     0.029 A 
ATOM     54  N   UNL A   1      42.367  30.519  29.446  1.00  0.00    -0.354 N 
ATOM     55  N   UNL A   1      44.700  29.536  27.921  1.00  0.00    -0.248 NA
ATOM     56  C   UNL A   1      46.878  29.844  27.129  1.00  0.00     0.031 C 
ATOM     57  C   UNL A   1      42.529  32.488  30.457  1.00  0.00     0.029 A 
ATOM     58  C   UNL A   1      43.224  31.587  29.665  1.00  0.00     0.049 A 
ATOM     59  H   UNL A   1      42.581  29.728  28.900  1.00  0.00     0.167 HD
ATOM     60  C   UNL A   1      45.189  30.752  28.393  1.00  0.00     0.074 A 
ATOM     61  C   UNL A   1      46.550  30.865  27.906  1.00  0.00     0.031 C 
ATOM     62  C   UNL A   1      44.573  31.691  29.158  1.00  0.00     0.034 A 
BRANCH  49  63
ATOM     63  C   UNL A   1      38.759  30.216  30.784  1.00  0.00     0.023 A 
ATOM     64  C   UNL A   1      37.726  30.901  30.120  1.00  0.00     0.031 A 
ATOM     65  C   UNL A   1      38.584  29.937  32.151  1.00  0.00     0.131 A 
ATOM     66  C   UNL A   1      36.614  31.364  30.838  1.00  0.00     0.055 A 
ATOM     67  C   UNL A   1      37.428  30.317  32.840  1.00  0.00     0.041 A 
ATOM     68  F   UNL A   1      39.541  29.305  32.850  1.00  0.00    -0.206 F 
ATOM     69  C   UNL A   1      36.443  31.052  32.188  1.00  0.00     0.022 A 
BRANCH  66  70
ATOM     70  S   UNL A   1      35.481  32.523  30.022  1.00  0.00     0.124 S 
ATOM     71  O   UNL A   1      35.225  31.841  28.756  1.00  0.00    -0.237 OA
ATOM     72  O   UNL A   1      34.362  32.580  30.955  1.00  0.00    -0.237 OA
ATOM     73  O   UNL A   1      36.267  33.751  29.913  1.00  0.00    -0.744 OA
ENDBRANCH  66  70
ENDBRANCH  49  63
BRANCH  50  74
ATOM     74  C   UNL A   1      46.900  27.294  25.675  1.00  0.00     0.023 A 
ATOM     75  C   UNL A   1      47.054  27.754  24.357  1.00  0.00     0.031 A 
ATOM     76  C   UNL A   1      47.882  26.428  26.188  1.00  0.00     0.131 A 
ATOM     77  C   UNL A   1      48.138  27.309  23.581  1.00  0.00     0.055 A 
ATOM     78  C   UNL A   1      48.989  26.034  25.433  1.00  0.00     0.041 A 
ATOM     79  F   UNL A   1      47.787  25.960  27.444  1.00  0.00    -0.206 F 
ATOM     80  C   UNL A   1      49.113  26.465  24.116  1.00  0.00     0.022 A 
BRANCH  77  81
ATOM     81  S   UNL A   1      48.205  27.782  21.832  1.00  0.00     0.124 S 
ATOM     82  O   UNL A   1      46.906  28.418  21.646  1.00  0.00    -0.237 OA
ATOM     83  O   UNL A   1      49.364  28.666  21.802  1.00  0.00    -0.237 OA
ATOM     84  O   UNL A   1      48.381  26.506  21.141  1.00  0.00    -0.744 OA
ENDBRANCH  77  81
ENDBRANCH  50  74
BRANCH  62  85
ATOM     85  C   UNL A   1      45.392  32.899  29.547  1.00  0.00     0.023 A 
ATOM     86  C   UNL A   1      46.163  32.922  30.722  1.00  0.00     0.031 A 
ATOM     87  C   UNL A   1      45.378  34.053  28.743  1.00  0.00     0.131 A 
ATOM     88  C   UNL A   1      46.827  34.099  31.098  1.00  0.00     0.055 A 
ATOM     89  C   UNL A   1      46.103  35.196  29.083  1.00  0.00     0.041 A 
ATOM     90  F   UNL A   1      44.657  34.090  27.611  1.00  0.00    -0.206 F 
ATOM     91  C   UNL A   1      46.819  35.230  30.276  1.00  0.00     0.022 A 
BRANCH  88  92
ATOM     92  S   UNL A   1      47.600  34.173  32.736  1.00  0.00     0.124 S 
ATOM     93  O   UNL A   1      46.472  34.542  33.586  1.00  0.00    -0.237 OA
ATOM     94  O   UNL A   1      48.107  32.815  32.904  1.00  0.00    -0.237 OA
ATOM     95  O   UNL A   1      48.626  35.204  32.586  1.00  0.00    -0.744 OA
ENDBRANCH  88  92
ENDBRANCH  62  85
ENDBRANCH  36  37
ENDBRANCH  28  31
ENDBRANCH  26  27
ENDBRANCH   1  26
TORSDOF 16
ENDMDL
MODEL 3
REMARK VINA RESULT:     -12.2      5.097      8.068
REMARK SMILES C[C@H]1[C@H](C(=O)NCCCNC(=O)c2ccc(-c3c4nc(c(-c5cc(S(=O)(=O)[O-])ccc5F)c5ccc([nH]5)c(-c5cc(S(=O)(=O)[O-])ccc5F)c5nc(c(-c6cc(S(=O)(=O)[O-])ccc6F)c6ccc3[nH]6)C=C5)C=C4)cc2)CC[N@@H+]1[C@@H](c1ccccc1)c1ccco1
REMARK SMILES IDX 8 1 7 2 6 3 4 4 5 5 3 7 1 8 2 9 78 10 76 11 77 12 79 14
REMARK SMILES IDX 80 15 81 16 85 17 82 18 84 19 83 20 86 21 87 22 90 23 88 24
REMARK SMILES IDX 89 25 9 26 10 27 11 28 12 30 13 31 14 32 75 33 15 34 74 35
REMARK SMILES IDX 16 36 17 37 18 38 68 39 19 40 73 41 67 42 69 43 20 44 72 45
REMARK SMILES IDX 66 46 65 47 21 49 53 50 33 51 52 52 34 53 37 54 51 55 70 56
REMARK SMILES IDX 35 57 36 58 50 60 71 61 38 62 22 63 23 64 31 65 24 66 30 67
REMARK SMILES IDX 32 68 29 69 25 70 26 71 27 72 28 73 54 74 55 75 63 76 56 77
REMARK SMILES IDX 62 78 64 79 61 80 57 81 58 82 59 83 60 84 39 85 40 86 48 87
REMARK SMILES IDX 41 88 47 89 49 90 46 91 42 92 43 93 44 94 45 95
REMARK H PARENT 6 6 78 13 10 29 69 48 37 59
REMARK Flexibility Score: inf
ROOT
ATOM      1  C   UNL A   1      32.226  28.676  26.801  1.00  0.00     0.042 C 
ENDROOT
BRANCH   1   2
ATOM      2  C   UNL A   1      31.920  27.521  25.857  1.00  0.00     0.117 C 
BRANCH   2   3
ATOM      3  N   UNL A   1      33.100  26.974  25.229  1.00  0.00    -0.356 N 
ATOM      4  C   UNL A   1      33.397  25.688  24.913  1.00  0.00     0.229 C 
ATOM      5  O   UNL A   1      34.432  25.508  24.260  1.00  0.00    -0.275 OA
ATOM      6  H   UNL A   1      33.793  27.635  24.995  1.00  0.00     0.163 HD
BRANCH   4   7
ATOM      7  C   UNL A   1      32.511  24.487  25.259  1.00  0.00     0.142 C 
ATOM      8  C   UNL A   1      31.438  23.159  23.428  1.00  0.00     0.076 C 
ATOM      9  C   UNL A   1      32.625  23.209  24.403  1.00  0.00     0.194 C 
ATOM     10  N   UNL A   1      32.523  22.062  25.337  1.00  0.00    -0.319 N 
ATOM     11  C   UNL A   1      32.624  24.004  26.697  1.00  0.00     0.081 C 
ATOM     12  C   UNL A   1      32.080  22.581  26.623  1.00  0.00     0.264 C 
ATOM     13  H   UNL A   1      31.809  21.417  24.997  1.00  0.00     0.349 HD
BRANCH  10  14
ATOM     14  C   UNL A   1      33.614  21.049  25.311  1.00  0.00     0.283 C 
BRANCH  14  15
ATOM     15  C   UNL A   1      33.458  19.754  24.498  1.00  0.00     0.017 A 
ATOM     16  C   UNL A   1      34.422  18.738  24.656  1.00  0.00     0.010 A 
ATOM     17  C   UNL A   1      32.489  19.560  23.498  1.00  0.00     0.010 A 
ATOM     18  C   UNL A   1      34.352  17.550  23.924  1.00  0.00     0.001 A 
ATOM     19  C   UNL A   1      32.391  18.354  22.796  1.00  0.00     0.001 A 
ATOM     20  C   UNL A   1      33.316  17.345  23.019  1.00  0.00     0.000 A 
ENDBRANCH  14  15
BRANCH  14  21
ATOM     21  C   UNL A   1      34.981  21.658  25.068  1.00  0.00     0.165 A 
ATOM     22  C   UNL A   1      35.615  22.143  23.938  1.00  0.00     0.052 A 
ATOM     23  O   UNL A   1      35.737  21.958  26.170  1.00  0.00    -0.463 OA
ATOM     24  C   UNL A   1      36.775  22.825  24.388  1.00  0.00     0.042 A 
ATOM     25  C   UNL A   1      36.796  22.692  25.754  1.00  0.00     0.195 A 
ENDBRANCH  14  21
ENDBRANCH  10  14
ENDBRANCH   4   7
ENDBRANCH   2   3
ENDBRANCH   1   2
BRANCH   1  26
ATOM     26  C   UNL A   1      33.490  29.448  26.440  1.00  0.00     0.118 C 
BRANCH  26  27
ATOM     27  N   UNL A   1      33.515  30.814  26.960  1.00  0.00    -0.352 N 
ATOM     28  C   UNL A   1      34.361  31.474  27.816  1.00  0.00     0.251 C 
ATOM     29  H   UNL A   1      32.773  31.373  26.630  1.00  0.00     0.163 HD
ATOM     30  O   UNL A   1      34.055  32.613  28.182  1.00  0.00    -0.269 OA
BRANCH  28  31
ATOM     31  C   UNL A   1      35.595  30.853  28.342  1.00  0.00     0.039 A 
ATOM     32  C   UNL A   1      36.838  31.323  27.897  1.00  0.00     0.014 A 
ATOM     33  C   UNL A   1      35.550  29.778  29.225  1.00  0.00     0.014 A 
ATOM     34  C   UNL A   1      38.021  30.751  28.379  1.00  0.00     0.010 A 
ATOM     35  C   UNL A   1      36.721  29.293  29.796  1.00  0.00     0.010 A 
ATOM     36  C   UNL A   1      37.972  29.750  29.359  1.00  0.00    -0.014 A 
BRANCH  36  37
ATOM     37  C   UNL A   1      39.199  29.102  29.899  1.00  0.00     0.031 A 
ATOM     38  C   UNL A   1      39.881  29.703  31.103  1.00  0.00     0.074 A 
ATOM     39  C   UNL A   1      39.745  28.045  29.266  1.00  0.00     0.049 A 
ATOM     40  N   UNL A   1      41.048  29.423  31.626  1.00  0.00    -0.248 NA
ATOM     41  C   UNL A   1      39.175  30.805  31.775  1.00  0.00     0.031 C 
ATOM     42  C   UNL A   1      39.197  27.395  28.074  1.00  0.00     0.029 A 
ATOM     43  N   UNL A   1      40.895  27.342  29.527  1.00  0.00    -0.354 N 
ATOM     44  C   UNL A   1      41.226  30.334  32.663  1.00  0.00     0.074 A 
ATOM     45  C   UNL A   1      40.085  31.223  32.639  1.00  0.00     0.031 C 
ATOM     46  C   UNL A   1      40.000  26.379  27.719  1.00  0.00     0.029 A 
ATOM     47  C   UNL A   1      41.147  26.340  28.620  1.00  0.00     0.049 A 
ATOM     48  H   UNL A   1      41.483  27.538  30.292  1.00  0.00     0.167 HD
ATOM     49  C   UNL A   1      42.231  30.405  33.571  1.00  0.00     0.034 A 
ATOM     50  C   UNL A   1      42.196  25.499  28.512  1.00  0.00     0.034 A 
ATOM     51  C   UNL A   1      43.345  29.487  33.593  1.00  0.00     0.049 A 
ATOM     52  C   UNL A   1      43.311  25.601  29.524  1.00  0.00     0.074 A 
ATOM     53  C   UNL A   1      44.394  29.427  34.492  1.00  0.00     0.029 A 
ATOM     54  N   UNL A   1      43.553  28.468  32.672  1.00  0.00    -0.354 N 
ATOM     55  N   UNL A   1      43.450  26.446  30.520  1.00  0.00    -0.248 NA
ATOM     56  C   UNL A   1      44.400  24.625  29.405  1.00  0.00     0.031 C 
ATOM     57  C   UNL A   1      45.271  28.419  34.076  1.00  0.00     0.029 A 
ATOM     58  C   UNL A   1      44.727  27.791  32.966  1.00  0.00     0.049 A 
ATOM     59  H   UNL A   1      42.954  28.257  31.920  1.00  0.00     0.167 HD
ATOM     60  C   UNL A   1      44.631  26.084  31.163  1.00  0.00     0.074 A 
ATOM     61  C   UNL A   1      45.147  24.929  30.456  1.00  0.00     0.031 C 
ATOM     62  C   UNL A   1      45.235  26.651  32.240  1.00  0.00     0.034 A 
BRANCH  49  63
ATOM     63  C   UNL A   1      42.170  31.518  34.593  1.00  0.00     0.023 A 
ATOM     64  C   UNL A   1      41.219  31.520  35.629  1.00  0.00     0.031 A 
ATOM     65  C   UNL A   1      43.047  32.614  34.510  1.00  0.00     0.131 A 
ATOM     66  C   UNL A   1      41.104  32.632  36.477  1.00  0.00     0.055 A 
ATOM     67  C   UNL A   1      42.991  33.675  35.419  1.00  0.00     0.041 A 
ATOM     68  F   UNL A   1      43.965  32.685  33.532  1.00  0.00    -0.206 F 
ATOM     69  C   UNL A   1      42.002  33.697  36.397  1.00  0.00     0.022 A 
BRANCH  66  70
ATOM     70  S   UNL A   1      39.660  32.739  37.569  1.00  0.00     0.124 S 
ATOM     71  O   UNL A   1      38.919  31.537  37.195  1.00  0.00    -0.237 OA
ATOM     72  O   UNL A   1      40.266  32.731  38.895  1.00  0.00    -0.237 OA
ATOM     73  O   UNL A   1      39.028  33.998  37.179  1.00  0.00    -0.744 OA
ENDBRANCH  66  70
ENDBRANCH  49  63
BRANCH  50  74
ATOM     74  C   UNL A   1      42.255  24.502  27.404  1.00  0.00     0.023 A 
ATOM     75  C   UNL A   1      41.581  23.274  27.499  1.00  0.00     0.031 A 
ATOM     76  C   UNL A   1      43.012  24.749  26.244  1.00  0.00     0.131 A 
ATOM     77  C   UNL A   1      41.715  22.320  26.477  1.00  0.00     0.055 A 
ATOM     78  C   UNL A   1      43.096  23.821  25.205  1.00  0.00     0.041 A 
ATOM     79  F   UNL A   1      43.674  25.908  26.098  1.00  0.00    -0.206 F 
ATOM     80  C   UNL A   1      42.456  22.591  25.324  1.00  0.00     0.022 A 
BRANCH  77  81
ATOM     81  S   UNL A   1      40.978  20.680  26.717  1.00  0.00     0.124 S 
ATOM     82  O   UNL A   1      39.763  20.781  25.917  1.00  0.00    -0.237 OA
ATOM     83  O   UNL A   1      42.019  19.801  26.196  1.00  0.00    -0.237 OA
ATOM     84  O   UNL A   1      40.771  20.609  28.162  1.00  0.00    -0.744 OA
ENDBRANCH  77  81
ENDBRANCH  50  74
BRANCH  62  85
ATOM     85  C   UNL A   1      46.500  25.993  32.737  1.00  0.00     0.023 A 
ATOM     86  C   UNL A   1      46.469  24.914  33.637  1.00  0.00     0.031 A 
ATOM     87  C   UNL A   1      47.757  26.472  32.323  1.00  0.00     0.131 A 
ATOM     88  C   UNL A   1      47.668  24.399  34.152  1.00  0.00     0.055 A 
ATOM     89  C   UNL A   1      48.948  25.905  32.780  1.00  0.00     0.041 A 
ATOM     90  F   UNL A   1      47.849  27.502  31.467  1.00  0.00    -0.206 F 
ATOM     91  C   UNL A   1      48.907  24.873  33.714  1.00  0.00     0.022 A 
BRANCH  88  92
ATOM     92  S   UNL A   1      47.583  23.184  35.495  1.00  0.00     0.124 S 
ATOM     93  O   UNL A   1      47.788  21.929  34.780  1.00  0.00    -0.237 OA
ATOM     94  O   UNL A   1      48.674  23.606  36.367  1.00  0.00    -0.237 OA
ATOM     95  O   UNL A   1      46.242  23.373  36.045  1.00  0.00    -0.744 OA
ENDBRANCH  88  92
ENDBRANCH  62  85
ENDBRANCH  36  37
ENDBRANCH  28  31
ENDBRANCH  26  27
ENDBRANCH   1  26
TORSDOF 16
ENDMDL
