MODEL 1
REMARK VINA RESULT:     -13.8      0.000      0.000
REMARK SMILES Cc1ccc(C)c([C@H]2[NH2+][C@@H](C(=O)NCCCNC(=O)c3ccc(-c4c5nc(c(-c6cc(S(=O)(=O)[O-])ccc6F)c6ccc([nH]6)c(-c6cc(S(=O)(=O)[O-])ccc6F)c6nc(c(-c7cc(S(=O)(=O)[O-])ccc7F)c7ccc4[nH]7)C=C6)C=C5)cc3)Cc3c2[nH]c2ccccc32)c1
REMARK SMILES IDX 16 1 15 2 14 3 13 4 11 5 12 6 10 8 8 9 9 10 85 11 84 14
REMARK SMILES IDX 86 15 83 16 92 17 87 18 91 20 88 21 90 22 89 23 7 24 1 25
REMARK SMILES IDX 2 26 3 27 93 28 4 29 5 30 6 31 17 32 18 33 19 35 20 36 21 37
REMARK SMILES IDX 82 38 22 39 81 40 23 41 24 42 25 43 75 44 26 45 80 46 74 47
REMARK SMILES IDX 76 48 27 49 79 50 73 51 72 52 28 54 60 55 40 56 59 57 41 58
REMARK SMILES IDX 44 59 58 60 77 61 42 62 43 63 57 65 78 66 45 67 29 68 30 69
REMARK SMILES IDX 38 70 31 71 37 72 39 73 36 74 32 75 33 76 34 77 35 78 61 79
REMARK SMILES IDX 62 80 70 81 63 82 69 83 71 84 68 85 64 86 65 87 66 88 67 89
REMARK SMILES IDX 46 90 47 91 55 92 48 93 54 94 56 95 53 96 49 97 50 98 51 99
REMARK SMILES IDX 52 100
REMARK H PARENT 13 7 9 12 9 13 86 19 17 34 76 53 44 64
REMARK Flexibility Score: inf
ROOT
ATOM      1  C   UNL A   1      35.384  29.045  27.129  1.00  0.00     0.118 C 
ENDROOT
BRANCH   1   2
ATOM      2  C   UNL A   1      33.976  28.504  26.842  1.00  0.00     0.042 C 
BRANCH   2   3
ATOM      3  C   UNL A   1      33.733  27.971  25.418  1.00  0.00     0.118 C 
BRANCH   3   4
ATOM      4  N   UNL A   1      32.642  27.002  25.352  1.00  0.00    -0.351 N 
ATOM      5  C   UNL A   1      32.562  25.680  25.052  1.00  0.00     0.278 C 
ATOM      6  O   UNL A   1      31.433  25.178  25.137  1.00  0.00    -0.268 OA
ATOM      7  H   UNL A   1      31.769  27.396  25.575  1.00  0.00     0.163 HD
BRANCH   5   8
ATOM      8  C   UNL A   1      33.751  24.750  24.745  1.00  0.00     0.277 C 
ATOM      9  C   UNL A   1      34.111  22.349  24.065  1.00  0.00     0.262 C 
ATOM     10  N   UNL A   1      33.184  23.411  24.507  1.00  0.00    -0.325 N 
ATOM     11  C   UNL A   1      35.444  22.517  24.778  1.00  0.00     0.083 A 
ATOM     12  H   UNL A   1      32.755  23.101  25.379  1.00  0.00     0.347 HD
ATOM     13  H   UNL A   1      32.539  23.537  23.727  1.00  0.00     0.347 HD
ATOM     14  C   UNL A   1      35.811  23.634  25.502  1.00  0.00    -0.006 A 
ATOM     15  N   UNL A   1      36.554  21.700  24.749  1.00  0.00    -0.353 N 
ATOM     16  C   UNL A   1      34.875  24.741  25.768  1.00  0.00     0.114 C 
ATOM     17  C   UNL A   1      37.123  23.487  25.978  1.00  0.00     0.003 A 
ATOM     18  C   UNL A   1      37.582  22.262  25.501  1.00  0.00     0.046 A 
ATOM     19  H   UNL A   1      36.610  20.842  24.267  1.00  0.00     0.166 HD
ATOM     20  C   UNL A   1      37.947  24.295  26.784  1.00  0.00     0.010 A 
ATOM     21  C   UNL A   1      38.873  21.810  25.810  1.00  0.00     0.026 A 
ATOM     22  C   UNL A   1      39.226  23.854  27.104  1.00  0.00     0.001 A 
ATOM     23  C   UNL A   1      39.680  22.629  26.622  1.00  0.00     0.002 A 
BRANCH   9  24
ATOM     24  C   UNL A   1      33.310  21.051  24.271  1.00  0.00     0.019 A 
ATOM     25  C   UNL A   1      32.135  18.065  22.166  1.00  0.00     0.044 C 
ATOM     26  C   UNL A   1      32.474  18.932  23.341  1.00  0.00    -0.051 A 
ATOM     27  C   UNL A   1      32.404  18.389  24.625  1.00  0.00     0.004 A 
ATOM     28  C   UNL A   1      32.935  20.250  23.171  1.00  0.00     0.014 A 
ATOM     29  C   UNL A   1      32.743  19.162  25.729  1.00  0.00     0.004 A 
ATOM     30  C   UNL A   1      33.170  20.494  25.578  1.00  0.00    -0.042 A 
ATOM     31  C   UNL A   1      33.611  21.190  26.845  1.00  0.00     0.045 C 
ENDBRANCH   9  24
ENDBRANCH   5   8
ENDBRANCH   3   4
ENDBRANCH   2   3
ENDBRANCH   1   2
BRANCH   1  32
ATOM     32  N   UNL A   1      35.545  29.521  28.508  1.00  0.00    -0.352 N 
ATOM     33  C   UNL A   1      36.573  29.362  29.431  1.00  0.00     0.251 C 
ATOM     34  H   UNL A   1      34.784  30.049  28.843  1.00  0.00     0.163 HD
ATOM     35  O   UNL A   1      36.346  29.551  30.616  1.00  0.00    -0.269 OA
BRANCH  33  36
ATOM     36  C   UNL A   1      37.930  28.978  28.976  1.00  0.00     0.039 A 
ATOM     37  C   UNL A   1      38.561  29.549  27.870  1.00  0.00     0.014 A 
ATOM     38  C   UNL A   1      38.604  28.018  29.710  1.00  0.00     0.014 A 
ATOM     39  C   UNL A   1      39.864  29.140  27.560  1.00  0.00     0.010 A 
ATOM     40  C   UNL A   1      39.949  27.848  29.596  1.00  0.00     0.010 A 
ATOM     41  C   UNL A   1      40.551  28.283  28.442  1.00  0.00    -0.014 A 
BRANCH  41  42
ATOM     42  C   UNL A   1      41.965  27.967  28.319  1.00  0.00     0.031 A 
ATOM     43  C   UNL A   1      42.172  26.754  27.509  1.00  0.00     0.074 A 
ATOM     44  C   UNL A   1      42.986  28.791  28.651  1.00  0.00     0.049 A 
ATOM     45  N   UNL A   1      42.280  25.554  27.965  1.00  0.00    -0.248 NA
ATOM     46  C   UNL A   1      41.934  26.819  26.056  1.00  0.00     0.031 C 
ATOM     47  C   UNL A   1      42.936  30.172  29.140  1.00  0.00     0.029 A 
ATOM     48  N   UNL A   1      44.327  28.571  28.539  1.00  0.00    -0.354 N 
ATOM     49  C   UNL A   1      42.484  24.765  26.847  1.00  0.00     0.074 A 
ATOM     50  C   UNL A   1      41.936  25.517  25.753  1.00  0.00     0.031 C 
ATOM     51  C   UNL A   1      44.175  30.721  29.086  1.00  0.00     0.029 A 
ATOM     52  C   UNL A   1      45.134  29.700  28.691  1.00  0.00     0.049 A 
ATOM     53  H   UNL A   1      44.700  27.678  28.364  1.00  0.00     0.167 HD
ATOM     54  C   UNL A   1      43.394  23.753  26.886  1.00  0.00     0.034 A 
ATOM     55  C   UNL A   1      46.482  29.788  28.482  1.00  0.00     0.034 A 
ATOM     56  C   UNL A   1      43.817  23.508  28.259  1.00  0.00     0.049 A 
ATOM     57  C   UNL A   1      47.014  28.402  28.598  1.00  0.00     0.074 A 
ATOM     58  C   UNL A   1      43.142  23.267  29.445  1.00  0.00     0.029 A 
ATOM     59  N   UNL A   1      45.073  23.940  28.638  1.00  0.00    -0.354 N 
ATOM     60  N   UNL A   1      47.005  27.728  29.718  1.00  0.00    -0.248 NA
ATOM     61  C   UNL A   1      47.044  27.585  27.392  1.00  0.00     0.031 C 
ATOM     62  C   UNL A   1      43.822  24.056  30.421  1.00  0.00     0.029 A 
ATOM     63  C   UNL A   1      44.950  24.624  29.825  1.00  0.00     0.049 A 
ATOM     64  H   UNL A   1      45.911  23.786  28.144  1.00  0.00     0.167 HD
ATOM     65  C   UNL A   1      46.561  26.461  29.371  1.00  0.00     0.074 A 
ATOM     66  C   UNL A   1      46.689  26.405  27.912  1.00  0.00     0.031 C 
ATOM     67  C   UNL A   1      45.845  25.691  30.245  1.00  0.00     0.034 A 
BRANCH  54  68
ATOM     68  C   UNL A   1      44.216  23.285  25.705  1.00  0.00     0.023 A 
ATOM     69  C   UNL A   1      44.121  21.918  25.391  1.00  0.00     0.031 A 
ATOM     70  C   UNL A   1      45.262  23.986  25.062  1.00  0.00     0.131 A 
ATOM     71  C   UNL A   1      45.106  21.282  24.622  1.00  0.00     0.055 A 
ATOM     72  C   UNL A   1      46.201  23.361  24.237  1.00  0.00     0.041 A 
ATOM     73  F   UNL A   1      45.497  25.288  25.242  1.00  0.00    -0.206 F 
ATOM     74  C   UNL A   1      46.152  21.993  24.045  1.00  0.00     0.022 A 
BRANCH  71  75
ATOM     75  S   UNL A   1      45.090  19.477  24.562  1.00  0.00     0.124 S 
ATOM     76  O   UNL A   1      44.692  19.243  23.178  1.00  0.00    -0.237 OA
ATOM     77  O   UNL A   1      46.474  19.156  24.898  1.00  0.00    -0.237 OA
ATOM     78  O   UNL A   1      44.101  19.113  25.572  1.00  0.00    -0.744 OA
ENDBRANCH  71  75
ENDBRANCH  54  68
BRANCH  55  79
ATOM     79  C   UNL A   1      47.275  30.928  27.915  1.00  0.00     0.023 A 
ATOM     80  C   UNL A   1      46.716  31.966  27.125  1.00  0.00     0.031 A 
ATOM     81  C   UNL A   1      48.595  31.142  28.371  1.00  0.00     0.131 A 
ATOM     82  C   UNL A   1      47.466  33.137  26.834  1.00  0.00     0.055 A 
ATOM     83  C   UNL A   1      49.329  32.297  28.080  1.00  0.00     0.041 A 
ATOM     84  F   UNL A   1      49.194  30.273  29.197  1.00  0.00    -0.206 F 
ATOM     85  C   UNL A   1      48.764  33.305  27.320  1.00  0.00     0.022 A 
BRANCH  82  86
ATOM     86  S   UNL A   1      46.739  34.527  25.890  1.00  0.00     0.124 S 
ATOM     87  O   UNL A   1      46.380  35.468  26.942  1.00  0.00    -0.237 OA
ATOM     88  O   UNL A   1      47.833  34.919  25.009  1.00  0.00    -0.237 OA
ATOM     89  O   UNL A   1      45.598  33.914  25.203  1.00  0.00    -0.744 OA
ENDBRANCH  82  86
ENDBRANCH  55  79
BRANCH  67  90
ATOM     90  C   UNL A   1      45.825  26.065  31.719  1.00  0.00     0.023 A 
ATOM     91  C   UNL A   1      44.719  26.596  32.425  1.00  0.00     0.031 A 
ATOM     92  C   UNL A   1      46.980  25.763  32.466  1.00  0.00     0.131 A 
ATOM     93  C   UNL A   1      44.809  26.816  33.817  1.00  0.00     0.055 A 
ATOM     94  C   UNL A   1      47.054  25.954  33.844  1.00  0.00     0.041 A 
ATOM     95  F   UNL A   1      48.064  25.241  31.866  1.00  0.00    -0.206 F 
ATOM     96  C   UNL A   1      45.970  26.490  34.524  1.00  0.00     0.022 A 
BRANCH  93  97
ATOM     97  S   UNL A   1      43.432  27.574  34.743  1.00  0.00     0.124 S 
ATOM     98  O   UNL A   1      43.112  28.767  33.968  1.00  0.00    -0.237 OA
ATOM     99  O   UNL A   1      42.426  26.515  34.732  1.00  0.00    -0.237 OA
ATOM    100  O   UNL A   1      44.018  27.843  36.058  1.00  0.00    -0.744 OA
ENDBRANCH  93  97
ENDBRANCH  67  90
ENDBRANCH  41  42
ENDBRANCH  33  36
ENDBRANCH   1  32
TORSDOF 14
ENDMDL
MODEL 2
REMARK VINA RESULT:     -13.4      2.470      7.077
REMARK SMILES Cc1ccc(C)c([C@H]2[NH2+][C@@H](C(=O)NCCCNC(=O)c3ccc(-c4c5nc(c(-c6cc(S(=O)(=O)[O-])ccc6F)c6ccc([nH]6)c(-c6cc(S(=O)(=O)[O-])ccc6F)c6nc(c(-c7cc(S(=O)(=O)[O-])ccc7F)c7ccc4[nH]7)C=C6)C=C5)cc3)Cc3c2[nH]c2ccccc32)c1
REMARK SMILES IDX 16 1 15 2 14 3 13 4 11 5 12 6 10 8 8 9 9 10 85 11 84 14
REMARK SMILES IDX 86 15 83 16 92 17 87 18 91 20 88 21 90 22 89 23 7 24 1 25
REMARK SMILES IDX 2 26 3 27 93 28 4 29 5 30 6 31 17 32 18 33 19 35 20 36 21 37
REMARK SMILES IDX 82 38 22 39 81 40 23 41 24 42 25 43 75 44 26 45 80 46 74 47
REMARK SMILES IDX 76 48 27 49 79 50 73 51 72 52 28 54 60 55 40 56 59 57 41 58
REMARK SMILES IDX 44 59 58 60 77 61 42 62 43 63 57 65 78 66 45 67 29 68 30 69
REMARK SMILES IDX 38 70 31 71 37 72 39 73 36 74 32 75 33 76 34 77 35 78 61 79
REMARK SMILES IDX 62 80 70 81 63 82 69 83 71 84 68 85 64 86 65 87 66 88 67 89
REMARK SMILES IDX 46 90 47 91 55 92 48 93 54 94 56 95 53 96 49 97 50 98 51 99
REMARK SMILES IDX 52 100
REMARK H PARENT 13 7 9 12 9 13 86 19 17 34 76 53 44 64
REMARK Flexibility Score: inf
ROOT
ATOM      1  C   UNL A   1      34.054  29.491  26.836  1.00  0.00     0.118 C 
ENDROOT
BRANCH   1   2
ATOM      2  C   UNL A   1      33.320  29.323  25.497  1.00  0.00     0.042 C 
BRANCH   2   3
ATOM      3  C   UNL A   1      33.573  28.002  24.747  1.00  0.00     0.118 C 
BRANCH   3   4
ATOM      4  N   UNL A   1      32.548  26.995  25.005  1.00  0.00    -0.351 N 
ATOM      5  C   UNL A   1      32.516  25.638  24.962  1.00  0.00     0.278 C 
ATOM      6  O   UNL A   1      31.441  25.117  25.288  1.00  0.00    -0.268 OA
ATOM      7  H   UNL A   1      31.686  27.389  25.270  1.00  0.00     0.163 HD
BRANCH   5   8
ATOM      8  C   UNL A   1      33.715  24.717  24.669  1.00  0.00     0.277 C 
ATOM      9  C   UNL A   1      34.099  22.307  24.032  1.00  0.00     0.262 C 
ATOM     10  N   UNL A   1      33.161  23.367  24.457  1.00  0.00    -0.325 N 
ATOM     11  C   UNL A   1      35.432  22.503  24.739  1.00  0.00     0.083 A 
ATOM     12  H   UNL A   1      32.738  23.068  25.336  1.00  0.00     0.347 HD
ATOM     13  H   UNL A   1      32.513  23.471  23.676  1.00  0.00     0.347 HD
ATOM     14  C   UNL A   1      35.788  23.636  25.442  1.00  0.00    -0.006 A 
ATOM     15  N   UNL A   1      36.550  21.697  24.723  1.00  0.00    -0.353 N 
ATOM     16  C   UNL A   1      34.841  24.738  25.689  1.00  0.00     0.114 C 
ATOM     17  C   UNL A   1      37.103  23.513  25.917  1.00  0.00     0.003 A 
ATOM     18  C   UNL A   1      37.574  22.284  25.461  1.00  0.00     0.046 A 
ATOM     19  H   UNL A   1      36.614  20.831  24.257  1.00  0.00     0.166 HD
ATOM     20  C   UNL A   1      37.919  24.344  26.706  1.00  0.00     0.010 A 
ATOM     21  C   UNL A   1      38.871  21.852  25.775  1.00  0.00     0.026 A 
ATOM     22  C   UNL A   1      39.205  23.924  27.030  1.00  0.00     0.001 A 
ATOM     23  C   UNL A   1      39.671  22.695  26.570  1.00  0.00     0.002 A 
BRANCH   9  24
ATOM     24  C   UNL A   1      33.313  21.004  24.264  1.00  0.00     0.019 A 
ATOM     25  C   UNL A   1      32.135  17.984  22.210  1.00  0.00     0.044 C 
ATOM     26  C   UNL A   1      32.482  18.868  23.371  1.00  0.00    -0.051 A 
ATOM     27  C   UNL A   1      32.436  18.339  24.662  1.00  0.00     0.004 A 
ATOM     28  C   UNL A   1      32.929  20.187  23.179  1.00  0.00     0.014 A 
ATOM     29  C   UNL A   1      32.783  19.128  25.752  1.00  0.00     0.004 A 
ATOM     30  C   UNL A   1      33.196  20.461  25.580  1.00  0.00    -0.042 A 
ATOM     31  C   UNL A   1      33.648  21.175  26.833  1.00  0.00     0.045 C 
ENDBRANCH   9  24
ENDBRANCH   5   8
ENDBRANCH   3   4
ENDBRANCH   2   3
ENDBRANCH   1   2
BRANCH   1  32
ATOM     32  N   UNL A   1      34.173  30.894  27.251  1.00  0.00    -0.352 N 
ATOM     33  C   UNL A   1      34.957  31.512  28.218  1.00  0.00     0.251 C 
ATOM     34  H   UNL A   1      33.590  31.512  26.753  1.00  0.00     0.163 HD
ATOM     35  O   UNL A   1      34.647  32.623  28.618  1.00  0.00    -0.269 OA
BRANCH  33  36
ATOM     36  C   UNL A   1      36.163  30.830  28.748  1.00  0.00     0.039 A 
ATOM     37  C   UNL A   1      36.138  29.556  29.315  1.00  0.00     0.014 A 
ATOM     38  C   UNL A   1      37.371  31.495  28.647  1.00  0.00     0.014 A 
ATOM     39  C   UNL A   1      37.346  28.991  29.741  1.00  0.00     0.010 A 
ATOM     40  C   UNL A   1      38.557  30.841  28.775  1.00  0.00     0.010 A 
ATOM     41  C   UNL A   1      38.558  29.651  29.460  1.00  0.00    -0.014 A 
BRANCH  41  42
ATOM     42  C   UNL A   1      39.868  29.056  29.674  1.00  0.00     0.031 A 
ATOM     43  C   UNL A   1      40.193  28.988  31.109  1.00  0.00     0.074 A 
ATOM     44  C   UNL A   1      40.594  28.399  28.741  1.00  0.00     0.049 A 
ATOM     45  N   UNL A   1      40.851  29.874  31.775  1.00  0.00    -0.248 NA
ATOM     46  C   UNL A   1      39.478  28.018  31.956  1.00  0.00     0.031 C 
ATOM     47  C   UNL A   1      40.241  28.076  27.355  1.00  0.00     0.029 A 
ATOM     48  N   UNL A   1      41.810  27.798  28.878  1.00  0.00    -0.354 N 
ATOM     49  C   UNL A   1      40.926  29.369  33.061  1.00  0.00     0.074 A 
ATOM     50  C   UNL A   1      39.824  28.456  33.171  1.00  0.00     0.031 C 
ATOM     51  C   UNL A   1      41.124  27.176  26.856  1.00  0.00     0.029 A 
ATOM     52  C   UNL A   1      42.184  26.956  27.828  1.00  0.00     0.049 A 
ATOM     53  H   UNL A   1      42.385  27.948  29.662  1.00  0.00     0.167 HD
ATOM     54  C   UNL A   1      42.085  29.482  33.767  1.00  0.00     0.034 A 
ATOM     55  C   UNL A   1      43.269  26.126  27.780  1.00  0.00     0.034 A 
ATOM     56  C   UNL A   1      42.998  30.399  33.096  1.00  0.00     0.049 A 
ATOM     57  C   UNL A   1      44.249  26.661  28.766  1.00  0.00     0.074 A 
ATOM     58  C   UNL A   1      42.883  31.695  32.622  1.00  0.00     0.029 A 
ATOM     59  N   UNL A   1      44.081  29.862  32.427  1.00  0.00    -0.354 N 
ATOM     60  N   UNL A   1      44.845  27.814  28.623  1.00  0.00    -0.248 NA
ATOM     61  C   UNL A   1      44.152  26.189  30.142  1.00  0.00     0.031 C 
ATOM     62  C   UNL A   1      43.537  31.680  31.353  1.00  0.00     0.029 A 
ATOM     63  C   UNL A   1      44.135  30.431  31.177  1.00  0.00     0.049 A 
ATOM     64  H   UNL A   1      44.706  29.188  32.783  1.00  0.00     0.167 HD
ATOM     65  C   UNL A   1      44.772  28.415  29.871  1.00  0.00     0.074 A 
ATOM     66  C   UNL A   1      44.417  27.329  30.789  1.00  0.00     0.031 C 
ATOM     67  C   UNL A   1      44.697  29.773  30.007  1.00  0.00     0.034 A 
BRANCH  54  68
ATOM     68  C   UNL A   1      42.574  28.478  34.789  1.00  0.00     0.023 A 
ATOM     69  C   UNL A   1      43.585  27.603  34.357  1.00  0.00     0.031 A 
ATOM     70  C   UNL A   1      41.955  28.137  36.014  1.00  0.00     0.131 A 
ATOM     71  C   UNL A   1      43.831  26.395  35.026  1.00  0.00     0.055 A 
ATOM     72  C   UNL A   1      42.255  26.967  36.717  1.00  0.00     0.041 A 
ATOM     73  F   UNL A   1      40.979  28.857  36.573  1.00  0.00    -0.206 F 
ATOM     74  C   UNL A   1      43.169  26.066  36.203  1.00  0.00     0.022 A 
BRANCH  71  75
ATOM     75  S   UNL A   1      44.894  25.183  34.211  1.00  0.00     0.124 S 
ATOM     76  O   UNL A   1      45.922  26.047  33.639  1.00  0.00    -0.237 OA
ATOM     77  O   UNL A   1      45.307  24.346  35.335  1.00  0.00    -0.237 OA
ATOM     78  O   UNL A   1      44.001  24.543  33.250  1.00  0.00    -0.744 OA
ENDBRANCH  71  75
ENDBRANCH  54  68
BRANCH  55  79
ATOM     79  C   UNL A   1      43.387  24.766  27.160  1.00  0.00     0.023 A 
ATOM     80  C   UNL A   1      44.211  24.473  26.043  1.00  0.00     0.031 A 
ATOM     81  C   UNL A   1      42.857  23.648  27.845  1.00  0.00     0.131 A 
ATOM     82  C   UNL A   1      44.469  23.127  25.666  1.00  0.00     0.055 A 
ATOM     83  C   UNL A   1      43.114  22.326  27.469  1.00  0.00     0.041 A 
ATOM     84  F   UNL A   1      42.139  23.799  28.967  1.00  0.00    -0.206 F 
ATOM     85  C   UNL A   1      43.930  22.059  26.385  1.00  0.00     0.022 A 
BRANCH  82  86
ATOM     86  S   UNL A   1      45.595  22.721  24.281  1.00  0.00     0.124 S 
ATOM     87  O   UNL A   1      46.410  21.652  24.842  1.00  0.00    -0.237 OA
ATOM     88  O   UNL A   1      44.669  22.346  23.218  1.00  0.00    -0.237 OA
ATOM     89  O   UNL A   1      46.313  23.977  24.044  1.00  0.00    -0.744 OA
ENDBRANCH  82  86
ENDBRANCH  55  79
BRANCH  67  90
ATOM     90  C   UNL A   1      45.043  30.659  28.820  1.00  0.00     0.023 A 
ATOM     91  C   UNL A   1      46.329  31.157  28.503  1.00  0.00     0.031 A 
ATOM     92  C   UNL A   1      44.007  30.924  27.903  1.00  0.00     0.131 A 
ATOM     93  C   UNL A   1      46.528  31.897  27.318  1.00  0.00     0.055 A 
ATOM     94  C   UNL A   1      44.214  31.630  26.720  1.00  0.00     0.041 A 
ATOM     95  F   UNL A   1      42.762  30.469  28.130  1.00  0.00    -0.206 F 
ATOM     96  C   UNL A   1      45.475  32.127  26.427  1.00  0.00     0.022 A 
BRANCH  93  97
ATOM     97  S   UNL A   1      48.154  32.622  26.920  1.00  0.00     0.124 S 
ATOM     98  O   UNL A   1      48.953  31.473  26.511  1.00  0.00    -0.237 OA
ATOM     99  O   UNL A   1      47.822  33.578  25.867  1.00  0.00    -0.237 OA
ATOM    100  O   UNL A   1      48.570  33.232  28.186  1.00  0.00    -0.744 OA
ENDBRANCH  93  97
ENDBRANCH  67  90
ENDBRANCH  41  42
ENDBRANCH  33  36
ENDBRANCH   1  32
TORSDOF 14
ENDMDL
MODEL 3
REMARK VINA RESULT:     -13.1      3.052      7.906
REMARK SMILES Cc1ccc(C)c([C@H]2[NH2+][C@@H](C(=O)NCCCNC(=O)c3ccc(-c4c5nc(c(-c6cc(S(=O)(=O)[O-])ccc6F)c6ccc([nH]6)c(-c6cc(S(=O)(=O)[O-])ccc6F)c6nc(c(-c7cc(S(=O)(=O)[O-])ccc7F)c7ccc4[nH]7)C=C6)C=C5)cc3)Cc3c2[nH]c2ccccc32)c1
REMARK SMILES IDX 16 1 15 2 14 3 13 4 11 5 12 6 10 8 8 9 9 10 85 11 84 14
REMARK SMILES IDX 86 15 83 16 92 17 87 18 91 20 88 21 90 22 89 23 7 24 1 25
REMARK SMILES IDX 2 26 3 27 93 28 4 29 5 30 6 31 17 32 18 33 19 35 20 36 21 37
REMARK SMILES IDX 82 38 22 39 81 40 23 41 24 42 25 43 75 44 26 45 80 46 74 47
REMARK SMILES IDX 76 48 27 49 79 50 73 51 72 52 28 54 60 55 40 56 59 57 41 58
REMARK SMILES IDX 44 59 58 60 77 61 42 62 43 63 57 65 78 66 45 67 29 68 30 69
REMARK SMILES IDX 38 70 31 71 37 72 39 73 36 74 32 75 33 76 34 77 35 78 61 79
REMARK SMILES IDX 62 80 70 81 63 82 69 83 71 84 68 85 64 86 65 87 66 88 67 89
REMARK SMILES IDX 46 90 47 91 55 92 48 93 54 94 56 95 53 96 49 97 50 98 51 99
REMARK SMILES IDX 52 100
REMARK H PARENT 13 7 9 12 9 13 86 19 17 34 76 53 44 64
REMARK Flexibility Score: inf
ROOT
ATOM      1  C   UNL A   1      35.485  32.942  29.400  1.00  0.00     0.118 C 
ENDROOT
BRANCH   1   2
ATOM      2  C   UNL A   1      34.168  33.236  28.668  1.00  0.00     0.042 C 
BRANCH   2   3
ATOM      3  C   UNL A   1      33.604  32.093  27.803  1.00  0.00     0.118 C 
BRANCH   3   4
ATOM      4  N   UNL A   1      34.532  30.974  27.663  1.00  0.00    -0.351 N 
ATOM      5  C   UNL A   1      34.403  29.672  27.299  1.00  0.00     0.278 C 
ATOM      6  O   UNL A   1      35.455  29.019  27.266  1.00  0.00    -0.268 OA
ATOM      7  H   UNL A   1      35.460  31.219  27.881  1.00  0.00     0.163 HD
BRANCH   5   8
ATOM      8  C   UNL A   1      33.108  28.994  26.815  1.00  0.00     0.277 C 
ATOM      9  C   UNL A   1      32.286  26.653  26.370  1.00  0.00     0.262 C 
ATOM     10  N   UNL A   1      33.407  27.556  26.701  1.00  0.00    -0.325 N 
ATOM     11  C   UNL A   1      31.363  27.340  25.375  1.00  0.00     0.083 A 
ATOM     12  H   UNL A   1      34.114  27.448  25.972  1.00  0.00     0.347 HD
ATOM     13  H   UNL A   1      33.702  27.276  27.636  1.00  0.00     0.347 HD
ATOM     14  C   UNL A   1      31.417  28.681  25.052  1.00  0.00    -0.006 A 
ATOM     15  N   UNL A   1      30.261  26.835  24.720  1.00  0.00    -0.353 N 
ATOM     16  C   UNL A   1      32.482  29.568  25.555  1.00  0.00     0.114 C 
ATOM     17  C   UNL A   1      30.391  29.000  24.149  1.00  0.00     0.003 A 
ATOM     18  C   UNL A   1      29.669  27.827  23.944  1.00  0.00     0.046 A 
ATOM     19  H   UNL A   1      29.939  25.906  24.791  1.00  0.00     0.166 HD
ATOM     20  C   UNL A   1      30.031  30.188  23.487  1.00  0.00     0.010 A 
ATOM     21  C   UNL A   1      28.567  27.807  23.076  1.00  0.00     0.026 A 
ATOM     22  C   UNL A   1      28.945  30.179  22.619  1.00  0.00     0.001 A 
ATOM     23  C   UNL A   1      28.225  29.003  22.418  1.00  0.00     0.002 A 
BRANCH   9  24
ATOM     24  C   UNL A   1      32.977  25.338  25.965  1.00  0.00     0.019 A 
ATOM     25  C   UNL A   1      36.545  24.070  25.339  1.00  0.00     0.044 C 
ATOM     26  C   UNL A   1      35.066  24.095  25.590  1.00  0.00    -0.051 A 
ATOM     27  C   UNL A   1      34.400  22.892  25.829  1.00  0.00     0.004 A 
ATOM     28  C   UNL A   1      34.357  25.306  25.671  1.00  0.00     0.014 A 
ATOM     29  C   UNL A   1      33.037  22.890  26.096  1.00  0.00     0.004 A 
ATOM     30  C   UNL A   1      32.305  24.090  26.142  1.00  0.00    -0.042 A 
ATOM     31  C   UNL A   1      30.855  23.960  26.547  1.00  0.00     0.045 C 
ENDBRANCH   9  24
ENDBRANCH   5   8
ENDBRANCH   3   4
ENDBRANCH   2   3
ENDBRANCH   1   2
BRANCH   1  32
ATOM     32  N   UNL A   1      36.540  33.916  29.092  1.00  0.00    -0.352 N 
ATOM     33  C   UNL A   1      37.913  33.896  29.310  1.00  0.00     0.251 C 
ATOM     34  H   UNL A   1      36.216  34.734  28.651  1.00  0.00     0.163 HD
ATOM     35  O   UNL A   1      38.537  34.945  29.283  1.00  0.00    -0.269 OA
BRANCH  33  36
ATOM     36  C   UNL A   1      38.609  32.612  29.563  1.00  0.00     0.039 A 
ATOM     37  C   UNL A   1      38.185  31.390  29.039  1.00  0.00     0.014 A 
ATOM     38  C   UNL A   1      39.752  32.645  30.342  1.00  0.00     0.014 A 
ATOM     39  C   UNL A   1      38.948  30.247  29.307  1.00  0.00     0.010 A 
ATOM     40  C   UNL A   1      40.641  31.616  30.348  1.00  0.00     0.010 A 
ATOM     41  C   UNL A   1      40.186  30.378  29.967  1.00  0.00    -0.014 A 
BRANCH  41  42
ATOM     42  C   UNL A   1      41.141  29.291  30.109  1.00  0.00     0.031 A 
ATOM     43  C   UNL A   1      41.286  28.890  31.519  1.00  0.00     0.074 A 
ATOM     44  C   UNL A   1      41.639  28.545  29.095  1.00  0.00     0.049 A 
ATOM     45  N   UNL A   1      42.171  29.338  32.341  1.00  0.00    -0.248 NA
ATOM     46  C   UNL A   1      40.180  28.167  32.171  1.00  0.00     0.031 C 
ATOM     47  C   UNL A   1      41.314  28.596  27.666  1.00  0.00     0.029 A 
ATOM     48  N   UNL A   1      42.513  27.501  29.158  1.00  0.00    -0.354 N 
ATOM     49  C   UNL A   1      41.932  28.661  33.524  1.00  0.00     0.074 A 
ATOM     50  C   UNL A   1      40.558  28.250  33.450  1.00  0.00     0.031 C 
ATOM     51  C   UNL A   1      41.824  27.505  27.043  1.00  0.00     0.029 A 
ATOM     52  C   UNL A   1      42.627  26.744  27.990  1.00  0.00     0.049 A 
ATOM     53  H   UNL A   1      43.029  27.296  29.970  1.00  0.00     0.167 HD
ATOM     54  C   UNL A   1      42.977  28.203  34.268  1.00  0.00     0.034 A 
ATOM     55  C   UNL A   1      43.309  25.571  27.828  1.00  0.00     0.034 A 
ATOM     56  C   UNL A   1      44.228  28.773  33.785  1.00  0.00     0.049 A 
ATOM     57  C   UNL A   1      44.326  25.525  28.914  1.00  0.00     0.074 A 
ATOM     58  C   UNL A   1      44.663  30.064  33.535  1.00  0.00     0.029 A 
ATOM     59  N   UNL A   1      45.077  27.958  33.061  1.00  0.00    -0.354 N 
ATOM     60  N   UNL A   1      45.330  26.359  28.983  1.00  0.00    -0.248 NA
ATOM     61  C   UNL A   1      43.933  24.933  30.186  1.00  0.00     0.031 C 
ATOM     62  C   UNL A   1      45.371  29.980  32.299  1.00  0.00     0.029 A 
ATOM     63  C   UNL A   1      45.456  28.637  31.927  1.00  0.00     0.049 A 
ATOM     64  H   UNL A   1      45.360  27.049  33.312  1.00  0.00     0.167 HD
ATOM     65  C   UNL A   1      45.383  26.748  30.314  1.00  0.00     0.074 A 
ATOM     66  C   UNL A   1      44.558  25.768  31.024  1.00  0.00     0.031 C 
ATOM     67  C   UNL A   1      45.824  27.991  30.677  1.00  0.00     0.034 A 
BRANCH  54  68
ATOM     68  C   UNL A   1      42.949  26.949  35.116  1.00  0.00     0.023 A 
ATOM     69  C   UNL A   1      43.750  25.885  34.667  1.00  0.00     0.031 A 
ATOM     70  C   UNL A   1      42.020  26.627  36.131  1.00  0.00     0.131 A 
ATOM     71  C   UNL A   1      43.512  24.570  35.094  1.00  0.00     0.055 A 
ATOM     72  C   UNL A   1      41.835  25.325  36.607  1.00  0.00     0.041 A 
ATOM     73  F   UNL A   1      41.182  27.514  36.674  1.00  0.00    -0.206 F 
ATOM     74  C   UNL A   1      42.555  24.280  36.060  1.00  0.00     0.022 A 
BRANCH  71  75
ATOM     75  S   UNL A   1      44.350  23.235  34.213  1.00  0.00     0.124 S 
ATOM     76  O   UNL A   1      45.585  23.895  33.805  1.00  0.00    -0.237 OA
ATOM     77  O   UNL A   1      44.474  22.221  35.257  1.00  0.00    -0.237 OA
ATOM     78  O   UNL A   1      43.423  22.910  33.133  1.00  0.00    -0.744 OA
ENDBRANCH  71  75
ENDBRANCH  54  68
BRANCH  55  79
ATOM     79  C   UNL A   1      42.950  24.381  26.988  1.00  0.00     0.023 A 
ATOM     80  C   UNL A   1      43.858  23.717  26.124  1.00  0.00     0.031 A 
ATOM     81  C   UNL A   1      41.727  23.713  27.229  1.00  0.00     0.131 A 
ATOM     82  C   UNL A   1      43.528  22.458  25.555  1.00  0.00     0.055 A 
ATOM     83  C   UNL A   1      41.407  22.473  26.665  1.00  0.00     0.041 A 
ATOM     84  F   UNL A   1      40.829  24.200  28.097  1.00  0.00    -0.206 F 
ATOM     85  C   UNL A   1      42.310  21.834  25.836  1.00  0.00     0.022 A 
BRANCH  82  86
ATOM     86  S   UNL A   1      44.715  21.542  24.506  1.00  0.00     0.124 S 
ATOM     87  O   UNL A   1      45.984  21.786  25.180  1.00  0.00    -0.237 OA
ATOM     88  O   UNL A   1      44.201  20.179  24.558  1.00  0.00    -0.237 OA
ATOM     89  O   UNL A   1      44.585  22.189  23.197  1.00  0.00    -0.744 OA
ENDBRANCH  82  86
ENDBRANCH  55  79
BRANCH  67  90
ATOM     90  C   UNL A   1      46.588  28.832  29.666  1.00  0.00     0.023 A 
ATOM     91  C   UNL A   1      46.014  29.655  28.668  1.00  0.00     0.031 A 
ATOM     92  C   UNL A   1      47.989  28.870  29.802  1.00  0.00     0.131 A 
ATOM     93  C   UNL A   1      46.840  30.455  27.850  1.00  0.00     0.055 A 
ATOM     94  C   UNL A   1      48.799  29.683  29.013  1.00  0.00     0.041 A 
ATOM     95  F   UNL A   1      48.604  28.127  30.739  1.00  0.00    -0.206 F 
ATOM     96  C   UNL A   1      48.227  30.474  28.026  1.00  0.00     0.022 A 
BRANCH  93  97
ATOM     97  S   UNL A   1      46.139  31.464  26.501  1.00  0.00     0.124 S 
ATOM     98  O   UNL A   1      47.108  32.541  26.338  1.00  0.00    -0.237 OA
ATOM     99  O   UNL A   1      46.056  30.505  25.403  1.00  0.00    -0.237 OA
ATOM    100  O   UNL A   1      44.843  31.888  27.037  1.00  0.00    -0.744 OA
ENDBRANCH  93  97
ENDBRANCH  67  90
ENDBRANCH  41  42
ENDBRANCH  33  36
ENDBRANCH   1  32
TORSDOF 14
ENDMDL
