MODEL 1
REMARK VINA RESULT:     -13.1      0.000      0.000
REMARK SMILES Cc1ccc2[nH]c3c(=O)n(CC(=O)NCCCNC(=O)c4ccc(-c5c6nc(c(-c7cc(S(=O)(=O)[O-])ccc7F)c7ccc([nH]7)c(-c7cc(S(=O)(=O)[O-])ccc7F)c7nc(c(-c8cc(S(=O)(=O)[O-])ccc8F)c8ccc5[nH]8)C=C7)C=C6)cc4)cnc3c2c1
REMARK SMILES IDX 17 1 16 2 15 3 14 4 12 5 13 6 11 8 10 9 1 10 2 11 3 12 88 13
REMARK SMILES IDX 4 14 87 15 5 16 86 17 6 18 7 19 85 20 8 22 84 23 9 24 18 25
REMARK SMILES IDX 19 26 20 28 21 29 22 30 83 31 23 32 82 33 24 34 25 35 26 36
REMARK SMILES IDX 76 37 27 38 81 39 75 40 77 41 28 42 80 43 74 44 73 45 29 47
REMARK SMILES IDX 61 48 41 49 60 50 42 51 45 52 59 53 78 54 43 55 44 56 58 58
REMARK SMILES IDX 79 59 46 60 30 61 31 62 39 63 32 64 38 65 40 66 37 67 33 68
REMARK SMILES IDX 34 69 35 70 36 71 62 72 63 73 71 74 64 75 70 76 72 77 69 78
REMARK SMILES IDX 65 79 66 80 67 81 68 82 47 83 48 84 56 85 49 86 55 87 57 88
REMARK SMILES IDX 54 89 50 90 51 91 52 92 53 93
REMARK H PARENT 14 7 6 21 18 27 77 46 45 57
REMARK Flexibility Score: inf
ROOT
ATOM      1  C   UNL A   1      37.669  22.487  25.375  1.00  0.00     0.118 C 
ENDROOT
BRANCH   1   2
ATOM      2  C   UNL A   1      36.253  22.013  25.716  1.00  0.00     0.042 C 
BRANCH   2   3
ATOM      3  C   UNL A   1      35.807  20.774  24.941  1.00  0.00     0.117 C 
BRANCH   3   4
ATOM      4  N   UNL A   1      34.609  20.160  25.486  1.00  0.00    -0.354 N 
ATOM      5  C   UNL A   1      33.319  20.186  25.052  1.00  0.00     0.240 C 
ATOM      6  O   UNL A   1      32.549  19.342  25.520  1.00  0.00    -0.273 OA
ATOM      7  H   UNL A   1      34.754  19.636  26.308  1.00  0.00     0.163 HD
BRANCH   5   8
ATOM      8  C   UNL A   1      32.868  21.107  23.915  1.00  0.00     0.226 C 
BRANCH   8   9
ATOM      9  N   UNL A   1      32.824  22.509  24.291  1.00  0.00    -0.288 N 
ATOM     10  C   UNL A   1      32.032  29.688  27.193  1.00  0.00     0.044 C 
ATOM     11  C   UNL A   1      32.536  28.744  26.138  1.00  0.00    -0.050 A 
ATOM     12  C   UNL A   1      33.219  29.220  25.014  1.00  0.00     0.005 A 
ATOM     13  C   UNL A   1      32.293  27.367  26.277  1.00  0.00     0.016 A 
ATOM     14  C   UNL A   1      33.689  28.354  24.019  1.00  0.00     0.027 A 
ATOM     15  C   UNL A   1      32.759  26.475  25.293  1.00  0.00     0.026 A 
ATOM     16  C   UNL A   1      33.448  26.986  24.186  1.00  0.00     0.048 A 
ATOM     17  C   UNL A   1      32.715  25.078  25.110  1.00  0.00     0.103 A 
ATOM     18  N   UNL A   1      33.795  25.917  23.383  1.00  0.00    -0.349 N 
ATOM     19  C   UNL A   1      33.349  24.756  23.947  1.00  0.00     0.132 A 
ATOM     20  N   UNL A   1      32.148  24.116  25.949  1.00  0.00    -0.236 NA
ATOM     21  H   UNL A   1      34.288  25.982  22.534  1.00  0.00     0.167 HD
ATOM     22  C   UNL A   1      33.482  23.421  23.466  1.00  0.00     0.278 A 
ATOM     23  C   UNL A   1      32.247  22.909  25.486  1.00  0.00     0.203 A 
ATOM     24  O   UNL A   1      34.101  23.128  22.458  1.00  0.00    -0.267 OA
ENDBRANCH   8   9
ENDBRANCH   5   8
ENDBRANCH   3   4
ENDBRANCH   2   3
ENDBRANCH   1   2
BRANCH   1  25
ATOM     25  N   UNL A   1      38.721  21.793  26.090  1.00  0.00    -0.352 N 
ATOM     26  C   UNL A   1      39.695  22.148  26.981  1.00  0.00     0.251 C 
ATOM     27  H   UNL A   1      38.738  20.829  25.885  1.00  0.00     0.163 HD
ATOM     28  O   UNL A   1      40.320  21.206  27.478  1.00  0.00    -0.269 OA
BRANCH  26  29
ATOM     29  C   UNL A   1      40.095  23.539  27.327  1.00  0.00     0.039 A 
ATOM     30  C   UNL A   1      41.255  23.909  28.007  1.00  0.00     0.014 A 
ATOM     31  C   UNL A   1      39.168  24.543  26.984  1.00  0.00     0.014 A 
ATOM     32  C   UNL A   1      41.426  25.226  28.434  1.00  0.00     0.010 A 
ATOM     33  C   UNL A   1      39.341  25.861  27.395  1.00  0.00     0.010 A 
ATOM     34  C   UNL A   1      40.444  26.188  28.171  1.00  0.00    -0.014 A 
BRANCH  34  35
ATOM     35  C   UNL A   1      40.655  27.544  28.672  1.00  0.00     0.031 A 
ATOM     36  C   UNL A   1      41.851  28.231  28.111  1.00  0.00     0.074 A 
ATOM     37  C   UNL A   1      39.804  28.173  29.510  1.00  0.00     0.049 A 
ATOM     38  N   UNL A   1      42.954  28.531  28.714  1.00  0.00    -0.248 NA
ATOM     39  C   UNL A   1      41.879  28.480  26.662  1.00  0.00     0.031 C 
ATOM     40  C   UNL A   1      38.453  27.750  29.895  1.00  0.00     0.029 A 
ATOM     41  N   UNL A   1      39.930  29.385  30.124  1.00  0.00    -0.354 N 
ATOM     42  C   UNL A   1      43.741  29.199  27.773  1.00  0.00     0.074 A 
ATOM     43  C   UNL A   1      43.102  28.987  26.501  1.00  0.00     0.031 C 
ATOM     44  C   UNL A   1      37.806  28.789  30.470  1.00  0.00     0.029 A 
ATOM     45  C   UNL A   1      38.744  29.885  30.645  1.00  0.00     0.049 A 
ATOM     46  H   UNL A   1      40.788  29.863  30.192  1.00  0.00     0.167 HD
ATOM     47  C   UNL A   1      44.729  30.061  28.157  1.00  0.00     0.034 A 
ATOM     48  C   UNL A   1      38.527  31.130  31.134  1.00  0.00     0.034 A 
ATOM     49  C   UNL A   1      44.989  29.940  29.565  1.00  0.00     0.049 A 
ATOM     50  C   UNL A   1      39.835  31.721  31.484  1.00  0.00     0.074 A 
ATOM     51  C   UNL A   1      45.587  29.026  30.401  1.00  0.00     0.029 A 
ATOM     52  N   UNL A   1      44.259  30.794  30.350  1.00  0.00    -0.354 N 
ATOM     53  N   UNL A   1      40.581  31.313  32.471  1.00  0.00    -0.248 NA
ATOM     54  C   UNL A   1      40.505  32.561  30.502  1.00  0.00     0.031 C 
ATOM     55  C   UNL A   1      44.938  29.182  31.659  1.00  0.00     0.029 A 
ATOM     56  C   UNL A   1      43.999  30.212  31.557  1.00  0.00     0.049 A 
ATOM     57  H   UNL A   1      43.965  31.694  30.082  1.00  0.00     0.167 HD
ATOM     58  C   UNL A   1      41.873  31.443  31.996  1.00  0.00     0.074 A 
ATOM     59  C   UNL A   1      41.772  32.370  30.875  1.00  0.00     0.031 C 
ATOM     60  C   UNL A   1      42.841  30.555  32.364  1.00  0.00     0.034 A 
BRANCH  47  61
ATOM     61  C   UNL A   1      45.139  31.313  27.400  1.00  0.00     0.023 A 
ATOM     62  C   UNL A   1      44.307  32.434  27.243  1.00  0.00     0.031 A 
ATOM     63  C   UNL A   1      46.498  31.510  27.053  1.00  0.00     0.131 A 
ATOM     64  C   UNL A   1      44.811  33.670  26.813  1.00  0.00     0.055 A 
ATOM     65  C   UNL A   1      47.013  32.758  26.682  1.00  0.00     0.041 A 
ATOM     66  F   UNL A   1      47.387  30.506  27.130  1.00  0.00    -0.206 F 
ATOM     67  C   UNL A   1      46.169  33.852  26.572  1.00  0.00     0.022 A 
BRANCH  64  68
ATOM     68  S   UNL A   1      43.701  35.088  26.594  1.00  0.00     0.124 S 
ATOM     69  O   UNL A   1      42.886  35.023  27.802  1.00  0.00    -0.237 OA
ATOM     70  O   UNL A   1      44.651  36.197  26.529  1.00  0.00    -0.237 OA
ATOM     71  O   UNL A   1      43.012  34.790  25.342  1.00  0.00    -0.744 OA
ENDBRANCH  64  68
ENDBRANCH  47  61
BRANCH  48  72
ATOM     72  C   UNL A   1      37.341  31.985  30.899  1.00  0.00     0.023 A 
ATOM     73  C   UNL A   1      36.691  32.571  31.999  1.00  0.00     0.031 A 
ATOM     74  C   UNL A   1      36.646  31.952  29.676  1.00  0.00     0.131 A 
ATOM     75  C   UNL A   1      35.374  33.036  31.880  1.00  0.00     0.055 A 
ATOM     76  C   UNL A   1      35.339  32.439  29.554  1.00  0.00     0.041 A 
ATOM     77  F   UNL A   1      37.197  31.377  28.596  1.00  0.00    -0.206 F 
ATOM     78  C   UNL A   1      34.689  32.966  30.666  1.00  0.00     0.022 A 
BRANCH  75  79
ATOM     79  S   UNL A   1      34.483  33.641  33.340  1.00  0.00     0.124 S 
ATOM     80  O   UNL A   1      35.288  33.104  34.435  1.00  0.00    -0.237 OA
ATOM     81  O   UNL A   1      34.559  35.087  33.155  1.00  0.00    -0.237 OA
ATOM     82  O   UNL A   1      33.156  33.049  33.200  1.00  0.00    -0.744 OA
ENDBRANCH  75  79
ENDBRANCH  48  72
BRANCH  60  83
ATOM     83  C   UNL A   1      42.617  29.710  33.591  1.00  0.00     0.023 A 
ATOM     84  C   UNL A   1      43.229  30.157  34.775  1.00  0.00     0.031 A 
ATOM     85  C   UNL A   1      42.030  28.432  33.599  1.00  0.00     0.131 A 
ATOM     86  C   UNL A   1      43.301  29.323  35.893  1.00  0.00     0.055 A 
ATOM     87  C   UNL A   1      42.033  27.632  34.747  1.00  0.00     0.041 A 
ATOM     88  F   UNL A   1      41.514  27.889  32.489  1.00  0.00    -0.206 F 
ATOM     89  C   UNL A   1      42.689  28.068  35.894  1.00  0.00     0.022 A 
BRANCH  86  90
ATOM     90  S   UNL A   1      44.342  29.785  37.300  1.00  0.00     0.124 S 
ATOM     91  O   UNL A   1      43.532  30.801  37.964  1.00  0.00    -0.237 OA
ATOM     92  O   UNL A   1      44.473  28.517  38.017  1.00  0.00    -0.237 OA
ATOM     93  O   UNL A   1      45.574  30.271  36.685  1.00  0.00    -0.744 OA
ENDBRANCH  86  90
ENDBRANCH  60  83
ENDBRANCH  34  35
ENDBRANCH  26  29
ENDBRANCH   1  25
TORSDOF 14
ENDMDL
MODEL 2
REMARK VINA RESULT:     -12.8      3.383      8.979
REMARK SMILES Cc1ccc2[nH]c3c(=O)n(CC(=O)NCCCNC(=O)c4ccc(-c5c6nc(c(-c7cc(S(=O)(=O)[O-])ccc7F)c7ccc([nH]7)c(-c7cc(S(=O)(=O)[O-])ccc7F)c7nc(c(-c8cc(S(=O)(=O)[O-])ccc8F)c8ccc5[nH]8)C=C7)C=C6)cc4)cnc3c2c1
REMARK SMILES IDX 17 1 16 2 15 3 14 4 12 5 13 6 11 8 10 9 1 10 2 11 3 12 88 13
REMARK SMILES IDX 4 14 87 15 5 16 86 17 6 18 7 19 85 20 8 22 84 23 9 24 18 25
REMARK SMILES IDX 19 26 20 28 21 29 22 30 83 31 23 32 82 33 24 34 25 35 26 36
REMARK SMILES IDX 76 37 27 38 81 39 75 40 77 41 28 42 80 43 74 44 73 45 29 47
REMARK SMILES IDX 61 48 41 49 60 50 42 51 45 52 59 53 78 54 43 55 44 56 58 58
REMARK SMILES IDX 79 59 46 60 30 61 31 62 39 63 32 64 38 65 40 66 37 67 33 68
REMARK SMILES IDX 34 69 35 70 36 71 62 72 63 73 71 74 64 75 70 76 72 77 69 78
REMARK SMILES IDX 65 79 66 80 67 81 68 82 47 83 48 84 56 85 49 86 55 87 57 88
REMARK SMILES IDX 54 89 50 90 51 91 52 92 53 93
REMARK H PARENT 14 7 6 21 18 27 77 46 45 57
REMARK Flexibility Score: inf
ROOT
ATOM      1  C   UNL A   1      33.208  29.844  27.089  1.00  0.00     0.118 C 
ENDROOT
BRANCH   1   2
ATOM      2  C   UNL A   1      32.866  30.038  25.609  1.00  0.00     0.042 C 
BRANCH   2   3
ATOM      3  C   UNL A   1      31.370  29.997  25.303  1.00  0.00     0.117 C 
BRANCH   3   4
ATOM      4  N   UNL A   1      31.077  29.643  23.926  1.00  0.00    -0.354 N 
ATOM      5  C   UNL A   1      30.577  28.496  23.389  1.00  0.00     0.240 C 
ATOM      6  O   UNL A   1      30.142  28.557  22.234  1.00  0.00    -0.273 OA
ATOM      7  H   UNL A   1      31.272  30.351  23.270  1.00  0.00     0.163 HD
BRANCH   5   8
ATOM      8  C   UNL A   1      30.405  27.223  24.221  1.00  0.00     0.226 C 
BRANCH   8   9
ATOM      9  N   UNL A   1      31.633  26.463  24.375  1.00  0.00    -0.288 N 
ATOM     10  C   UNL A   1      38.285  22.856  26.198  1.00  0.00     0.044 C 
ATOM     11  C   UNL A   1      37.155  23.129  25.246  1.00  0.00    -0.050 A 
ATOM     12  C   UNL A   1      37.122  22.535  23.980  1.00  0.00     0.005 A 
ATOM     13  C   UNL A   1      36.132  24.013  25.630  1.00  0.00     0.016 A 
ATOM     14  C   UNL A   1      36.079  22.785  23.079  1.00  0.00     0.027 A 
ATOM     15  C   UNL A   1      35.071  24.278  24.744  1.00  0.00     0.026 A 
ATOM     16  C   UNL A   1      35.066  23.657  23.489  1.00  0.00     0.048 A 
ATOM     17  C   UNL A   1      33.906  25.071  24.789  1.00  0.00     0.103 A 
ATOM     18  N   UNL A   1      33.930  24.077  22.823  1.00  0.00    -0.349 N 
ATOM     19  C   UNL A   1      33.225  24.936  23.617  1.00  0.00     0.132 A 
ATOM     20  N   UNL A   1      33.451  25.873  25.837  1.00  0.00    -0.236 NA
ATOM     21  H   UNL A   1      33.668  23.799  21.916  1.00  0.00     0.167 HD
ATOM     22  C   UNL A   1      31.998  25.607  23.337  1.00  0.00     0.278 A 
ATOM     23  C   UNL A   1      32.352  26.504  25.560  1.00  0.00     0.203 A 
ATOM     24  O   UNL A   1      31.359  25.440  22.314  1.00  0.00    -0.267 OA
ENDBRANCH   8   9
ENDBRANCH   5   8
ENDBRANCH   3   4
ENDBRANCH   2   3
ENDBRANCH   1   2
BRANCH   1  25
ATOM     25  N   UNL A   1      33.618  31.056  27.772  1.00  0.00    -0.352 N 
ATOM     26  C   UNL A   1      34.802  31.570  28.223  1.00  0.00     0.251 C 
ATOM     27  H   UNL A   1      32.858  31.656  27.955  1.00  0.00     0.163 HD
ATOM     28  O   UNL A   1      34.744  32.731  28.640  1.00  0.00    -0.269 OA
BRANCH  26  29
ATOM     29  C   UNL A   1      36.092  30.835  28.318  1.00  0.00     0.039 A 
ATOM     30  C   UNL A   1      36.267  29.465  28.125  1.00  0.00     0.014 A 
ATOM     31  C   UNL A   1      37.206  31.606  28.705  1.00  0.00     0.014 A 
ATOM     32  C   UNL A   1      37.491  28.867  28.424  1.00  0.00     0.010 A 
ATOM     33  C   UNL A   1      38.433  31.016  28.989  1.00  0.00     0.010 A 
ATOM     34  C   UNL A   1      38.556  29.637  28.904  1.00  0.00    -0.014 A 
BRANCH  34  35
ATOM     35  C   UNL A   1      39.806  28.955  29.236  1.00  0.00     0.031 A 
ATOM     36  C   UNL A   1      40.154  28.973  30.683  1.00  0.00     0.074 A 
ATOM     37  C   UNL A   1      40.554  28.285  28.335  1.00  0.00     0.049 A 
ATOM     38  N   UNL A   1      41.108  29.624  31.265  1.00  0.00    -0.248 NA
ATOM     39  C   UNL A   1      39.235  28.305  31.616  1.00  0.00     0.031 C 
ATOM     40  C   UNL A   1      40.187  27.922  26.961  1.00  0.00     0.029 A 
ATOM     41  N   UNL A   1      41.776  27.697  28.490  1.00  0.00    -0.354 N 
ATOM     42  C   UNL A   1      41.042  29.280  32.617  1.00  0.00     0.074 A 
ATOM     43  C   UNL A   1      39.780  28.610  32.795  1.00  0.00     0.031 C 
ATOM     44  C   UNL A   1      41.048  26.984  26.502  1.00  0.00     0.029 A 
ATOM     45  C   UNL A   1      42.113  26.810  27.475  1.00  0.00     0.049 A 
ATOM     46  H   UNL A   1      42.366  27.885  29.253  1.00  0.00     0.167 HD
ATOM     47  C   UNL A   1      42.136  29.378  33.429  1.00  0.00     0.034 A 
ATOM     48  C   UNL A   1      43.160  25.950  27.456  1.00  0.00     0.034 A 
ATOM     49  C   UNL A   1      43.187  30.111  32.777  1.00  0.00     0.049 A 
ATOM     50  C   UNL A   1      44.161  26.423  28.434  1.00  0.00     0.074 A 
ATOM     51  C   UNL A   1      43.436  31.420  32.437  1.00  0.00     0.029 A 
ATOM     52  N   UNL A   1      44.068  29.332  32.073  1.00  0.00    -0.354 N 
ATOM     53  N   UNL A   1      44.869  27.506  28.289  1.00  0.00    -0.248 NA
ATOM     54  C   UNL A   1      44.133  25.871  29.781  1.00  0.00     0.031 C 
ATOM     55  C   UNL A   1      44.274  31.359  31.287  1.00  0.00     0.029 A 
ATOM     56  C   UNL A   1      44.538  30.019  30.992  1.00  0.00     0.049 A 
ATOM     57  H   UNL A   1      44.322  28.412  32.313  1.00  0.00     0.167 HD
ATOM     58  C   UNL A   1      44.976  28.016  29.570  1.00  0.00     0.074 A 
ATOM     59  C   UNL A   1      44.670  26.894  30.450  1.00  0.00     0.031 C 
ATOM     60  C   UNL A   1      45.002  29.363  29.783  1.00  0.00     0.034 A 
BRANCH  47  61
ATOM     61  C   UNL A   1      42.447  28.451  34.593  1.00  0.00     0.023 A 
ATOM     62  C   UNL A   1      42.631  27.065  34.455  1.00  0.00     0.031 A 
ATOM     63  C   UNL A   1      42.841  28.998  35.839  1.00  0.00     0.131 A 
ATOM     64  C   UNL A   1      43.208  26.295  35.476  1.00  0.00     0.055 A 
ATOM     65  C   UNL A   1      43.473  28.241  36.833  1.00  0.00     0.041 A 
ATOM     66  F   UNL A   1      42.687  30.305  36.104  1.00  0.00    -0.206 F 
ATOM     67  C   UNL A   1      43.671  26.881  36.650  1.00  0.00     0.022 A 
BRANCH  64  68
ATOM     68  S   UNL A   1      43.403  24.503  35.274  1.00  0.00     0.124 S 
ATOM     69  O   UNL A   1      42.067  24.015  35.595  1.00  0.00    -0.237 OA
ATOM     70  O   UNL A   1      43.791  24.407  33.869  1.00  0.00    -0.237 OA
ATOM     71  O   UNL A   1      44.453  24.165  36.230  1.00  0.00    -0.744 OA
ENDBRANCH  64  68
ENDBRANCH  47  61
BRANCH  48  72
ATOM     72  C   UNL A   1      43.148  24.543  26.994  1.00  0.00     0.023 A 
ATOM     73  C   UNL A   1      44.108  24.123  26.057  1.00  0.00     0.031 A 
ATOM     74  C   UNL A   1      42.025  23.719  27.187  1.00  0.00     0.131 A 
ATOM     75  C   UNL A   1      43.902  22.960  25.303  1.00  0.00     0.055 A 
ATOM     76  C   UNL A   1      41.832  22.545  26.449  1.00  0.00     0.041 A 
ATOM     77  F   UNL A   1      41.055  24.079  28.042  1.00  0.00    -0.206 F 
ATOM     78  C   UNL A   1      42.765  22.170  25.486  1.00  0.00     0.022 A 
BRANCH  75  79
ATOM     79  S   UNL A   1      45.061  22.509  23.982  1.00  0.00     0.124 S 
ATOM     80  O   UNL A   1      44.163  22.285  22.851  1.00  0.00    -0.237 OA
ATOM     81  O   UNL A   1      45.894  23.704  23.897  1.00  0.00    -0.237 OA
ATOM     82  O   UNL A   1      45.716  21.310  24.497  1.00  0.00    -0.744 OA
ENDBRANCH  75  79
ENDBRANCH  48  72
BRANCH  60  83
ATOM     83  C   UNL A   1      45.341  30.269  28.627  1.00  0.00     0.023 A 
ATOM     84  C   UNL A   1      46.679  30.690  28.538  1.00  0.00     0.031 A 
ATOM     85  C   UNL A   1      44.404  30.877  27.772  1.00  0.00     0.131 A 
ATOM     86  C   UNL A   1      47.038  31.724  27.671  1.00  0.00     0.055 A 
ATOM     87  C   UNL A   1      44.783  31.856  26.848  1.00  0.00     0.041 A 
ATOM     88  F   UNL A   1      43.095  30.607  27.860  1.00  0.00    -0.206 F 
ATOM     89  C   UNL A   1      46.102  32.298  26.808  1.00  0.00     0.022 A 
BRANCH  86  90
ATOM     90  S   UNL A   1      48.689  32.459  27.776  1.00  0.00     0.124 S 
ATOM     91  O   UNL A   1      49.259  32.127  26.473  1.00  0.00    -0.237 OA
ATOM     92  O   UNL A   1      48.386  33.873  27.988  1.00  0.00    -0.237 OA
ATOM     93  O   UNL A   1      49.305  31.787  28.917  1.00  0.00    -0.744 OA
ENDBRANCH  86  90
ENDBRANCH  60  83
ENDBRANCH  34  35
ENDBRANCH  26  29
ENDBRANCH   1  25
TORSDOF 14
ENDMDL
MODEL 3
REMARK VINA RESULT:     -12.8      1.660      2.202
REMARK SMILES Cc1ccc2[nH]c3c(=O)n(CC(=O)NCCCNC(=O)c4ccc(-c5c6nc(c(-c7cc(S(=O)(=O)[O-])ccc7F)c7ccc([nH]7)c(-c7cc(S(=O)(=O)[O-])ccc7F)c7nc(c(-c8cc(S(=O)(=O)[O-])ccc8F)c8ccc5[nH]8)C=C7)C=C6)cc4)cnc3c2c1
REMARK SMILES IDX 17 1 16 2 15 3 14 4 12 5 13 6 11 8 10 9 1 10 2 11 3 12 88 13
REMARK SMILES IDX 4 14 87 15 5 16 86 17 6 18 7 19 85 20 8 22 84 23 9 24 18 25
REMARK SMILES IDX 19 26 20 28 21 29 22 30 83 31 23 32 82 33 24 34 25 35 26 36
REMARK SMILES IDX 76 37 27 38 81 39 75 40 77 41 28 42 80 43 74 44 73 45 29 47
REMARK SMILES IDX 61 48 41 49 60 50 42 51 45 52 59 53 78 54 43 55 44 56 58 58
REMARK SMILES IDX 79 59 46 60 30 61 31 62 39 63 32 64 38 65 40 66 37 67 33 68
REMARK SMILES IDX 34 69 35 70 36 71 62 72 63 73 71 74 64 75 70 76 72 77 69 78
REMARK SMILES IDX 65 79 66 80 67 81 68 82 47 83 48 84 56 85 49 86 55 87 57 88
REMARK SMILES IDX 54 89 50 90 51 91 52 92 53 93
REMARK H PARENT 14 7 6 21 18 27 77 46 45 57
REMARK Flexibility Score: inf
ROOT
ATOM      1  C   UNL A   1      37.563  22.227  25.275  1.00  0.00     0.118 C 
ENDROOT
BRANCH   1   2
ATOM      2  C   UNL A   1      36.564  21.093  25.026  1.00  0.00     0.042 C 
BRANCH   2   3
ATOM      3  C   UNL A   1      35.105  21.545  24.983  1.00  0.00     0.117 C 
BRANCH   3   4
ATOM      4  N   UNL A   1      34.807  22.412  23.857  1.00  0.00    -0.354 N 
ATOM      5  C   UNL A   1      34.145  23.600  23.799  1.00  0.00     0.240 C 
ATOM      6  O   UNL A   1      34.289  24.276  22.775  1.00  0.00    -0.273 OA
ATOM      7  H   UNL A   1      35.140  22.086  22.989  1.00  0.00     0.163 HD
BRANCH   5   8
ATOM      8  C   UNL A   1      33.385  24.161  25.003  1.00  0.00     0.226 C 
BRANCH   8   9
ATOM      9  N   UNL A   1      32.500  25.262  24.666  1.00  0.00    -0.288 N 
ATOM     10  C   UNL A   1      28.637  31.807  22.983  1.00  0.00     0.044 C 
ATOM     11  C   UNL A   1      28.682  30.315  23.166  1.00  0.00    -0.050 A 
ATOM     12  C   UNL A   1      27.528  29.538  23.020  1.00  0.00     0.005 A 
ATOM     13  C   UNL A   1      29.898  29.703  23.512  1.00  0.00     0.016 A 
ATOM     14  C   UNL A   1      27.552  28.149  23.195  1.00  0.00     0.027 A 
ATOM     15  C   UNL A   1      29.950  28.307  23.688  1.00  0.00     0.026 A 
ATOM     16  C   UNL A   1      28.777  27.560  23.525  1.00  0.00     0.048 A 
ATOM     17  C   UNL A   1      30.959  27.378  24.013  1.00  0.00     0.103 A 
ATOM     18  N   UNL A   1      29.096  26.234  23.747  1.00  0.00    -0.349 N 
ATOM     19  C   UNL A   1      30.424  26.125  24.043  1.00  0.00     0.132 A 
ATOM     20  N   UNL A   1      32.311  27.626  24.259  1.00  0.00    -0.236 NA
ATOM     21  H   UNL A   1      28.462  25.482  23.700  1.00  0.00     0.167 HD
ATOM     22  C   UNL A   1      31.180  24.953  24.341  1.00  0.00     0.278 A 
ATOM     23  C   UNL A   1      32.982  26.558  24.560  1.00  0.00     0.203 A 
ATOM     24  O   UNL A   1      30.715  23.828  24.309  1.00  0.00    -0.267 OA
ENDBRANCH   8   9
ENDBRANCH   5   8
ENDBRANCH   3   4
ENDBRANCH   2   3
ENDBRANCH   1   2
BRANCH   1  25
ATOM     25  N   UNL A   1      38.889  21.783  25.655  1.00  0.00    -0.352 N 
ATOM     26  C   UNL A   1      39.873  22.243  26.485  1.00  0.00     0.251 C 
ATOM     27  H   UNL A   1      39.145  20.944  25.205  1.00  0.00     0.163 HD
ATOM     28  O   UNL A   1      40.828  21.476  26.642  1.00  0.00    -0.269 OA
BRANCH  26  29
ATOM     29  C   UNL A   1      39.912  23.583  27.131  1.00  0.00     0.039 A 
ATOM     30  C   UNL A   1      38.992  24.612  26.933  1.00  0.00     0.014 A 
ATOM     31  C   UNL A   1      41.027  23.829  27.958  1.00  0.00     0.014 A 
ATOM     32  C   UNL A   1      39.240  25.883  27.451  1.00  0.00     0.010 A 
ATOM     33  C   UNL A   1      41.271  25.091  28.489  1.00  0.00     0.010 A 
ATOM     34  C   UNL A   1      40.405  26.132  28.186  1.00  0.00    -0.014 A 
BRANCH  34  35
ATOM     35  C   UNL A   1      40.635  27.490  28.675  1.00  0.00     0.031 A 
ATOM     36  C   UNL A   1      41.838  28.156  28.106  1.00  0.00     0.074 A 
ATOM     37  C   UNL A   1      39.793  28.136  29.509  1.00  0.00     0.049 A 
ATOM     38  N   UNL A   1      42.946  28.446  28.706  1.00  0.00    -0.248 NA
ATOM     39  C   UNL A   1      41.868  28.393  26.656  1.00  0.00     0.031 C 
ATOM     40  C   UNL A   1      38.437  27.734  29.899  1.00  0.00     0.029 A 
ATOM     41  N   UNL A   1      39.936  29.351  30.113  1.00  0.00    -0.354 N 
ATOM     42  C   UNL A   1      43.741  29.097  27.758  1.00  0.00     0.074 A 
ATOM     43  C   UNL A   1      43.097  28.882  26.488  1.00  0.00     0.031 C 
ATOM     44  C   UNL A   1      37.804  28.786  30.467  1.00  0.00     0.029 A 
ATOM     45  C   UNL A   1      38.757  29.871  30.631  1.00  0.00     0.049 A 
ATOM     46  H   UNL A   1      40.800  29.818  30.176  1.00  0.00     0.167 HD
ATOM     47  C   UNL A   1      44.741  29.948  28.133  1.00  0.00     0.034 A 
ATOM     48  C   UNL A   1      38.558  31.123  31.111  1.00  0.00     0.034 A 
ATOM     49  C   UNL A   1      45.001  29.836  29.542  1.00  0.00     0.049 A 
ATOM     50  C   UNL A   1      39.873  31.700  31.454  1.00  0.00     0.074 A 
ATOM     51  C   UNL A   1      45.588  28.921  30.385  1.00  0.00     0.029 A 
ATOM     52  N   UNL A   1      44.283  30.706  30.321  1.00  0.00    -0.354 N 
ATOM     53  N   UNL A   1      40.615  31.290  32.443  1.00  0.00    -0.248 NA
ATOM     54  C   UNL A   1      40.552  32.522  30.463  1.00  0.00     0.031 C 
ATOM     55  C   UNL A   1      44.944  29.096  31.643  1.00  0.00     0.029 A 
ATOM     56  C   UNL A   1      44.017  30.137  31.533  1.00  0.00     0.049 A 
ATOM     57  H   UNL A   1      44.000  31.607  30.046  1.00  0.00     0.167 HD
ATOM     58  C   UNL A   1      41.908  31.399  31.965  1.00  0.00     0.074 A 
ATOM     59  C   UNL A   1      41.818  32.318  30.837  1.00  0.00     0.031 C 
ATOM     60  C   UNL A   1      42.866  30.502  32.339  1.00  0.00     0.034 A 
BRANCH  47  61
ATOM     61  C   UNL A   1      45.165  31.189  27.366  1.00  0.00     0.023 A 
ATOM     62  C   UNL A   1      44.332  32.302  27.163  1.00  0.00     0.031 A 
ATOM     63  C   UNL A   1      46.533  31.388  27.055  1.00  0.00     0.131 A 
ATOM     64  C   UNL A   1      44.842  33.533  26.725  1.00  0.00     0.055 A 
ATOM     65  C   UNL A   1      47.052  32.632  26.676  1.00  0.00     0.041 A 
ATOM     66  F   UNL A   1      47.425  30.391  27.177  1.00  0.00    -0.206 F 
ATOM     67  C   UNL A   1      46.205  33.719  26.521  1.00  0.00     0.022 A 
BRANCH  64  68
ATOM     68  S   UNL A   1      43.731  34.940  26.448  1.00  0.00     0.124 S 
ATOM     69  O   UNL A   1      42.922  34.930  27.661  1.00  0.00    -0.237 OA
ATOM     70  O   UNL A   1      44.680  36.044  26.328  1.00  0.00    -0.237 OA
ATOM     71  O   UNL A   1      43.036  34.586  25.214  1.00  0.00    -0.744 OA
ENDBRANCH  64  68
ENDBRANCH  47  61
BRANCH  48  72
ATOM     72  C   UNL A   1      37.382  31.991  30.869  1.00  0.00     0.023 A 
ATOM     73  C   UNL A   1      36.730  32.580  31.968  1.00  0.00     0.031 A 
ATOM     74  C   UNL A   1      36.696  31.971  29.642  1.00  0.00     0.131 A 
ATOM     75  C   UNL A   1      35.419  33.059  31.841  1.00  0.00     0.055 A 
ATOM     76  C   UNL A   1      35.395  32.471  29.512  1.00  0.00     0.041 A 
ATOM     77  F   UNL A   1      37.248  31.393  28.563  1.00  0.00    -0.206 F 
ATOM     78  C   UNL A   1      34.742  33.001  30.621  1.00  0.00     0.022 A 
BRANCH  75  79
ATOM     79  S   UNL A   1      34.523  33.668  33.296  1.00  0.00     0.124 S 
ATOM     80  O   UNL A   1      33.219  33.026  33.142  1.00  0.00    -0.237 OA
ATOM     81  O   UNL A   1      35.349  33.160  34.387  1.00  0.00    -0.237 OA
ATOM     82  O   UNL A   1      34.524  35.116  33.116  1.00  0.00    -0.744 OA
ENDBRANCH  75  79
ENDBRANCH  48  72
BRANCH  60  83
ATOM     83  C   UNL A   1      42.632  29.671  33.573  1.00  0.00     0.023 A 
ATOM     84  C   UNL A   1      43.211  30.146  34.763  1.00  0.00     0.031 A 
ATOM     85  C   UNL A   1      42.069  28.382  33.588  1.00  0.00     0.131 A 
ATOM     86  C   UNL A   1      43.276  29.329  35.894  1.00  0.00     0.055 A 
ATOM     87  C   UNL A   1      42.064  27.598  34.747  1.00  0.00     0.041 A 
ATOM     88  F   UNL A   1      41.586  27.813  32.476  1.00  0.00    -0.206 F 
ATOM     89  C   UNL A   1      42.688  28.062  35.901  1.00  0.00     0.022 A 
BRANCH  86  90
ATOM     90  S   UNL A   1      44.279  29.829  37.314  1.00  0.00     0.124 S 
ATOM     91  O   UNL A   1      44.547  28.553  37.970  1.00  0.00    -0.237 OA
ATOM     92  O   UNL A   1      45.432  30.460  36.673  1.00  0.00    -0.237 OA
ATOM     93  O   UNL A   1      43.414  30.744  38.055  1.00  0.00    -0.744 OA
ENDBRANCH  86  90
ENDBRANCH  60  83
ENDBRANCH  34  35
ENDBRANCH  26  29
ENDBRANCH   1  25
TORSDOF 14
ENDMDL
