MODEL 1
REMARK VINA RESULT:     -13.0      0.000      0.000
REMARK SMILES O=C(NCCCNC(=O)c1nccnc1C(=O)Nc1ccc2c(c1)OCO2)c1ccc(-c2c3nc(c(-c4cc(S(=O)(=O)[O-])ccc4F)c4ccc([nH]4)c(-c4cc(S(=O)(=O)[O-])ccc4F)c4nc(c(-c5cc(S(=O)(=O)[O-])ccc5F)c5ccc2[nH]5)C=C4)C=C3)cc1
REMARK SMILES IDX 4 1 3 2 1 3 2 4 28 6 29 7 90 8 30 9 89 10 31 11 32 12 33 13
REMARK SMILES IDX 83 14 34 15 88 16 82 17 84 18 35 19 87 20 81 21 80 22 36 24
REMARK SMILES IDX 68 25 48 26 67 27 49 28 52 29 66 30 85 31 50 32 51 33 65 35
REMARK SMILES IDX 86 36 53 37 37 38 38 39 46 40 39 41 45 42 47 43 44 44 40 45
REMARK SMILES IDX 41 46 42 47 43 48 69 49 70 50 78 51 71 52 77 53 79 54 76 55
REMARK SMILES IDX 72 56 73 57 74 58 75 59 54 60 55 61 63 62 56 63 62 64 64 65
REMARK SMILES IDX 61 66 57 67 58 68 59 69 60 70 5 71 6 72 7 73 8 74 9 76 10 77
REMARK SMILES IDX 11 78 15 79 12 80 14 81 13 82 16 83 17 84 18 85 19 87 20 88
REMARK SMILES IDX 24 89 21 90 23 91 22 92 25 93 27 94 26 95
REMARK H PARENT 3 5 84 23 52 34 7 75 18 86
REMARK Flexibility Score: inf
ROOT
ATOM      1  C   UNL A   1      36.992  22.128  25.334  1.00  0.00     0.118 C 
ENDROOT
BRANCH   1   2
ATOM      2  N   UNL A   1      37.869  21.020  25.700  1.00  0.00    -0.352 N 
ATOM      3  O   UNL A   1      39.858  20.050  26.158  1.00  0.00    -0.269 OA
ATOM      4  C   UNL A   1      39.168  21.064  26.149  1.00  0.00     0.251 C 
ATOM      5  H   UNL A   1      37.478  20.121  25.613  1.00  0.00     0.163 HD
BRANCH   4   6
ATOM      6  C   UNL A   1      39.729  22.349  26.617  1.00  0.00     0.039 A 
ATOM      7  C   UNL A   1      39.221  23.553  26.124  1.00  0.00     0.014 A 
ATOM      8  C   UNL A   1      40.762  22.350  27.560  1.00  0.00     0.014 A 
ATOM      9  C   UNL A   1      39.822  24.755  26.485  1.00  0.00     0.010 A 
ATOM     10  C   UNL A   1      41.331  23.562  27.959  1.00  0.00     0.010 A 
ATOM     11  C   UNL A   1      40.887  24.769  27.400  1.00  0.00    -0.014 A 
BRANCH  11  12
ATOM     12  C   UNL A   1      41.508  26.068  27.759  1.00  0.00     0.031 A 
ATOM     13  C   UNL A   1      42.866  26.439  27.234  1.00  0.00     0.074 A 
ATOM     14  C   UNL A   1      40.814  26.931  28.522  1.00  0.00     0.049 A 
ATOM     15  N   UNL A   1      43.529  27.559  27.377  1.00  0.00    -0.248 NA
ATOM     16  C   UNL A   1      43.577  25.415  26.455  1.00  0.00     0.031 C 
ATOM     17  C   UNL A   1      39.493  26.670  29.098  1.00  0.00     0.029 A 
ATOM     18  N   UNL A   1      41.108  28.206  28.926  1.00  0.00    -0.354 N 
ATOM     19  C   UNL A   1      44.737  27.375  26.716  1.00  0.00     0.074 A 
ATOM     20  C   UNL A   1      44.727  26.021  26.198  1.00  0.00     0.031 C 
ATOM     21  C   UNL A   1      39.074  27.766  29.748  1.00  0.00     0.029 A 
ATOM     22  C   UNL A   1      40.107  28.794  29.661  1.00  0.00     0.049 A 
ATOM     23  H   UNL A   1      41.956  28.658  28.711  1.00  0.00     0.167 HD
ATOM     24  C   UNL A   1      45.757  28.254  26.550  1.00  0.00     0.034 A 
ATOM     25  C   UNL A   1      40.028  30.024  30.202  1.00  0.00     0.034 A 
ATOM     26  C   UNL A   1      45.751  29.603  27.066  1.00  0.00     0.049 A 
ATOM     27  C   UNL A   1      41.168  30.981  30.004  1.00  0.00     0.074 A 
ATOM     28  C   UNL A   1      46.712  30.590  26.923  1.00  0.00     0.029 A 
ATOM     29  N   UNL A   1      44.733  30.153  27.836  1.00  0.00    -0.354 N 
ATOM     30  N   UNL A   1      42.295  30.799  29.356  1.00  0.00    -0.248 NA
ATOM     31  C   UNL A   1      41.022  32.311  30.606  1.00  0.00     0.031 C 
ATOM     32  C   UNL A   1      46.296  31.718  27.642  1.00  0.00     0.029 A 
ATOM     33  C   UNL A   1      45.053  31.454  28.194  1.00  0.00     0.049 A 
ATOM     34  H   UNL A   1      43.904  29.686  28.089  1.00  0.00     0.167 HD
ATOM     35  C   UNL A   1      42.991  31.996  29.467  1.00  0.00     0.074 A 
ATOM     36  C   UNL A   1      42.149  32.898  30.230  1.00  0.00     0.031 C 
ATOM     37  C   UNL A   1      44.214  32.325  28.980  1.00  0.00     0.034 A 
BRANCH  24  38
ATOM     38  C   UNL A   1      46.979  27.759  25.819  1.00  0.00     0.023 A 
ATOM     39  C   UNL A   1      47.197  28.051  24.460  1.00  0.00     0.031 A 
ATOM     40  C   UNL A   1      47.920  26.950  26.480  1.00  0.00     0.131 A 
ATOM     41  C   UNL A   1      48.292  27.483  23.791  1.00  0.00     0.055 A 
ATOM     42  C   UNL A   1      49.042  26.442  25.824  1.00  0.00     0.041 A 
ATOM     43  F   UNL A   1      47.751  26.624  27.772  1.00  0.00    -0.206 F 
ATOM     44  C   UNL A   1      49.226  26.696  24.468  1.00  0.00     0.022 A 
BRANCH  41  45
ATOM     45  S   UNL A   1      48.406  27.677  21.989  1.00  0.00     0.124 S 
ATOM     46  O   UNL A   1      48.668  26.306  21.557  1.00  0.00    -0.237 OA
ATOM     47  O   UNL A   1      47.095  28.215  21.647  1.00  0.00    -0.237 OA
ATOM     48  O   UNL A   1      49.525  28.600  21.814  1.00  0.00    -0.744 OA
ENDBRANCH  41  45
ENDBRANCH  24  38
BRANCH  25  49
ATOM     49  C   UNL A   1      38.829  30.412  30.988  1.00  0.00     0.023 A 
ATOM     50  C   UNL A   1      37.773  31.119  30.396  1.00  0.00     0.031 A 
ATOM     51  C   UNL A   1      38.728  30.077  32.349  1.00  0.00     0.131 A 
ATOM     52  C   UNL A   1      36.666  31.493  31.172  1.00  0.00     0.055 A 
ATOM     53  C   UNL A   1      37.611  30.422  33.109  1.00  0.00     0.041 A 
ATOM     54  F   UNL A   1      39.711  29.389  32.953  1.00  0.00    -0.206 F 
ATOM     55  C   UNL A   1      36.574  31.141  32.522  1.00  0.00     0.022 A 
BRANCH  52  56
ATOM     56  S   UNL A   1      35.354  32.478  30.399  1.00  0.00     0.124 S 
ATOM     57  O   UNL A   1      36.043  33.736  30.132  1.00  0.00    -0.237 OA
ATOM     58  O   UNL A   1      35.017  31.671  29.230  1.00  0.00    -0.237 OA
ATOM     59  O   UNL A   1      34.321  32.538  31.429  1.00  0.00    -0.744 OA
ENDBRANCH  52  56
ENDBRANCH  25  49
BRANCH  37  60
ATOM     60  C   UNL A   1      44.688  33.726  29.256  1.00  0.00     0.023 A 
ATOM     61  C   UNL A   1      44.276  34.806  28.457  1.00  0.00     0.031 A 
ATOM     62  C   UNL A   1      45.596  33.974  30.299  1.00  0.00     0.131 A 
ATOM     63  C   UNL A   1      44.810  36.083  28.684  1.00  0.00     0.055 A 
ATOM     64  C   UNL A   1      46.092  35.254  30.547  1.00  0.00     0.041 A 
ATOM     65  F   UNL A   1      46.020  32.973  31.087  1.00  0.00    -0.206 F 
ATOM     66  C   UNL A   1      45.710  36.315  29.729  1.00  0.00     0.022 A 
BRANCH  63  67
ATOM     67  S   UNL A   1      44.380  37.424  27.541  1.00  0.00     0.124 S 
ATOM     68  O   UNL A   1      43.970  38.485  28.455  1.00  0.00    -0.237 OA
ATOM     69  O   UNL A   1      45.634  37.642  26.830  1.00  0.00    -0.237 OA
ATOM     70  O   UNL A   1      43.302  36.853  26.733  1.00  0.00    -0.744 OA
ENDBRANCH  63  67
ENDBRANCH  37  60
ENDBRANCH  11  12
ENDBRANCH   4   6
ENDBRANCH   1   2
BRANCH   1  71
ATOM     71  C   UNL A   1      36.796  22.202  23.824  1.00  0.00     0.042 C 
BRANCH  71  72
ATOM     72  C   UNL A   1      35.910  23.370  23.408  1.00  0.00     0.118 C 
BRANCH  72  73
ATOM     73  N   UNL A   1      34.748  23.500  24.260  1.00  0.00    -0.351 N 
ATOM     74  C   UNL A   1      33.474  23.575  23.736  1.00  0.00     0.272 C 
ATOM     75  H   UNL A   1      34.868  23.537  25.236  1.00  0.00     0.163 HD
ATOM     76  O   UNL A   1      33.146  23.243  22.604  1.00  0.00    -0.267 OA
BRANCH  74  77
ATOM     77  C   UNL A   1      32.501  24.241  24.626  1.00  0.00     0.159 A 
ATOM     78  N   UNL A   1      32.186  25.519  24.264  1.00  0.00    -0.247 NA
ATOM     79  C   UNL A   1      32.017  23.654  25.785  1.00  0.00     0.159 A 
ATOM     80  C   UNL A   1      31.381  26.176  25.122  1.00  0.00     0.132 A 
ATOM     81  N   UNL A   1      31.188  24.313  26.642  1.00  0.00    -0.247 NA
ATOM     82  C   UNL A   1      30.900  25.591  26.285  1.00  0.00     0.132 A 
BRANCH  79  83
ATOM     83  C   UNL A   1      32.518  22.324  26.183  1.00  0.00     0.276 C 
ATOM     84  O   UNL A   1      33.564  22.250  26.814  1.00  0.00    -0.267 OA
ATOM     85  N   UNL A   1      31.783  21.278  25.661  1.00  0.00    -0.320 N 
ATOM     86  H   UNL A   1      30.806  21.287  25.784  1.00  0.00     0.170 HD
BRANCH  85  87
ATOM     87  C   UNL A   1      32.358  20.193  24.960  1.00  0.00     0.045 A 
ATOM     88  C   UNL A   1      32.262  20.061  23.558  1.00  0.00     0.030 A 
ATOM     89  C   UNL A   1      32.840  19.128  25.732  1.00  0.00     0.076 A 
ATOM     90  C   UNL A   1      32.547  18.844  22.933  1.00  0.00     0.053 A 
ATOM     91  C   UNL A   1      33.093  17.936  25.089  1.00  0.00     0.167 A 
ATOM     92  C   UNL A   1      32.930  17.791  23.731  1.00  0.00     0.165 A 
ATOM     93  O   UNL A   1      33.454  16.771  25.693  1.00  0.00    -0.454 OA
ATOM     94  O   UNL A   1      33.153  16.518  23.314  1.00  0.00    -0.454 OA
ATOM     95  C   UNL A   1      33.380  15.861  24.576  1.00  0.00     0.468 C 
ENDBRANCH  85  87
ENDBRANCH  79  83
ENDBRANCH  74  77
ENDBRANCH  72  73
ENDBRANCH  71  72
ENDBRANCH   1  71
TORSDOF 15
ENDMDL
MODEL 2
REMARK VINA RESULT:     -12.8      1.452      1.754
REMARK SMILES O=C(NCCCNC(=O)c1nccnc1C(=O)Nc1ccc2c(c1)OCO2)c1ccc(-c2c3nc(c(-c4cc(S(=O)(=O)[O-])ccc4F)c4ccc([nH]4)c(-c4cc(S(=O)(=O)[O-])ccc4F)c4nc(c(-c5cc(S(=O)(=O)[O-])ccc5F)c5ccc2[nH]5)C=C4)C=C3)cc1
REMARK SMILES IDX 4 1 3 2 1 3 2 4 28 6 29 7 90 8 30 9 89 10 31 11 32 12 33 13
REMARK SMILES IDX 83 14 34 15 88 16 82 17 84 18 35 19 87 20 81 21 80 22 36 24
REMARK SMILES IDX 68 25 48 26 67 27 49 28 52 29 66 30 85 31 50 32 51 33 65 35
REMARK SMILES IDX 86 36 53 37 37 38 38 39 46 40 39 41 45 42 47 43 44 44 40 45
REMARK SMILES IDX 41 46 42 47 43 48 69 49 70 50 78 51 71 52 77 53 79 54 76 55
REMARK SMILES IDX 72 56 73 57 74 58 75 59 54 60 55 61 63 62 56 63 62 64 64 65
REMARK SMILES IDX 61 66 57 67 58 68 59 69 60 70 5 71 6 72 7 73 8 74 9 76 10 77
REMARK SMILES IDX 11 78 15 79 12 80 14 81 13 82 16 83 17 84 18 85 19 87 20 88
REMARK SMILES IDX 24 89 21 90 23 91 22 92 25 93 27 94 26 95
REMARK H PARENT 3 5 84 23 52 34 7 75 18 86
REMARK Flexibility Score: inf
ROOT
ATOM      1  C   UNL A   1      36.780  22.068  25.224  1.00  0.00     0.118 C 
ENDROOT
BRANCH   1   2
ATOM      2  N   UNL A   1      37.632  20.928  25.547  1.00  0.00    -0.352 N 
ATOM      3  O   UNL A   1      39.601  19.895  25.954  1.00  0.00    -0.269 OA
ATOM      4  C   UNL A   1      38.936  20.926  25.983  1.00  0.00     0.251 C 
ATOM      5  H   UNL A   1      37.218  20.042  25.438  1.00  0.00     0.163 HD
BRANCH   4   6
ATOM      6  C   UNL A   1      39.534  22.182  26.483  1.00  0.00     0.039 A 
ATOM      7  C   UNL A   1      39.096  23.411  25.983  1.00  0.00     0.014 A 
ATOM      8  C   UNL A   1      40.531  22.132  27.463  1.00  0.00     0.014 A 
ATOM      9  C   UNL A   1      39.735  24.583  26.376  1.00  0.00     0.010 A 
ATOM     10  C   UNL A   1      41.137  23.315  27.894  1.00  0.00     0.010 A 
ATOM     11  C   UNL A   1      40.765  24.545  27.329  1.00  0.00    -0.014 A 
BRANCH  11  12
ATOM     12  C   UNL A   1      41.427  25.813  27.723  1.00  0.00     0.031 A 
ATOM     13  C   UNL A   1      42.825  26.121  27.266  1.00  0.00     0.074 A 
ATOM     14  C   UNL A   1      40.738  26.706  28.455  1.00  0.00     0.049 A 
ATOM     15  N   UNL A   1      43.531  27.209  27.444  1.00  0.00    -0.248 NA
ATOM     16  C   UNL A   1      43.524  25.067  26.517  1.00  0.00     0.031 C 
ATOM     17  C   UNL A   1      39.379  26.505  28.965  1.00  0.00     0.029 A 
ATOM     18  N   UNL A   1      41.071  27.966  28.877  1.00  0.00    -0.354 N 
ATOM     19  C   UNL A   1      44.760  26.970  26.841  1.00  0.00     0.074 A 
ATOM     20  C   UNL A   1      44.713  25.619  26.319  1.00  0.00     0.031 C 
ATOM     21  C   UNL A   1      38.981  27.620  29.597  1.00  0.00     0.029 A 
ATOM     22  C   UNL A   1      40.063  28.598  29.564  1.00  0.00     0.049 A 
ATOM     23  H   UNL A   1      41.947  28.379  28.705  1.00  0.00     0.167 HD
ATOM     24  C   UNL A   1      45.826  27.802  26.728  1.00  0.00     0.034 A 
ATOM     25  C   UNL A   1      40.015  29.830  30.105  1.00  0.00     0.034 A 
ATOM     26  C   UNL A   1      45.858  29.148  27.248  1.00  0.00     0.049 A 
ATOM     27  C   UNL A   1      41.207  30.733  29.966  1.00  0.00     0.074 A 
ATOM     28  C   UNL A   1      46.869  30.090  27.155  1.00  0.00     0.029 A 
ATOM     29  N   UNL A   1      44.830  29.744  27.969  1.00  0.00    -0.354 N 
ATOM     30  N   UNL A   1      42.354  30.500  29.372  1.00  0.00    -0.248 NA
ATOM     31  C   UNL A   1      41.093  32.068  30.565  1.00  0.00     0.031 C 
ATOM     32  C   UNL A   1      46.472  31.235  27.857  1.00  0.00     0.029 A 
ATOM     33  C   UNL A   1      45.192  31.028  28.347  1.00  0.00     0.049 A 
ATOM     34  H   UNL A   1      43.969  29.316  28.181  1.00  0.00     0.167 HD
ATOM     35  C   UNL A   1      43.098  31.664  29.521  1.00  0.00     0.074 A 
ATOM     36  C   UNL A   1      42.263  32.603  30.246  1.00  0.00     0.031 C 
ATOM     37  C   UNL A   1      44.357  31.936  29.095  1.00  0.00     0.034 A 
BRANCH  24  38
ATOM     38  C   UNL A   1      47.058  27.251  26.055  1.00  0.00     0.023 A 
ATOM     39  C   UNL A   1      48.024  26.516  26.766  1.00  0.00     0.031 A 
ATOM     40  C   UNL A   1      47.290  27.500  24.691  1.00  0.00     0.131 A 
ATOM     41  C   UNL A   1      49.206  26.114  26.126  1.00  0.00     0.055 A 
ATOM     42  C   UNL A   1      48.438  27.040  24.044  1.00  0.00     0.041 A 
ATOM     43  F   UNL A   1      46.411  28.213  23.969  1.00  0.00    -0.206 F 
ATOM     44  C   UNL A   1      49.412  26.354  24.765  1.00  0.00     0.022 A 
BRANCH  41  45
ATOM     45  S   UNL A   1      50.534  25.388  27.128  1.00  0.00     0.124 S 
ATOM     46  O   UNL A   1      51.482  24.956  26.103  1.00  0.00    -0.237 OA
ATOM     47  O   UNL A   1      50.956  26.512  27.955  1.00  0.00    -0.237 OA
ATOM     48  O   UNL A   1      49.869  24.301  27.844  1.00  0.00    -0.744 OA
ENDBRANCH  41  45
ENDBRANCH  24  38
BRANCH  25  49
ATOM     49  C   UNL A   1      38.798  30.272  30.834  1.00  0.00     0.023 A 
ATOM     50  C   UNL A   1      37.778  30.974  30.178  1.00  0.00     0.031 A 
ATOM     51  C   UNL A   1      38.646  29.995  32.203  1.00  0.00     0.131 A 
ATOM     52  C   UNL A   1      36.653  31.400  30.901  1.00  0.00     0.055 A 
ATOM     53  C   UNL A   1      37.511  30.392  32.910  1.00  0.00     0.041 A 
ATOM     54  F   UNL A   1      39.595  29.314  32.867  1.00  0.00    -0.206 F 
ATOM     55  C   UNL A   1      36.509  31.105  32.260  1.00  0.00     0.022 A 
BRANCH  52  56
ATOM     56  S   UNL A   1      35.388  32.377  30.044  1.00  0.00     0.124 S 
ATOM     57  O   UNL A   1      35.009  31.486  28.954  1.00  0.00    -0.237 OA
ATOM     58  O   UNL A   1      34.391  32.568  31.093  1.00  0.00    -0.237 OA
ATOM     59  O   UNL A   1      36.105  33.585  29.643  1.00  0.00    -0.744 OA
ENDBRANCH  52  56
ENDBRANCH  25  49
BRANCH  37  60
ATOM     60  C   UNL A   1      44.882  33.313  29.398  1.00  0.00     0.023 A 
ATOM     61  C   UNL A   1      44.714  34.374  28.493  1.00  0.00     0.031 A 
ATOM     62  C   UNL A   1      45.595  33.554  30.585  1.00  0.00     0.131 A 
ATOM     63  C   UNL A   1      45.296  35.621  28.764  1.00  0.00     0.055 A 
ATOM     64  C   UNL A   1      46.137  34.807  30.869  1.00  0.00     0.041 A 
ATOM     65  F   UNL A   1      45.784  32.571  31.479  1.00  0.00    -0.206 F 
ATOM     66  C   UNL A   1      46.000  35.846  29.951  1.00  0.00     0.022 A 
BRANCH  63  67
ATOM     67  S   UNL A   1      45.195  36.923  27.506  1.00  0.00     0.124 S 
ATOM     68  O   UNL A   1      46.206  36.497  26.543  1.00  0.00    -0.237 OA
ATOM     69  O   UNL A   1      43.809  36.821  27.063  1.00  0.00    -0.237 OA
ATOM     70  O   UNL A   1      45.520  38.141  28.246  1.00  0.00    -0.744 OA
ENDBRANCH  63  67
ENDBRANCH  37  60
ENDBRANCH  11  12
ENDBRANCH   4   6
ENDBRANCH   1   2
BRANCH   1  71
ATOM     71  C   UNL A   1      36.710  22.297  23.719  1.00  0.00     0.042 C 
BRANCH  71  72
ATOM     72  C   UNL A   1      35.838  23.491  23.350  1.00  0.00     0.118 C 
BRANCH  72  73
ATOM     73  N   UNL A   1      34.693  23.618  24.227  1.00  0.00    -0.351 N 
ATOM     74  C   UNL A   1      33.414  23.747  23.728  1.00  0.00     0.272 C 
ATOM     75  H   UNL A   1      34.830  23.611  25.201  1.00  0.00     0.163 HD
ATOM     76  O   UNL A   1      33.059  23.470  22.588  1.00  0.00    -0.267 OA
BRANCH  74  77
ATOM     77  C   UNL A   1      32.474  24.403  24.660  1.00  0.00     0.159 A 
ATOM     78  N   UNL A   1      32.157  25.689  24.331  1.00  0.00    -0.247 NA
ATOM     79  C   UNL A   1      32.021  23.796  25.821  1.00  0.00     0.159 A 
ATOM     80  C   UNL A   1      31.383  26.335  25.226  1.00  0.00     0.132 A 
ATOM     81  N   UNL A   1      31.223  24.444  26.716  1.00  0.00    -0.247 NA
ATOM     82  C   UNL A   1      30.934  25.730  26.393  1.00  0.00     0.132 A 
BRANCH  79  83
ATOM     83  C   UNL A   1      32.524  22.456  26.178  1.00  0.00     0.276 C 
ATOM     84  O   UNL A   1      33.577  22.364  26.795  1.00  0.00    -0.267 OA
ATOM     85  N   UNL A   1      31.782  21.425  25.636  1.00  0.00    -0.320 N 
ATOM     86  H   UNL A   1      30.806  21.431  25.769  1.00  0.00     0.170 HD
BRANCH  85  87
ATOM     87  C   UNL A   1      32.348  20.359  24.900  1.00  0.00     0.045 A 
ATOM     88  C   UNL A   1      32.228  20.258  23.498  1.00  0.00     0.030 A 
ATOM     89  C   UNL A   1      32.847  19.278  25.638  1.00  0.00     0.076 A 
ATOM     90  C   UNL A   1      32.505  19.057  22.839  1.00  0.00     0.053 A 
ATOM     91  C   UNL A   1      33.092  18.102  24.963  1.00  0.00     0.167 A 
ATOM     92  C   UNL A   1      32.905  17.988  23.606  1.00  0.00     0.165 A 
ATOM     93  O   UNL A   1      33.468  16.925  25.535  1.00  0.00    -0.454 OA
ATOM     94  O   UNL A   1      33.125  16.725  23.156  1.00  0.00    -0.454 OA
ATOM     95  C   UNL A   1      33.377  16.040  24.398  1.00  0.00     0.468 C 
ENDBRANCH  85  87
ENDBRANCH  79  83
ENDBRANCH  74  77
ENDBRANCH  72  73
ENDBRANCH  71  72
ENDBRANCH   1  71
TORSDOF 15
ENDMDL
MODEL 3
REMARK VINA RESULT:     -12.8      5.126     10.518
REMARK SMILES O=C(NCCCNC(=O)c1nccnc1C(=O)Nc1ccc2c(c1)OCO2)c1ccc(-c2c3nc(c(-c4cc(S(=O)(=O)[O-])ccc4F)c4ccc([nH]4)c(-c4cc(S(=O)(=O)[O-])ccc4F)c4nc(c(-c5cc(S(=O)(=O)[O-])ccc5F)c5ccc2[nH]5)C=C4)C=C3)cc1
REMARK SMILES IDX 4 1 3 2 1 3 2 4 28 6 29 7 90 8 30 9 89 10 31 11 32 12 33 13
REMARK SMILES IDX 83 14 34 15 88 16 82 17 84 18 35 19 87 20 81 21 80 22 36 24
REMARK SMILES IDX 68 25 48 26 67 27 49 28 52 29 66 30 85 31 50 32 51 33 65 35
REMARK SMILES IDX 86 36 53 37 37 38 38 39 46 40 39 41 45 42 47 43 44 44 40 45
REMARK SMILES IDX 41 46 42 47 43 48 69 49 70 50 78 51 71 52 77 53 79 54 76 55
REMARK SMILES IDX 72 56 73 57 74 58 75 59 54 60 55 61 63 62 56 63 62 64 64 65
REMARK SMILES IDX 61 66 57 67 58 68 59 69 60 70 5 71 6 72 7 73 8 74 9 76 10 77
REMARK SMILES IDX 11 78 15 79 12 80 14 81 13 82 16 83 17 84 18 85 19 87 20 88
REMARK SMILES IDX 24 89 21 90 23 91 22 92 25 93 27 94 26 95
REMARK H PARENT 3 5 84 23 52 34 7 75 18 86
REMARK Flexibility Score: inf
ROOT
ATOM      1  C   UNL A   1      32.142  30.157  26.744  1.00  0.00     0.118 C 
ENDROOT
BRANCH   1   2
ATOM      2  N   UNL A   1      32.093  31.616  26.733  1.00  0.00    -0.352 N 
ATOM      3  O   UNL A   1      32.584  33.686  27.495  1.00  0.00    -0.269 OA
ATOM      4  C   UNL A   1      32.910  32.508  27.385  1.00  0.00     0.251 C 
ATOM      5  H   UNL A   1      31.378  32.014  26.186  1.00  0.00     0.163 HD
BRANCH   4   6
ATOM      6  C   UNL A   1      34.189  32.035  27.957  1.00  0.00     0.039 A 
ATOM      7  C   UNL A   1      34.269  30.761  28.526  1.00  0.00     0.014 A 
ATOM      8  C   UNL A   1      35.314  32.864  27.917  1.00  0.00     0.014 A 
ATOM      9  C   UNL A   1      35.441  30.361  29.159  1.00  0.00     0.010 A 
ATOM     10  C   UNL A   1      36.506  32.440  28.510  1.00  0.00     0.010 A 
ATOM     11  C   UNL A   1      36.568  31.199  29.163  1.00  0.00    -0.014 A 
BRANCH  11  12
ATOM     12  C   UNL A   1      37.801  30.743  29.850  1.00  0.00     0.031 A 
ATOM     13  C   UNL A   1      38.082  31.149  31.269  1.00  0.00     0.074 A 
ATOM     14  C   UNL A   1      38.640  29.917  29.200  1.00  0.00     0.049 A 
ATOM     15  N   UNL A   1      39.064  30.783  32.054  1.00  0.00    -0.248 NA
ATOM     16  C   UNL A   1      37.142  32.097  31.884  1.00  0.00     0.031 C 
ATOM     17  C   UNL A   1      38.473  29.468  27.816  1.00  0.00     0.029 A 
ATOM     18  N   UNL A   1      39.783  29.290  29.619  1.00  0.00    -0.354 N 
ATOM     19  C   UNL A   1      38.869  31.462  33.251  1.00  0.00     0.074 A 
ATOM     20  C   UNL A   1      37.690  32.286  33.076  1.00  0.00     0.031 C 
ATOM     21  C   UNL A   1      39.457  28.607  27.513  1.00  0.00     0.029 A 
ATOM     22  C   UNL A   1      40.338  28.467  28.668  1.00  0.00     0.049 A 
ATOM     23  H   UNL A   1      40.171  29.417  30.515  1.00  0.00     0.167 HD
ATOM     24  C   UNL A   1      39.601  31.398  34.392  1.00  0.00     0.034 A 
ATOM     25  C   UNL A   1      41.432  27.685  28.722  1.00  0.00     0.034 A 
ATOM     26  C   UNL A   1      40.770  30.567  34.555  1.00  0.00     0.049 A 
ATOM     27  C   UNL A   1      42.226  27.629  29.996  1.00  0.00     0.074 A 
ATOM     28  C   UNL A   1      41.562  30.395  35.678  1.00  0.00     0.029 A 
ATOM     29  N   UNL A   1      41.323  29.772  33.558  1.00  0.00    -0.354 N 
ATOM     30  N   UNL A   1      42.014  28.260  31.127  1.00  0.00    -0.248 NA
ATOM     31  C   UNL A   1      43.401  26.751  29.999  1.00  0.00     0.031 C 
ATOM     32  C   UNL A   1      42.617  29.534  35.347  1.00  0.00     0.029 A 
ATOM     33  C   UNL A   1      42.456  29.128  34.032  1.00  0.00     0.049 A 
ATOM     34  H   UNL A   1      40.961  29.678  32.647  1.00  0.00     0.167 HD
ATOM     35  C   UNL A   1      43.030  27.849  31.982  1.00  0.00     0.074 A 
ATOM     36  C   UNL A   1      43.842  26.903  31.240  1.00  0.00     0.031 C 
ATOM     37  C   UNL A   1      43.269  28.214  33.267  1.00  0.00     0.034 A 
BRANCH  24  38
ATOM     38  C   UNL A   1      39.176  32.290  35.531  1.00  0.00     0.023 A 
ATOM     39  C   UNL A   1      39.620  33.620  35.635  1.00  0.00     0.031 A 
ATOM     40  C   UNL A   1      38.347  31.789  36.551  1.00  0.00     0.131 A 
ATOM     41  C   UNL A   1      39.288  34.382  36.765  1.00  0.00     0.055 A 
ATOM     42  C   UNL A   1      37.967  32.574  37.640  1.00  0.00     0.041 A 
ATOM     43  F   UNL A   1      37.910  30.520  36.513  1.00  0.00    -0.206 F 
ATOM     44  C   UNL A   1      38.449  33.875  37.760  1.00  0.00     0.022 A 
BRANCH  41  45
ATOM     45  S   UNL A   1      40.077  36.002  36.985  1.00  0.00     0.124 S 
ATOM     46  O   UNL A   1      41.470  35.627  37.220  1.00  0.00    -0.237 OA
ATOM     47  O   UNL A   1      39.800  36.663  35.715  1.00  0.00    -0.237 OA
ATOM     48  O   UNL A   1      39.390  36.564  38.145  1.00  0.00    -0.744 OA
ENDBRANCH  41  45
ENDBRANCH  24  38
BRANCH  25  49
ATOM     49  C   UNL A   1      41.842  26.902  27.528  1.00  0.00     0.023 A 
ATOM     50  C   UNL A   1      41.658  25.514  27.476  1.00  0.00     0.031 A 
ATOM     51  C   UNL A   1      42.427  27.541  26.421  1.00  0.00     0.131 A 
ATOM     52  C   UNL A   1      42.079  24.799  26.344  1.00  0.00     0.055 A 
ATOM     53  C   UNL A   1      42.814  26.831  25.285  1.00  0.00     0.041 A 
ATOM     54  F   UNL A   1      42.610  28.871  26.425  1.00  0.00    -0.206 F 
ATOM     55  C   UNL A   1      42.647  25.450  25.245  1.00  0.00     0.022 A 
BRANCH  52  56
ATOM     56  S   UNL A   1      41.903  22.994  26.340  1.00  0.00     0.124 S 
ATOM     57  O   UNL A   1      42.539  22.635  25.078  1.00  0.00    -0.237 OA
ATOM     58  O   UNL A   1      42.622  22.617  27.552  1.00  0.00    -0.237 OA
ATOM     59  O   UNL A   1      40.457  22.793  26.389  1.00  0.00    -0.744 OA
ENDBRANCH  52  56
ENDBRANCH  25  49
BRANCH  37  60
ATOM     60  C   UNL A   1      44.451  27.568  33.936  1.00  0.00     0.023 A 
ATOM     61  C   UNL A   1      44.315  26.373  34.663  1.00  0.00     0.031 A 
ATOM     62  C   UNL A   1      45.716  28.178  33.883  1.00  0.00     0.131 A 
ATOM     63  C   UNL A   1      45.418  25.848  35.352  1.00  0.00     0.055 A 
ATOM     64  C   UNL A   1      46.819  27.629  34.537  1.00  0.00     0.041 A 
ATOM     65  F   UNL A   1      45.894  29.322  33.204  1.00  0.00    -0.206 F 
ATOM     66  C   UNL A   1      46.671  26.464  35.287  1.00  0.00     0.022 A 
BRANCH  63  67
ATOM     67  S   UNL A   1      45.175  24.393  36.407  1.00  0.00     0.124 S 
ATOM     68  O   UNL A   1      46.522  23.838  36.478  1.00  0.00    -0.237 OA
ATOM     69  O   UNL A   1      44.662  24.983  37.638  1.00  0.00    -0.237 OA
ATOM     70  O   UNL A   1      44.211  23.585  35.660  1.00  0.00    -0.744 OA
ENDBRANCH  63  67
ENDBRANCH  37  60
ENDBRANCH  11  12
ENDBRANCH   4   6
ENDBRANCH   1   2
BRANCH   1  71
ATOM     71  C   UNL A   1      32.725  29.614  25.445  1.00  0.00     0.042 C 
BRANCH  71  72
ATOM     72  C   UNL A   1      34.026  28.851  25.663  1.00  0.00     0.118 C 
BRANCH  72  73
ATOM     73  N   UNL A   1      34.102  27.662  24.843  1.00  0.00    -0.351 N 
ATOM     74  C   UNL A   1      33.618  26.449  25.285  1.00  0.00     0.272 C 
ATOM     75  H   UNL A   1      34.509  27.719  23.948  1.00  0.00     0.163 HD
ATOM     76  O   UNL A   1      32.834  26.287  26.213  1.00  0.00    -0.267 OA
BRANCH  74  77
ATOM     77  C   UNL A   1      34.240  25.282  24.626  1.00  0.00     0.159 A 
ATOM     78  N   UNL A   1      35.151  24.617  25.395  1.00  0.00    -0.247 NA
ATOM     79  C   UNL A   1      33.989  24.942  23.306  1.00  0.00     0.159 A 
ATOM     80  C   UNL A   1      35.803  23.615  24.773  1.00  0.00     0.132 A 
ATOM     81  N   UNL A   1      34.636  23.916  22.684  1.00  0.00    -0.247 NA
ATOM     82  C   UNL A   1      35.557  23.278  23.449  1.00  0.00     0.132 A 
BRANCH  79  83
ATOM     83  C   UNL A   1      33.099  25.798  22.498  1.00  0.00     0.276 C 
ATOM     84  O   UNL A   1      33.583  26.731  21.872  1.00  0.00    -0.267 OA
ATOM     85  N   UNL A   1      31.758  25.507  22.658  1.00  0.00    -0.320 N 
ATOM     86  H   UNL A   1      31.467  24.573  22.549  1.00  0.00     0.170 HD
BRANCH  85  87
ATOM     87  C   UNL A   1      30.780  26.480  22.970  1.00  0.00     0.045 A 
ATOM     88  C   UNL A   1      29.642  26.186  23.750  1.00  0.00     0.030 A 
ATOM     89  C   UNL A   1      30.865  27.699  22.286  1.00  0.00     0.076 A 
ATOM     90  C   UNL A   1      28.547  27.055  23.773  1.00  0.00     0.053 A 
ATOM     91  C   UNL A   1      29.761  28.524  22.312  1.00  0.00     0.167 A 
ATOM     92  C   UNL A   1      28.626  28.201  23.018  1.00  0.00     0.165 A 
ATOM     93  O   UNL A   1      29.625  29.686  21.617  1.00  0.00    -0.454 OA
ATOM     94  O   UNL A   1      27.630  29.108  22.843  1.00  0.00    -0.454 OA
ATOM     95  C   UNL A   1      28.236  29.985  21.874  1.00  0.00     0.468 C 
ENDBRANCH  85  87
ENDBRANCH  79  83
ENDBRANCH  74  77
ENDBRANCH  72  73
ENDBRANCH  71  72
ENDBRANCH   1  71
TORSDOF 15
ENDMDL
