MODEL 1
REMARK VINA RESULT:     -10.8      0.000      0.000
REMARK SMILES O=C(NCCCNC(=O)c1ccc(-c2c3nc(c(-c4cc(S(=O)(=O)[O-])ccc4F)c4ccc([nH]4)c(-c4cc(S(=O)(=O)[O-])ccc4F)c4nc(c(-c5cc(S(=O)(=O)[O-])ccc5F)c5ccc2[nH]5)C=C4)C=C3)cc1)c1ccc(Cn2ccnc2C[NH2+]C2CC2)cc1
REMARK SMILES IDX 4 1 3 2 1 3 2 4 73 6 74 7 89 8 75 9 88 10 76 11 77 12 78 13
REMARK SMILES IDX 79 14 82 15 80 16 81 17 83 18 84 19 85 22 86 23 87 24 5 25
REMARK SMILES IDX 6 26 7 27 8 28 9 30 10 31 11 32 72 33 12 34 71 35 13 36
REMARK SMILES IDX 14 37 15 38 65 39 16 40 70 41 64 42 66 43 17 44 69 45 63 46
REMARK SMILES IDX 62 47 18 49 50 50 30 51 49 52 31 53 34 54 48 55 67 56 32 57
REMARK SMILES IDX 33 58 47 60 68 61 35 62 19 63 20 64 28 65 21 66 27 67 29 68
REMARK SMILES IDX 26 69 22 70 23 71 24 72 25 73 51 74 52 75 60 76 53 77 59 78
REMARK SMILES IDX 61 79 58 80 54 81 55 82 56 83 57 84 36 85 37 86 45 87 38 88
REMARK SMILES IDX 44 89 46 90 43 91 39 92 40 93 41 94 42 95
REMARK H PARENT 3 5 84 20 84 21 7 29 66 48 34 59
REMARK Flexibility Score: inf
ROOT
ATOM      1  C   UNL A   1      31.286  27.332  26.263  1.00  0.00     0.118 C 
ENDROOT
BRANCH   1   2
ATOM      2  N   UNL A   1      31.106  28.044  25.005  1.00  0.00    -0.352 N 
ATOM      3  O   UNL A   1      31.445  28.516  22.818  1.00  0.00    -0.269 OA
ATOM      4  C   UNL A   1      31.576  27.733  23.754  1.00  0.00     0.251 C 
ATOM      5  H   UNL A   1      30.569  28.867  25.061  1.00  0.00     0.163 HD
BRANCH   4   6
ATOM      6  C   UNL A   1      32.263  26.446  23.534  1.00  0.00     0.039 A 
ATOM      7  C   UNL A   1      31.579  25.363  22.978  1.00  0.00     0.014 A 
ATOM      8  C   UNL A   1      33.608  26.327  23.888  1.00  0.00     0.014 A 
ATOM      9  C   UNL A   1      32.217  24.129  22.868  1.00  0.00     0.006 A 
ATOM     10  C   UNL A   1      34.246  25.089  23.777  1.00  0.00     0.006 A 
ATOM     11  C   UNL A   1      33.547  23.970  23.294  1.00  0.00    -0.028 A 
BRANCH  11  12
ATOM     12  C   UNL A   1      34.199  22.608  23.262  1.00  0.00     0.159 C 
BRANCH  12  13
ATOM     13  N   UNL A   1      33.591  21.677  24.204  1.00  0.00    -0.326 N 
ATOM     14  C   UNL A   1      32.660  20.724  23.862  1.00  0.00     0.108 A 
ATOM     15  C   UNL A   1      33.894  21.492  25.539  1.00  0.00     0.164 A 
ATOM     16  C   UNL A   1      32.405  20.027  25.015  1.00  0.00     0.131 A 
ATOM     17  N   UNL A   1      33.183  20.491  26.033  1.00  0.00    -0.236 NA
BRANCH  15  18
ATOM     18  C   UNL A   1      34.908  22.268  26.324  1.00  0.00     0.337 C 
BRANCH  18  19
ATOM     19  N   UNL A   1      36.255  21.739  26.127  1.00  0.00    -0.338 N 
ATOM     20  H   UNL A   1      36.189  20.887  25.569  1.00  0.00     0.346 HD
ATOM     21  H   UNL A   1      36.647  21.565  27.052  1.00  0.00     0.346 HD
BRANCH  19  22
ATOM     22  C   UNL A   1      37.152  22.666  25.448  1.00  0.00     0.183 C 
ATOM     23  C   UNL A   1      37.313  24.078  25.934  1.00  0.00     0.071 C 
ATOM     24  C   UNL A   1      38.425  23.090  26.125  1.00  0.00     0.071 C 
ENDBRANCH  19  22
ENDBRANCH  18  19
ENDBRANCH  15  18
ENDBRANCH  12  13
ENDBRANCH  11  12
ENDBRANCH   4   6
ENDBRANCH   1   2
BRANCH   1  25
ATOM     25  C   UNL A   1      32.119  28.111  27.274  1.00  0.00     0.042 C 
BRANCH  25  26
ATOM     26  C   UNL A   1      33.370  28.770  26.702  1.00  0.00     0.118 C 
BRANCH  26  27
ATOM     27  N   UNL A   1      33.440  30.196  26.984  1.00  0.00    -0.352 N 
ATOM     28  C   UNL A   1      34.346  30.936  27.702  1.00  0.00     0.251 C 
ATOM     29  H   UNL A   1      32.709  30.723  26.590  1.00  0.00     0.163 HD
ATOM     30  O   UNL A   1      34.081  32.114  27.934  1.00  0.00    -0.269 OA
BRANCH  28  31
ATOM     31  C   UNL A   1      35.608  30.349  28.215  1.00  0.00     0.039 A 
ATOM     32  C   UNL A   1      36.743  30.401  27.398  1.00  0.00     0.014 A 
ATOM     33  C   UNL A   1      35.684  29.704  29.451  1.00  0.00     0.014 A 
ATOM     34  C   UNL A   1      37.954  29.861  27.840  1.00  0.00     0.010 A 
ATOM     35  C   UNL A   1      36.912  29.239  29.928  1.00  0.00     0.010 A 
ATOM     36  C   UNL A   1      38.059  29.305  29.126  1.00  0.00    -0.014 A 
BRANCH  36  37
ATOM     37  C   UNL A   1      39.362  28.792  29.629  1.00  0.00     0.031 A 
ATOM     38  C   UNL A   1      40.063  29.472  30.777  1.00  0.00     0.074 A 
ATOM     39  C   UNL A   1      39.937  27.735  29.021  1.00  0.00     0.049 A 
ATOM     40  N   UNL A   1      41.209  29.180  31.338  1.00  0.00    -0.248 NA
ATOM     41  C   UNL A   1      39.402  30.654  31.349  1.00  0.00     0.031 C 
ATOM     42  C   UNL A   1      39.392  27.030  27.859  1.00  0.00     0.029 A 
ATOM     43  N   UNL A   1      41.108  27.070  29.289  1.00  0.00    -0.354 N 
ATOM     44  C   UNL A   1      41.415  30.151  32.313  1.00  0.00     0.074 A 
ATOM     45  C   UNL A   1      40.301  31.070  32.228  1.00  0.00     0.031 C 
ATOM     46  C   UNL A   1      40.210  26.017  27.533  1.00  0.00     0.029 A 
ATOM     47  C   UNL A   1      41.355  26.018  28.438  1.00  0.00     0.049 A 
ATOM     48  H   UNL A   1      41.715  27.323  30.022  1.00  0.00     0.167 HD
ATOM     49  C   UNL A   1      42.428  30.253  33.210  1.00  0.00     0.034 A 
ATOM     50  C   UNL A   1      42.385  25.151  28.390  1.00  0.00     0.034 A 
ATOM     51  C   UNL A   1      43.522  29.314  33.300  1.00  0.00     0.049 A 
ATOM     52  C   UNL A   1      43.479  25.264  29.419  1.00  0.00     0.074 A 
ATOM     53  C   UNL A   1      44.560  29.283  34.216  1.00  0.00     0.029 A 
ATOM     54  N   UNL A   1      43.723  28.243  32.440  1.00  0.00    -0.354 N 
ATOM     55  N   UNL A   1      43.622  26.147  30.381  1.00  0.00    -0.248 NA
ATOM     56  C   UNL A   1      44.539  24.251  29.367  1.00  0.00     0.031 C 
ATOM     57  C   UNL A   1      45.418  28.231  33.875  1.00  0.00     0.029 A 
ATOM     58  C   UNL A   1      44.881  27.561  32.787  1.00  0.00     0.049 A 
ATOM     59  H   UNL A   1      43.131  28.001  31.691  1.00  0.00     0.167 HD
ATOM     60  C   UNL A   1      44.779  25.780  31.062  1.00  0.00     0.074 A 
ATOM     61  C   UNL A   1      45.277  24.581  30.418  1.00  0.00     0.031 C 
ATOM     62  C   UNL A   1      45.378  26.379  32.123  1.00  0.00     0.034 A 
BRANCH  49  63
ATOM     63  C   UNL A   1      42.408  31.435  34.151  1.00  0.00     0.023 A 
ATOM     64  C   UNL A   1      41.608  31.449  35.308  1.00  0.00     0.031 A 
ATOM     65  C   UNL A   1      43.185  32.575  33.878  1.00  0.00     0.131 A 
ATOM     66  C   UNL A   1      41.545  32.601  36.106  1.00  0.00     0.055 A 
ATOM     67  C   UNL A   1      43.179  33.691  34.719  1.00  0.00     0.041 A 
ATOM     68  F   UNL A   1      43.956  32.631  32.781  1.00  0.00    -0.206 F 
ATOM     69  C   UNL A   1      42.344  33.714  35.833  1.00  0.00     0.022 A 
BRANCH  66  70
ATOM     70  S   UNL A   1      40.307  32.675  37.428  1.00  0.00     0.124 S 
ATOM     71  O   UNL A   1      39.342  31.671  36.985  1.00  0.00    -0.237 OA
ATOM     72  O   UNL A   1      41.086  32.333  38.611  1.00  0.00    -0.237 OA
ATOM     73  O   UNL A   1      39.828  34.055  37.373  1.00  0.00    -0.744 OA
ENDBRANCH  66  70
ENDBRANCH  49  63
BRANCH  50  74
ATOM     74  C   UNL A   1      42.437  24.098  27.337  1.00  0.00     0.023 A 
ATOM     75  C   UNL A   1      41.789  22.865  27.514  1.00  0.00     0.031 A 
ATOM     76  C   UNL A   1      43.171  24.295  26.155  1.00  0.00     0.131 A 
ATOM     77  C   UNL A   1      41.929  21.857  26.547  1.00  0.00     0.055 A 
ATOM     78  C   UNL A   1      43.266  23.307  25.173  1.00  0.00     0.041 A 
ATOM     79  F   UNL A   1      43.801  25.459  25.933  1.00  0.00    -0.206 F 
ATOM     80  C   UNL A   1      42.653  22.074  25.374  1.00  0.00     0.022 A 
BRANCH  77  81
ATOM     81  S   UNL A   1      41.214  20.224  26.887  1.00  0.00     0.124 S 
ATOM     82  O   UNL A   1      40.789  20.367  28.275  1.00  0.00    -0.237 OA
ATOM     83  O   UNL A   1      40.147  20.149  25.895  1.00  0.00    -0.237 OA
ATOM     84  O   UNL A   1      42.332  19.310  26.668  1.00  0.00    -0.744 OA
ENDBRANCH  77  81
ENDBRANCH  50  74
BRANCH  62  85
ATOM     85  C   UNL A   1      46.622  25.716  32.661  1.00  0.00     0.023 A 
ATOM     86  C   UNL A   1      46.559  24.750  33.681  1.00  0.00     0.031 A 
ATOM     87  C   UNL A   1      47.889  26.086  32.178  1.00  0.00     0.131 A 
ATOM     88  C   UNL A   1      47.742  24.240  34.235  1.00  0.00     0.055 A 
ATOM     89  C   UNL A   1      49.062  25.528  32.689  1.00  0.00     0.041 A 
ATOM     90  F   UNL A   1      48.009  27.004  31.205  1.00  0.00    -0.206 F 
ATOM     91  C   UNL A   1      48.993  24.611  33.736  1.00  0.00     0.022 A 
BRANCH  88  92
ATOM     92  S   UNL A   1      47.628  23.170  35.696  1.00  0.00     0.124 S 
ATOM     93  O   UNL A   1      46.185  23.081  35.895  1.00  0.00    -0.237 OA
ATOM     94  O   UNL A   1      48.284  21.950  35.240  1.00  0.00    -0.237 OA
ATOM     95  O   UNL A   1      48.351  23.916  36.724  1.00  0.00    -0.744 OA
ENDBRANCH  88  92
ENDBRANCH  62  85
ENDBRANCH  36  37
ENDBRANCH  28  31
ENDBRANCH  26  27
ENDBRANCH  25  26
ENDBRANCH   1  25
TORSDOF 18
ENDMDL
MODEL 2
REMARK VINA RESULT:     -10.7      2.356      7.956
REMARK SMILES O=C(NCCCNC(=O)c1ccc(-c2c3nc(c(-c4cc(S(=O)(=O)[O-])ccc4F)c4ccc([nH]4)c(-c4cc(S(=O)(=O)[O-])ccc4F)c4nc(c(-c5cc(S(=O)(=O)[O-])ccc5F)c5ccc2[nH]5)C=C4)C=C3)cc1)c1ccc(Cn2ccnc2C[NH2+]C2CC2)cc1
REMARK SMILES IDX 4 1 3 2 1 3 2 4 73 6 74 7 89 8 75 9 88 10 76 11 77 12 78 13
REMARK SMILES IDX 79 14 82 15 80 16 81 17 83 18 84 19 85 22 86 23 87 24 5 25
REMARK SMILES IDX 6 26 7 27 8 28 9 30 10 31 11 32 72 33 12 34 71 35 13 36
REMARK SMILES IDX 14 37 15 38 65 39 16 40 70 41 64 42 66 43 17 44 69 45 63 46
REMARK SMILES IDX 62 47 18 49 50 50 30 51 49 52 31 53 34 54 48 55 67 56 32 57
REMARK SMILES IDX 33 58 47 60 68 61 35 62 19 63 20 64 28 65 21 66 27 67 29 68
REMARK SMILES IDX 26 69 22 70 23 71 24 72 25 73 51 74 52 75 60 76 53 77 59 78
REMARK SMILES IDX 61 79 58 80 54 81 55 82 56 83 57 84 36 85 37 86 45 87 38 88
REMARK SMILES IDX 44 89 46 90 43 91 39 92 40 93 41 94 42 95
REMARK H PARENT 3 5 84 20 84 21 7 29 66 48 34 59
REMARK Flexibility Score: inf
ROOT
ATOM      1  C   UNL A   1      31.281  28.459  23.522  1.00  0.00     0.118 C 
ENDROOT
BRANCH   1   2
ATOM      2  N   UNL A   1      32.408  28.739  22.642  1.00  0.00    -0.352 N 
ATOM      3  O   UNL A   1      34.400  28.365  21.635  1.00  0.00    -0.269 OA
ATOM      4  C   UNL A   1      33.455  27.926  22.284  1.00  0.00     0.251 C 
ATOM      5  H   UNL A   1      32.421  29.640  22.247  1.00  0.00     0.163 HD
BRANCH   4   6
ATOM      6  C   UNL A   1      33.454  26.511  22.700  1.00  0.00     0.039 A 
ATOM      7  C   UNL A   1      34.035  26.128  23.911  1.00  0.00     0.014 A 
ATOM      8  C   UNL A   1      32.861  25.560  21.867  1.00  0.00     0.014 A 
ATOM      9  C   UNL A   1      34.110  24.776  24.241  1.00  0.00     0.006 A 
ATOM     10  C   UNL A   1      32.938  24.206  22.200  1.00  0.00     0.006 A 
ATOM     11  C   UNL A   1      33.590  23.798  23.376  1.00  0.00    -0.028 A 
BRANCH  11  12
ATOM     12  C   UNL A   1      33.761  22.331  23.694  1.00  0.00     0.159 C 
BRANCH  12  13
ATOM     13  N   UNL A   1      33.725  22.064  25.126  1.00  0.00    -0.326 N 
ATOM     14  C   UNL A   1      34.834  22.035  25.939  1.00  0.00     0.108 A 
ATOM     15  C   UNL A   1      32.619  21.911  25.939  1.00  0.00     0.164 A 
ATOM     16  C   UNL A   1      34.358  21.821  27.206  1.00  0.00     0.131 A 
ATOM     17  N   UNL A   1      32.996  21.768  27.200  1.00  0.00    -0.236 NA
BRANCH  15  18
ATOM     18  C   UNL A   1      31.188  21.941  25.490  1.00  0.00     0.337 C 
BRANCH  18  19
ATOM     19  N   UNL A   1      30.773  23.292  25.124  1.00  0.00    -0.338 N 
ATOM     20  H   UNL A   1      29.900  23.231  24.598  1.00  0.00     0.346 HD
ATOM     21  H   UNL A   1      31.529  23.699  24.574  1.00  0.00     0.346 HD
BRANCH  19  22
ATOM     22  C   UNL A   1      30.558  24.167  26.271  1.00  0.00     0.183 C 
ATOM     23  C   UNL A   1      31.440  25.360  26.506  1.00  0.00     0.071 C 
ATOM     24  C   UNL A   1      30.025  25.555  26.049  1.00  0.00     0.071 C 
ENDBRANCH  19  22
ENDBRANCH  18  19
ENDBRANCH  15  18
ENDBRANCH  12  13
ENDBRANCH  11  12
ENDBRANCH   4   6
ENDBRANCH   1   2
BRANCH   1  25
ATOM     25  C   UNL A   1      31.594  28.719  24.990  1.00  0.00     0.042 C 
BRANCH  25  26
ATOM     26  C   UNL A   1      32.779  29.647  25.239  1.00  0.00     0.118 C 
BRANCH  26  27
ATOM     27  N   UNL A   1      32.388  30.928  25.806  1.00  0.00    -0.352 N 
ATOM     28  C   UNL A   1      32.860  31.624  26.891  1.00  0.00     0.251 C 
ATOM     29  H   UNL A   1      31.655  31.377  25.325  1.00  0.00     0.163 HD
ATOM     30  O   UNL A   1      32.235  32.616  27.262  1.00  0.00    -0.269 OA
BRANCH  28  31
ATOM     31  C   UNL A   1      34.075  31.199  27.627  1.00  0.00     0.039 A 
ATOM     32  C   UNL A   1      35.015  32.175  27.974  1.00  0.00     0.014 A 
ATOM     33  C   UNL A   1      34.333  29.860  27.933  1.00  0.00     0.014 A 
ATOM     34  C   UNL A   1      36.175  31.820  28.669  1.00  0.00     0.010 A 
ATOM     35  C   UNL A   1      35.449  29.517  28.700  1.00  0.00     0.010 A 
ATOM     36  C   UNL A   1      36.387  30.490  29.070  1.00  0.00    -0.014 A 
BRANCH  36  37
ATOM     37  C   UNL A   1      37.585  30.118  29.870  1.00  0.00     0.031 A 
ATOM     38  C   UNL A   1      38.633  29.198  29.299  1.00  0.00     0.074 A 
ATOM     39  C   UNL A   1      37.706  30.576  31.132  1.00  0.00     0.049 A 
ATOM     40  N   UNL A   1      39.731  28.749  29.853  1.00  0.00    -0.248 NA
ATOM     41  C   UNL A   1      38.401  28.692  27.938  1.00  0.00     0.031 C 
ATOM     42  C   UNL A   1      36.728  31.420  31.822  1.00  0.00     0.029 A 
ATOM     43  N   UNL A   1      38.699  30.395  32.063  1.00  0.00    -0.354 N 
ATOM     44  C   UNL A   1      40.310  27.896  28.918  1.00  0.00     0.074 A 
ATOM     45  C   UNL A   1      39.410  27.849  27.785  1.00  0.00     0.031 C 
ATOM     46  C   UNL A   1      37.182  31.706  33.052  1.00  0.00     0.029 A 
ATOM     47  C   UNL A   1      38.465  31.041  33.255  1.00  0.00     0.049 A 
ATOM     48  H   UNL A   1      39.504  29.853  31.893  1.00  0.00     0.167 HD
ATOM     49  C   UNL A   1      41.490  27.231  28.989  1.00  0.00     0.034 A 
ATOM     50  C   UNL A   1      39.198  31.093  34.383  1.00  0.00     0.034 A 
ATOM     51  C   UNL A   1      42.390  27.306  30.117  1.00  0.00     0.049 A 
ATOM     52  C   UNL A   1      40.522  30.375  34.425  1.00  0.00     0.074 A 
ATOM     53  C   UNL A   1      43.642  26.732  30.261  1.00  0.00     0.029 A 
ATOM     54  N   UNL A   1      42.132  27.995  31.295  1.00  0.00    -0.354 N 
ATOM     55  N   UNL A   1      41.087  29.629  33.503  1.00  0.00    -0.248 NA
ATOM     56  C   UNL A   1      41.315  30.524  35.651  1.00  0.00     0.031 C 
ATOM     57  C   UNL A   1      44.114  27.024  31.546  1.00  0.00     0.029 A 
ATOM     58  C   UNL A   1      43.189  27.838  32.181  1.00  0.00     0.049 A 
ATOM     59  H   UNL A   1      41.318  28.518  31.476  1.00  0.00     0.167 HD
ATOM     60  C   UNL A   1      42.313  29.238  34.033  1.00  0.00     0.074 A 
ATOM     61  C   UNL A   1      42.415  29.854  35.341  1.00  0.00     0.031 C 
ATOM     62  C   UNL A   1      43.269  28.440  33.491  1.00  0.00     0.034 A 
BRANCH  49  63
ATOM     63  C   UNL A   1      41.863  26.347  27.822  1.00  0.00     0.023 A 
ATOM     64  C   UNL A   1      41.474  24.997  27.760  1.00  0.00     0.031 A 
ATOM     65  C   UNL A   1      42.635  26.857  26.762  1.00  0.00     0.131 A 
ATOM     66  C   UNL A   1      41.918  24.185  26.705  1.00  0.00     0.055 A 
ATOM     67  C   UNL A   1      43.008  26.064  25.674  1.00  0.00     0.041 A 
ATOM     68  F   UNL A   1      43.052  28.132  26.771  1.00  0.00    -0.206 F 
ATOM     69  C   UNL A   1      42.662  24.716  25.649  1.00  0.00     0.022 A 
BRANCH  66  70
ATOM     70  S   UNL A   1      41.622  22.399  26.800  1.00  0.00     0.124 S 
ATOM     71  O   UNL A   1      42.340  21.918  25.622  1.00  0.00    -0.237 OA
ATOM     72  O   UNL A   1      42.205  22.049  28.089  1.00  0.00    -0.237 OA
ATOM     73  O   UNL A   1      40.167  22.287  26.722  1.00  0.00    -0.744 OA
ENDBRANCH  66  70
ENDBRANCH  49  63
BRANCH  50  74
ATOM     74  C   UNL A   1      38.707  31.850  35.570  1.00  0.00     0.023 A 
ATOM     75  C   UNL A   1      38.156  31.184  36.676  1.00  0.00     0.031 A 
ATOM     76  C   UNL A   1      38.745  33.255  35.595  1.00  0.00     0.131 A 
ATOM     77  C   UNL A   1      37.618  31.925  37.740  1.00  0.00     0.055 A 
ATOM     78  C   UNL A   1      38.255  33.985  36.679  1.00  0.00     0.041 A 
ATOM     79  F   UNL A   1      39.270  33.939  34.566  1.00  0.00    -0.206 F 
ATOM     80  C   UNL A   1      37.674  33.320  37.754  1.00  0.00     0.022 A 
BRANCH  77  81
ATOM     81  S   UNL A   1      36.769  31.035  39.074  1.00  0.00     0.124 S 
ATOM     82  O   UNL A   1      36.646  29.696  38.509  1.00  0.00    -0.237 OA
ATOM     83  O   UNL A   1      37.708  31.180  40.181  1.00  0.00    -0.237 OA
ATOM     84  O   UNL A   1      35.513  31.766  39.225  1.00  0.00    -0.744 OA
ENDBRANCH  77  81
ENDBRANCH  50  74
BRANCH  62  85
ATOM     85  C   UNL A   1      44.516  28.224  34.312  1.00  0.00     0.023 A 
ATOM     86  C   UNL A   1      44.632  27.141  35.203  1.00  0.00     0.031 A 
ATOM     87  C   UNL A   1      45.584  29.134  34.236  1.00  0.00     0.131 A 
ATOM     88  C   UNL A   1      45.758  27.036  36.032  1.00  0.00     0.055 A 
ATOM     89  C   UNL A   1      46.730  28.990  35.019  1.00  0.00     0.041 A 
ATOM     90  F   UNL A   1      45.527  30.187  33.403  1.00  0.00    -0.206 F 
ATOM     91  C   UNL A   1      46.814  27.945  35.936  1.00  0.00     0.022 A 
BRANCH  88  92
ATOM     92  S   UNL A   1      45.772  25.761  37.323  1.00  0.00     0.124 S 
ATOM     93  O   UNL A   1      44.406  25.248  37.258  1.00  0.00    -0.237 OA
ATOM     94  O   UNL A   1      46.815  24.855  36.854  1.00  0.00    -0.237 OA
ATOM     95  O   UNL A   1      46.096  26.505  38.537  1.00  0.00    -0.744 OA
ENDBRANCH  88  92
ENDBRANCH  62  85
ENDBRANCH  36  37
ENDBRANCH  28  31
ENDBRANCH  26  27
ENDBRANCH  25  26
ENDBRANCH   1  25
TORSDOF 18
ENDMDL
MODEL 3
REMARK VINA RESULT:     -10.6      2.183      3.282
REMARK SMILES O=C(NCCCNC(=O)c1ccc(-c2c3nc(c(-c4cc(S(=O)(=O)[O-])ccc4F)c4ccc([nH]4)c(-c4cc(S(=O)(=O)[O-])ccc4F)c4nc(c(-c5cc(S(=O)(=O)[O-])ccc5F)c5ccc2[nH]5)C=C4)C=C3)cc1)c1ccc(Cn2ccnc2C[NH2+]C2CC2)cc1
REMARK SMILES IDX 4 1 3 2 1 3 2 4 73 6 74 7 89 8 75 9 88 10 76 11 77 12 78 13
REMARK SMILES IDX 79 14 82 15 80 16 81 17 83 18 84 19 85 22 86 23 87 24 5 25
REMARK SMILES IDX 6 26 7 27 8 28 9 30 10 31 11 32 72 33 12 34 71 35 13 36
REMARK SMILES IDX 14 37 15 38 65 39 16 40 70 41 64 42 66 43 17 44 69 45 63 46
REMARK SMILES IDX 62 47 18 49 50 50 30 51 49 52 31 53 34 54 48 55 67 56 32 57
REMARK SMILES IDX 33 58 47 60 68 61 35 62 19 63 20 64 28 65 21 66 27 67 29 68
REMARK SMILES IDX 26 69 22 70 23 71 24 72 25 73 51 74 52 75 60 76 53 77 59 78
REMARK SMILES IDX 61 79 58 80 54 81 55 82 56 83 57 84 36 85 37 86 45 87 38 88
REMARK SMILES IDX 44 89 46 90 43 91 39 92 40 93 41 94 42 95
REMARK H PARENT 3 5 84 20 84 21 7 29 66 48 34 59
REMARK Flexibility Score: inf
ROOT
ATOM      1  C   UNL A   1      31.501  28.549  23.510  1.00  0.00     0.118 C 
ENDROOT
BRANCH   1   2
ATOM      2  N   UNL A   1      31.408  27.734  22.306  1.00  0.00    -0.352 N 
ATOM      3  O   UNL A   1      31.777  25.938  20.980  1.00  0.00    -0.269 OA
ATOM      4  C   UNL A   1      31.805  26.436  22.101  1.00  0.00     0.251 C 
ATOM      5  H   UNL A   1      31.000  28.178  21.528  1.00  0.00     0.163 HD
BRANCH   4   6
ATOM      6  C   UNL A   1      32.290  25.635  23.240  1.00  0.00     0.039 A 
ATOM      7  C   UNL A   1      33.658  25.519  23.495  1.00  0.00     0.014 A 
ATOM      8  C   UNL A   1      31.360  24.994  24.062  1.00  0.00     0.014 A 
ATOM      9  C   UNL A   1      34.100  24.679  24.516  1.00  0.00     0.006 A 
ATOM     10  C   UNL A   1      31.806  24.153  25.085  1.00  0.00     0.006 A 
ATOM     11  C   UNL A   1      33.181  23.964  25.302  1.00  0.00    -0.028 A 
BRANCH  11  12
ATOM     12  C   UNL A   1      33.669  22.983  26.342  1.00  0.00     0.159 C 
BRANCH  12  13
ATOM     13  N   UNL A   1      34.586  21.994  25.787  1.00  0.00    -0.326 N 
ATOM     14  C   UNL A   1      35.950  22.157  25.710  1.00  0.00     0.108 A 
ATOM     15  C   UNL A   1      34.303  20.713  25.357  1.00  0.00     0.164 A 
ATOM     16  C   UNL A   1      36.433  20.983  25.194  1.00  0.00     0.131 A 
ATOM     17  N   UNL A   1      35.417  20.094  25.002  1.00  0.00    -0.236 NA
BRANCH  15  18
ATOM     18  C   UNL A   1      32.945  20.077  25.328  1.00  0.00     0.337 C 
BRANCH  18  19
ATOM     19  N   UNL A   1      32.903  18.871  26.151  1.00  0.00    -0.338 N 
ATOM     20  H   UNL A   1      32.209  19.006  26.887  1.00  0.00     0.346 HD
ATOM     21  H   UNL A   1      33.841  18.731  26.525  1.00  0.00     0.346 HD
BRANCH  19  22
ATOM     22  C   UNL A   1      32.555  17.668  25.405  1.00  0.00     0.183 C 
ATOM     23  C   UNL A   1      32.901  17.537  23.949  1.00  0.00     0.071 C 
ATOM     24  C   UNL A   1      33.644  16.728  24.970  1.00  0.00     0.071 C 
ENDBRANCH  19  22
ENDBRANCH  18  19
ENDBRANCH  15  18
ENDBRANCH  12  13
ENDBRANCH  11  12
ENDBRANCH   4   6
ENDBRANCH   1   2
BRANCH   1  25
ATOM     25  C   UNL A   1      32.913  29.055  23.778  1.00  0.00     0.042 C 
BRANCH  25  26
ATOM     26  C   UNL A   1      33.251  29.266  25.250  1.00  0.00     0.118 C 
BRANCH  26  27
ATOM     27  N   UNL A   1      32.739  30.522  25.776  1.00  0.00    -0.352 N 
ATOM     28  C   UNL A   1      33.118  31.275  26.860  1.00  0.00     0.251 C 
ATOM     29  H   UNL A   1      31.990  30.901  25.263  1.00  0.00     0.163 HD
ATOM     30  O   UNL A   1      32.404  32.220  27.189  1.00  0.00    -0.269 OA
BRANCH  28  31
ATOM     31  C   UNL A   1      34.339  30.964  27.643  1.00  0.00     0.039 A 
ATOM     32  C   UNL A   1      34.477  29.675  28.170  1.00  0.00     0.014 A 
ATOM     33  C   UNL A   1      35.317  31.924  27.914  1.00  0.00     0.014 A 
ATOM     34  C   UNL A   1      35.612  29.338  28.914  1.00  0.00     0.010 A 
ATOM     35  C   UNL A   1      36.488  31.564  28.585  1.00  0.00     0.010 A 
ATOM     36  C   UNL A   1      36.646  30.270  29.100  1.00  0.00    -0.014 A 
BRANCH  36  37
ATOM     37  C   UNL A   1      37.887  29.895  29.831  1.00  0.00     0.031 A 
ATOM     38  C   UNL A   1      38.148  30.421  31.218  1.00  0.00     0.074 A 
ATOM     39  C   UNL A   1      38.802  29.113  29.224  1.00  0.00     0.049 A 
ATOM     40  N   UNL A   1      39.179  30.219  32.000  1.00  0.00    -0.248 NA
ATOM     41  C   UNL A   1      37.132  31.317  31.789  1.00  0.00     0.031 C 
ATOM     42  C   UNL A   1      38.696  28.592  27.858  1.00  0.00     0.029 A 
ATOM     43  N   UNL A   1      40.003  28.620  29.671  1.00  0.00    -0.354 N 
ATOM     44  C   UNL A   1      38.945  30.975  33.144  1.00  0.00     0.074 A 
ATOM     45  C   UNL A   1      37.700  31.682  32.929  1.00  0.00     0.031 C 
ATOM     46  C   UNL A   1      39.770  27.833  27.591  1.00  0.00     0.029 A 
ATOM     47  C   UNL A   1      40.658  27.837  28.749  1.00  0.00     0.049 A 
ATOM     48  H   UNL A   1      40.362  28.809  30.569  1.00  0.00     0.167 HD
ATOM     49  C   UNL A   1      39.687  31.055  34.278  1.00  0.00     0.034 A 
ATOM     50  C   UNL A   1      41.840  27.195  28.825  1.00  0.00     0.034 A 
ATOM     51  C   UNL A   1      40.915  30.325  34.489  1.00  0.00     0.049 A 
ATOM     52  C   UNL A   1      42.628  27.271  30.107  1.00  0.00     0.074 A 
ATOM     53  C   UNL A   1      41.705  30.277  35.625  1.00  0.00     0.029 A 
ATOM     54  N   UNL A   1      41.533  29.518  33.543  1.00  0.00    -0.354 N 
ATOM     55  N   UNL A   1      42.356  27.935  31.207  1.00  0.00    -0.248 NA
ATOM     56  C   UNL A   1      43.872  26.494  30.163  1.00  0.00     0.031 C 
ATOM     57  C   UNL A   1      42.829  29.490  35.346  1.00  0.00     0.029 A 
ATOM     58  C   UNL A   1      42.708  28.990  34.059  1.00  0.00     0.049 A 
ATOM     59  H   UNL A   1      41.188  29.345  32.637  1.00  0.00     0.167 HD
ATOM     60  C   UNL A   1      43.386  27.636  32.094  1.00  0.00     0.074 A 
ATOM     61  C   UNL A   1      44.267  26.712  31.408  1.00  0.00     0.031 C 
ATOM     62  C   UNL A   1      43.589  28.086  33.359  1.00  0.00     0.034 A 
BRANCH  49  63
ATOM     63  C   UNL A   1      39.198  31.983  35.365  1.00  0.00     0.023 A 
ATOM     64  C   UNL A   1      39.646  33.312  35.463  1.00  0.00     0.031 A 
ATOM     65  C   UNL A   1      38.283  31.527  36.332  1.00  0.00     0.131 A 
ATOM     66  C   UNL A   1      39.241  34.114  36.541  1.00  0.00     0.055 A 
ATOM     67  C   UNL A   1      37.821  32.354  37.359  1.00  0.00     0.041 A 
ATOM     68  F   UNL A   1      37.831  30.263  36.303  1.00  0.00    -0.206 F 
ATOM     69  C   UNL A   1      38.312  33.651  37.476  1.00  0.00     0.022 A 
BRANCH  66  70
ATOM     70  S   UNL A   1      40.045  35.721  36.779  1.00  0.00     0.124 S 
ATOM     71  O   UNL A   1      41.452  35.337  36.863  1.00  0.00    -0.237 OA
ATOM     72  O   UNL A   1      39.653  36.452  35.580  1.00  0.00    -0.237 OA
ATOM     73  O   UNL A   1      39.466  36.214  38.028  1.00  0.00    -0.744 OA
ENDBRANCH  66  70
ENDBRANCH  49  63
BRANCH  50  74
ATOM     74  C   UNL A   1      42.355  26.421  27.660  1.00  0.00     0.023 A 
ATOM     75  C   UNL A   1      41.989  25.080  27.463  1.00  0.00     0.031 A 
ATOM     76  C   UNL A   1      43.255  27.001  26.750  1.00  0.00     0.131 A 
ATOM     77  C   UNL A   1      42.559  24.348  26.410  1.00  0.00     0.055 A 
ATOM     78  C   UNL A   1      43.781  26.283  25.675  1.00  0.00     0.041 A 
ATOM     79  F   UNL A   1      43.630  28.282  26.889  1.00  0.00    -0.206 F 
ATOM     80  C   UNL A   1      43.443  24.943  25.509  1.00  0.00     0.022 A 
BRANCH  77  81
ATOM     81  S   UNL A   1      42.187  22.576  26.286  1.00  0.00     0.124 S 
ATOM     82  O   UNL A   1      42.858  22.046  27.468  1.00  0.00    -0.237 OA
ATOM     83  O   UNL A   1      40.729  22.570  26.319  1.00  0.00    -0.237 OA
ATOM     84  O   UNL A   1      42.781  22.192  25.007  1.00  0.00    -0.744 OA
ENDBRANCH  77  81
ENDBRANCH  50  74
BRANCH  62  85
ATOM     85  C   UNL A   1      44.800  27.549  34.082  1.00  0.00     0.023 A 
ATOM     86  C   UNL A   1      44.749  26.347  34.810  1.00  0.00     0.031 A 
ATOM     87  C   UNL A   1      46.006  28.270  34.079  1.00  0.00     0.131 A 
ATOM     88  C   UNL A   1      45.860  25.938  35.563  1.00  0.00     0.055 A 
ATOM     89  C   UNL A   1      47.129  27.826  34.779  1.00  0.00     0.041 A 
ATOM     90  F   UNL A   1      46.111  29.425  33.401  1.00  0.00    -0.206 F 
ATOM     91  C   UNL A   1      47.054  26.662  35.540  1.00  0.00     0.022 A 
BRANCH  88  92
ATOM     92  S   UNL A   1      45.685  24.508  36.665  1.00  0.00     0.124 S 
ATOM     93  O   UNL A   1      45.738  25.133  37.984  1.00  0.00    -0.237 OA
ATOM     94  O   UNL A   1      44.391  23.966  36.269  1.00  0.00    -0.237 OA
ATOM     95  O   UNL A   1      46.836  23.673  36.329  1.00  0.00    -0.744 OA
ENDBRANCH  88  92
ENDBRANCH  62  85
ENDBRANCH  36  37
ENDBRANCH  28  31
ENDBRANCH  26  27
ENDBRANCH  25  26
ENDBRANCH   1  25
TORSDOF 18
ENDMDL
