MODEL 1
REMARK VINA RESULT:     -11.1      0.000      0.000
REMARK SMILES CC(C)[C@H](NC(=O)OCc1ccccc1)C(=O)NCC(=O)NCCCNC(=O)c1ccc(-c2c3nc(c(-c4cc(S(=O)(=O)[O-])ccc4F)c4ccc([nH]4)c(-c4cc(S(=O)(=O)[O-])ccc4F)c4nc(c(-c5cc(S(=O)(=O)[O-])ccc5F)c5ccc2[nH]5)C=C4)C=C3)cc1
REMARK SMILES IDX 20 1 21 2 22 3 19 5 18 6 16 7 17 8 4 10 2 11 1 12 3 13 5 14
REMARK SMILES IDX 6 15 7 17 8 18 9 19 10 20 11 21 15 22 12 23 14 24 13 25
REMARK SMILES IDX 23 26 24 27 25 28 26 29 27 30 28 32 29 33 30 34 91 35 31 36
REMARK SMILES IDX 90 37 32 38 33 39 34 40 84 41 35 42 89 43 83 44 85 45 36 46
REMARK SMILES IDX 88 47 82 48 81 49 37 51 69 52 49 53 68 54 50 55 53 56 67 57
REMARK SMILES IDX 86 58 51 59 52 60 66 62 87 63 54 64 38 65 39 66 47 67 40 68
REMARK SMILES IDX 46 69 48 70 45 71 41 72 42 73 43 74 44 75 70 76 71 77 79 78
REMARK SMILES IDX 72 79 78 80 80 81 77 82 73 83 74 84 75 85 76 86 55 87 56 88
REMARK SMILES IDX 64 89 57 90 63 91 65 92 62 93 58 94 59 95 60 96 61 97
REMARK H PARENT 22 4 18 9 5 16 26 31 85 50 53 61
REMARK Flexibility Score: inf
ROOT
ATOM      1  C   UNL A   1      30.137  28.828  22.845  1.00  0.00     0.239 C 
ATOM      2  O   UNL A   1      29.988  29.119  21.654  1.00  0.00    -0.273 OA
ATOM      3  N   UNL A   1      31.031  29.572  23.556  1.00  0.00    -0.355 N 
ATOM      4  H   UNL A   1      31.669  30.092  23.016  1.00  0.00     0.163 HD
ENDROOT
BRANCH   1   5
ATOM      5  C   UNL A   1      29.212  27.781  23.497  1.00  0.00     0.216 C 
BRANCH   5   6
ATOM      6  N   UNL A   1      29.457  26.383  23.205  1.00  0.00    -0.345 N 
ATOM      7  C   UNL A   1      30.430  25.523  23.600  1.00  0.00     0.243 C 
ATOM      8  O   UNL A   1      30.336  24.369  23.162  1.00  0.00    -0.273 OA
ATOM      9  H   UNL A   1      28.789  25.979  22.605  1.00  0.00     0.164 HD
BRANCH   7  10
ATOM     10  C   UNL A   1      31.638  25.895  24.509  1.00  0.00     0.177 C 
BRANCH  10  11
ATOM     11  C   UNL A   1      33.029  25.883  23.848  1.00  0.00     0.015 C 
ATOM     12  C   UNL A   1      33.040  26.687  22.544  1.00  0.00     0.010 C 
ATOM     13  C   UNL A   1      34.069  26.484  24.809  1.00  0.00     0.010 C 
ENDBRANCH  10  11
BRANCH  10  14
ATOM     14  N   UNL A   1      31.536  25.302  25.848  1.00  0.00    -0.309 N 
ATOM     15  C   UNL A   1      31.683  24.024  26.284  1.00  0.00     0.408 C 
ATOM     16  H   UNL A   1      31.322  25.949  26.558  1.00  0.00     0.167 HD
ATOM     17  O   UNL A   1      31.266  23.705  27.393  1.00  0.00    -0.225 OA
BRANCH  15  18
ATOM     18  O   UNL A   1      32.251  23.189  25.392  1.00  0.00    -0.445 OA
BRANCH  18  19
ATOM     19  C   UNL A   1      33.058  22.134  25.939  1.00  0.00     0.270 C 
BRANCH  19  20
ATOM     20  C   UNL A   1      34.430  22.123  25.321  1.00  0.00    -0.011 A 
ATOM     21  C   UNL A   1      35.506  21.557  26.017  1.00  0.00     0.007 A 
ATOM     22  C   UNL A   1      34.665  22.748  24.089  1.00  0.00     0.007 A 
ATOM     23  C   UNL A   1      36.800  21.636  25.506  1.00  0.00     0.000 A 
ATOM     24  C   UNL A   1      35.960  22.818  23.575  1.00  0.00     0.000 A 
ATOM     25  C   UNL A   1      37.027  22.269  24.286  1.00  0.00     0.000 A 
ENDBRANCH  19  20
ENDBRANCH  18  19
ENDBRANCH  15  18
ENDBRANCH  10  14
ENDBRANCH   7  10
ENDBRANCH   5   6
ENDBRANCH   1   5
BRANCH   3  26
ATOM     26  C   UNL A   1      31.179  29.710  24.988  1.00  0.00     0.117 C 
BRANCH  26  27
ATOM     27  C   UNL A   1      32.612  29.661  25.476  1.00  0.00     0.042 C 
BRANCH  27  28
ATOM     28  C   UNL A   1      32.763  30.130  26.911  1.00  0.00     0.118 C 
BRANCH  28  29
ATOM     29  N   UNL A   1      32.887  31.580  27.026  1.00  0.00    -0.352 N 
ATOM     30  C   UNL A   1      33.871  32.345  27.609  1.00  0.00     0.251 C 
ATOM     31  H   UNL A   1      32.149  32.092  26.623  1.00  0.00     0.163 HD
ATOM     32  O   UNL A   1      33.703  33.555  27.729  1.00  0.00    -0.269 OA
BRANCH  30  33
ATOM     33  C   UNL A   1      35.105  31.708  28.115  1.00  0.00     0.039 A 
ATOM     34  C   UNL A   1      36.279  32.461  28.185  1.00  0.00     0.014 A 
ATOM     35  C   UNL A   1      35.103  30.377  28.535  1.00  0.00     0.014 A 
ATOM     36  C   UNL A   1      37.429  31.900  28.748  1.00  0.00     0.010 A 
ATOM     37  C   UNL A   1      36.209  29.860  29.196  1.00  0.00     0.010 A 
ATOM     38  C   UNL A   1      37.389  30.610  29.299  1.00  0.00    -0.014 A 
BRANCH  38  39
ATOM     39  C   UNL A   1      38.575  29.999  29.951  1.00  0.00     0.031 A 
ATOM     40  C   UNL A   1      38.971  30.443  31.335  1.00  0.00     0.074 A 
ATOM     41  C   UNL A   1      39.334  29.114  29.276  1.00  0.00     0.049 A 
ATOM     42  N   UNL A   1      40.035  30.139  32.032  1.00  0.00    -0.248 NA
ATOM     43  C   UNL A   1      38.067  31.394  32.004  1.00  0.00     0.031 C 
ATOM     44  C   UNL A   1      39.079  28.644  27.911  1.00  0.00     0.029 A 
ATOM     45  N   UNL A   1      40.484  28.458  29.639  1.00  0.00    -0.354 N 
ATOM     46  C   UNL A   1      39.942  30.883  33.205  1.00  0.00     0.074 A 
ATOM     47  C   UNL A   1      38.756  31.703  33.089  1.00  0.00     0.031 C 
ATOM     48  C   UNL A   1      40.025  27.755  27.567  1.00  0.00     0.029 A 
ATOM     49  C   UNL A   1      40.980  27.627  28.662  1.00  0.00     0.049 A 
ATOM     50  H   UNL A   1      40.913  28.572  30.518  1.00  0.00     0.167 HD
ATOM     51  C   UNL A   1      40.752  30.859  34.292  1.00  0.00     0.034 A 
ATOM     52  C   UNL A   1      42.088  26.859  28.648  1.00  0.00     0.034 A 
ATOM     53  C   UNL A   1      41.911  30.007  34.401  1.00  0.00     0.049 A 
ATOM     54  C   UNL A   1      42.972  26.844  29.870  1.00  0.00     0.074 A 
ATOM     55  C   UNL A   1      42.773  29.856  35.472  1.00  0.00     0.029 A 
ATOM     56  N   UNL A   1      42.366  29.156  33.401  1.00  0.00    -0.354 N 
ATOM     57  N   UNL A   1      42.848  27.520  30.989  1.00  0.00    -0.248 NA
ATOM     58  C   UNL A   1      44.139  25.953  29.830  1.00  0.00     0.031 C 
ATOM     59  C   UNL A   1      43.781  28.959  35.100  1.00  0.00     0.029 A 
ATOM     60  C   UNL A   1      43.508  28.494  33.823  1.00  0.00     0.049 A 
ATOM     61  H   UNL A   1      41.941  29.040  32.521  1.00  0.00     0.167 HD
ATOM     62  C   UNL A   1      43.903  27.109  31.798  1.00  0.00     0.074 A 
ATOM     63  C   UNL A   1      44.642  26.116  31.045  1.00  0.00     0.031 C 
ATOM     64  C   UNL A   1      44.231  27.510  33.053  1.00  0.00     0.034 A 
BRANCH  51  65
ATOM     65  C   UNL A   1      40.415  31.793  35.430  1.00  0.00     0.023 A 
ATOM     66  C   UNL A   1      39.462  31.454  36.406  1.00  0.00     0.031 A 
ATOM     67  C   UNL A   1      41.023  33.058  35.519  1.00  0.00     0.131 A 
ATOM     68  C   UNL A   1      39.081  32.395  37.373  1.00  0.00     0.055 A 
ATOM     69  C   UNL A   1      40.704  33.958  36.538  1.00  0.00     0.041 A 
ATOM     70  F   UNL A   1      41.925  33.450  34.605  1.00  0.00    -0.206 F 
ATOM     71  C   UNL A   1      39.714  33.636  37.464  1.00  0.00     0.022 A 
BRANCH  68  72
ATOM     72  S   UNL A   1      37.640  32.032  38.414  1.00  0.00     0.124 S 
ATOM     73  O   UNL A   1      38.228  32.066  39.751  1.00  0.00    -0.237 OA
ATOM     74  O   UNL A   1      36.732  33.124  38.087  1.00  0.00    -0.237 OA
ATOM     75  O   UNL A   1      37.215  30.709  37.961  1.00  0.00    -0.744 OA
ENDBRANCH  68  72
ENDBRANCH  51  65
BRANCH  52  76
ATOM     76  C   UNL A   1      42.429  26.039  27.450  1.00  0.00     0.023 A 
ATOM     77  C   UNL A   1      42.011  24.702  27.348  1.00  0.00     0.031 A 
ATOM     78  C   UNL A   1      43.216  26.563  26.410  1.00  0.00     0.131 A 
ATOM     79  C   UNL A   1      42.425  23.918  26.260  1.00  0.00     0.055 A 
ATOM     80  C   UNL A   1      43.580  25.796  25.302  1.00  0.00     0.041 A 
ATOM     81  F   UNL A   1      43.637  27.837  26.453  1.00  0.00    -0.206 F 
ATOM     82  C   UNL A   1      43.197  24.460  25.231  1.00  0.00     0.022 A 
BRANCH  79  83
ATOM     83  S   UNL A   1      42.015  22.152  26.258  1.00  0.00     0.124 S 
ATOM     84  O   UNL A   1      42.896  21.643  25.212  1.00  0.00    -0.237 OA
ATOM     85  O   UNL A   1      42.346  21.762  27.623  1.00  0.00    -0.237 OA
ATOM     86  O   UNL A   1      40.589  22.135  25.935  1.00  0.00    -0.744 OA
ENDBRANCH  79  83
ENDBRANCH  52  76
BRANCH  64  87
ATOM     87  C   UNL A   1      45.412  26.829  33.701  1.00  0.00     0.023 A 
ATOM     88  C   UNL A   1      45.266  25.653  34.456  1.00  0.00     0.031 A 
ATOM     89  C   UNL A   1      46.700  27.377  33.569  1.00  0.00     0.131 A 
ATOM     90  C   UNL A   1      46.380  25.094  35.099  1.00  0.00     0.055 A 
ATOM     91  C   UNL A   1      47.815  26.783  34.161  1.00  0.00     0.041 A 
ATOM     92  F   UNL A   1      46.895  28.501  32.860  1.00  0.00    -0.206 F 
ATOM     93  C   UNL A   1      47.655  25.642  34.943  1.00  0.00     0.022 A 
BRANCH  90  94
ATOM     94  S   UNL A   1      46.124  23.693  36.222  1.00  0.00     0.124 S 
ATOM     95  O   UNL A   1      45.142  22.896  35.496  1.00  0.00    -0.237 OA
ATOM     96  O   UNL A   1      47.464  23.121  36.317  1.00  0.00    -0.237 OA
ATOM     97  O   UNL A   1      45.631  24.320  37.446  1.00  0.00    -0.744 OA
ENDBRANCH  90  94
ENDBRANCH  64  87
ENDBRANCH  38  39
ENDBRANCH  30  33
ENDBRANCH  28  29
ENDBRANCH  27  28
ENDBRANCH  26  27
ENDBRANCH   3  26
TORSDOF 20
ENDMDL
MODEL 2
REMARK VINA RESULT:     -10.7      1.980      3.853
REMARK SMILES CC(C)[C@H](NC(=O)OCc1ccccc1)C(=O)NCC(=O)NCCCNC(=O)c1ccc(-c2c3nc(c(-c4cc(S(=O)(=O)[O-])ccc4F)c4ccc([nH]4)c(-c4cc(S(=O)(=O)[O-])ccc4F)c4nc(c(-c5cc(S(=O)(=O)[O-])ccc5F)c5ccc2[nH]5)C=C4)C=C3)cc1
REMARK SMILES IDX 20 1 21 2 22 3 19 5 18 6 16 7 17 8 4 10 2 11 1 12 3 13 5 14
REMARK SMILES IDX 6 15 7 17 8 18 9 19 10 20 11 21 15 22 12 23 14 24 13 25
REMARK SMILES IDX 23 26 24 27 25 28 26 29 27 30 28 32 29 33 30 34 91 35 31 36
REMARK SMILES IDX 90 37 32 38 33 39 34 40 84 41 35 42 89 43 83 44 85 45 36 46
REMARK SMILES IDX 88 47 82 48 81 49 37 51 69 52 49 53 68 54 50 55 53 56 67 57
REMARK SMILES IDX 86 58 51 59 52 60 66 62 87 63 54 64 38 65 39 66 47 67 40 68
REMARK SMILES IDX 46 69 48 70 45 71 41 72 42 73 43 74 44 75 70 76 71 77 79 78
REMARK SMILES IDX 72 79 78 80 80 81 77 82 73 83 74 84 75 85 76 86 55 87 56 88
REMARK SMILES IDX 64 89 57 90 63 91 65 92 62 93 58 94 59 95 60 96 61 97
REMARK H PARENT 22 4 18 9 5 16 26 31 85 50 53 61
REMARK Flexibility Score: inf
ROOT
ATOM      1  C   UNL A   1      34.009  26.394  24.799  1.00  0.00     0.239 C 
ATOM      2  O   UNL A   1      34.664  25.457  25.267  1.00  0.00    -0.273 OA
ATOM      3  N   UNL A   1      33.998  27.557  25.509  1.00  0.00    -0.355 N 
ATOM      4  H   UNL A   1      34.282  27.478  26.449  1.00  0.00     0.163 HD
ENDROOT
BRANCH   1   5
ATOM      5  C   UNL A   1      33.393  26.266  23.391  1.00  0.00     0.216 C 
BRANCH   5   6
ATOM      6  N   UNL A   1      32.814  24.991  23.017  1.00  0.00    -0.345 N 
ATOM      7  C   UNL A   1      31.747  24.297  23.488  1.00  0.00     0.243 C 
ATOM      8  O   UNL A   1      31.518  23.219  22.926  1.00  0.00    -0.273 OA
ATOM      9  H   UNL A   1      33.286  24.542  22.279  1.00  0.00     0.164 HD
BRANCH   7  10
ATOM     10  C   UNL A   1      30.846  24.741  24.678  1.00  0.00     0.177 C 
BRANCH  10  11
ATOM     11  C   UNL A   1      30.827  23.819  25.912  1.00  0.00     0.015 C 
ATOM     12  C   UNL A   1      32.005  24.110  26.848  1.00  0.00     0.010 C 
ATOM     13  C   UNL A   1      29.515  24.015  26.690  1.00  0.00     0.010 C 
ENDBRANCH  10  11
BRANCH  10  14
ATOM     14  N   UNL A   1      29.554  25.278  24.233  1.00  0.00    -0.309 N 
ATOM     15  C   UNL A   1      29.153  26.543  23.944  1.00  0.00     0.408 C 
ATOM     16  H   UNL A   1      28.852  24.597  24.124  1.00  0.00     0.167 HD
ATOM     17  O   UNL A   1      27.956  26.804  23.876  1.00  0.00    -0.225 OA
BRANCH  15  18
ATOM     18  O   UNL A   1      30.157  27.433  23.809  1.00  0.00    -0.445 OA
BRANCH  18  19
ATOM     19  C   UNL A   1      30.188  28.168  22.574  1.00  0.00     0.270 C 
BRANCH  19  20
ATOM     20  C   UNL A   1      29.466  29.482  22.707  1.00  0.00    -0.011 A 
ATOM     21  C   UNL A   1      29.878  30.411  23.672  1.00  0.00     0.007 A 
ATOM     22  C   UNL A   1      28.331  29.756  21.933  1.00  0.00     0.007 A 
ATOM     23  C   UNL A   1      29.155  31.583  23.879  1.00  0.00     0.000 A 
ATOM     24  C   UNL A   1      27.614  30.935  22.137  1.00  0.00     0.000 A 
ATOM     25  C   UNL A   1      28.021  31.844  23.114  1.00  0.00     0.000 A 
ENDBRANCH  19  20
ENDBRANCH  18  19
ENDBRANCH  15  18
ENDBRANCH  10  14
ENDBRANCH   7  10
ENDBRANCH   5   6
ENDBRANCH   1   5
BRANCH   3  26
ATOM     26  C   UNL A   1      33.632  28.890  25.085  1.00  0.00     0.117 C 
BRANCH  26  27
ATOM     27  C   UNL A   1      32.236  29.313  25.490  1.00  0.00     0.042 C 
BRANCH  27  28
ATOM     28  C   UNL A   1      32.183  29.916  26.882  1.00  0.00     0.118 C 
BRANCH  28  29
ATOM     29  N   UNL A   1      32.280  31.373  26.875  1.00  0.00    -0.352 N 
ATOM     30  C   UNL A   1      33.243  32.202  27.399  1.00  0.00     0.251 C 
ATOM     31  H   UNL A   1      31.536  31.836  26.425  1.00  0.00     0.163 HD
ATOM     32  O   UNL A   1      33.053  33.415  27.415  1.00  0.00    -0.269 OA
BRANCH  30  33
ATOM     33  C   UNL A   1      34.484  31.634  27.967  1.00  0.00     0.039 A 
ATOM     34  C   UNL A   1      35.593  32.465  28.145  1.00  0.00     0.014 A 
ATOM     35  C   UNL A   1      34.551  30.290  28.337  1.00  0.00     0.014 A 
ATOM     36  C   UNL A   1      36.740  31.964  28.766  1.00  0.00     0.010 A 
ATOM     37  C   UNL A   1      35.645  29.826  29.055  1.00  0.00     0.010 A 
ATOM     38  C   UNL A   1      36.759  30.652  29.266  1.00  0.00    -0.014 A 
BRANCH  38  39
ATOM     39  C   UNL A   1      37.939  30.100  29.978  1.00  0.00     0.031 A 
ATOM     40  C   UNL A   1      38.232  30.545  31.386  1.00  0.00     0.074 A 
ATOM     41  C   UNL A   1      38.785  29.270  29.336  1.00  0.00     0.049 A 
ATOM     42  N   UNL A   1      39.271  30.292  32.139  1.00  0.00    -0.248 NA
ATOM     43  C   UNL A   1      37.239  31.433  32.014  1.00  0.00     0.031 C 
ATOM     44  C   UNL A   1      38.633  28.806  27.953  1.00  0.00     0.029 A 
ATOM     45  N   UNL A   1      39.948  28.675  29.756  1.00  0.00    -0.354 N 
ATOM     46  C   UNL A   1      39.070  31.012  33.313  1.00  0.00     0.074 A 
ATOM     47  C   UNL A   1      37.848  31.765  33.140  1.00  0.00     0.031 C 
ATOM     48  C   UNL A   1      39.646  27.977  27.653  1.00  0.00     0.029 A 
ATOM     49  C   UNL A   1      40.545  27.888  28.798  1.00  0.00     0.049 A 
ATOM     50  H   UNL A   1      40.320  28.800  30.658  1.00  0.00     0.167 HD
ATOM     51  C   UNL A   1      39.819  31.018  34.443  1.00  0.00     0.034 A 
ATOM     52  C   UNL A   1      41.694  27.184  28.837  1.00  0.00     0.034 A 
ATOM     53  C   UNL A   1      41.017  30.232  34.607  1.00  0.00     0.049 A 
ATOM     54  C   UNL A   1      42.509  27.202  30.107  1.00  0.00     0.074 A 
ATOM     55  C   UNL A   1      41.826  30.114  35.723  1.00  0.00     0.029 A 
ATOM     56  N   UNL A   1      41.575  29.423  33.625  1.00  0.00    -0.354 N 
ATOM     57  N   UNL A   1      42.284  27.853  31.225  1.00  0.00    -0.248 NA
ATOM     58  C   UNL A   1      43.725  26.379  30.123  1.00  0.00     0.031 C 
ATOM     59  C   UNL A   1      42.902  29.282  35.398  1.00  0.00     0.029 A 
ATOM     60  C   UNL A   1      42.729  28.821  34.103  1.00  0.00     0.049 A 
ATOM     61  H   UNL A   1      41.207  29.296  32.721  1.00  0.00     0.167 HD
ATOM     62  C   UNL A   1      43.314  27.490  32.088  1.00  0.00     0.074 A 
ATOM     63  C   UNL A   1      44.149  26.552  31.365  1.00  0.00     0.031 C 
ATOM     64  C   UNL A   1      43.549  27.891  33.364  1.00  0.00     0.034 A 
BRANCH  51  65
ATOM     65  C   UNL A   1      39.366  31.915  35.571  1.00  0.00     0.023 A 
ATOM     66  C   UNL A   1      39.809  33.244  35.683  1.00  0.00     0.031 A 
ATOM     67  C   UNL A   1      38.509  31.423  36.573  1.00  0.00     0.131 A 
ATOM     68  C   UNL A   1      39.471  34.006  36.810  1.00  0.00     0.055 A 
ATOM     69  C   UNL A   1      38.103  32.217  37.648  1.00  0.00     0.041 A 
ATOM     70  F   UNL A   1      38.068  30.156  36.535  1.00  0.00    -0.206 F 
ATOM     71  C   UNL A   1      38.598  33.511  37.781  1.00  0.00     0.022 A 
BRANCH  68  72
ATOM     72  S   UNL A   1      40.309  35.594  37.064  1.00  0.00     0.124 S 
ATOM     73  O   UNL A   1      41.695  35.247  36.759  1.00  0.00    -0.237 OA
ATOM     74  O   UNL A   1      39.641  36.461  36.101  1.00  0.00    -0.237 OA
ATOM     75  O   UNL A   1      40.044  35.900  38.468  1.00  0.00    -0.744 OA
ENDBRANCH  68  72
ENDBRANCH  51  65
BRANCH  52  76
ATOM     76  C   UNL A   1      42.148  26.403  27.651  1.00  0.00     0.023 A 
ATOM     77  C   UNL A   1      41.783  25.056  27.492  1.00  0.00     0.031 A 
ATOM     78  C   UNL A   1      42.990  26.975  26.682  1.00  0.00     0.131 A 
ATOM     79  C   UNL A   1      42.301  24.310  26.422  1.00  0.00     0.055 A 
ATOM     80  C   UNL A   1      43.458  26.245  25.588  1.00  0.00     0.041 A 
ATOM     81  F   UNL A   1      43.363  28.261  26.780  1.00  0.00    -0.206 F 
ATOM     82  C   UNL A   1      43.126  24.899  25.462  1.00  0.00     0.022 A 
BRANCH  79  83
ATOM     83  S   UNL A   1      41.952  22.532  26.355  1.00  0.00     0.124 S 
ATOM     84  O   UNL A   1      40.497  22.510  26.464  1.00  0.00    -0.237 OA
ATOM     85  O   UNL A   1      42.504  22.164  25.056  1.00  0.00    -0.237 OA
ATOM     86  O   UNL A   1      42.673  22.000  27.510  1.00  0.00    -0.744 OA
ENDBRANCH  79  83
ENDBRANCH  52  76
BRANCH  64  87
ATOM     87  C   UNL A   1      44.729  27.269  34.069  1.00  0.00     0.023 A 
ATOM     88  C   UNL A   1      44.603  26.090  34.823  1.00  0.00     0.031 A 
ATOM     89  C   UNL A   1      45.994  27.876  33.993  1.00  0.00     0.131 A 
ATOM     90  C   UNL A   1      45.712  25.586  35.520  1.00  0.00     0.055 A 
ATOM     91  C   UNL A   1      47.107  27.337  34.639  1.00  0.00     0.041 A 
ATOM     92  F   UNL A   1      46.169  29.005  33.287  1.00  0.00    -0.206 F 
ATOM     93  C   UNL A   1      46.965  26.193  35.419  1.00  0.00     0.022 A 
BRANCH  90  94
ATOM     94  S   UNL A   1      45.470  24.179  36.638  1.00  0.00     0.124 S 
ATOM     95  O   UNL A   1      44.584  24.742  37.649  1.00  0.00    -0.237 OA
ATOM     96  O   UNL A   1      44.877  23.178  35.756  1.00  0.00    -0.237 OA
ATOM     97  O   UNL A   1      46.823  23.871  37.099  1.00  0.00    -0.744 OA
ENDBRANCH  90  94
ENDBRANCH  64  87
ENDBRANCH  38  39
ENDBRANCH  30  33
ENDBRANCH  28  29
ENDBRANCH  27  28
ENDBRANCH  26  27
ENDBRANCH   3  26
TORSDOF 20
ENDMDL
MODEL 3
REMARK VINA RESULT:     -10.6      1.693      2.039
REMARK SMILES CC(C)[C@H](NC(=O)OCc1ccccc1)C(=O)NCC(=O)NCCCNC(=O)c1ccc(-c2c3nc(c(-c4cc(S(=O)(=O)[O-])ccc4F)c4ccc([nH]4)c(-c4cc(S(=O)(=O)[O-])ccc4F)c4nc(c(-c5cc(S(=O)(=O)[O-])ccc5F)c5ccc2[nH]5)C=C4)C=C3)cc1
REMARK SMILES IDX 20 1 21 2 22 3 19 5 18 6 16 7 17 8 4 10 2 11 1 12 3 13 5 14
REMARK SMILES IDX 6 15 7 17 8 18 9 19 10 20 11 21 15 22 12 23 14 24 13 25
REMARK SMILES IDX 23 26 24 27 25 28 26 29 27 30 28 32 29 33 30 34 91 35 31 36
REMARK SMILES IDX 90 37 32 38 33 39 34 40 84 41 35 42 89 43 83 44 85 45 36 46
REMARK SMILES IDX 88 47 82 48 81 49 37 51 69 52 49 53 68 54 50 55 53 56 67 57
REMARK SMILES IDX 86 58 51 59 52 60 66 62 87 63 54 64 38 65 39 66 47 67 40 68
REMARK SMILES IDX 46 69 48 70 45 71 41 72 42 73 43 74 44 75 70 76 71 77 79 78
REMARK SMILES IDX 72 79 78 80 80 81 77 82 73 83 74 84 75 85 76 86 55 87 56 88
REMARK SMILES IDX 64 89 57 90 63 91 65 92 62 93 58 94 59 95 60 96 61 97
REMARK H PARENT 22 4 18 9 5 16 26 31 85 50 53 61
REMARK Flexibility Score: inf
ROOT
ATOM      1  C   UNL A   1      30.540  28.072  22.916  1.00  0.00     0.239 C 
ATOM      2  O   UNL A   1      30.524  27.870  21.698  1.00  0.00    -0.273 OA
ATOM      3  N   UNL A   1      31.133  29.222  23.346  1.00  0.00    -0.355 N 
ATOM      4  H   UNL A   1      31.727  29.658  22.691  1.00  0.00     0.163 HD
ENDROOT
BRANCH   1   5
ATOM      5  C   UNL A   1      29.762  27.130  23.857  1.00  0.00     0.216 C 
BRANCH   5   6
ATOM      6  N   UNL A   1      29.921  25.702  23.670  1.00  0.00    -0.345 N 
ATOM      7  C   UNL A   1      30.834  24.814  24.140  1.00  0.00     0.243 C 
ATOM      8  O   UNL A   1      30.672  23.639  23.785  1.00  0.00    -0.273 OA
ATOM      9  H   UNL A   1      29.235  25.298  23.091  1.00  0.00     0.164 HD
BRANCH   7  10
ATOM     10  C   UNL A   1      32.054  25.175  25.038  1.00  0.00     0.177 C 
BRANCH  10  11
ATOM     11  C   UNL A   1      33.420  25.283  24.336  1.00  0.00     0.015 C 
ATOM     12  C   UNL A   1      33.415  24.564  22.982  1.00  0.00     0.010 C 
ATOM     13  C   UNL A   1      33.776  26.762  24.109  1.00  0.00     0.010 C 
ENDBRANCH  10  11
BRANCH  10  14
ATOM     14  N   UNL A   1      32.026  24.478  26.329  1.00  0.00    -0.309 N 
ATOM     15  C   UNL A   1      32.353  23.206  26.677  1.00  0.00     0.408 C 
ATOM     16  H   UNL A   1      31.714  25.034  27.079  1.00  0.00     0.167 HD
ATOM     17  O   UNL A   1      31.975  22.751  27.752  1.00  0.00    -0.225 OA
BRANCH  15  18
ATOM     18  O   UNL A   1      33.043  22.528  25.739  1.00  0.00    -0.445 OA
BRANCH  18  19
ATOM     19  C   UNL A   1      33.887  21.468  26.219  1.00  0.00     0.270 C 
BRANCH  19  20
ATOM     20  C   UNL A   1      33.789  20.254  25.334  1.00  0.00    -0.011 A 
ATOM     21  C   UNL A   1      32.534  19.798  24.910  1.00  0.00     0.007 A 
ATOM     22  C   UNL A   1      34.934  19.522  24.995  1.00  0.00     0.007 A 
ATOM     23  C   UNL A   1      32.420  18.617  24.182  1.00  0.00     0.000 A 
ATOM     24  C   UNL A   1      34.818  18.343  24.258  1.00  0.00     0.000 A 
ATOM     25  C   UNL A   1      33.562  17.887  23.858  1.00  0.00     0.000 A 
ENDBRANCH  19  20
ENDBRANCH  18  19
ENDBRANCH  15  18
ENDBRANCH  10  14
ENDBRANCH   7  10
ENDBRANCH   5   6
ENDBRANCH   1   5
BRANCH   3  26
ATOM     26  C   UNL A   1      31.021  29.895  24.620  1.00  0.00     0.117 C 
BRANCH  26  27
ATOM     27  C   UNL A   1      32.259  29.805  25.487  1.00  0.00     0.042 C 
BRANCH  27  28
ATOM     28  C   UNL A   1      32.060  30.410  26.864  1.00  0.00     0.118 C 
BRANCH  28  29
ATOM     29  N   UNL A   1      32.203  31.863  26.874  1.00  0.00    -0.352 N 
ATOM     30  C   UNL A   1      33.187  32.656  27.417  1.00  0.00     0.251 C 
ATOM     31  H   UNL A   1      31.480  32.354  26.419  1.00  0.00     0.163 HD
ATOM     32  O   UNL A   1      33.034  33.874  27.443  1.00  0.00    -0.269 OA
BRANCH  30  33
ATOM     33  C   UNL A   1      34.402  32.043  27.993  1.00  0.00     0.039 A 
ATOM     34  C   UNL A   1      35.573  32.800  28.073  1.00  0.00     0.014 A 
ATOM     35  C   UNL A   1      34.385  30.731  28.468  1.00  0.00     0.014 A 
ATOM     36  C   UNL A   1      36.701  32.265  28.700  1.00  0.00     0.010 A 
ATOM     37  C   UNL A   1      35.466  30.243  29.189  1.00  0.00     0.010 A 
ATOM     38  C   UNL A   1      36.642  30.999  29.303  1.00  0.00    -0.014 A 
BRANCH  38  39
ATOM     39  C   UNL A   1      37.804  30.417  30.023  1.00  0.00     0.031 A 
ATOM     40  C   UNL A   1      38.062  30.810  31.454  1.00  0.00     0.074 A 
ATOM     41  C   UNL A   1      38.663  29.608  29.372  1.00  0.00     0.049 A 
ATOM     42  N   UNL A   1      39.081  30.526  32.222  1.00  0.00    -0.248 NA
ATOM     43  C   UNL A   1      37.056  31.678  32.088  1.00  0.00     0.031 C 
ATOM     44  C   UNL A   1      38.545  29.196  27.971  1.00  0.00     0.029 A 
ATOM     45  N   UNL A   1      39.814  28.995  29.799  1.00  0.00    -0.354 N 
ATOM     46  C   UNL A   1      38.853  31.203  33.416  1.00  0.00     0.074 A 
ATOM     47  C   UNL A   1      37.637  31.967  33.241  1.00  0.00     0.031 C 
ATOM     48  C   UNL A   1      39.563  28.376  27.665  1.00  0.00     0.029 A 
ATOM     49  C   UNL A   1      40.433  28.241  28.828  1.00  0.00     0.049 A 
ATOM     50  H   UNL A   1      40.164  29.086  30.714  1.00  0.00     0.167 HD
ATOM     51  C   UNL A   1      39.573  31.166  34.564  1.00  0.00     0.034 A 
ATOM     52  C   UNL A   1      41.579  27.533  28.870  1.00  0.00     0.034 A 
ATOM     53  C   UNL A   1      40.765  30.371  34.729  1.00  0.00     0.049 A 
ATOM     54  C   UNL A   1      42.362  27.502  30.160  1.00  0.00     0.074 A 
ATOM     55  C   UNL A   1      41.545  30.210  35.860  1.00  0.00     0.029 A 
ATOM     56  N   UNL A   1      41.346  29.597  33.733  1.00  0.00    -0.354 N 
ATOM     57  N   UNL A   1      42.111  28.113  31.295  1.00  0.00    -0.248 NA
ATOM     58  C   UNL A   1      43.576  26.675  30.176  1.00  0.00     0.031 C 
ATOM     59  C   UNL A   1      42.628  29.387  35.532  1.00  0.00     0.029 A 
ATOM     60  C   UNL A   1      42.486  28.974  34.217  1.00  0.00     0.049 A 
ATOM     61  H   UNL A   1      41.000  29.504  32.815  1.00  0.00     0.167 HD
ATOM     62  C   UNL A   1      43.118  27.716  32.169  1.00  0.00     0.074 A 
ATOM     63  C   UNL A   1      43.969  26.802  31.434  1.00  0.00     0.031 C 
ATOM     64  C   UNL A   1      43.322  28.069  33.464  1.00  0.00     0.034 A 
BRANCH  51  65
ATOM     65  C   UNL A   1      39.094  32.022  35.712  1.00  0.00     0.023 A 
ATOM     66  C   UNL A   1      39.518  33.353  35.869  1.00  0.00     0.031 A 
ATOM     67  C   UNL A   1      38.232  31.490  36.688  1.00  0.00     0.131 A 
ATOM     68  C   UNL A   1      39.155  34.077  37.014  1.00  0.00     0.055 A 
ATOM     69  C   UNL A   1      37.802  32.245  37.781  1.00  0.00     0.041 A 
ATOM     70  F   UNL A   1      37.808  30.219  36.607  1.00  0.00    -0.206 F 
ATOM     71  C   UNL A   1      38.277  33.542  37.959  1.00  0.00     0.022 A 
BRANCH  68  72
ATOM     72  S   UNL A   1      39.968  35.668  37.327  1.00  0.00     0.124 S 
ATOM     73  O   UNL A   1      39.282  36.115  38.537  1.00  0.00    -0.237 OA
ATOM     74  O   UNL A   1      41.364  35.282  37.489  1.00  0.00    -0.237 OA
ATOM     75  O   UNL A   1      39.671  36.446  36.127  1.00  0.00    -0.744 OA
ENDBRANCH  68  72
ENDBRANCH  51  65
BRANCH  52  76
ATOM     76  C   UNL A   1      42.061  26.794  27.668  1.00  0.00     0.023 A 
ATOM     77  C   UNL A   1      41.814  25.420  27.520  1.00  0.00     0.031 A 
ATOM     78  C   UNL A   1      42.814  27.439  26.672  1.00  0.00     0.131 A 
ATOM     79  C   UNL A   1      42.360  24.723  26.431  1.00  0.00     0.055 A 
ATOM     80  C   UNL A   1      43.309  26.752  25.561  1.00  0.00     0.041 A 
ATOM     81  F   UNL A   1      43.074  28.753  26.760  1.00  0.00    -0.206 F 
ATOM     82  C   UNL A   1      43.096  25.382  25.444  1.00  0.00     0.022 A 
BRANCH  79  83
ATOM     83  S   UNL A   1      42.169  22.920  26.372  1.00  0.00     0.124 S 
ATOM     84  O   UNL A   1      43.045  22.493  27.458  1.00  0.00    -0.237 OA
ATOM     85  O   UNL A   1      40.738  22.759  26.600  1.00  0.00    -0.237 OA
ATOM     86  O   UNL A   1      42.628  22.574  25.028  1.00  0.00    -0.744 OA
ENDBRANCH  79  83
ENDBRANCH  52  76
BRANCH  64  87
ATOM     87  C   UNL A   1      44.482  27.418  34.175  1.00  0.00     0.023 A 
ATOM     88  C   UNL A   1      44.345  26.193  34.849  1.00  0.00     0.031 A 
ATOM     89  C   UNL A   1      45.741  28.044  34.187  1.00  0.00     0.131 A 
ATOM     90  C   UNL A   1      45.433  25.660  35.557  1.00  0.00     0.055 A 
ATOM     91  C   UNL A   1      46.836  27.479  34.842  1.00  0.00     0.041 A 
ATOM     92  F   UNL A   1      45.927  29.216  33.560  1.00  0.00    -0.206 F 
ATOM     93  C   UNL A   1      46.681  26.286  35.543  1.00  0.00     0.022 A 
BRANCH  90  94
ATOM     94  S   UNL A   1      45.168  24.182  36.575  1.00  0.00     0.124 S 
ATOM     95  O   UNL A   1      44.254  23.403  35.749  1.00  0.00    -0.237 OA
ATOM     96  O   UNL A   1      46.521  23.648  36.707  1.00  0.00    -0.237 OA
ATOM     97  O   UNL A   1      44.591  24.714  37.808  1.00  0.00    -0.744 OA
ENDBRANCH  90  94
ENDBRANCH  64  87
ENDBRANCH  38  39
ENDBRANCH  30  33
ENDBRANCH  28  29
ENDBRANCH  27  28
ENDBRANCH  26  27
ENDBRANCH   3  26
TORSDOF 20
ENDMDL
