MODEL 1
REMARK VINA RESULT:     -11.5      0.000      0.000
REMARK SMILES Cc1[nH]c(=O)n(C)c(=O)c1CC(=O)NCCCNC(=O)c1ccc(-c2c3nc(c(-c4cc(S(=O)(=O)[O-])ccc4F)c4ccc([nH]4)c(-c4cc(S(=O)(=O)[O-])ccc4F)c4nc(c(-c5cc(S(=O)(=O)[O-])ccc5F)c5ccc2[nH]5)C=C4)C=C3)cc1
REMARK SMILES IDX 17 1 16 2 15 3 14 4 12 5 13 6 11 8 10 9 1 10 2 11 3 12 4 13
REMARK SMILES IDX 8 15 5 16 6 17 9 18 7 19 18 20 19 21 20 23 21 24 22 25 83 26
REMARK SMILES IDX 23 27 82 28 24 29 25 30 26 31 76 32 27 33 81 34 75 35 77 36
REMARK SMILES IDX 28 37 80 38 74 39 73 40 29 42 61 43 41 44 60 45 42 46 45 47
REMARK SMILES IDX 59 48 78 49 43 50 44 51 58 53 79 54 46 55 30 56 31 57 39 58
REMARK SMILES IDX 32 59 38 60 40 61 37 62 33 63 34 64 35 65 36 66 62 67 63 68
REMARK SMILES IDX 71 69 64 70 70 71 72 72 69 73 65 74 66 75 67 76 68 77 47 78
REMARK SMILES IDX 48 79 56 80 49 81 55 82 57 83 54 84 50 85 51 86 52 87 53 88
REMARK H PARENT 14 7 3 14 18 22 77 41 45 52
REMARK Flexibility Score: inf
ROOT
ATOM      1  C   UNL A   1      32.823  29.155  25.378  1.00  0.00     0.118 C 
ENDROOT
BRANCH   1   2
ATOM      2  C   UNL A   1      33.897  29.220  24.296  1.00  0.00     0.042 C 
BRANCH   2   3
ATOM      3  C   UNL A   1      33.366  28.931  22.897  1.00  0.00     0.117 C 
BRANCH   3   4
ATOM      4  N   UNL A   1      31.987  29.344  22.739  1.00  0.00    -0.356 N 
ATOM      5  C   UNL A   1      30.871  28.592  22.518  1.00  0.00     0.224 C 
ATOM      6  O   UNL A   1      29.780  29.165  22.537  1.00  0.00    -0.275 OA
ATOM      7  H   UNL A   1      31.831  30.314  22.801  1.00  0.00     0.163 HD
BRANCH   5   8
ATOM      8  C   UNL A   1      30.975  27.074  22.371  1.00  0.00     0.143 C 
BRANCH   8   9
ATOM      9  C   UNL A   1      30.817  26.307  23.660  1.00  0.00     0.046 A 
ATOM     10  C   UNL A   1      28.301  26.585  23.948  1.00  0.00     0.065 C 
ATOM     11  C   UNL A   1      29.673  26.105  24.340  1.00  0.00     0.026 A 
ATOM     12  N   UNL A   1      29.699  25.410  25.520  1.00  0.00    -0.311 N 
ATOM     13  C   UNL A   1      30.812  24.878  26.103  1.00  0.00     0.328 A 
ATOM     14  H   UNL A   1      28.841  25.283  25.986  1.00  0.00     0.171 HD
ATOM     15  C   UNL A   1      32.075  25.687  24.194  1.00  0.00     0.259 A 
ATOM     16  O   UNL A   1      30.704  24.267  27.164  1.00  0.00    -0.248 OA
ATOM     17  N   UNL A   1      31.995  25.061  25.422  1.00  0.00    -0.263 N 
ATOM     18  O   UNL A   1      33.104  25.738  23.525  1.00  0.00    -0.269 OA
ATOM     19  C   UNL A   1      33.190  24.494  26.015  1.00  0.00     0.158 C 
ENDBRANCH   8   9
ENDBRANCH   5   8
ENDBRANCH   3   4
ENDBRANCH   2   3
ENDBRANCH   1   2
BRANCH   1  20
ATOM     20  N   UNL A   1      32.401  30.479  25.814  1.00  0.00    -0.352 N 
ATOM     21  C   UNL A   1      32.872  31.264  26.836  1.00  0.00     0.251 C 
ATOM     22  H   UNL A   1      31.661  30.872  25.296  1.00  0.00     0.163 HD
ATOM     23  O   UNL A   1      32.224  32.252  27.180  1.00  0.00    -0.269 OA
BRANCH  21  24
ATOM     24  C   UNL A   1      34.133  30.920  27.525  1.00  0.00     0.039 A 
ATOM     25  C   UNL A   1      35.107  31.908  27.689  1.00  0.00     0.014 A 
ATOM     26  C   UNL A   1      34.365  29.622  27.989  1.00  0.00     0.014 A 
ATOM     27  C   UNL A   1      36.285  31.610  28.377  1.00  0.00     0.010 A 
ATOM     28  C   UNL A   1      35.505  29.347  28.740  1.00  0.00     0.010 A 
ATOM     29  C   UNL A   1      36.477  30.337  28.938  1.00  0.00    -0.014 A 
BRANCH  29  30
ATOM     30  C   UNL A   1      37.693  30.023  29.730  1.00  0.00     0.031 A 
ATOM     31  C   UNL A   1      38.770  29.154  29.144  1.00  0.00     0.074 A 
ATOM     32  C   UNL A   1      37.806  30.491  30.988  1.00  0.00     0.049 A 
ATOM     33  N   UNL A   1      39.876  28.726  29.696  1.00  0.00    -0.248 NA
ATOM     34  C   UNL A   1      38.567  28.688  27.764  1.00  0.00     0.031 C 
ATOM     35  C   UNL A   1      36.816  31.328  31.669  1.00  0.00     0.029 A 
ATOM     36  N   UNL A   1      38.804  30.336  31.916  1.00  0.00    -0.354 N 
ATOM     37  C   UNL A   1      40.502  27.944  28.732  1.00  0.00     0.074 A 
ATOM     38  C   UNL A   1      39.618  27.901  27.586  1.00  0.00     0.031 C 
ATOM     39  C   UNL A   1      37.278  31.650  32.887  1.00  0.00     0.029 A 
ATOM     40  C   UNL A   1      38.570  31.004  33.095  1.00  0.00     0.049 A 
ATOM     41  H   UNL A   1      39.612  29.799  31.753  1.00  0.00     0.167 HD
ATOM     42  C   UNL A   1      41.714  27.342  28.786  1.00  0.00     0.034 A 
ATOM     43  C   UNL A   1      39.310  31.086  34.218  1.00  0.00     0.034 A 
ATOM     44  C   UNL A   1      42.586  27.398  29.931  1.00  0.00     0.049 A 
ATOM     45  C   UNL A   1      40.625  30.356  34.281  1.00  0.00     0.074 A 
ATOM     46  C   UNL A   1      43.846  26.844  30.082  1.00  0.00     0.029 A 
ATOM     47  N   UNL A   1      42.290  28.042  31.126  1.00  0.00    -0.354 N 
ATOM     48  N   UNL A   1      41.204  29.624  33.360  1.00  0.00    -0.248 NA
ATOM     49  C   UNL A   1      41.384  30.464  35.534  1.00  0.00     0.031 C 
ATOM     50  C   UNL A   1      44.283  27.098  31.385  1.00  0.00     0.029 A 
ATOM     51  C   UNL A   1      43.330  27.873  32.028  1.00  0.00     0.049 A 
ATOM     52  H   UNL A   1      41.464  28.544  31.306  1.00  0.00     0.167 HD
ATOM     53  C   UNL A   1      42.407  29.199  33.914  1.00  0.00     0.074 A 
ATOM     54  C   UNL A   1      42.472  29.761  35.248  1.00  0.00     0.031 C 
ATOM     55  C   UNL A   1      43.373  28.422  33.362  1.00  0.00     0.034 A 
BRANCH  42  56
ATOM     56  C   UNL A   1      42.157  26.563  27.574  1.00  0.00     0.023 A 
ATOM     57  C   UNL A   1      41.869  25.193  27.441  1.00  0.00     0.031 A 
ATOM     58  C   UNL A   1      42.876  27.189  26.543  1.00  0.00     0.131 A 
ATOM     59  C   UNL A   1      42.349  24.481  26.333  1.00  0.00     0.055 A 
ATOM     60  C   UNL A   1      43.289  26.491  25.405  1.00  0.00     0.041 A 
ATOM     61  F   UNL A   1      43.196  28.490  26.625  1.00  0.00    -0.206 F 
ATOM     62  C   UNL A   1      43.037  25.126  25.302  1.00  0.00     0.022 A 
BRANCH  59  63
ATOM     63  S   UNL A   1      42.158  22.678  26.311  1.00  0.00     0.124 S 
ATOM     64  O   UNL A   1      40.708  22.535  26.411  1.00  0.00    -0.237 OA
ATOM     65  O   UNL A   1      42.750  22.312  25.030  1.00  0.00    -0.237 OA
ATOM     66  O   UNL A   1      42.904  22.241  27.489  1.00  0.00    -0.744 OA
ENDBRANCH  59  63
ENDBRANCH  42  56
BRANCH  43  67
ATOM     67  C   UNL A   1      38.822  31.901  35.364  1.00  0.00     0.023 A 
ATOM     68  C   UNL A   1      38.200  31.291  36.463  1.00  0.00     0.031 A 
ATOM     69  C   UNL A   1      39.005  33.295  35.392  1.00  0.00     0.131 A 
ATOM     70  C   UNL A   1      37.771  32.077  37.545  1.00  0.00     0.055 A 
ATOM     71  C   UNL A   1      38.609  34.067  36.485  1.00  0.00     0.041 A 
ATOM     72  F   UNL A   1      39.607  33.920  34.368  1.00  0.00    -0.206 F 
ATOM     73  C   UNL A   1      37.984  33.457  37.569  1.00  0.00     0.022 A 
BRANCH  70  74
ATOM     74  S   UNL A   1      36.920  31.266  38.927  1.00  0.00     0.124 S 
ATOM     75  O   UNL A   1      35.695  32.052  39.024  1.00  0.00    -0.237 OA
ATOM     76  O   UNL A   1      36.770  29.901  38.435  1.00  0.00    -0.237 OA
ATOM     77  O   UNL A   1      37.854  31.424  40.039  1.00  0.00    -0.744 OA
ENDBRANCH  70  74
ENDBRANCH  43  67
BRANCH  55  78
ATOM     78  C   UNL A   1      44.600  28.145  34.191  1.00  0.00     0.023 A 
ATOM     79  C   UNL A   1      44.694  27.007  35.008  1.00  0.00     0.031 A 
ATOM     80  C   UNL A   1      45.710  29.007  34.121  1.00  0.00     0.131 A 
ATOM     81  C   UNL A   1      45.865  26.771  35.743  1.00  0.00     0.055 A 
ATOM     82  C   UNL A   1      46.890  28.742  34.815  1.00  0.00     0.041 A 
ATOM     83  F   UNL A   1      45.670  30.108  33.352  1.00  0.00    -0.206 F 
ATOM     84  C   UNL A   1      46.970  27.622  35.637  1.00  0.00     0.022 A 
BRANCH  81  85
ATOM     85  S   UNL A   1      45.916  25.355  36.875  1.00  0.00     0.124 S 
ATOM     86  O   UNL A   1      46.675  24.379  36.102  1.00  0.00    -0.237 OA
ATOM     87  O   UNL A   1      46.593  25.910  38.043  1.00  0.00    -0.237 OA
ATOM     88  O   UNL A   1      44.506  25.026  37.076  1.00  0.00    -0.744 OA
ENDBRANCH  81  85
ENDBRANCH  55  78
ENDBRANCH  29  30
ENDBRANCH  21  24
ENDBRANCH   1  20
TORSDOF 14
ENDMDL
MODEL 2
REMARK VINA RESULT:     -11.4      2.451      3.451
REMARK SMILES Cc1[nH]c(=O)n(C)c(=O)c1CC(=O)NCCCNC(=O)c1ccc(-c2c3nc(c(-c4cc(S(=O)(=O)[O-])ccc4F)c4ccc([nH]4)c(-c4cc(S(=O)(=O)[O-])ccc4F)c4nc(c(-c5cc(S(=O)(=O)[O-])ccc5F)c5ccc2[nH]5)C=C4)C=C3)cc1
REMARK SMILES IDX 17 1 16 2 15 3 14 4 12 5 13 6 11 8 10 9 1 10 2 11 3 12 4 13
REMARK SMILES IDX 8 15 5 16 6 17 9 18 7 19 18 20 19 21 20 23 21 24 22 25 83 26
REMARK SMILES IDX 23 27 82 28 24 29 25 30 26 31 76 32 27 33 81 34 75 35 77 36
REMARK SMILES IDX 28 37 80 38 74 39 73 40 29 42 61 43 41 44 60 45 42 46 45 47
REMARK SMILES IDX 59 48 78 49 43 50 44 51 58 53 79 54 46 55 30 56 31 57 39 58
REMARK SMILES IDX 32 59 38 60 40 61 37 62 33 63 34 64 35 65 36 66 62 67 63 68
REMARK SMILES IDX 71 69 64 70 70 71 72 72 69 73 65 74 66 75 67 76 68 77 47 78
REMARK SMILES IDX 48 79 56 80 49 81 55 82 57 83 54 84 50 85 51 86 52 87 53 88
REMARK H PARENT 14 7 3 14 18 22 77 41 45 52
REMARK Flexibility Score: inf
ROOT
ATOM      1  C   UNL A   1      32.721  32.678  27.261  1.00  0.00     0.118 C 
ENDROOT
BRANCH   1   2
ATOM      2  C   UNL A   1      31.412  32.022  26.831  1.00  0.00     0.042 C 
BRANCH   2   3
ATOM      3  C   UNL A   1      31.610  30.734  26.041  1.00  0.00     0.117 C 
BRANCH   3   4
ATOM      4  N   UNL A   1      32.914  30.146  26.270  1.00  0.00    -0.356 N 
ATOM      5  C   UNL A   1      33.321  28.850  26.145  1.00  0.00     0.224 C 
ATOM      6  O   UNL A   1      34.522  28.611  26.282  1.00  0.00    -0.275 OA
ATOM      7  H   UNL A   1      33.612  30.778  26.559  1.00  0.00     0.163 HD
BRANCH   5   8
ATOM      8  C   UNL A   1      32.330  27.762  25.733  1.00  0.00     0.143 C 
BRANCH   8   9
ATOM      9  C   UNL A   1      32.576  27.176  24.365  1.00  0.00     0.046 A 
ATOM     10  C   UNL A   1      31.419  28.975  22.980  1.00  0.00     0.065 C 
ATOM     11  C   UNL A   1      32.179  27.692  23.186  1.00  0.00     0.026 A 
ATOM     12  N   UNL A   1      32.453  27.019  22.025  1.00  0.00    -0.311 N 
ATOM     13  C   UNL A   1      33.116  25.831  21.933  1.00  0.00     0.328 A 
ATOM     14  H   UNL A   1      32.146  27.430  21.185  1.00  0.00     0.171 HD
ATOM     15  C   UNL A   1      33.380  25.910  24.346  1.00  0.00     0.259 A 
ATOM     16  O   UNL A   1      33.307  25.329  20.829  1.00  0.00    -0.248 OA
ATOM     17  N   UNL A   1      33.544  25.287  23.125  1.00  0.00    -0.263 N 
ATOM     18  O   UNL A   1      33.873  25.492  25.391  1.00  0.00    -0.269 OA
ATOM     19  C   UNL A   1      34.263  24.030  23.053  1.00  0.00     0.158 C 
ENDBRANCH   8   9
ENDBRANCH   5   8
ENDBRANCH   3   4
ENDBRANCH   2   3
ENDBRANCH   1   2
BRANCH   1  20
ATOM     20  N   UNL A   1      32.546  34.083  27.605  1.00  0.00    -0.352 N 
ATOM     21  C   UNL A   1      33.126  34.826  28.602  1.00  0.00     0.251 C 
ATOM     22  H   UNL A   1      31.912  34.576  27.035  1.00  0.00     0.163 HD
ATOM     23  O   UNL A   1      32.668  35.938  28.864  1.00  0.00    -0.269 OA
BRANCH  21  24
ATOM     24  C   UNL A   1      34.275  34.293  29.363  1.00  0.00     0.039 A 
ATOM     25  C   UNL A   1      34.037  33.600  30.553  1.00  0.00     0.014 A 
ATOM     26  C   UNL A   1      35.585  34.492  28.917  1.00  0.00     0.014 A 
ATOM     27  C   UNL A   1      35.109  33.052  31.259  1.00  0.00     0.010 A 
ATOM     28  C   UNL A   1      36.645  33.882  29.582  1.00  0.00     0.010 A 
ATOM     29  C   UNL A   1      36.417  33.158  30.760  1.00  0.00    -0.014 A 
BRANCH  29  30
ATOM     30  C   UNL A   1      37.561  32.524  31.464  1.00  0.00     0.031 A 
ATOM     31  C   UNL A   1      38.281  31.363  30.838  1.00  0.00     0.074 A 
ATOM     32  C   UNL A   1      37.923  32.973  32.681  1.00  0.00     0.049 A 
ATOM     33  N   UNL A   1      39.264  30.646  31.318  1.00  0.00    -0.248 NA
ATOM     34  C   UNL A   1      37.823  30.940  29.506  1.00  0.00     0.031 C 
ATOM     35  C   UNL A   1      37.286  34.081  33.396  1.00  0.00     0.029 A 
ATOM     36  N   UNL A   1      38.918  32.559  33.530  1.00  0.00    -0.354 N 
ATOM     37  C   UNL A   1      39.544  29.690  30.349  1.00  0.00     0.074 A 
ATOM     38  C   UNL A   1      38.580  29.876  29.284  1.00  0.00     0.031 C 
ATOM     39  C   UNL A   1      37.934  34.287  34.552  1.00  0.00     0.029 A 
ATOM     40  C   UNL A   1      38.999  33.297  34.687  1.00  0.00     0.049 A 
ATOM     41  H   UNL A   1      39.517  31.805  33.330  1.00  0.00     0.167 HD
ATOM     42  C   UNL A   1      40.531  28.762  30.335  1.00  0.00     0.034 A 
ATOM     43  C   UNL A   1      39.834  33.190  35.739  1.00  0.00     0.034 A 
ATOM     44  C   UNL A   1      41.486  28.592  31.399  1.00  0.00     0.049 A 
ATOM     45  C   UNL A   1      40.883  32.111  35.731  1.00  0.00     0.074 A 
ATOM     46  C   UNL A   1      42.542  27.699  31.473  1.00  0.00     0.029 A 
ATOM     47  N   UNL A   1      41.503  29.326  32.578  1.00  0.00    -0.354 N 
ATOM     48  N   UNL A   1      41.137  31.217  34.806  1.00  0.00    -0.248 NA
ATOM     49  C   UNL A   1      41.756  32.026  36.909  1.00  0.00     0.031 C 
ATOM     50  C   UNL A   1      43.155  27.849  32.720  1.00  0.00     0.029 A 
ATOM     51  C   UNL A   1      42.531  28.886  33.398  1.00  0.00     0.049 A 
ATOM     52  H   UNL A   1      40.877  30.053  32.798  1.00  0.00     0.167 HD
ATOM     53  C   UNL A   1      42.213  30.474  35.280  1.00  0.00     0.074 A 
ATOM     54  C   UNL A   1      42.564  31.028  36.572  1.00  0.00     0.031 C 
ATOM     55  C   UNL A   1      42.857  29.434  34.693  1.00  0.00     0.034 A 
BRANCH  42  56
ATOM     56  C   UNL A   1      40.612  27.854  29.133  1.00  0.00     0.023 A 
ATOM     57  C   UNL A   1      41.548  28.081  28.109  1.00  0.00     0.031 A 
ATOM     58  C   UNL A   1      39.746  26.756  29.005  1.00  0.00     0.131 A 
ATOM     59  C   UNL A   1      41.556  27.257  26.974  1.00  0.00     0.055 A 
ATOM     60  C   UNL A   1      39.808  25.895  27.907  1.00  0.00     0.041 A 
ATOM     61  F   UNL A   1      38.820  26.503  29.943  1.00  0.00    -0.206 F 
ATOM     62  C   UNL A   1      40.709  26.151  26.877  1.00  0.00     0.022 A 
BRANCH  59  63
ATOM     63  S   UNL A   1      42.615  27.718  25.576  1.00  0.00     0.124 S 
ATOM     64  O   UNL A   1      41.896  28.865  25.028  1.00  0.00    -0.237 OA
ATOM     65  O   UNL A   1      43.887  28.012  26.225  1.00  0.00    -0.237 OA
ATOM     66  O   UNL A   1      42.607  26.524  24.733  1.00  0.00    -0.744 OA
ENDBRANCH  59  63
ENDBRANCH  42  56
BRANCH  43  67
ATOM     67  C   UNL A   1      39.714  34.143  36.876  1.00  0.00     0.023 A 
ATOM     68  C   UNL A   1      39.158  33.734  38.097  1.00  0.00     0.031 A 
ATOM     69  C   UNL A   1      40.185  35.464  36.769  1.00  0.00     0.131 A 
ATOM     70  C   UNL A   1      39.078  34.642  39.165  1.00  0.00     0.055 A 
ATOM     71  C   UNL A   1      40.135  36.352  37.843  1.00  0.00     0.041 A 
ATOM     72  F   UNL A   1      40.735  35.896  35.623  1.00  0.00    -0.206 F 
ATOM     73  C   UNL A   1      39.575  35.943  39.051  1.00  0.00     0.022 A 
BRANCH  70  74
ATOM     74  S   UNL A   1      38.305  34.100  40.714  1.00  0.00     0.124 S 
ATOM     75  O   UNL A   1      38.030  35.373  41.371  1.00  0.00    -0.237 OA
ATOM     76  O   UNL A   1      37.143  33.361  40.233  1.00  0.00    -0.237 OA
ATOM     77  O   UNL A   1      39.341  33.283  41.342  1.00  0.00    -0.744 OA
ENDBRANCH  70  74
ENDBRANCH  43  67
BRANCH  55  78
ATOM     78  C   UNL A   1      44.025  28.834  35.430  1.00  0.00     0.023 A 
ATOM     79  C   UNL A   1      43.857  27.771  36.332  1.00  0.00     0.031 A 
ATOM     80  C   UNL A   1      45.330  29.300  35.186  1.00  0.00     0.131 A 
ATOM     81  C   UNL A   1      44.975  27.222  36.979  1.00  0.00     0.055 A 
ATOM     82  C   UNL A   1      46.442  28.718  35.793  1.00  0.00     0.041 A 
ATOM     83  F   UNL A   1      45.543  30.312  34.330  1.00  0.00    -0.206 F 
ATOM     84  C   UNL A   1      46.268  27.677  36.700  1.00  0.00     0.022 A 
BRANCH  81  85
ATOM     85  S   UNL A   1      44.716  25.928  38.222  1.00  0.00     0.124 S 
ATOM     86  O   UNL A   1      43.587  26.458  38.979  1.00  0.00    -0.237 OA
ATOM     87  O   UNL A   1      44.438  24.753  37.400  1.00  0.00    -0.237 OA
ATOM     88  O   UNL A   1      45.986  25.889  38.946  1.00  0.00    -0.744 OA
ENDBRANCH  81  85
ENDBRANCH  55  78
ENDBRANCH  29  30
ENDBRANCH  21  24
ENDBRANCH   1  20
TORSDOF 14
ENDMDL
MODEL 3
REMARK VINA RESULT:     -11.4      6.046     11.113
REMARK SMILES Cc1[nH]c(=O)n(C)c(=O)c1CC(=O)NCCCNC(=O)c1ccc(-c2c3nc(c(-c4cc(S(=O)(=O)[O-])ccc4F)c4ccc([nH]4)c(-c4cc(S(=O)(=O)[O-])ccc4F)c4nc(c(-c5cc(S(=O)(=O)[O-])ccc5F)c5ccc2[nH]5)C=C4)C=C3)cc1
REMARK SMILES IDX 17 1 16 2 15 3 14 4 12 5 13 6 11 8 10 9 1 10 2 11 3 12 4 13
REMARK SMILES IDX 8 15 5 16 6 17 9 18 7 19 18 20 19 21 20 23 21 24 22 25 83 26
REMARK SMILES IDX 23 27 82 28 24 29 25 30 26 31 76 32 27 33 81 34 75 35 77 36
REMARK SMILES IDX 28 37 80 38 74 39 73 40 29 42 61 43 41 44 60 45 42 46 45 47
REMARK SMILES IDX 59 48 78 49 43 50 44 51 58 53 79 54 46 55 30 56 31 57 39 58
REMARK SMILES IDX 32 59 38 60 40 61 37 62 33 63 34 64 35 65 36 66 62 67 63 68
REMARK SMILES IDX 71 69 64 70 70 71 72 72 69 73 65 74 66 75 67 76 68 77 47 78
REMARK SMILES IDX 48 79 56 80 49 81 55 82 57 83 54 84 50 85 51 86 52 87 53 88
REMARK H PARENT 14 7 3 14 18 22 77 41 45 52
REMARK Flexibility Score: inf
ROOT
ATOM      1  C   UNL A   1      39.330  20.118  25.672  1.00  0.00     0.118 C 
ENDROOT
BRANCH   1   2
ATOM      2  C   UNL A   1      38.096  19.550  24.977  1.00  0.00     0.042 C 
BRANCH   2   3
ATOM      3  C   UNL A   1      36.929  20.528  24.919  1.00  0.00     0.117 C 
BRANCH   3   4
ATOM      4  N   UNL A   1      37.216  21.766  25.613  1.00  0.00    -0.356 N 
ATOM      5  C   UNL A   1      36.556  22.959  25.580  1.00  0.00     0.224 C 
ATOM      6  O   UNL A   1      36.926  23.841  26.358  1.00  0.00    -0.275 OA
ATOM      7  H   UNL A   1      38.008  21.743  26.198  1.00  0.00     0.163 HD
BRANCH   5   8
ATOM      8  C   UNL A   1      35.328  23.142  24.690  1.00  0.00     0.143 C 
BRANCH   8   9
ATOM      9  C   UNL A   1      34.018  23.209  25.435  1.00  0.00     0.046 A 
ATOM     10  C   UNL A   1      33.691  20.714  25.830  1.00  0.00     0.065 C 
ATOM     11  C   UNL A   1      33.313  22.168  25.916  1.00  0.00     0.026 A 
ATOM     12  N   UNL A   1      32.117  22.392  26.545  1.00  0.00    -0.311 N 
ATOM     13  C   UNL A   1      31.541  23.612  26.745  1.00  0.00     0.328 A 
ATOM     14  H   UNL A   1      31.633  21.603  26.883  1.00  0.00     0.171 HD
ATOM     15  C   UNL A   1      33.491  24.592  25.682  1.00  0.00     0.259 A 
ATOM     16  O   UNL A   1      30.464  23.683  27.332  1.00  0.00    -0.248 OA
ATOM     17  N   UNL A   1      32.248  24.695  26.272  1.00  0.00    -0.263 N 
ATOM     18  O   UNL A   1      34.180  25.563  25.377  1.00  0.00    -0.269 OA
ATOM     19  C   UNL A   1      31.663  26.005  26.484  1.00  0.00     0.158 C 
ENDBRANCH   8   9
ENDBRANCH   5   8
ENDBRANCH   3   4
ENDBRANCH   2   3
ENDBRANCH   1   2
BRANCH   1  20
ATOM     20  N   UNL A   1      40.335  19.096  25.930  1.00  0.00    -0.352 N 
ATOM     21  C   UNL A   1      41.684  19.220  26.150  1.00  0.00     0.251 C 
ATOM     22  H   UNL A   1      39.995  18.172  25.950  1.00  0.00     0.163 HD
ATOM     23  O   UNL A   1      42.391  18.214  26.120  1.00  0.00    -0.269 OA
BRANCH  21  24
ATOM     24  C   UNL A   1      42.283  20.547  26.403  1.00  0.00     0.039 A 
ATOM     25  C   UNL A   1      42.797  21.275  25.327  1.00  0.00     0.014 A 
ATOM     26  C   UNL A   1      42.357  21.064  27.700  1.00  0.00     0.014 A 
ATOM     27  C   UNL A   1      43.325  22.549  25.544  1.00  0.00     0.010 A 
ATOM     28  C   UNL A   1      42.815  22.363  27.904  1.00  0.00     0.010 A 
ATOM     29  C   UNL A   1      43.306  23.116  26.829  1.00  0.00    -0.014 A 
BRANCH  29  30
ATOM     30  C   UNL A   1      43.802  24.495  27.066  1.00  0.00     0.031 A 
ATOM     31  C   UNL A   1      42.866  25.558  27.569  1.00  0.00     0.074 A 
ATOM     32  C   UNL A   1      45.086  24.795  26.792  1.00  0.00     0.049 A 
ATOM     33  N   UNL A   1      43.098  26.827  27.785  1.00  0.00    -0.248 NA
ATOM     34  C   UNL A   1      41.482  25.144  27.845  1.00  0.00     0.031 C 
ATOM     35  C   UNL A   1      46.083  23.851  26.282  1.00  0.00     0.029 A 
ATOM     36  N   UNL A   1      45.777  25.974  26.909  1.00  0.00    -0.354 N 
ATOM     37  C   UNL A   1      41.893  27.362  28.225  1.00  0.00     0.074 A 
ATOM     38  C   UNL A   1      40.916  26.295  28.177  1.00  0.00     0.031 C 
ATOM     39  C   UNL A   1      47.265  24.476  26.174  1.00  0.00     0.029 A 
ATOM     40  C   UNL A   1      47.102  25.875  26.558  1.00  0.00     0.049 A 
ATOM     41  H   UNL A   1      45.363  26.813  27.216  1.00  0.00     0.167 HD
ATOM     42  C   UNL A   1      41.632  28.620  28.656  1.00  0.00     0.034 A 
ATOM     43  C   UNL A   1      48.078  26.805  26.544  1.00  0.00     0.034 A 
ATOM     44  C   UNL A   1      42.616  29.671  28.704  1.00  0.00     0.049 A 
ATOM     45  C   UNL A   1      47.751  28.212  26.966  1.00  0.00     0.074 A 
ATOM     46  C   UNL A   1      42.463  30.974  29.147  1.00  0.00     0.029 A 
ATOM     47  N   UNL A   1      43.936  29.544  28.290  1.00  0.00    -0.354 N 
ATOM     48  N   UNL A   1      46.608  28.702  27.382  1.00  0.00    -0.248 NA
ATOM     49  C   UNL A   1      48.845  29.191  26.915  1.00  0.00     0.031 C 
ATOM     50  C   UNL A   1      43.669  31.650  28.943  1.00  0.00     0.029 A 
ATOM     51  C   UNL A   1      44.599  30.753  28.440  1.00  0.00     0.049 A 
ATOM     52  H   UNL A   1      44.341  28.718  27.943  1.00  0.00     0.167 HD
ATOM     53  C   UNL A   1      46.849  30.043  27.663  1.00  0.00     0.074 A 
ATOM     54  C   UNL A   1      48.248  30.284  27.374  1.00  0.00     0.031 C 
ATOM     55  C   UNL A   1      45.990  30.985  28.129  1.00  0.00     0.034 A 
BRANCH  42  56
ATOM     56  C   UNL A   1      40.223  28.924  29.097  1.00  0.00     0.023 A 
ATOM     57  C   UNL A   1      39.858  28.886  30.454  1.00  0.00     0.031 A 
ATOM     58  C   UNL A   1      39.232  29.249  28.156  1.00  0.00     0.131 A 
ATOM     59  C   UNL A   1      38.525  29.110  30.827  1.00  0.00     0.055 A 
ATOM     60  C   UNL A   1      37.922  29.544  28.540  1.00  0.00     0.041 A 
ATOM     61  F   UNL A   1      39.519  29.281  26.845  1.00  0.00    -0.206 F 
ATOM     62  C   UNL A   1      37.559  29.463  29.881  1.00  0.00     0.022 A 
BRANCH  59  63
ATOM     63  S   UNL A   1      38.047  28.827  32.553  1.00  0.00     0.124 S 
ATOM     64  O   UNL A   1      39.027  29.642  33.267  1.00  0.00    -0.237 OA
ATOM     65  O   UNL A   1      36.671  29.307  32.584  1.00  0.00    -0.237 OA
ATOM     66  O   UNL A   1      38.208  27.384  32.720  1.00  0.00    -0.744 OA
ENDBRANCH  59  63
ENDBRANCH  42  56
BRANCH  43  67
ATOM     67  C   UNL A   1      49.454  26.423  26.125  1.00  0.00     0.023 A 
ATOM     68  C   UNL A   1      49.971  26.845  24.892  1.00  0.00     0.031 A 
ATOM     69  C   UNL A   1      50.284  25.663  26.969  1.00  0.00     0.131 A 
ATOM     70  C   UNL A   1      51.282  26.495  24.528  1.00  0.00     0.055 A 
ATOM     71  C   UNL A   1      51.597  25.347  26.619  1.00  0.00     0.041 A 
ATOM     72  F   UNL A   1      49.836  25.247  28.164  1.00  0.00    -0.206 F 
ATOM     73  C   UNL A   1      52.102  25.761  25.390  1.00  0.00     0.022 A 
BRANCH  70  74
ATOM     74  S   UNL A   1      51.902  27.009  22.904  1.00  0.00     0.124 S 
ATOM     75  O   UNL A   1      52.897  25.979  22.626  1.00  0.00    -0.237 OA
ATOM     76  O   UNL A   1      50.693  26.971  22.088  1.00  0.00    -0.237 OA
ATOM     77  O   UNL A   1      52.438  28.345  23.153  1.00  0.00    -0.744 OA
ENDBRANCH  70  74
ENDBRANCH  43  67
BRANCH  55  78
ATOM     78  C   UNL A   1      46.539  32.365  28.376  1.00  0.00     0.023 A 
ATOM     79  C   UNL A   1      46.645  33.310  27.343  1.00  0.00     0.031 A 
ATOM     80  C   UNL A   1      46.913  32.754  29.675  1.00  0.00     0.131 A 
ATOM     81  C   UNL A   1      47.137  34.594  27.621  1.00  0.00     0.055 A 
ATOM     82  C   UNL A   1      47.355  34.047  29.955  1.00  0.00     0.041 A 
ATOM     83  F   UNL A   1      46.829  31.888  30.697  1.00  0.00    -0.206 F 
ATOM     84  C   UNL A   1      47.475  34.974  28.923  1.00  0.00     0.022 A 
BRANCH  81  85
ATOM     85  S   UNL A   1      47.368  35.756  26.248  1.00  0.00     0.124 S 
ATOM     86  O   UNL A   1      47.638  34.855  25.133  1.00  0.00    -0.237 OA
ATOM     87  O   UNL A   1      46.087  36.455  26.208  1.00  0.00    -0.237 OA
ATOM     88  O   UNL A   1      48.504  36.572  26.676  1.00  0.00    -0.744 OA
ENDBRANCH  81  85
ENDBRANCH  55  78
ENDBRANCH  29  30
ENDBRANCH  21  24
ENDBRANCH   1  20
TORSDOF 14
ENDMDL
